data_PCOD9149671
_publ_section_title
;
Structure prediction by ZEFSAII (Michael W. Deem and Ramdas Pophale) SiO2 
 PCOD9149671
Probable space group: P 2/M
;
_chemical_formula_sum "Si O2"
_cell_formula_units_Z 28
_cell_length_a 8.605915
_cell_length_b 13.598488
_cell_length_c 15.001019
_cell_angle_alpha 90.000000
_cell_angle_beta 124.675249
_cell_angle_gamma 90.000000
_cell_volume 1443.730715
_symmetry_space_group_name_H-M "P 2/M"
_symmetry_group_IT_number 10
_symmetry_cell_setting 'monoclinic'
loop_
_space_group_symop_operation_xyz
x,y,z
-x,y,-z
-x,-y,-z
x,-y,z
loop_
_atom_site_type_symbol
_atom_site_label
_atom_site_fract_x
_atom_site_fract_y
_atom_site_fract_z
Si Si1 0.711199 0.801520 0.068687
Si Si2 0.884262 0.241553 0.771195
Si Si3 0.453827 0.616169 0.379960
Si Si4 0.202602 0.261663 0.579969
Si Si5 0.269265 0.111289 0.121486
Si Si6 0.290039 0.106940 0.745293
Si Si7 0.274582 0.884460 0.441633
O O1 0.707896 0.880386 0.147788
O O2 0.893601 0.735227 0.149539
O O3 0.500000 0.755817 0.000000
O O4 0.743810 0.853432 0.984602
O O5 0.743739 0.331685 0.707499
O O6 0.827765 0.187016 0.844009
O O7 0.836688 0.163496 0.677286
O O8 0.500000 0.632751 0.500000
O O9 0.447312 0.500000 0.362266
O O10 0.620767 0.667138 0.377731
O O11 0.201102 0.202721 0.671932
O O12 0.223558 0.175770 0.513081
O O13 0.000000 0.312099 0.500000
O O14 0.492633 0.109270 0.216043
O O15 0.198158 0.000000 0.109770
O O16 0.209641 0.000000 0.694559
O O17 0.500000 0.872822 0.500000
O O18 0.236642 0.000000 0.436980
#
# Coordination Sequence:
#
# PCOD9149671 Si02
#       7
#     4   4   4   4   4   4   4
#     4  10  23  37  55  86 123 163 199 245 286 344
#     4  12  20  38  63  85 114 161 205 243 303 350
#     4  11  24  45  67  89 116 149 201 257 309 366
#     4  12  22  36  59  89 125 157 194 242 301 363
#     4  10  20  35  57  86 121 162 207 246 281 338
#     4  10  20  35  54  83 126 169 198 230 280 346
#     4  11  21  35  56  89 130 165 201 239 285 359
#
# _framework density 19.394197999999999
#
# number of rings (size 3 to 8) (size 9 to 14) (size 15 to 20)
#    0.000    1.143    4.286    2.571    0.000    9.429 
#    0.000    0.000    0.000    2.143    0.000    0.000 
#    0.000    0.000    0.000    0.000    0.000    0.000 
#
# Total GULP energy -156441.129887 kJ/mol
# GULP energy per Si atom -5587.183210 kJ/mol
# Density = 1.935006 g / cm^3
# Si number density = 19.394198 Si / 1000 Ang^3
#
#
#
# Elastic Constant Matrix: (Units=GPa)
#
#
# Indices 1 2 3 4 5 6 
#
# 1 92.6368 39.4802 54.0979 0.0000 15.8901 0.0000
# 2 39.4802 108.6396 42.6885 0.0000 11.2443 0.0000
# 3 54.0979 42.6885 93.0498 0.0000 17.6390 0.0000
# 4 0.0000 0.0000 0.0000 9.4044 0.0000 -4.3593
# 5 15.8901 11.2443 17.6390 0.0000 60.1247 0.0000
# 6 0.0000 0.0000 0.0000 -4.3593 0.0000 0.4307
#
#
#
# Elastic Compliance Matrix: (Units=1/GPa)
#
#
# Indices 1 2 3 4 5 6 
#
# 1 0.017150 -0.002769 -0.008407 0.000000 -0.001548 0.000000
# 2 -0.002769 0.011698 -0.003686 0.000000 -0.000375 0.000000
# 3 -0.008407 -0.003686 0.017762 0.000000 -0.002300 0.000000
# 4 0.000000 0.000000 0.000000 -0.028799 0.000000 -0.291521
# 5 -0.001548 -0.000375 -0.002300 0.000000 0.017786 0.000000
# 6 0.000000 0.000000 0.000000 -0.291521 0.000000 -0.628897
#
#
# Mechanical properties :
#
#
# Convention : Reuss Voigt Hill
#
# Bulk Modulus (GPa) = 59.22031 62.98436 61.10234
# Shear Modulus (GPa) = -8.96141 24.52926 7.78393
#
# Velocity S-wave (km/s) = -2.15190 3.56022 2.00555
# Velocity P-wave (km/s) = 4.94238 7.03183 6.07757
#
# Compressibility (1/GPa) = 0.01688610
#
# Stress axis : x y z
#
# Youngs Moduli (GPa) = 58.30935 85.48433 56.30120
#
# Poissons Ratio (x) = 0.23668 0.47333
# Poissons Ratio (y) = 0.16144 0.20753
# Poissons Ratio (z) = 0.49021 0.31510
#
# Static dielectric constant tensor:
#      x y z
#    x 1.733440 0.000000 0.038340 
#    y 0.000000 1.624050 0.000000 
#    z 0.038340 0.000000 1.726240 
# 
# From -- ./inp_files/61922.got.cif
#   From: 2010.05.17/outbox.cif.g08.bks.cpg/sg10_31_cif.got.tgz:61922.got - 2010.06.03 11:33:40.
