data_PCOD9149881
_publ_section_title
;
Structure prediction by ZEFSAII (Michael W. Deem and Ramdas Pophale) SiO2 
 PCOD9149881
Probable space group: P 2/M
;
_chemical_formula_sum "Si O2"
_cell_formula_units_Z 28
_cell_length_a 18.755055
_cell_length_b 8.494016
_cell_length_c 17.100109
_cell_angle_alpha 90.000000
_cell_angle_beta 154.649494
_cell_angle_gamma 90.000000
_cell_volume 1166.355530
_symmetry_space_group_name_H-M "P 2/M"
_symmetry_group_IT_number 10
_symmetry_cell_setting 'monoclinic'
loop_
_space_group_symop_operation_xyz
x,y,z
-x,y,-z
-x,-y,-z
x,-y,z
loop_
_atom_site_type_symbol
_atom_site_label
_atom_site_fract_x
_atom_site_fract_y
_atom_site_fract_z
Si Si1 0.880386 0.000000 0.265271
Si Si2 0.676414 0.334221 0.217294
Si Si3 0.809369 0.308164 0.953365
Si Si4 0.173684 0.686626 0.356141
Si Si5 0.304605 0.813134 0.323192
Si Si6 0.497958 0.314392 0.244440
Si Si7 0.754937 0.000000 0.307043
Si Si8 0.780915 0.672955 0.149407
O O1 0.864639 0.165591 0.206832
O O2 0.742152 0.000000 0.198888
O O3 0.056110 0.000000 0.480421
O O4 0.709816 0.500000 0.293447
O O5 0.795560 0.329893 0.258165
O O6 0.687481 0.166439 0.268287
O O7 0.500000 0.344179 0.000000
O O8 0.807111 0.500000 0.949060
O O9 0.983549 0.254980 0.164483
O O10 0.795091 0.243752 0.851669
O O11 0.645598 0.252989 0.838993
O O12 0.158932 0.500000 0.355393
O O13 0.247823 0.720506 0.343635
O O14 0.317866 0.751811 0.557155
O O15 0.500000 0.784093 0.500000
O O16 0.281276 0.000000 0.312369
O O17 0.512050 0.500000 0.276469
O O18 0.407333 0.310639 0.070361
O O19 0.839235 0.500000 0.178803
#
# Coordination Sequence:
#
# PCOD9149881 Si02
#       8
#     2   4   4   4   4   4   2   4
#     4   9  18  32  50  78 102 137 178 218 265 323
#     4   9  17  30  51  80 108 141 182 223 274 331
#     4  10  20  35  57  80 102 136 180 223 273 326
#     4  10  20  35  57  80 102 135 180 223 271 328
#     4  11  22  35  52  79 109 141 176 218 278 326
#     4   9  18  35  55  75 105 141 176 222 270 321
#     4   9  17  30  50  74 109 137 168 220 273 318
#     4   9  18  34  54  75 105 144 181 221 273 325
#
# _framework density 24.006404
#
# number of rings (size 3 to 8) (size 9 to 14) (size 15 to 20)
#    0.000    2.429    1.429    1.071    0.000    3.429 
#    2.571    4.286    0.000    5.143    0.000    0.000 
#    0.000    0.000    0.000    0.000    0.000    0.000 
#
# Total GULP energy -156216.700565 kJ/mol
# GULP energy per Si atom -5579.167877 kJ/mol
# Density = 2.395176 g / cm^3
# Si number density = 24.006404 Si / 1000 Ang^3
#
#
#
# Elastic Constant Matrix: (Units=GPa)
#
#
# Indices 1 2 3 4 5 6 
#
# 1 74.6173 6.7713 14.4134 0.0000 -12.9947 0.0000
# 2 6.7713 149.9108 39.1779 0.0000 4.3692 0.0000
# 3 14.4134 39.1779 146.7493 0.0000 -1.4890 0.0000
# 4 0.0000 0.0000 0.0000 29.2136 0.0000 -2.9457
# 5 -12.9947 4.3692 -1.4890 0.0000 23.5355 0.0000
# 6 0.0000 0.0000 0.0000 -2.9457 0.0000 -15.0287
#
#
#
# Elastic Compliance Matrix: (Units=1/GPa)
#
#
# Indices 1 2 3 4 5 6 
#
# 1 0.015160 -0.000605 -0.001242 0.000000 0.008404 0.000000
# 2 -0.000605 0.007245 -0.001893 0.000000 -0.001799 0.000000
# 3 -0.001242 -0.001893 0.007443 0.000000 0.000136 0.000000
# 4 0.000000 0.000000 0.000000 0.033567 0.000000 -0.006579
# 5 0.008404 -0.001799 0.000136 0.000000 0.047472 0.000000
# 6 0.000000 0.000000 0.000000 -0.006579 0.000000 -0.065250
#
#
# Mechanical properties :
#
#
# Convention : Reuss Voigt Hill
#
# Bulk Modulus (GPa) = 44.70723 54.66697 49.68710
# Shear Modulus (GPa) = 82.54351 28.27174 55.40763
#
# Velocity S-wave (km/s) = 5.87014 3.43545 4.80941
# Velocity P-wave (km/s) = 8.03793 6.20948 7.18213
#
# Compressibility (1/GPa) = 0.02236775
#
# Stress axis : x y z
#
# Youngs Moduli (GPa) = 65.96240 138.02378 134.35209
#
# Poissons Ratio (x) = 0.08351 0.16689
# Poissons Ratio (y) = 0.03991 0.25434
# Poissons Ratio (z) = 0.08194 0.26129
#
# Static dielectric constant tensor:
#      x y z
#    x 1.984070 0.000000 0.028220 
#    y 0.000000 1.918100 0.000000 
#    z 0.028220 0.000000 1.917010 
# 
# From -- ./inp_files/86569.got.cif
#   From: 2010.05.17/outbox.cif.g08.bks.cpg/sg10_44_cif.got.tgz:86569.got - 2010.06.03 11:33:40.
