data_PCOD9149807
_publ_section_title
;
Structure prediction by ZEFSAII (Michael W. Deem and Ramdas Pophale) SiO2 
 PCOD9149807
Probable space group: P 2/M
;
_chemical_formula_sum "Si O2"
_cell_formula_units_Z 28
_cell_length_a 9.449381
_cell_length_b 7.625596
_cell_length_c 30.246779
_cell_angle_alpha 90.000000
_cell_angle_beta 37.762376
_cell_angle_gamma 90.000000
_cell_volume 1334.697964
_symmetry_space_group_name_H-M "P 2/M"
_symmetry_group_IT_number 10
_symmetry_cell_setting 'monoclinic'
loop_
_space_group_symop_operation_xyz
x,y,z
-x,y,-z
-x,-y,-z
x,-y,z
loop_
_atom_site_type_symbol
_atom_site_label
_atom_site_fract_x
_atom_site_fract_y
_atom_site_fract_z
Si Si1 0.281275 0.295907 0.146967
Si Si2 0.190179 0.204400 0.987050
Si Si3 0.987454 0.286745 0.872005
Si Si4 0.516936 0.285625 0.729767
Si Si5 0.761326 0.207155 0.437977
Si Si6 0.141937 0.287712 0.276514
Si Si7 0.107228 0.702435 0.429215
O O1 0.211701 0.500000 0.164230
O O2 0.185387 0.220123 0.216521
O O3 0.175180 0.223566 0.127858
O O4 0.557614 0.287284 0.078918
O O5 0.097616 0.222144 0.059586
O O6 0.221767 0.000000 0.968303
O O7 0.000000 0.278005 0.000000
O O8 0.979605 0.500000 0.876174
O O9 0.251334 0.233164 0.797455
O O10 0.522496 0.500000 0.727570
O O11 0.657227 0.230298 0.738967
O O12 0.664157 0.222752 0.650997
O O13 0.500000 0.273139 0.500000
O O14 0.900705 0.235090 0.358187
O O15 0.913136 0.293375 0.439020
O O16 0.754843 0.000000 0.449314
O O17 0.150760 0.500000 0.273533
O O18 0.164298 0.500000 0.425989
O O19 0.000000 0.783715 0.500000
#
# Coordination Sequence:
#
# PCOD9149807 Si02
#       7
#     4   4   4   4   4   4   4
#     4  10  21  36  57  85 110 135 171 216 267 318
#     4  11  24  39  55  77 106 142 182 218 256 308
#     4  10  20  35  56  81 109 138 171 215 266 318
#     4   8  15  30  51  75 103 135 171 213 261 311
#     4  10  21  35  51  75 109 146 181 217 261 315
#     4   9  18  34  55  77 103 138 180 221 261 309
#     4   9  18  33  55  81 106 136 178 225 270 315
#
# _framework density 20.978529999999999
#
# number of rings (size 3 to 8) (size 9 to 14) (size 15 to 20)
#    0.000    2.429    0.000    3.000    0.000    7.714 
#    0.000    7.143    0.000    0.000    0.000    0.000 
#    0.000    0.000    0.000    0.000    0.000    0.000 
#
# Total GULP energy -156319.093312 kJ/mol
# GULP energy per Si atom -5582.824761 kJ/mol
# Density = 2.093078 g / cm^3
# Si number density = 20.978530 Si / 1000 Ang^3
#
#
#
# Elastic Constant Matrix: (Units=GPa)
#
#
# Indices 1 2 3 4 5 6 
#
# 1 114.6381 -10.7584 79.3569 0.0000 7.0487 0.0000
# 2 -10.7584 41.9206 -20.0342 0.0000 3.6161 0.0000
# 3 79.3569 -20.0342 152.3723 0.0000 14.6342 0.0000
# 4 0.0000 0.0000 0.0000 33.8397 0.0000 8.6170
# 5 7.0487 3.6161 14.6342 0.0000 40.9986 0.0000
# 6 0.0000 0.0000 0.0000 8.6170 0.0000 -10.7249
#
#
#
# Elastic Compliance Matrix: (Units=1/GPa)
#
#
# Indices 1 2 3 4 5 6 
#
# 1 0.013643 0.000086 -0.007112 0.000000 0.000185 0.000000
# 2 0.000086 0.025967 0.003718 0.000000 -0.003632 0.000000
# 3 -0.007112 0.003718 0.011048 0.000000 -0.003049 0.000000
# 4 0.000000 0.000000 0.000000 0.024532 0.000000 0.019710
# 5 0.000185 -0.003632 -0.003049 0.000000 0.025768 0.000000
# 6 0.000000 0.000000 0.000000 0.019710 0.000000 -0.077405
#
#
# Mechanical properties :
#
#
# Convention : Reuss Voigt Hill
#
# Bulk Modulus (GPa) = 22.70467 45.11774 33.91120
# Shear Modulus (GPa) = 111.48471 30.18047 70.83259
#
# Velocity S-wave (km/s) = 7.29778 3.79705 5.81701
# Velocity P-wave (km/s) = 9.04746 6.38567 7.83049
#
# Compressibility (1/GPa) = 0.04404380
#
# Stress axis : x y z
#
# Youngs Moduli (GPa) = 73.29842 38.51039 90.51067
#
# Poissons Ratio (x) = -0.00333 0.64369
# Poissons Ratio (y) = -0.00634 -0.33652
# Poissons Ratio (z) = 0.52128 -0.14318
#
# Static dielectric constant tensor:
#      x y z
#    x 1.729690 0.000000 0.012380 
#    y 0.000000 1.789870 0.000000 
#    z 0.012380 0.000000 1.733080 
# 
# From -- ./inp_files/91934.got.cif
#   From: 2010.05.17/outbox.cif.g08.bks.cpg/sg10_46_cif.got.tgz:91934.got - 2010.06.03 11:33:40.
