data_PCOD9149681
_publ_section_title
;
Structure prediction by ZEFSAII (Michael W. Deem and Ramdas Pophale) SiO2 
 PCOD9149681
Probable space group: P 2/M
;
_chemical_formula_sum "Si O2"
_cell_formula_units_Z 32
_cell_length_a 28.350034
_cell_length_b 7.484117
_cell_length_c 22.169044
_cell_angle_alpha 90.000000
_cell_angle_beta 18.715233
_cell_angle_gamma 90.000000
_cell_volume 1509.257031
_symmetry_space_group_name_H-M "P 2/M"
_symmetry_group_IT_number 10
_symmetry_cell_setting 'monoclinic'
loop_
_space_group_symop_operation_xyz
x,y,z
-x,y,-z
-x,-y,-z
x,-y,z
loop_
_atom_site_type_symbol
_atom_site_label
_atom_site_fract_x
_atom_site_fract_y
_atom_site_fract_z
Si Si1 0.882184 0.717388 0.042250
Si Si2 0.804527 0.218207 0.485042
Si Si3 0.361403 0.704264 0.570556
Si Si4 0.313974 0.287470 0.830751
Si Si5 0.780431 0.793880 0.379237
Si Si6 0.343362 0.217747 0.214006
Si Si7 0.041172 0.781715 0.516889
Si Si8 0.897023 0.785959 0.812557
O O1 0.893451 0.500000 0.030177
O O2 0.771952 0.779799 0.228391
O O3 0.805907 0.776920 0.072289
O O4 0.047542 0.784708 0.846231
O O5 0.768800 0.280407 0.461154
O O6 0.692818 0.270114 0.673393
O O7 0.965604 0.277600 0.312770
O O8 0.808077 0.000000 0.478478
O O9 0.374722 0.500000 0.576407
O O10 0.523568 0.786119 0.378705
O O11 0.312793 0.703592 0.560077
O O12 0.322269 0.500000 0.812262
O O13 0.252642 0.258294 0.972086
O O14 0.733505 0.000000 0.437143
O O15 0.203909 0.271721 0.342096
O O16 0.344799 0.000000 0.211520
O O17 0.500000 0.279770 0.000000
O O18 0.000000 0.720356 0.500000
O O19 0.928744 0.724566 0.706015
O O20 0.040054 0.000000 0.517160
O O21 0.906890 0.000000 0.799084
#
# Coordination Sequence:
#
# PCOD9149681 Si02
#       8
#     4   4   4   4   4   4   4   4
#     4  10  20  36  58  76  93 128 174 212 250 298
#     4   8  15  28  45  67  98 132 160 195 242 290
#     4  10  22  38  52  72 103 132 164 212 258 296
#     4  10  20  35  55  76  98 128 171 213 252 298
#     4  11  21  34  52  76 107 135 164 203 252 304
#     4   8  13  23  40  61  90 126 160 192 231 279
#     4   8  14  25  42  67  96 126 160 197 238 286
#     4   9  16  30  51  72 101 134 162 201 251 295
#
# _framework density 21.202483999999998
#
# number of rings (size 3 to 8) (size 9 to 14) (size 15 to 20)
#    0.000    2.750    1.250    2.625    0.000    4.000 
#    2.250    0.000    0.000    2.625    0.000    0.000 
#    0.000    4.500    0.000    0.000    0.000    0.000 
#
# Total GULP energy -178579.269132 kJ/mol
# GULP energy per Si atom -5580.602160 kJ/mol
# Density = 2.115423 g / cm^3
# Si number density = 21.202484 Si / 1000 Ang^3
#
#
#
# Elastic Constant Matrix: (Units=GPa)
#
#
# Indices 1 2 3 4 5 6 
#
# 1 72.7075 -4.1809 8.6687 0.0000 21.7083 0.0000
# 2 -4.1809 58.3074 -7.4432 0.0000 0.5776 0.0000
# 3 8.6687 -7.4432 83.2325 0.0000 16.5517 0.0000
# 4 0.0000 0.0000 0.0000 66.6544 0.0000 -12.6778
# 5 21.7083 0.5776 16.5517 0.0000 31.7389 0.0000
# 6 0.0000 0.0000 0.0000 -12.6778 0.0000 18.1023
#
#
#
# Elastic Compliance Matrix: (Units=1/GPa)
#
#
# Indices 1 2 3 4 5 6 
#
# 1 0.017435 0.001471 0.000773 0.000000 -0.012355 0.000000
# 2 0.001471 0.017518 0.001871 0.000000 -0.002301 0.000000
# 3 0.000773 0.001871 0.013626 0.000000 -0.007669 0.000000
# 4 0.000000 0.000000 0.000000 0.017308 0.000000 0.012122
# 5 -0.012355 -0.002301 -0.007669 0.000000 0.043998 0.000000
# 6 0.000000 0.000000 0.000000 0.012122 0.000000 0.063731
#
#
# Mechanical properties :
#
#
# Convention : Reuss Voigt Hill
#
# Bulk Modulus (GPa) = 17.60317 23.14852 20.37584
# Shear Modulus (GPa) = 27.12627 37.77930 32.45278
#
# Velocity S-wave (km/s) = 3.58074 4.22576 3.91655
# Velocity P-wave (km/s) = 5.04143 5.89499 5.48484
#
# Compressibility (1/GPa) = 0.05680794
#
# Stress axis : x y z
#
# Youngs Moduli (GPa) = 57.35622 57.08547 73.38718
#
# Poissons Ratio (x) = -0.08398 -0.05669
# Poissons Ratio (y) = -0.08438 -0.13729
# Poissons Ratio (z) = -0.04431 -0.10680
#
# Static dielectric constant tensor:
#      x y z
#    x 1.749420 0.000000 0.023610 
#    y 0.000000 1.816060 0.000000 
#    z 0.023610 0.000000 1.749950 
# 
# From -- ./inp_files/86774.got.cif
#   From: 2010.05.17/outbox.cif.g08.bks.cpg/sg10_44_cif.got.tgz:86774.got - 2010.06.03 11:33:40.
