data_PCOD9149646
_publ_section_title
;
Structure prediction by ZEFSAII (Michael W. Deem and Ramdas Pophale) SiO2 
 PCOD9149646
Probable space group: P 2/M
;
_chemical_formula_sum "Si O2"
_cell_formula_units_Z 28
_cell_length_a 19.732686
_cell_length_b 8.225066
_cell_length_c 25.185772
_cell_angle_alpha 90.000000
_cell_angle_beta 158.774075
_cell_angle_gamma 90.000000
_cell_volume 1479.943321
_symmetry_space_group_name_H-M "P 2/M"
_symmetry_group_IT_number 10
_symmetry_cell_setting 'monoclinic'
loop_
_space_group_symop_operation_xyz
x,y,z
-x,y,-z
-x,-y,-z
x,-y,z
loop_
_atom_site_type_symbol
_atom_site_label
_atom_site_fract_x
_atom_site_fract_y
_atom_site_fract_z
Si Si1 0.914340 0.691332 0.271736
Si Si2 0.671717 0.309125 0.587830
Si Si3 0.854884 0.304787 0.348918
Si Si4 0.466982 0.807057 0.036536
Si Si5 0.083423 0.803019 0.143586
Si Si6 0.301213 0.189752 0.509726
Si Si7 0.709695 0.197658 0.812655
O O1 0.876938 0.500000 0.246507
O O2 0.903679 0.756266 0.324830
O O3 0.119684 0.722185 0.399173
O O4 0.751384 0.766329 0.115658
O O5 0.500000 0.255165 0.500000
O O6 0.647504 0.500000 0.557907
O O7 0.852527 0.279426 0.755940
O O8 0.686116 0.210406 0.544410
O O9 0.871920 0.500000 0.360772
O O10 0.634286 0.263540 0.194526
O O11 0.000000 0.244185 0.500000
O O12 0.489777 0.000000 0.053739
O O13 0.500000 0.745311 0.000000
O O14 0.221419 0.752856 0.195902
O O15 0.093606 0.000000 0.155631
O O16 0.875282 0.757585 0.973333
O O17 0.503064 0.254963 0.676286
O O18 0.284690 0.000000 0.511443
O O19 0.703545 0.000000 0.806739
#
# Coordination Sequence:
#
# PCOD9149646 Si02
#       7
#     4   4   4   4   4   4   4
#     4  10  20  35  54  78 109 142 176 216 264 318
#     4  11  22  34  49  75 106 135 173 221 267 314
#     4   9  18  34  57  83 110 144 181 214 259 316
#     4   9  17  31  53  80 108 139 178 218 255 302
#     4   9  16  32  54  74  96 128 174 220 266 317
#     4  11  21  35  55  77 103 138 178 220 270 320
#     4   8  16  30  52  76  97 128 172 219 264 316
#
# _framework density 18.919642
#
# number of rings (size 3 to 8) (size 9 to 14) (size 15 to 20)
#    0.000    2.429    1.429    2.571    0.000    3.143 
#    0.000    4.286    0.000    3.429    0.000    0.000 
#    0.000    0.000    0.000    0.000    0.000    0.000 
#
# Total GULP energy -156077.550935 kJ/mol
# GULP energy per Si atom -5574.198248 kJ/mol
# Density = 1.887658 g / cm^3
# Si number density = 18.919642 Si / 1000 Ang^3
#
#
#
# Elastic Constant Matrix: (Units=GPa)
#
#
# Indices 1 2 3 4 5 6 
#
# 1 35.6208 1.0741 36.6344 0.0000 6.1866 0.0000
# 2 1.0741 15.0466 3.1968 0.0000 -1.3758 0.0000
# 3 36.6344 3.1968 157.1007 0.0000 3.1359 0.0000
# 4 0.0000 0.0000 0.0000 19.3858 0.0000 19.5562
# 5 6.1866 -1.3758 3.1359 0.0000 29.6670 0.0000
# 6 0.0000 0.0000 0.0000 19.5562 0.0000 -48.0741
#
#
#
# Elastic Compliance Matrix: (Units=1/GPa)
#
#
# Indices 1 2 3 4 5 6 
#
# 1 0.038389 -0.001529 -0.008778 0.000000 -0.007148 0.000000
# 2 -0.001529 0.067123 -0.001080 0.000000 0.003546 0.000000
# 3 -0.008778 -0.001080 0.008417 0.000000 0.000891 0.000000
# 4 0.000000 0.000000 0.000000 0.036575 0.000000 0.014878
# 5 -0.007148 0.003546 0.000891 0.000000 0.035268 0.000000
# 6 0.000000 0.000000 0.000000 0.014878 0.000000 -0.014749
#
#
# Mechanical properties :
#
#
# Convention : Reuss Voigt Hill
#
# Bulk Modulus (GPa) = 10.97043 32.17543 21.57293
# Shear Modulus (GPa) = 22.30327 11.31994 16.81160
#
# Velocity S-wave (km/s) = 3.43715 2.44871 2.98414
# Velocity P-wave (km/s) = 4.64360 5.00381 4.82707
#
# Compressibility (1/GPa) = 0.09115410
#
# Stress axis : x y z
#
# Youngs Moduli (GPa) = 26.04912 14.89800 118.81387
#
# Poissons Ratio (x) = 0.02278 1.04297
# Poissons Ratio (y) = 0.03983 0.12833
# Poissons Ratio (z) = 0.22866 0.01609
#
# Static dielectric constant tensor:
#      x y z
#    x 1.646240 0.000000 0.005650 
#    y 0.000000 1.657370 0.000000 
#    z 0.005650 0.000000 1.705410 
# 
# From -- ./inp_files/93550.got.cif
#   From: 2010.05.17/outbox.cif.g08.bks.cpg/sg10_47_cif.got.tgz:93550.got - 2010.06.03 11:33:40.
