data_PCOD9149146
_publ_section_title
;
Structure prediction by ZEFSAII (Michael W. Deem and Ramdas Pophale) SiO2 
 PCOD9149146
Probable space group: P 2/M
;
_chemical_formula_sum "Si O2"
_cell_formula_units_Z 32
_cell_length_a 13.638599
_cell_length_b 13.851199
_cell_length_c 18.606129
_cell_angle_alpha 90.000000
_cell_angle_beta 157.739854
_cell_angle_gamma 90.000000
_cell_volume 1331.488643
_symmetry_space_group_name_H-M "P 2/M"
_symmetry_group_IT_number 10
_symmetry_cell_setting 'monoclinic'
loop_
_space_group_symop_operation_xyz
x,y,z
-x,y,-z
-x,-y,-z
x,-y,z
loop_
_atom_site_type_symbol
_atom_site_label
_atom_site_fract_x
_atom_site_fract_y
_atom_site_fract_z
Si Si1 0.935938 0.385769 0.686341
Si Si2 0.673346 0.884384 0.202993
Si Si3 0.420297 0.617240 0.263101
Si Si4 0.067396 0.385146 0.153444
Si Si5 0.015731 0.115239 0.096237
Si Si6 0.757434 0.883116 0.423291
Si Si7 0.413293 0.884863 0.544748
Si Si8 0.852946 0.199707 0.131889
O O1 0.000593 0.500000 0.722381
O O2 0.719595 0.357117 0.480744
O O3 0.830717 0.371999 0.696967
O O4 0.165988 0.309061 0.850558
O O5 0.696224 0.850209 0.301954
O O6 0.949800 0.850960 0.359457
O O7 0.679434 0.000000 0.203143
O O8 0.380220 0.855572 0.987514
O O9 0.430418 0.500000 0.272326
O O10 0.258081 0.654260 0.222061
O O11 0.231881 0.641026 0.068490
O O12 0.071188 0.500000 0.145314
O O13 0.322387 0.133348 0.317502
O O14 0.858456 0.173658 0.049848
O O15 0.961049 0.000000 0.069158
O O16 0.000000 0.134216 0.000000
O O17 0.556419 0.860473 0.349585
O O18 0.761362 0.000000 0.421556
O O19 0.143972 0.835080 0.345155
O O20 0.369685 0.000000 0.509736
#
# Coordination Sequence:
#
# PCOD9149146 Si02
#       8
#     4   4   4   4   4   4   4   4
#     4  10  21  36  49  68 105 146 187 238 288 332
#     4   9  17  33  58  86 115 143 177 222 276 338
#     4   8  14  27  47  66  87 121 170 227 281 328
#     4   8  14  27  47  67  84 120 175 226 280 329
#     4  10  21  38  56  74 109 158 193 219 260 327
#     4   8  16  33  58  86 114 144 174 218 282 339
#     4  10  20  34  53  80 113 144 181 226 269 328
#     4  12  23  34  51  81 111 147 190 229 279 332
#
# _framework density 24.033251
#
# number of rings (size 3 to 8) (size 9 to 14) (size 15 to 20)
#    0.000    2.625    0.000    4.125    0.000    7.000 
#    6.750    1.875    0.000    0.000    0.000    3.500 
#    0.000    0.000    0.000    0.000    0.000    0.000 
#
# Total GULP energy -178418.235037 kJ/mol
# GULP energy per Si atom -5575.569845 kJ/mol
# Density = 2.397855 g / cm^3
# Si number density = 24.033251 Si / 1000 Ang^3
#
#
#
# Elastic Constant Matrix: (Units=GPa)
#
#
# Indices 1 2 3 4 5 6 
#
# 1 62.2925 10.7401 14.1595 0.0000 17.1716 0.0000
# 2 10.7401 106.0731 15.2235 0.0000 12.0096 0.0000
# 3 14.1595 15.2235 90.7373 0.0000 2.2136 0.0000
# 4 0.0000 0.0000 0.0000 4.4382 0.0000 -15.9498
# 5 17.1716 12.0096 2.2136 0.0000 41.1017 0.0000
# 6 0.0000 0.0000 0.0000 -15.9498 0.0000 6.8223
#
#
#
# Elastic Compliance Matrix: (Units=1/GPa)
#
#
# Indices 1 2 3 4 5 6 
#
# 1 0.018848 -0.000676 -0.002644 0.000000 -0.007534 0.000000
# 2 -0.000676 0.010002 -0.001510 0.000000 -0.002559 0.000000
# 3 -0.002644 -0.001510 0.011664 0.000000 0.000918 0.000000
# 4 0.000000 0.000000 0.000000 -0.030441 0.000000 -0.071167
# 5 -0.007534 -0.002559 0.000918 0.000000 0.028176 0.000000
# 6 0.000000 0.000000 0.000000 -0.071167 0.000000 -0.019803
#
#
# Mechanical properties :
#
#
# Convention : Reuss Voigt Hill
#
# Bulk Modulus (GPa) = 32.41037 37.70546 35.05791
# Shear Modulus (GPa) = 130.23616 25.07109 77.65362
#
# Velocity S-wave (km/s) = 7.36937 3.23334 5.69044
# Velocity P-wave (km/s) = 9.26958 5.44631 7.60221
#
# Compressibility (1/GPa) = 0.03085432
#
# Stress axis : x y z
#
# Youngs Moduli (GPa) = 53.05671 99.97638 85.73079
#
# Poissons Ratio (x) = 0.06757 0.22667
# Poissons Ratio (y) = 0.03586 0.12948
# Poissons Ratio (z) = 0.14028 0.15099
#
# Static dielectric constant tensor:
#      x y z
#    x 1.970840 0.000000 -0.102460 
#    y 0.000000 1.972540 0.000000 
#    z -0.102460 0.000000 2.029750 
# 
# From -- ./inp_files/85430.got.cif
#   From: 2010.05.17/outbox.cif.g08.bks.cpg/sg10_43_cif.got.tgz:85430.got - 2010.06.03 11:33:40.
