data_PCOD9149966
_publ_section_title
;
Structure prediction by ZEFSAII (Michael W. Deem and Ramdas Pophale) SiO2 
 PCOD9149966
Probable space group: P 2/M
;
_chemical_formula_sum "Si O2"
_cell_formula_units_Z 28
_cell_length_a 14.859925
_cell_length_b 8.618258
_cell_length_c 13.273068
_cell_angle_alpha 90.000000
_cell_angle_beta 56.030463
_cell_angle_gamma 90.000000
_cell_volume 1409.734408
_symmetry_space_group_name_H-M "P 2/M"
_symmetry_group_IT_number 10
_symmetry_cell_setting 'monoclinic'
loop_
_space_group_symop_operation_xyz
x,y,z
-x,y,-z
-x,-y,-z
x,-y,z
loop_
_atom_site_type_symbol
_atom_site_label
_atom_site_fract_x
_atom_site_fract_y
_atom_site_fract_z
Si Si1 0.819482 0.315625 0.782124
Si Si2 0.387774 0.684104 0.777475
Si Si3 0.399382 0.815612 0.992709
Si Si4 0.627211 0.313969 0.561957
Si Si5 0.760115 0.183742 0.290914
Si Si6 0.948866 0.314389 0.291510
Si Si7 0.180787 0.815519 0.435992
O O1 0.799683 0.500000 0.799506
O O2 0.712826 0.225274 0.882343
O O3 0.846994 0.268082 0.650622
O O4 0.923789 0.278597 0.785710
O O5 0.371969 0.500000 0.777165
O O6 0.501135 0.725821 0.651794
O O7 0.288562 0.770139 0.785878
O O8 0.400327 0.729690 0.885520
O O9 0.407577 0.000000 0.970750
O O10 0.500000 0.767323 0.000000
O O11 0.638505 0.500000 0.563407
O O12 0.679921 0.259202 0.424472
O O13 0.698305 0.233695 0.604725
O O14 0.878698 0.249963 0.242904
O O15 0.760611 0.000000 0.304719
O O16 0.935708 0.500000 0.305223
O O17 0.895367 0.240905 0.425192
O O18 0.173226 0.000000 0.429347
#
# Coordination Sequence:
#
# PCOD9149966 Si02
#       7
#     4   4   4   4   4   4   4
#     4  11  23  39  60  84 113 153 195 236 284 338
#     4  11  23  39  60  84 114 154 196 236 281 337
#     4  11  25  43  63  88 117 148 186 235 286 336
#     4  10  20  35  57  85 118 155 193 234 283 341
#     4  11  22  36  58  87 119 152 188 236 289 339
#     4  10  21  38  59  84 116 152 192 236 283 340
#     4  11  21  33  55  87 121 154 189 235 288 340
#
# _framework density 19.861896999999999
#
# number of rings (size 3 to 8) (size 9 to 14) (size 15 to 20)
#    0.000    1.286    0.000    8.143    0.000   11.429 
#    0.000    0.714    0.000    4.286    0.000    0.000 
#    0.000    0.000    0.000    0.000    0.000    0.000 
#
# Total GULP energy -156611.272269 kJ/mol
# GULP energy per Si atom -5593.259724 kJ/mol
# Density = 1.981669 g / cm^3
# Si number density = 19.861897 Si / 1000 Ang^3
#
#
#
# Elastic Constant Matrix: (Units=GPa)
#
#
# Indices 1 2 3 4 5 6 
#
# 1 134.8377 15.3285 25.3409 0.0000 -3.9023 0.0000
# 2 15.3285 40.8828 -0.9307 0.0000 -8.5442 0.0000
# 3 25.3409 -0.9307 21.2647 0.0000 -1.3619 0.0000
# 4 0.0000 0.0000 0.0000 -4.0717 0.0000 42.2272
# 5 -3.9023 -8.5442 -1.3619 0.0000 29.0246 0.0000
# 6 0.0000 0.0000 0.0000 42.2272 0.0000 -10.9206
#
#
#
# Elastic Compliance Matrix: (Units=1/GPa)
#
#
# Indices 1 2 3 4 5 6 
#
# 1 0.010207 -0.004202 -0.012376 0.000000 -0.000445 0.000000
# 2 -0.004202 0.027850 0.006735 0.000000 0.007950 0.000000
# 3 -0.012376 0.006735 0.062277 0.000000 0.003241 0.000000
# 4 0.000000 0.000000 0.000000 0.006281 0.000000 0.024287
# 5 -0.000445 0.007950 0.003241 0.000000 0.036886 0.000000
# 6 0.000000 0.000000 0.000000 0.024287 0.000000 0.002342
#
#
# Mechanical properties :
#
#
# Convention : Reuss Voigt Hill
#
# Bulk Modulus (GPa) = 12.39936 30.71808 21.55872
# Shear Modulus (GPa) = 25.98602 13.28955 19.63779
#
# Velocity S-wave (km/s) = 3.62102 2.58950 3.14780
# Velocity P-wave (km/s) = 4.87224 4.94369 4.90809
#
# Compressibility (1/GPa) = 0.08064930
#
# Stress axis : x y z
#
# Youngs Moduli (GPa) = 97.97200 35.90619 16.05732
#
# Poissons Ratio (x) = 0.15087 0.19873
# Poissons Ratio (y) = 0.41166 -0.10815
# Poissons Ratio (z) = 1.21250 -0.24184
#
# Static dielectric constant tensor:
#      x y z
#    x 1.717160 0.000000 0.000130 
#    y 0.000000 1.658180 0.000000 
#    z 0.000130 0.000000 1.680620 
# 
# From -- ./inp_files/65931.got.cif
#   From: 2010.05.17/outbox.cif.g08.bks.cpg/sg10_33_cif.got.tgz:65931.got - 2010.06.03 11:33:40.
