data_PCOD9149409
_publ_section_title
;
Structure prediction by ZEFSAII (Michael W. Deem and Ramdas Pophale) SiO2 
 PCOD9149409
Probable space group: P 2/M
;
_chemical_formula_sum "Si O2"
_cell_formula_units_Z 28
_cell_length_a 15.718777
_cell_length_b 7.378118
_cell_length_c 21.331751
_cell_angle_alpha 90.000000
_cell_angle_beta 151.937098
_cell_angle_gamma 90.000000
_cell_volume 1163.846406
_symmetry_space_group_name_H-M "P 2/M"
_symmetry_group_IT_number 10
_symmetry_cell_setting 'monoclinic'
loop_
_space_group_symop_operation_xyz
x,y,z
-x,y,-z
-x,-y,-z
x,-y,z
loop_
_atom_site_type_symbol
_atom_site_label
_atom_site_fract_x
_atom_site_fract_y
_atom_site_fract_z
Si Si1 0.328735 0.702967 0.925868
Si Si2 0.692010 0.778310 0.592547
Si Si3 0.444011 0.220579 0.627683
Si Si4 0.861756 0.781610 0.319827
Si Si5 0.815192 0.779059 0.910956
Si Si6 0.091933 0.212813 0.892361
Si Si7 0.258113 0.780736 0.630360
O O1 0.387365 0.500000 0.979895
O O2 0.179406 0.702992 0.774042
O O3 0.229850 0.774075 0.923511
O O4 0.500000 0.791129 0.000000
O O5 0.500000 0.725101 0.500000
O O6 0.673185 0.721660 0.507526
O O7 0.887758 0.716235 0.745886
O O8 0.693896 0.000000 0.596440
O O9 0.651679 0.275554 0.759643
O O10 0.387493 0.283098 0.660010
O O11 0.430742 0.000000 0.619136
O O12 0.727147 0.721073 0.288149
O O13 0.059449 0.738249 0.474443
O O14 0.852674 0.000000 0.307958
O O15 0.806397 0.000000 0.905990
O O16 0.818062 0.717046 0.985013
O O17 0.000000 0.723174 0.000000
O O18 0.063587 0.000000 0.884752
O O19 0.271573 0.000000 0.642156
#
# Coordination Sequence:
#
# PCOD9149409 Si02
#       7
#     4   4   4   4   4   4   4
#     4  11  25  40  52  71 106 149 188 230 280 323
#     4   9  16  27  47  78 113 141 166 207 268 327
#     4   9  15  23  39  64 100 137 163 195 252 310
#     4   9  17  32  54  77 102 129 169 219 267 321
#     4   9  17  28  44  74 112 138 164 211 265 315
#     4  10  20  34  56  83 108 141 184 224 266 326
#     4   8  15  27  47  77 105 128 159 213 269 313
#
# _framework density 24.058157000000001
#
# number of rings (size 3 to 8) (size 9 to 14) (size 15 to 20)
#    0.000    2.714    0.000    3.000    2.000    6.857 
#    0.000    1.429    0.000    0.857    0.000    0.000 
#    0.000    0.000    0.000    0.000    0.000    0.000 
#
# Total GULP energy -156223.102347 kJ/mol
# GULP energy per Si atom -5579.396512 kJ/mol
# Density = 2.400340 g / cm^3
# Si number density = 24.058157 Si / 1000 Ang^3
#
#
#
# Elastic Constant Matrix: (Units=GPa)
#
#
# Indices 1 2 3 4 5 6 
#
# 1 78.2131 -7.6062 2.6576 0.0000 -11.4447 0.0000
# 2 -7.6062 75.9851 6.2565 0.0000 -0.5704 0.0000
# 3 2.6576 6.2565 69.9079 0.0000 -7.3123 0.0000
# 4 0.0000 0.0000 0.0000 -1.0646 0.0000 8.2510
# 5 -11.4447 -0.5704 -7.3123 0.0000 41.7414 0.0000
# 6 0.0000 0.0000 0.0000 8.2510 0.0000 11.1411
#
#
#
# Elastic Compliance Matrix: (Units=1/GPa)
#
#
# Indices 1 2 3 4 5 6 
#
# 1 0.013467 0.001396 -0.000253 0.000000 0.003667 0.000000
# 2 0.001396 0.013403 -0.001216 0.000000 0.000353 0.000000
# 3 -0.000253 -0.001216 0.014683 0.000000 0.002486 0.000000
# 4 0.000000 0.000000 0.000000 -0.139369 0.000000 0.103215
# 5 0.003667 0.000353 0.002486 0.000000 0.025403 0.000000
# 6 0.000000 0.000000 0.000000 0.103215 0.000000 0.013318
#
#
# Mechanical properties :
#
#
# Convention : Reuss Voigt Hill
#
# Bulk Modulus (GPa) = 24.15029 25.19131 24.67080
# Shear Modulus (GPa) = -110.74615 25.21679 -42.76468
#
# Velocity S-wave (km/s) = -6.79210 3.24104 -4.22068
# Velocity P-wave (km/s) = 7.17287 4.94970 3.67087
#
# Compressibility (1/GPa) = 0.04140736
#
# Stress axis : x y z
#
# Youngs Moduli (GPa) = 74.25799 74.61016 68.10588
#
# Poissons Ratio (x) = -0.10419 0.01725
# Poissons Ratio (y) = -0.10369 0.08279
# Poissons Ratio (z) = 0.01881 0.09070
#
# Static dielectric constant tensor:
#      x y z
#    x 1.937280 0.000000 0.052400 
#    y 0.000000 1.969370 0.000000 
#    z 0.052400 0.000000 1.905170 
# 
# From -- ./inp_files/84977.got.cif
#   From: 2010.05.17/outbox.cif.g08.bks.cpg/sg10_43_cif.got.tgz:84977.got - 2010.06.03 11:33:40.
