data_PCOD9149748
_publ_section_title
;
Structure prediction by ZEFSAII (Michael W. Deem and Ramdas Pophale) SiO2 
 PCOD9149748
Probable space group: P 2/M
;
_chemical_formula_sum "Si O2"
_cell_formula_units_Z 32
_cell_length_a 16.674933
_cell_length_b 8.042416
_cell_length_c 25.304722
_cell_angle_alpha 90.000000
_cell_angle_beta 26.577680
_cell_angle_gamma 90.000000
_cell_volume 1518.303511
_symmetry_space_group_name_H-M "P 2/M"
_symmetry_group_IT_number 10
_symmetry_cell_setting 'monoclinic'
loop_
_space_group_symop_operation_xyz
x,y,z
-x,y,-z
-x,-y,-z
x,-y,z
loop_
_atom_site_type_symbol
_atom_site_label
_atom_site_fract_x
_atom_site_fract_y
_atom_site_fract_z
Si Si1 0.350425 0.700612 0.748197
Si Si2 0.546447 0.799718 0.826055
Si Si3 0.046478 0.300270 0.413953
Si Si4 0.258571 0.800806 0.916648
Si Si5 0.087146 0.697743 0.812790
Si Si6 0.052581 0.196426 0.713296
Si Si7 0.246462 0.302504 0.496830
Si Si8 0.349717 0.797034 0.047451
O O1 0.354990 0.500000 0.742513
O O2 0.249297 0.746764 0.861620
O O3 0.243694 0.760039 0.759539
O O4 0.554196 0.765429 0.630250
O O5 0.746357 0.739224 0.718363
O O6 0.449125 0.744447 0.829561
O O7 0.553594 0.000000 0.821703
O O8 0.415882 0.747622 0.950549
O O9 0.029871 0.500000 0.424542
O O10 0.000000 0.236610 0.500000
O O11 0.907021 0.235132 0.452278
O O12 0.251599 0.000000 0.923500
O O13 0.098172 0.734439 0.047450
O O14 0.104514 0.500000 0.796191
O O15 0.092186 0.774269 0.751552
O O16 0.186224 0.275735 0.592560
O O17 0.850188 0.261623 0.822723
O O18 0.053752 0.000000 0.702502
O O19 0.256132 0.500000 0.481635
O O20 0.344828 0.000000 0.051438
O O21 0.500000 0.741980 0.000000
#
# Coordination Sequence:
#
# PCOD9149748 Si02
#       8
#     4   4   4   4   4   4   4   4
#     4  10  23  42  63  86 116 160 205 247 299 361
#     4  10  20  35  55  83 117 152 191 233 290 354
#     4  10  21  37  58  85 118 157 199 246 295 343
#     4  11  22  38  61  91 125 156 194 250 306 357
#     4  11  23  40  63  89 119 157 201 247 302 362
#     4  11  22  39  62  87 121 158 198 248 301 356
#     4  10  22  41  61  85 121 160 204 251 298 354
#     4   9  17  32  54  79 110 148 186 229 283 343
#
# _framework density 21.076155
#
# number of rings (size 3 to 8) (size 9 to 14) (size 15 to 20)
#    0.000    1.750    1.250    3.000    0.000    7.250 
#    0.000    2.500    0.000    2.625    0.000    0.000 
#    0.000    0.000    0.000    0.000    0.000    0.000 
#
# Total GULP energy -178818.707765 kJ/mol
# GULP energy per Si atom -5588.084618 kJ/mol
# Density = 2.102818 g / cm^3
# Si number density = 21.076155 Si / 1000 Ang^3
#
#
#
# Elastic Constant Matrix: (Units=GPa)
#
#
# Indices 1 2 3 4 5 6 
#
# 1 98.6845 0.6175 14.3959 0.0000 -6.9728 0.0000
# 2 0.6175 12.5872 -2.0543 0.0000 -9.3572 0.0000
# 3 14.3959 -2.0543 80.3576 0.0000 -0.6582 0.0000
# 4 0.0000 0.0000 0.0000 40.5410 0.0000 8.5745
# 5 -6.9728 -9.3572 -0.6582 0.0000 35.4910 0.0000
# 6 0.0000 0.0000 0.0000 8.5745 0.0000 25.2502
#
#
#
# Elastic Compliance Matrix: (Units=1/GPa)
#
#
# Indices 1 2 3 4 5 6 
#
# 1 0.010558 0.000866 -0.001851 0.000000 0.002268 0.000000
# 2 0.000866 0.099490 0.002605 0.000000 0.026449 0.000000
# 3 -0.001851 0.002605 0.012847 0.000000 0.000561 0.000000
# 4 0.000000 0.000000 0.000000 0.026575 0.000000 -0.009024
# 5 0.002268 0.026449 0.000561 0.000000 0.035605 0.000000
# 6 0.000000 0.000000 0.000000 -0.009024 0.000000 0.042668
#
#
# Mechanical properties :
#
#
# Convention : Reuss Voigt Hill
#
# Bulk Modulus (GPa) = 7.92792 24.17195 16.04993
# Shear Modulus (GPa) = 18.75827 32.16780 25.46303
#
# Velocity S-wave (km/s) = 2.98656 3.91098 3.47961
# Velocity P-wave (km/s) = 3.95758 5.64696 4.87599
#
# Compressibility (1/GPa) = 0.12613644
#
# Stress axis : x y z
#
# Youngs Moduli (GPa) = 94.71364 10.05122 77.83844
#
# Poissons Ratio (x) = -0.00871 0.14406
# Poissons Ratio (y) = -0.08205 -0.20275
# Poissons Ratio (z) = 0.17529 -0.02618
#
# Static dielectric constant tensor:
#      x y z
#    x 1.773140 0.000000 -0.020760 
#    y 0.000000 1.748190 0.000000 
#    z -0.020760 0.000000 1.740970 
# 
# From -- ./inp_files/89473.got.cif
#   From: 2010.05.17/outbox.cif.g08.bks.cpg/sg10_45_cif.got.tgz:89473.got - 2010.06.03 11:33:40.
