data_PCOD9149969
_publ_section_title
;
Structure prediction by ZEFSAII (Michael W. Deem and Ramdas Pophale) SiO2 
 PCOD9149969
Probable space group: P 2/M
;
_chemical_formula_sum "Si O2"
_cell_formula_units_Z 28
_cell_length_a 18.596132
_cell_length_b 15.072780
_cell_length_c 8.078677
_cell_angle_alpha 90.000000
_cell_angle_beta 143.009864
_cell_angle_gamma 90.000000
_cell_volume 1362.448239
_symmetry_space_group_name_H-M "P 2/M"
_symmetry_group_IT_number 10
_symmetry_cell_setting 'monoclinic'
loop_
_space_group_symop_operation_xyz
x,y,z
-x,y,-z
-x,-y,-z
x,-y,z
loop_
_atom_site_type_symbol
_atom_site_label
_atom_site_fract_x
_atom_site_fract_y
_atom_site_fract_z
Si Si1 0.869472 0.328998 0.207074
Si Si2 0.464387 0.754841 0.757188
Si Si3 0.374676 0.597961 0.370922
Si Si4 0.828687 0.156012 0.334383
Si Si5 0.727341 0.101504 0.504920
Si Si6 0.598409 0.901552 0.824886
Si Si7 0.058964 0.814775 0.928456
O O1 0.836976 0.257357 0.289398
O O2 0.894419 0.270818 0.086407
O O3 0.000000 0.368834 0.500000
O O4 0.750113 0.386521 0.956962
O O5 0.394823 0.681012 0.527716
O O6 0.380086 0.837767 0.637946
O O7 0.571108 0.805892 0.859984
O O8 0.500000 0.716342 0.000000
O O9 0.500000 0.597980 0.500000
O O10 0.366311 0.500000 0.434442
O O11 0.767358 0.132446 0.396502
O O12 0.966071 0.136817 0.633984
O O13 0.739756 0.107153 0.043277
O O14 0.694360 0.000000 0.443877
O O15 0.835791 0.120493 0.826869
O O16 0.500000 0.902572 0.500000
O O17 0.585111 0.000000 0.882055
O O18 0.000000 0.790381 0.000000
#
# Coordination Sequence:
#
# PCOD9149969 Si02
#       7
#     4   4   4   4   4   4   4
#     4  10  20  40  68  95 128 169 216 258 320 384
#     4  12  23  38  64  87 122 168 207 262 321 382
#     4  11  25  45  71  99 127 161 210 268 330 398
#     4  10  20  35  57  85 122 164 210 256 298 360
#     4  11  22  36  57  89 126 170 215 255 305 367
#     4  11  23  36  54  85 127 171 215 257 304 371
#     4   9  20  37  61  89 121 169 214 257 312 364
#
# _framework density 20.551238999999999
#
# number of rings (size 3 to 8) (size 9 to 14) (size 15 to 20)
#    0.000    1.429    2.857    3.000    0.000    4.286 
#    0.000    0.714    0.000   11.143    0.000    0.000 
#    0.000    0.000    0.000    0.000    0.000    0.000 
#
# Total GULP energy -155921.908767 kJ/mol
# GULP energy per Si atom -5568.639599 kJ/mol
# Density = 2.050446 g / cm^3
# Si number density = 20.551239 Si / 1000 Ang^3
#
#
#
# Elastic Constant Matrix: (Units=GPa)
#
#
# Indices 1 2 3 4 5 6 
#
# 1 48.8133 18.2664 10.0201 0.0000 3.4664 0.0000
# 2 18.2664 63.2767 25.2521 0.0000 -2.1315 0.0000
# 3 10.0201 25.2521 163.1879 0.0000 13.3320 0.0000
# 4 0.0000 0.0000 0.0000 4.3760 0.0000 3.6680
# 5 3.4664 -2.1315 13.3320 0.0000 30.1768 0.0000
# 6 0.0000 0.0000 0.0000 3.6680 0.0000 -17.4629
#
#
#
# Elastic Compliance Matrix: (Units=1/GPa)
#
#
# Indices 1 2 3 4 5 6 
#
# 1 0.023265 -0.006769 -0.000128 0.000000 -0.003094 0.000000
# 2 -0.006769 0.018987 -0.002796 0.000000 0.003354 0.000000
# 3 -0.000128 -0.002796 0.006830 0.000000 -0.003200 0.000000
# 4 0.000000 0.000000 0.000000 0.194309 0.000000 0.040813
# 5 -0.003094 0.003354 -0.003200 0.000000 0.035144 0.000000
# 6 0.000000 0.000000 0.000000 0.040813 0.000000 -0.048692
#
#
# Mechanical properties :
#
#
# Convention : Reuss Voigt Hill
#
# Bulk Modulus (GPa) = 33.67661 42.48392 38.08027
# Shear Modulus (GPa) = 19.29537 18.20061 18.74799
#
# Velocity S-wave (km/s) = 3.06746 2.97917 3.02363
# Velocity P-wave (km/s) = 5.38219 5.70535 5.54612
#
# Compressibility (1/GPa) = 0.02969420
#
# Stress axis : x y z
#
# Youngs Moduli (GPa) = 42.98235 52.66852 146.41381
#
# Poissons Ratio (x) = 0.35652 0.01879
# Poissons Ratio (y) = 0.29095 0.40944
# Poissons Ratio (z) = 0.00551 0.14728
#
# Static dielectric constant tensor:
#      x y z
#    x 1.854810 0.000000 -0.000490 
#    y 0.000000 1.738560 0.000000 
#    z -0.000490 0.000000 1.818800 
# 
# From -- ./inp_files/35295.got.cif
#   From: 2010.05.17/outbox.cif.g08.bks.cpg/sg10_18_cif.got.tgz:35295.got - 2010.06.03 11:33:40.
