data_PCOD9149432
_publ_section_title
;
Structure prediction by ZEFSAII (Michael W. Deem and Ramdas Pophale) SiO2 
 PCOD9149432
Probable space group: P 2/M
;
_chemical_formula_sum "Si O2"
_cell_formula_units_Z 28
_cell_length_a 31.521077
_cell_length_b 9.201393
_cell_length_c 5.447620
_cell_angle_alpha 90.000000
_cell_angle_beta 128.420037
_cell_angle_gamma 90.000000
_cell_volume 1237.904765
_symmetry_space_group_name_H-M "P 2/M"
_symmetry_group_IT_number 10
_symmetry_cell_setting 'monoclinic'
loop_
_space_group_symop_operation_xyz
x,y,z
-x,y,-z
-x,-y,-z
x,-y,z
loop_
_atom_site_type_symbol
_atom_site_label
_atom_site_fract_x
_atom_site_fract_y
_atom_site_fract_z
Si Si1 0.180339 0.656800 0.764395
Si Si2 0.565019 0.326432 0.739082
Si Si3 0.389713 0.824597 0.595296
Si Si4 0.027956 0.824804 0.854024
Si Si5 0.760738 0.157686 0.406978
Si Si6 0.871596 0.839963 0.071763
Si Si7 0.293978 0.340928 0.437931
O O1 0.170692 0.500000 0.606749
O O2 0.202444 0.783579 0.675469
O O3 0.129166 0.713239 0.732105
O O4 0.233693 0.637634 0.123012
O O5 0.500000 0.316050 0.500000
O O6 0.578631 0.500000 0.782253
O O7 0.587116 0.245923 0.572562
O O8 0.584881 0.248453 0.063890
O O9 0.327311 0.773939 0.399102
O O10 0.395743 0.000000 0.618565
O O11 0.091529 0.800043 0.028511
O O12 0.000000 0.775278 0.500000
O O13 0.022204 0.000000 0.843423
O O14 0.000000 0.767031 0.000000
O O15 0.715716 0.271911 0.329508
O O16 0.736418 0.000000 0.276401
O O17 0.808435 0.143840 0.780597
O O18 0.890435 0.000000 0.230165
O O19 0.320182 0.500000 0.532495
#
# Coordination Sequence:
#
# PCOD9149432 Si02
#       7
#     4   4   4   4   4   4   4
#     4  10  21  36  57  82 113 156 199 243 298 367
#     4  11  25  47  73 100 134 179 227 273 328 394
#     4  12  26  43  69 103 138 175 219 277 334 386
#     4   9  18  31  52  82 114 145 187 244 303 362
#     4  10  20  34  56  84 116 150 194 249 304 364
#     4   9  19  34  54  81 110 146 191 243 301 356
#     4  10  22  40  59  84 121 163 207 251 309 380
#
# _framework density 22.618863000000001
#
# number of rings (size 3 to 8) (size 9 to 14) (size 15 to 20)
#    0.000    1.857    0.000    3.429    4.000    5.143 
#    0.000    0.000    0.000    0.857    0.000    0.000 
#    0.000    0.000    0.000    0.000    0.000    0.000 
#
# Total GULP energy -156031.291387 kJ/mol
# GULP energy per Si atom -5572.546121 kJ/mol
# Density = 2.256738 g / cm^3
# Si number density = 22.618863 Si / 1000 Ang^3
#
#
#
# Elastic Constant Matrix: (Units=GPa)
#
#
# Indices 1 2 3 4 5 6 
#
# 1 135.8262 41.7183 32.8627 0.0000 -21.0148 0.0000
# 2 41.7183 137.0637 37.0188 0.0000 -12.8878 0.0000
# 3 32.8627 37.0188 63.2688 0.0000 -20.0218 0.0000
# 4 0.0000 0.0000 0.0000 -89.7943 0.0000 15.0551
# 5 -21.0148 -12.8878 -20.0218 0.0000 32.6025 0.0000
# 6 0.0000 0.0000 0.0000 15.0551 0.0000 36.0527
#
#
#
# Elastic Compliance Matrix: (Units=1/GPa)
#
#
# Indices 1 2 3 4 5 6 
#
# 1 0.009069 -0.001731 -0.002562 0.000000 0.003588 0.000000
# 2 -0.001731 0.009000 -0.004461 0.000000 -0.000298 0.000000
# 3 -0.002562 -0.004461 0.023168 0.000000 0.010813 0.000000
# 4 0.000000 0.000000 0.000000 -0.010408 0.000000 0.004346
# 5 0.003588 -0.000298 0.010813 0.000000 0.039508 0.000000
# 6 0.000000 0.000000 0.000000 0.004346 0.000000 0.025922
#
#
# Mechanical properties :
#
#
# Convention : Reuss Voigt Hill
#
# Bulk Modulus (GPa) = 42.14298 62.15094 52.14696
# Shear Modulus (GPa) = 41.09232 10.74280 25.91756
#
# Velocity S-wave (km/s) = 4.26693 2.18170 3.38870
# Velocity P-wave (km/s) = 6.55346 5.82096 6.19804
#
# Compressibility (1/GPa) = 0.02372874
#
# Stress axis : x y z
#
# Youngs Moduli (GPa) = 110.26490 111.11698 43.16215
#
# Poissons Ratio (x) = 0.19234 0.11060
# Poissons Ratio (y) = 0.19086 0.19254
# Poissons Ratio (z) = 0.28255 0.49567
#
# Static dielectric constant tensor:
#      x y z
#    x 1.820000 0.000000 0.006380 
#    y 0.000000 2.800510 0.000000 
#    z 0.006380 0.000000 1.993130 
# 
# From -- ./inp_files/13567.got.cif
#   From: 2010.05.17/outbox.cif.g08.bks.cpg/sg10_7_cif.got.tgz:13567.got - 2010.06.03 11:33:40.
