data_PCOD9149988
_publ_section_title
;
Structure prediction by ZEFSAII (Michael W. Deem and Ramdas Pophale) SiO2 
 PCOD9149988
Probable space group: P 2/M
;
_chemical_formula_sum "Si O2"
_cell_formula_units_Z 32
_cell_length_a 14.917578
_cell_length_b 11.353290
_cell_length_c 18.459844
_cell_angle_alpha 90.000000
_cell_angle_beta 151.947698
_cell_angle_gamma 90.000000
_cell_volume 1470.287096
_symmetry_space_group_name_H-M "P 2/M"
_symmetry_group_IT_number 10
_symmetry_cell_setting 'monoclinic'
loop_
_space_group_symop_operation_xyz
x,y,z
-x,y,-z
-x,-y,-z
x,-y,z
loop_
_atom_site_type_symbol
_atom_site_label
_atom_site_fract_x
_atom_site_fract_y
_atom_site_fract_z
Si Si1 0.859415 0.364398 0.829888
Si Si2 0.292298 0.689092 0.840745
Si Si3 0.460116 0.278337 0.593379
Si Si4 0.195980 0.136027 0.890653
Si Si5 0.429195 0.868669 0.187458
Si Si6 0.200318 0.804265 0.623488
Si Si7 0.123113 0.625711 0.439382
Si Si8 0.185873 0.861069 0.307198
O O1 0.893409 0.500000 0.825177
O O2 0.635448 0.356121 0.691468
O O3 0.874446 0.244729 0.791133
O O4 0.000000 0.352193 0.000000
O O5 0.285459 0.806192 0.884636
O O6 0.261535 0.724411 0.735464
O O7 0.103035 0.626143 0.736518
O O8 0.500000 0.634121 0.000000
O O9 0.534127 0.211318 0.717463
O O10 0.270338 0.350801 0.479652
O O11 0.385117 0.179705 0.484137
O O12 0.968836 0.142876 0.737272
O O13 0.249571 0.000000 0.929593
O O14 0.280094 0.187188 0.025146
O O15 0.621433 0.876679 0.277138
O O16 0.367869 0.000000 0.166269
O O17 0.152824 0.723003 0.521149
O O18 0.000000 0.864877 0.500000
O O19 0.174172 0.500000 0.508505
O O20 0.185362 0.000000 0.281807
#
# Coordination Sequence:
#
# PCOD9149988 Si02
#       8
#     4   4   4   4   4   4   4   4
#     4  11  26  47  72 102 135 171 220 272 323 394
#     4  11  20  36  59  85 121 157 214 268 315 376
#     4  11  22  41  68  95 129 168 214 265 324 390
#     4  10  21  38  59  88 127 169 208 258 321 389
#     4  10  20  35  57  86 123 165 207 254 317 384
#     4   9  20  34  52  79 113 158 204 265 311 380
#     4  10  22  40  60  83 118 167 211 262 326 384
#     4  11  24  43  69 103 139 173 216 270 331 395
#
# _framework density 21.764458999999999
#
# number of rings (size 3 to 8) (size 9 to 14) (size 15 to 20)
#    0.000    1.625    2.500    1.875    0.000    6.750 
#    0.000    0.000    0.000    0.000    0.000    0.000 
#    0.000    0.000    0.000    0.000    0.000    0.000 
#
# Total GULP energy -178310.592140 kJ/mol
# GULP energy per Si atom -5572.206004 kJ/mol
# Density = 2.171492 g / cm^3
# Si number density = 21.764459 Si / 1000 Ang^3
#
#
#
# Elastic Constant Matrix: (Units=GPa)
#
#
# Indices 1 2 3 4 5 6 
#
# 1 73.2720 21.0475 14.3754 0.0000 22.2717 0.0000
# 2 21.0475 94.4785 10.4529 0.0000 10.3837 0.0000
# 3 14.3754 10.4529 90.8028 0.0000 22.9831 0.0000
# 4 0.0000 0.0000 0.0000 -0.5520 0.0000 22.5214
# 5 22.2717 10.3837 22.9831 0.0000 26.6531 0.0000
# 6 0.0000 0.0000 0.0000 22.5214 0.0000 -39.5454
#
#
#
# Elastic Compliance Matrix: (Units=1/GPa)
#
#
# Indices 1 2 3 4 5 6 
#
# 1 0.019007 -0.002622 0.001349 0.000000 -0.016024 0.000000
# 2 -0.002622 0.011424 -0.000420 0.000000 -0.001897 0.000000
# 3 0.001349 -0.000420 0.014188 0.000000 -0.013198 0.000000
# 4 0.000000 0.000000 0.000000 0.081473 0.000000 0.046399
# 5 -0.016024 -0.001897 -0.013198 0.000000 0.063028 0.000000
# 6 0.000000 0.000000 0.000000 0.046399 0.000000 0.001137
#
#
# Mechanical properties :
#
#
# Convention : Reuss Voigt Hill
#
# Bulk Modulus (GPa) = 24.25309 38.92275 31.58792
# Shear Modulus (GPa) = 24.10936 11.48964 17.79950
#
# Velocity S-wave (km/s) = 3.33188 2.30012 2.86286
# Velocity P-wave (km/s) = 5.09603 4.99765 5.04708
#
# Compressibility (1/GPa) = 0.04123186
#
# Stress axis : x y z
#
# Youngs Moduli (GPa) = 52.61199 87.53826 70.48107
#
# Poissons Ratio (x) = 0.22956 -0.09505
# Poissons Ratio (y) = 0.13797 0.02958
# Poissons Ratio (z) = -0.07095 0.03674
#
# Static dielectric constant tensor:
#      x y z
#    x 1.808210 0.000000 0.033850 
#    y 0.000000 1.833530 0.000000 
#    z 0.033850 0.000000 1.841000 
# 
# From -- ./inp_files/78208.got.cif
#   From: 2010.05.17/outbox.cif.g08.bks.cpg/sg10_40_cif.got.tgz:78208.got - 2010.06.03 11:33:40.
