data_PCOD9149119
_publ_section_title
;
Structure prediction by ZEFSAII (Michael W. Deem and Ramdas Pophale) SiO2 
 PCOD9149119
Probable space group: P 2/M
;
_chemical_formula_sum "Si O2"
_cell_formula_units_Z 32
_cell_length_a 15.323378
_cell_length_b 14.366507
_cell_length_c 10.225382
_cell_angle_alpha 90.000000
_cell_angle_beta 119.481012
_cell_angle_gamma 90.000000
_cell_volume 1959.581899
_symmetry_space_group_name_H-M "P 2/M"
_symmetry_group_IT_number 10
_symmetry_cell_setting 'monoclinic'
loop_
_space_group_symop_operation_xyz
x,y,z
-x,y,-z
-x,-y,-z
x,-y,z
loop_
_atom_site_type_symbol
_atom_site_label
_atom_site_fract_x
_atom_site_fract_y
_atom_site_fract_z
Si Si1 0.940046 0.211380 0.089699
Si Si2 0.940062 0.110792 0.590059
Si Si3 0.043466 0.607221 0.741862
Si Si4 0.725208 0.206043 0.388215
Si Si5 0.386325 0.109699 0.463042
Si Si6 0.617439 0.890057 0.070633
Si Si7 0.733016 0.890928 0.891287
Si Si8 0.164806 0.392212 0.563636
O O1 0.935486 0.317927 0.132457
O O2 0.998528 0.156010 0.246484
O O3 0.830114 0.169882 0.989803
O O4 0.000000 0.201858 0.000000
O O5 0.830271 0.154676 0.496519
O O6 0.000000 0.129387 0.500000
O O7 0.932376 0.000000 0.602393
O O8 0.053718 0.500000 0.790751
O O9 0.117650 0.622537 0.673331
O O10 0.930517 0.620107 0.603192
O O11 0.647905 0.173751 0.442763
O O12 0.682908 0.169915 0.219002
O O13 0.751982 0.315117 0.403446
O O14 0.500000 0.124934 0.500000
O O15 0.315309 0.126210 0.285630
O O16 0.377682 0.000000 0.494732
O O17 0.632360 0.000000 0.112487
O O18 0.500000 0.869590 0.000000
O O19 0.653290 0.875454 0.948603
O O20 0.761723 0.000000 0.917764
O O21 0.197520 0.500000 0.578308
#
# Coordination Sequence:
#
# PCOD9149119 Si02
#       8
#     4   4   4   4   4   4   4   4
#     4  12  23  33  49  76 112 146 172 206 258 318
#     4  11  22  34  50  76 109 144 181 216 254 314
#     4   9  18  35  54  75 105 139 175 218 263 306
#     4  12  20  32  57  80 102 134 181 222 259 311
#     4  10  21  37  55  76 104 141 184 224 257 301
#     4  10  20  34  53  78 104 132 172 223 269 305
#     4  10  21  35  49  70 107 145 172 205 259 315
#     4   9  18  33  57  81 101 131 176 226 268 310
#
# _framework density 16.330013999999998
#
# number of rings (size 3 to 8) (size 9 to 14) (size 15 to 20)
#    0.000    1.625    1.250    6.000    0.000    6.250 
#    0.000    0.000    0.000    0.750    0.000    1.750 
#    0.000    0.000    0.000    0.000    0.000    0.000 
#
# Total GULP energy -178758.394838 kJ/mol
# GULP energy per Si atom -5586.199839 kJ/mol
# Density = 1.629285 g / cm^3
# Si number density = 16.330014 Si / 1000 Ang^3
#
#
#
# Elastic Constant Matrix: (Units=GPa)
#
#
# Indices 1 2 3 4 5 6 
#
# 1 49.0577 31.8336 -2.5597 0.0000 -3.2886 0.0000
# 2 31.8336 75.2656 30.0756 0.0000 -7.8278 0.0000
# 3 -2.5597 30.0756 45.1964 0.0000 -4.6110 0.0000
# 4 0.0000 0.0000 0.0000 -8.3286 0.0000 -1.4298
# 5 -3.2886 -7.8278 -4.6110 0.0000 26.5697 0.0000
# 6 0.0000 0.0000 0.0000 -1.4298 0.0000 13.0424
#
#
#
# Elastic Compliance Matrix: (Units=1/GPa)
#
#
# Indices 1 2 3 4 5 6 
#
# 1 0.035039 -0.021190 0.016177 0.000000 0.000901 0.000000
# 2 -0.021190 0.031203 -0.021677 0.000000 0.002808 0.000000
# 3 0.016177 -0.021677 0.037687 0.000000 0.002156 0.000000
# 4 0.000000 0.000000 0.000000 -0.117850 0.000000 -0.012920
# 5 0.000901 0.002808 0.002156 0.000000 0.038950 0.000000
# 6 0.000000 0.000000 0.000000 -0.012920 0.000000 0.075256
#
#
# Mechanical properties :
#
#
# Convention : Reuss Voigt Hill
#
# Bulk Modulus (GPa) = 19.78315 32.02430 25.90373
# Shear Modulus (GPa) = 29.32284 13.60138 21.46211
#
# Velocity S-wave (km/s) = 4.24210 2.88914 3.62922
# Velocity P-wave (km/s) = 6.01122 5.54823 5.78436
#
# Compressibility (1/GPa) = 0.05054807
#
# Stress axis : x y z
#
# Youngs Moduli (GPa) = 28.53951 32.04829 26.53449
#
# Poissons Ratio (x) = 0.67912 -0.42926
# Poissons Ratio (y) = 0.60476 0.57520
# Poissons Ratio (z) = -0.46169 0.69472
#
# Static dielectric constant tensor:
#      x y z
#    x 1.534930 0.000000 -0.009880 
#    y 0.000000 1.542640 0.000000 
#    z -0.009880 0.000000 1.532090 
# 
# From -- ./inp_files/29523.got.cif
#   From: 2010.05.17/outbox.cif.g08.bks.cpg/sg10_15_cif.got.tgz:29523.got - 2010.06.03 11:33:40.
