data_PCOD9149283
_publ_section_title
;
Structure prediction by ZEFSAII (Michael W. Deem and Ramdas Pophale) SiO2 
 PCOD9149283
Probable space group: P 2/M
;
_chemical_formula_sum "Si O2"
_cell_formula_units_Z 24
_cell_length_a 11.557905
_cell_length_b 16.099443
_cell_length_c 15.031863
_cell_angle_alpha 90.000000
_cell_angle_beta 151.240705
_cell_angle_gamma 90.000000
_cell_volume 1345.755345
_symmetry_space_group_name_H-M "P 2/M"
_symmetry_group_IT_number 10
_symmetry_cell_setting 'monoclinic'
loop_
_space_group_symop_operation_xyz
x,y,z
-x,y,-z
-x,-y,-z
x,-y,z
loop_
_atom_site_type_symbol
_atom_site_label
_atom_site_fract_x
_atom_site_fract_y
_atom_site_fract_z
Si Si1 0.653228 0.093060 0.424505
Si Si2 0.702425 0.408704 0.559563
Si Si3 0.608499 0.265637 0.724238
Si Si4 0.145576 0.851480 0.820230
Si Si5 0.654405 0.906674 0.219088
Si Si6 0.035249 0.703155 0.875591
O O1 0.485132 0.171658 0.330851
O O2 0.724723 0.102439 0.368576
O O3 0.892683 0.101487 0.644652
O O4 0.549552 0.000000 0.364869
O O5 0.500000 0.414429 0.500000
O O6 0.715606 0.500000 0.525662
O O7 0.606922 0.331127 0.437235
O O8 0.951599 0.382705 0.774501
O O9 0.796751 0.268632 0.769359
O O10 0.753969 0.294879 0.909643
O O11 0.233931 0.844356 0.777385
O O12 0.101902 0.766868 0.843039
O O13 0.366075 0.897587 0.017252
O O14 0.722665 0.000000 0.235714
#
# Coordination Sequence:
#
# PCOD9149283 Si02
#       6
#     4   4   4   4   4   4
#     4  11  21  34  52  76 106 143 182 219 259 306
#     4   9  18  34  58  82 105 133 170 217 267 318
#     4  10  20  36  52  78 113 141 171 214 260 317
#     4  11  19  33  53  74 101 141 174 221 265 297
#     4  10  21  35  50  75 103 133 186 233 260 298
#     4  10  20  34  55  76 110 140 173 211 264 320
#
# _framework density 17.833850999999999
#
# number of rings (size 3 to 8) (size 9 to 14) (size 15 to 20)
#    0.000    1.833    3.333    2.500    0.000    2.000 
#    0.000    8.333    0.000    0.000    0.000    4.667 
#    0.000    0.000    0.000    0.000    0.000    0.000 
#
# Total GULP energy -133727.107517 kJ/mol
# GULP energy per Si atom -5571.962813 kJ/mol
# Density = 1.779326 g / cm^3
# Si number density = 17.833851 Si / 1000 Ang^3
#
#
#
# Elastic Constant Matrix: (Units=GPa)
#
#
# Indices 1 2 3 4 5 6 
#
# 1 37.7276 28.8102 8.3945 0.0000 -7.2663 0.0000
# 2 28.8102 114.5379 37.0446 0.0000 -4.0283 0.0000
# 3 8.3945 37.0446 97.9127 0.0000 0.4853 0.0000
# 4 0.0000 0.0000 0.0000 17.2900 0.0000 1.5320
# 5 -7.2663 -4.0283 0.4853 0.0000 14.5466 0.0000
# 6 0.0000 0.0000 0.0000 1.5320 0.0000 2.1417
#
#
#
# Elastic Compliance Matrix: (Units=1/GPa)
#
#
# Indices 1 2 3 4 5 6 
#
# 1 0.036015 -0.008529 0.000062 0.000000 0.015626 0.000000
# 2 -0.008529 0.012090 -0.003839 0.000000 -0.000784 0.000000
# 3 0.000062 -0.003839 0.011667 0.000000 -0.001421 0.000000
# 4 0.000000 0.000000 0.000000 0.061751 0.000000 -0.044172
# 5 0.015626 -0.000784 -0.001421 0.000000 0.076380 0.000000
# 6 0.000000 0.000000 0.000000 -0.044172 0.000000 0.498505
#
#
# Mechanical properties :
#
#
# Convention : Reuss Voigt Hill
#
# Bulk Modulus (GPa) = 28.44191 44.29742 36.36967
# Shear Modulus (GPa) = 6.82368 18.52425 12.67397
#
# Velocity S-wave (km/s) = 1.95820 3.22640 2.66873
# Velocity P-wave (km/s) = 4.59300 6.22675 5.47120
#
# Compressibility (1/GPa) = 0.03515938
#
# Stress axis : x y z
#
# Youngs Moduli (GPa) = 27.76613 82.71105 85.70876
#
# Poissons Ratio (x) = 0.70548 -0.00530
# Poissons Ratio (y) = 0.23683 0.32905
# Poissons Ratio (z) = -0.00172 0.31754
#
# Static dielectric constant tensor:
#      x y z
#    x 1.605010 0.000000 0.002670 
#    y 0.000000 1.608980 0.000000 
#    z 0.002670 0.000000 1.660280 
# 
# From -- ./inp_files/51688.got.cif
#   From: 2010.05.17/outbox.cif.g08.bks.cpg/sg10_26_cif.got.tgz:51688.got - 2010.06.03 11:33:40.
