data_PCOD9149705
_publ_section_title
;
Structure prediction by ZEFSAII (Michael W. Deem and Ramdas Pophale) SiO2 
 PCOD9149705
Probable space group: P 2/M
;
_chemical_formula_sum "Si O2"
_cell_formula_units_Z 24
_cell_length_a 16.000138
_cell_length_b 7.579602
_cell_length_c 9.129487
_cell_angle_alpha 90.000000
_cell_angle_beta 90.954099
_cell_angle_gamma 90.000000
_cell_volume 1107.022093
_symmetry_space_group_name_H-M "P 2/M"
_symmetry_group_IT_number 10
_symmetry_cell_setting 'monoclinic'
loop_
_space_group_symop_operation_xyz
x,y,z
-x,y,-z
-x,-y,-z
x,-y,z
loop_
_atom_site_type_symbol
_atom_site_label
_atom_site_fract_x
_atom_site_fract_y
_atom_site_fract_z
Si Si1 0.245736 0.707083 0.064638
Si Si2 0.250880 0.786167 0.407008
Si Si3 0.075427 0.795253 0.907212
Si Si4 0.583108 0.213333 0.418708
Si Si5 0.086909 0.215784 0.577216
Si Si6 0.415395 0.709262 0.924431
O O1 0.239804 0.500000 0.029459
O O2 0.251642 0.729413 0.238776
O O3 0.161291 0.789294 0.999036
O O4 0.329646 0.780783 0.991358
O O5 0.333571 0.726148 0.495358
O O6 0.167442 0.725522 0.487892
O O7 0.250975 0.000000 0.407956
O O8 0.088515 0.721342 0.745035
O O9 0.051970 0.000000 0.881457
O O10 0.000000 0.715283 0.000000
O O11 0.500000 0.275142 0.500000
O O12 0.583073 0.266112 0.249365
O O13 0.582995 0.000000 0.422666
O O14 0.000000 0.267861 0.500000
O O15 0.089999 0.000000 0.576388
O O16 0.414503 0.500000 0.956488
O O17 0.500000 0.782329 0.000000
#
# Coordination Sequence:
#
# PCOD9149705 Si02
#       6
#     4   4   4   4   4   4
#     4  11  23  37  55  81 112 145 185 232 276 322
#     4  10  20  35  55  78 107 142 179 222 274 330
#     4  10  20  36  60  85 110 145 184 223 275 335
#     4  10  21  36  56  84 112 139 179 232 282 325
#     4   9  17  31  53  80 105 132 174 221 260 312
#     4  10  22  39  57  79 110 150 191 227 271 332
#
# _framework density 21.679783
#
# number of rings (size 3 to 8) (size 9 to 14) (size 15 to 20)
#    0.000    2.000    0.000    3.500    0.000    7.000 
#    0.000    0.833    0.000    2.000    0.000    0.000 
#    0.000    0.000    0.000    0.000    0.000    0.000 
#
# Total GULP energy -134176.853964 kJ/mol
# GULP energy per Si atom -5590.702249 kJ/mol
# Density = 2.163044 g / cm^3
# Si number density = 21.679783 Si / 1000 Ang^3
#
#
#
# Elastic Constant Matrix: (Units=GPa)
#
#
# Indices 1 2 3 4 5 6 
#
# 1 210.0287 -9.0297 96.3906 0.0000 -18.1446 0.0000
# 2 -9.0297 45.6760 -24.3292 0.0000 -6.4223 0.0000
# 3 96.3906 -24.3292 167.6073 0.0000 -12.7150 0.0000
# 4 0.0000 0.0000 0.0000 36.9234 0.0000 10.8872
# 5 -18.1446 -6.4223 -12.7150 0.0000 48.5528 0.0000
# 6 0.0000 0.0000 0.0000 10.8872 0.0000 9.1919
#
#
#
# Elastic Compliance Matrix: (Units=1/GPa)
#
#
# Indices 1 2 3 4 5 6 
#
# 1 0.006583 -0.000498 -0.003751 0.000000 0.001412 0.000000
# 2 -0.000498 0.024603 0.004173 0.000000 0.004161 0.000000
# 3 -0.003751 0.004173 0.008841 0.000000 0.001465 0.000000
# 4 0.000000 0.000000 0.000000 0.041618 0.000000 -0.049293
# 5 0.001412 0.004161 0.001465 0.000000 0.022058 0.000000
# 6 0.000000 0.000000 0.000000 -0.049293 0.000000 0.167176
#
#
# Mechanical properties :
#
#
# Convention : Reuss Voigt Hill
#
# Bulk Modulus (GPa) = 25.07842 61.04172 43.06007
# Shear Modulus (GPa) = 17.58569 42.95231 30.26900
#
# Velocity S-wave (km/s) = 2.85117 4.45591 3.74061
# Velocity P-wave (km/s) = 4.73621 7.39532 6.20977
#
# Compressibility (1/GPa) = 0.03987491
#
# Stress axis : x y z
#
# Youngs Moduli (GPa) = 151.89597 40.64566 113.11376
#
# Poissons Ratio (x) = 0.02025 0.42433
# Poissons Ratio (y) = 0.07566 -0.47207
# Poissons Ratio (z) = 0.56981 -0.16963
#
# Static dielectric constant tensor:
#      x y z
#    x 1.760570 0.000000 -0.017320 
#    y 0.000000 1.813690 0.000000 
#    z -0.017320 0.000000 1.720710 
# 
# From -- ./inp_files/27204.got.cif
#   From: 2010.05.17/outbox.cif.g08.bks.cpg/sg10_14_cif.got.tgz:27204.got - 2010.06.03 11:33:40.
