data_PCOD9149312
_publ_section_title
;
Structure prediction by ZEFSAII (Michael W. Deem and Ramdas Pophale) SiO2 
 PCOD9149312
Probable space group: P 2/M
;
_chemical_formula_sum "Si O2"
_cell_formula_units_Z 32
_cell_length_a 19.551317
_cell_length_b 14.490528
_cell_length_c 15.000287
_cell_angle_alpha 90.000000
_cell_angle_beta 160.702437
_cell_angle_gamma 90.000000
_cell_volume 1404.421342
_symmetry_space_group_name_H-M "P 2/M"
_symmetry_group_IT_number 10
_symmetry_cell_setting 'monoclinic'
loop_
_space_group_symop_operation_xyz
x,y,z
-x,y,-z
-x,-y,-z
x,-y,z
loop_
_atom_site_type_symbol
_atom_site_label
_atom_site_fract_x
_atom_site_fract_y
_atom_site_fract_z
Si Si1 0.312428 0.894119 0.343647
Si Si2 0.222983 0.894533 0.591791
Si Si3 0.113166 0.395631 0.353843
Si Si4 0.032445 0.207248 0.870055
Si Si5 0.433253 0.393415 0.007696
Si Si6 0.299583 0.893469 0.879645
Si Si7 0.230947 0.608157 0.923617
Si Si8 0.597322 0.785416 0.814229
O O1 0.500000 0.893945 0.500000
O O2 0.392486 0.834015 0.525659
O O3 0.282561 0.000000 0.333554
O O4 0.109771 0.851666 0.048314
O O5 0.181118 0.862733 0.642802
O O6 0.133029 0.835652 0.400725
O O7 0.144398 0.000000 0.489595
O O8 0.465363 0.896688 0.867559
O O9 0.065680 0.500000 0.264698
O O10 0.037940 0.312342 0.199261
O O11 0.982170 0.381012 0.285050
O O12 0.354610 0.391845 0.675054
O O13 0.233415 0.204496 0.054140
O O14 0.379187 0.500000 0.918407
O O15 0.500000 0.342297 0.000000
O O16 0.244014 0.363044 0.836043
O O17 0.240605 0.000000 0.827801
O O18 0.316188 0.833164 0.989505
O O19 0.284525 0.500000 0.993944
O O20 0.404005 0.675106 0.177608
#
# Coordination Sequence:
#
# PCOD9149312 Si02
#       8
#     4   4   4   4   4   4   4   4
#     4   9  18  34  56  82 111 140 177 230 285 338
#     4   9  19  35  53  75 106 142 177 219 274 331
#     4   9  19  35  53  77 111 147 187 235 279 331
#     4  10  20  34  55  81 107 142 184 225 278 335
#     4   9  18  32  52  77 105 146 192 231 282 334
#     4   9  19  35  53  75 106 142 177 219 274 331
#     4   9  19  35  53  77 111 147 187 235 279 331
#     4  10  20  34  55  81 107 142 184 225 278 335
#
# _framework density 22.785184000000001
#
# number of rings (size 3 to 8) (size 9 to 14) (size 15 to 20)
#    0.000    2.750    0.000    1.500    1.750    3.500 
#    0.000    7.500    0.000    6.000    0.000    2.625 
#    0.000    0.000    0.000    0.000    0.000    0.000 
#
# Total GULP energy -178448.516175 kJ/mol
# GULP energy per Si atom -5576.516130 kJ/mol
# Density = 2.273332 g / cm^3
# Si number density = 22.785184 Si / 1000 Ang^3
#
#
#
# Elastic Constant Matrix: (Units=GPa)
#
#
# Indices 1 2 3 4 5 6 
#
# 1 59.4858 32.4284 5.8815 0.0000 -10.5971 0.0000
# 2 32.4284 84.7562 44.5907 0.0000 -7.7564 0.0000
# 3 5.8815 44.5907 87.1260 0.0000 -14.5043 0.0000
# 4 0.0000 0.0000 0.0000 27.9907 0.0000 -7.9768
# 5 -10.5971 -7.7564 -14.5043 0.0000 20.3715 0.0000
# 6 0.0000 0.0000 0.0000 -7.9768 0.0000 17.1480
#
#
#
# Elastic Compliance Matrix: (Units=1/GPa)
#
#
# Indices 1 2 3 4 5 6 
#
# 1 0.024918 -0.011765 0.006525 0.000000 0.013128 0.000000
# 2 -0.011765 0.021703 -0.011295 0.000000 -0.005899 0.000000
# 3 0.006525 -0.011295 0.018908 0.000000 0.012556 0.000000
# 4 0.000000 0.000000 0.000000 0.041186 0.000000 0.019159
# 5 0.013128 -0.005899 0.012556 0.000000 0.062611 0.000000
# 6 0.000000 0.000000 0.000000 0.019159 0.000000 0.067228
#
#
# Mechanical properties :
#
#
# Convention : Reuss Voigt Hill
#
# Bulk Modulus (GPa) = 30.80915 44.12991 37.46953
# Shear Modulus (GPa) = 17.82885 22.99986 20.41436
#
# Velocity S-wave (km/s) = 2.80031 3.18059 2.99649
# Velocity P-wave (km/s) = 4.89965 5.73568 5.33407
#
# Compressibility (1/GPa) = 0.03245789
#
# Stress axis : x y z
#
# Youngs Moduli (GPa) = 40.13153 46.07753 52.88712
#
# Poissons Ratio (x) = 0.54211 -0.34508
# Poissons Ratio (y) = 0.47215 0.59736
# Poissons Ratio (z) = -0.26185 0.52045
#
# Static dielectric constant tensor:
#      x y z
#    x 1.933040 0.000000 0.032780 
#    y 0.000000 1.871440 0.000000 
#    z 0.032780 0.000000 2.000360 
# 
# From -- ./inp_files/70771.got.cif
#   From: 2010.05.17/outbox.cif.g08.bks.cpg/sg10_36_cif.got.tgz:70771.got - 2010.06.03 11:33:40.
