data_PCOD9149544
_publ_section_title
;
Structure prediction by ZEFSAII (Michael W. Deem and Ramdas Pophale) SiO2 
 PCOD9149544
Probable space group: P 2/M
;
_chemical_formula_sum "Si O2"
_cell_formula_units_Z 18
_cell_length_a 7.102367
_cell_length_b 11.522168
_cell_length_c 9.959754
_cell_angle_alpha 90.000000
_cell_angle_beta 60.642930
_cell_angle_gamma 90.000000
_cell_volume 710.385145
_symmetry_space_group_name_H-M "P 2/M"
_symmetry_group_IT_number 10
_symmetry_cell_setting 'monoclinic'
loop_
_space_group_symop_operation_xyz
x,y,z
-x,y,-z
-x,-y,-z
x,-y,z
loop_
_atom_site_type_symbol
_atom_site_label
_atom_site_fract_x
_atom_site_fract_y
_atom_site_fract_z
Si Si1 0.000000 0.789050 0.500000
Si Si2 0.821564 0.000000 0.417589
Si Si3 0.832973 0.366149 0.758172
Si Si4 0.662115 0.367914 0.338291
Si Si5 0.249933 0.777621 0.950506
Si Si6 0.564315 0.000000 0.232715
O O1 0.056647 0.879038 0.599481
O O2 0.181776 0.704300 0.375475
O O3 0.733577 0.000000 0.298175
O O4 0.652407 0.000000 0.602102
O O5 0.758158 0.500000 0.782471
O O6 0.093253 0.370040 0.691716
O O7 0.743813 0.289032 0.910845
O O8 0.500000 0.307970 0.500000
O O9 0.588921 0.500000 0.345967
O O10 0.675645 0.310648 0.189898
O O11 0.394857 0.889966 0.875263
O O12 0.000000 0.807792 0.000000
#
# Coordination Sequence:
#
# PCOD9149544 Si02
#       6
#     2   2   4   4   4   2
#     4  11  23  42  62  88 129 165 202 246 302 375
#     4  10  24  41  63  94 119 161 206 254 303 357
#     4  10  21  38  62  88 122 167 203 242 304 370
#     4   9  18  32  57  90 120 152 201 258 305 349
#     4  10  20  34  59  91 127 153 199 256 306 354
#     4  11  23  39  67  91 118 157 210 258 306 351
#
# _framework density 25.338367999999999
#
# number of rings (size 3 to 8) (size 9 to 14) (size 15 to 20)
#    0.000    2.000    0.000    4.000    6.222    4.444 
#    0.000    2.222    0.000    1.333    0.000    0.000 
#    0.000    0.000    0.000    0.000    0.000    0.000 
#
# Total GULP energy -100808.272184 kJ/mol
# GULP energy per Si atom -5600.459566 kJ/mol
# Density = 2.528070 g / cm^3
# Si number density = 25.338368 Si / 1000 Ang^3
#
#
#
# Elastic Constant Matrix: (Units=GPa)
#
#
# Indices 1 2 3 4 5 6 
#
# 1 61.3377 8.6248 24.2954 0.0000 3.3017 0.0000
# 2 8.6248 172.8074 72.3949 0.0000 9.8673 0.0000
# 3 24.2954 72.3949 185.3991 0.0000 0.5855 0.0000
# 4 0.0000 0.0000 0.0000 55.0906 0.0000 -6.3164
# 5 3.3017 9.8673 0.5855 0.0000 38.4534 0.0000
# 6 0.0000 0.0000 0.0000 -6.3164 0.0000 2.9955
#
#
#
# Elastic Compliance Matrix: (Units=1/GPa)
#
#
# Indices 1 2 3 4 5 6 
#
# 1 0.017282 0.000203 -0.002339 0.000000 -0.001500 0.000000
# 2 0.000203 0.007039 -0.002769 0.000000 -0.001781 0.000000
# 3 -0.002339 -0.002769 0.006779 0.000000 0.000808 0.000000
# 4 0.000000 0.000000 0.000000 0.023940 0.000000 0.050481
# 5 -0.001500 -0.001781 0.000808 0.000000 0.026579 0.000000
# 6 0.000000 0.000000 0.000000 0.050481 0.000000 0.440282
#
#
# Mechanical properties :
#
#
# Convention : Reuss Voigt Hill
#
# Bulk Modulus (GPa) = 46.97355 70.01935 58.49645
# Shear Modulus (GPa) = 9.27974 40.25648 24.76811
#
# Velocity S-wave (km/s) = 1.91580 3.99024 3.12988
# Velocity P-wave (km/s) = 4.84484 6.99451 6.01646
#
# Compressibility (1/GPa) = 0.02128858
#
# Stress axis : x y z
#
# Youngs Moduli (GPa) = 57.86382 142.07418 147.51063
#
# Poissons Ratio (x) = -0.02886 0.34507
# Poissons Ratio (y) = -0.01175 0.40852
# Poissons Ratio (z) = 0.13536 0.39346
#
# Static dielectric constant tensor:
#      x y z
#    x 2.078870 0.000000 -0.025460 
#    y 0.000000 1.954780 0.000000 
#    z -0.025460 0.000000 1.903160 
# 
# From -- ./inp_files/17701.got.cif
#   From: 2010.05.17/outbox.cif.g08.bks.cpg/sg10_9_cif.got.tgz:17701.got - 2010.06.03 11:33:40.
