data_PCOD9149218
_publ_section_title
;
Structure prediction by ZEFSAII (Michael W. Deem and Ramdas Pophale) SiO2 
 PCOD9149218
Probable space group: P 2/M
;
_chemical_formula_sum "Si O2"
_cell_formula_units_Z 28
_cell_length_a 9.474681
_cell_length_b 8.093417
_cell_length_c 30.165060
_cell_angle_alpha 90.000000
_cell_angle_beta 38.257460
_cell_angle_gamma 90.000000
_cell_volume 1432.283489
_symmetry_space_group_name_H-M "P 2/M"
_symmetry_group_IT_number 10
_symmetry_cell_setting 'monoclinic'
loop_
_space_group_symop_operation_xyz
x,y,z
-x,y,-z
-x,-y,-z
x,-y,z
loop_
_atom_site_type_symbol
_atom_site_label
_atom_site_fract_x
_atom_site_fract_y
_atom_site_fract_z
Si Si1 0.494117 0.801453 0.138017
Si Si2 0.349458 0.302903 0.725142
Si Si3 0.024830 0.302903 0.725142
Si Si4 0.582271 0.800419 0.431862
Si Si5 0.258416 0.199581 0.431863
Si Si6 0.815796 0.801453 0.138018
Si Si7 0.337064 0.202425 1.000000
O O1 0.659073 0.738261 0.136371
O O2 0.569510 0.742162 0.070758
O O3 0.231404 0.760898 0.211603
O O4 0.516323 0.000000 0.131865
O O5 0.335302 0.500000 0.729094
O O6 0.167886 0.239910 0.732846
O O7 0.599263 0.253086 0.646182
O O8 0.289421 0.239104 0.788397
O O9 0.019227 0.500000 0.729095
O O10 0.169828 0.253087 0.646182
O O11 0.500000 0.741064 0.500000
O O12 0.405745 0.743159 0.437702
O O13 0.579329 0.000000 0.433235
O O14 0.000000 0.258937 0.500000
O O15 0.254495 0.000000 0.433236
O O16 0.824352 0.000000 0.131865
O O17 0.076698 0.742162 0.070758
O O18 0.337961 0.000000 1.000000
O O19 0.500000 0.255889 0.000000
#
# Coordination Sequence:
#
# PCOD9149218 Si02
#       7
#     4   4   4   4   4   4   4
#     4  10  20  34  54  80 108 137 172 216 263 310
#     4  10  21  36  53  75 105 141 179 216 257 309
#     4  10  21  36  53  75 105 141 179 216 257 309
#     4   9  18  33  53  76 102 133 171 215 260 307
#     4   9  18  33  53  76 102 133 171 215 260 307
#     4  10  20  34  54  80 108 137 172 216 263 310
#     4   9  17  31  54  81 106 135 172 214 260 309
#
# _framework density 19.549204
#
# number of rings (size 3 to 8) (size 9 to 14) (size 15 to 20)
#    0.000    2.429    0.000    2.143    0.000    6.857 
#    0.000    3.571    0.000    4.286    0.000    0.000 
#    0.000    0.000    0.000    0.000    0.000    0.000 
#
# Total GULP energy -156298.831474 kJ/mol
# GULP energy per Si atom -5582.101124 kJ/mol
# Density = 1.950471 g / cm^3
# Si number density = 19.549204 Si / 1000 Ang^3
#
#
#
# Elastic Constant Matrix: (Units=GPa)
#
#
# Indices 1 2 3 4 5 6 
#
# 1 143.1107 10.9906 126.0685 0.0000 -3.3091 0.0000
# 2 10.9906 8.9759 6.6349 0.0000 0.2261 0.0000
# 3 126.0685 6.6349 220.5033 0.0000 -0.7078 0.0000
# 4 0.0000 0.0000 0.0000 -51.7303 0.0000 3.3483
# 5 -3.3091 0.2261 -0.7078 0.0000 40.2629 0.0000
# 6 0.0000 0.0000 0.0000 3.3483 0.0000 12.7793
#
#
#
# Elastic Compliance Matrix: (Units=1/GPa)
#
#
# Indices 1 2 3 4 5 6 
#
# 1 0.015410 -0.012671 -0.008425 0.000000 0.001190 0.000000
# 2 -0.012671 0.124383 0.003497 0.000000 -0.001678 0.000000
# 3 -0.008425 0.003497 0.009245 0.000000 -0.000550 0.000000
# 4 0.000000 0.000000 0.000000 -0.019009 0.000000 0.004980
# 5 0.001190 -0.001678 -0.000550 0.000000 0.024934 0.000000
# 6 0.000000 0.000000 0.000000 0.004980 0.000000 0.076947
#
#
# Mechanical properties :
#
#
# Convention : Reuss Voigt Hill
#
# Bulk Modulus (GPa) = 8.78444 73.33089 41.05766
# Shear Modulus (GPa) = 16.39039 15.52212 15.95625
#
# Velocity S-wave (km/s) = 2.89868 2.82086 2.86004
# Velocity P-wave (km/s) = 3.96313 6.94277 5.65281
#
# Compressibility (1/GPa) = 0.11383765
#
# Stress axis : x y z
#
# Youngs Moduli (GPa) = 64.89131 8.03971 108.16397
#
# Poissons Ratio (x) = 0.10187 0.91134
# Poissons Ratio (y) = 0.82226 -0.37820
# Poissons Ratio (z) = 0.54674 -0.02811
#
# Static dielectric constant tensor:
#      x y z
#    x 1.685830 0.000000 0.001670 
#    y 0.000000 1.682840 0.000000 
#    z 0.001670 0.000000 1.653580 
# 
# From -- ./inp_files/37274.got.cif
#   From: 2010.05.17/outbox.cif.g08.bks.cpg/sg10_19_cif.got.tgz:37274.got - 2010.06.03 11:33:40.
