data_PCOD9149172
_publ_section_title
;
Structure prediction by ZEFSAII (Michael W. Deem and Ramdas Pophale) SiO2 
 PCOD9149172
Probable space group: P 2/M
;
_chemical_formula_sum "Si O2"
_cell_formula_units_Z 26
_cell_length_a 7.191643
_cell_length_b 10.050642
_cell_length_c 24.194512
_cell_angle_alpha 90.000000
_cell_angle_beta 47.791434
_cell_angle_gamma 90.000000
_cell_volume 1295.339403
_symmetry_space_group_name_H-M "P 2/M"
_symmetry_group_IT_number 10
_symmetry_cell_setting 'monoclinic'
loop_
_space_group_symop_operation_xyz
x,y,z
-x,y,-z
-x,-y,-z
x,-y,z
loop_
_atom_site_type_symbol
_atom_site_label
_atom_site_fract_x
_atom_site_fract_y
_atom_site_fract_z
Si Si1 0.669654 0.656852 0.282768
Si Si2 0.101821 0.659992 0.421811
Si Si3 0.041871 0.851204 0.150294
Si Si4 0.500000 0.270062 0.000000
Si Si5 0.010604 0.345108 0.322672
Si Si6 0.291524 0.643665 0.927794
Si Si7 0.385741 0.150632 0.192228
O O1 0.676240 0.500000 0.265968
O O2 0.384387 0.701618 0.349803
O O3 0.825886 0.744848 0.207861
O O4 0.806103 0.668846 0.315327
O O5 0.118563 0.500000 0.425077
O O6 0.931943 0.683653 0.401484
O O7 0.000000 0.714955 0.500000
O O8 0.211447 0.855225 0.172137
O O9 0.944718 0.000000 0.159951
O O10 0.244743 0.811546 0.063142
O O11 0.555620 0.349086 0.045054
O O12 0.094154 0.500000 0.304388
O O13 0.233408 0.244933 0.263552
O O14 0.349390 0.500000 0.889575
O O15 0.369949 0.769146 0.875800
O O16 0.000000 0.647727 0.000000
O O17 0.425321 0.000000 0.203050
#
# Coordination Sequence:
#
# PCOD9149172 Si02
#       7
#     4   4   4   2   4   4   4
#     4   9  18  32  51  75 101 132 171 209 249 301
#     4   9  18  32  51  78 107 131 163 209 254 299
#     4   9  18  33  53  75 102 136 172 211 254 300
#     4  10  20  34  54  76 102 136 172 212 256 298
#     4   9  17  31  52  74  98 130 164 203 250 296
#     4  10  21  35  51  73 100 131 169 211 254 300
#     4   9  18  33  52  73  99 132 169 208 250 299
#
# _framework density 20.071959
#
# number of rings (size 3 to 8) (size 9 to 14) (size 15 to 20)
#    0.000    2.769    0.000    0.923    0.000    7.077 
#    0.000    8.462    0.000    1.846    0.000    4.308 
#    0.000    0.000    0.000    0.000    0.000    0.000 
#
# Total GULP energy -144977.654510 kJ/mol
# GULP energy per Si atom -5576.063635 kJ/mol
# Density = 2.002627 g / cm^3
# Si number density = 20.071959 Si / 1000 Ang^3
#
#
#
# Elastic Constant Matrix: (Units=GPa)
#
#
# Indices 1 2 3 4 5 6 
#
# 1 64.2908 18.9861 18.5479 0.0000 3.2361 0.0000
# 2 18.9861 98.1068 30.5427 0.0000 3.9958 0.0000
# 3 18.5479 30.5427 75.5626 0.0000 8.9464 0.0000
# 4 0.0000 0.0000 0.0000 1.8892 0.0000 7.7066
# 5 3.2361 3.9958 8.9464 0.0000 26.6020 0.0000
# 6 0.0000 0.0000 0.0000 7.7066 0.0000 15.8358
#
#
#
# Elastic Compliance Matrix: (Units=1/GPa)
#
#
# Indices 1 2 3 4 5 6 
#
# 1 0.017194 -0.002300 -0.003212 0.000000 -0.000666 0.000000
# 2 -0.002300 0.011969 -0.004263 0.000000 -0.000084 0.000000
# 3 -0.003212 -0.004263 0.016271 0.000000 -0.004441 0.000000
# 4 0.000000 0.000000 0.000000 -0.537253 0.000000 0.261459
# 5 -0.000666 -0.000084 -0.004441 0.000000 0.039178 0.000000
# 6 0.000000 0.000000 0.000000 0.261459 0.000000 -0.064093
#
#
# Mechanical properties :
#
#
# Convention : Reuss Voigt Hill
#
# Bulk Modulus (GPa) = 38.63497 41.56817 40.10157
# Shear Modulus (GPa) = -10.23426 20.19098 4.97836
#
# Velocity S-wave (km/s) = -2.26050 3.17508 1.57659
# Velocity P-wave (km/s) = 3.53226 5.84774 4.83078
#
# Compressibility (1/GPa) = 0.02588329
#
# Stress axis : x y z
#
# Youngs Moduli (GPa) = 58.16056 83.55053 61.45739
#
# Poissons Ratio (x) = 0.19220 0.19739
# Poissons Ratio (y) = 0.13379 0.26200
# Poissons Ratio (z) = 0.18680 0.35619
#
# Static dielectric constant tensor:
#      x y z
#    x 1.764130 0.000000 0.016830 
#    y 0.000000 1.704570 0.000000 
#    z 0.016830 0.000000 1.697520 
# 
# From -- ./inp_files/74366.got.cif
#   From: 2010.05.17/outbox.cif.g08.bks.cpg/sg10_38_cif.got.tgz:74366.got - 2010.06.03 11:33:40.
