data_PCOD9149196
_publ_section_title
;
Structure prediction by ZEFSAII (Michael W. Deem and Ramdas Pophale) SiO2 
 PCOD9149196
Probable space group: P 2/M
;
_chemical_formula_sum "Si O2"
_cell_formula_units_Z 30
_cell_length_a 29.298613
_cell_length_b 9.842306
_cell_length_c 10.964211
_cell_angle_alpha 90.000000
_cell_angle_beta 31.729927
_cell_angle_gamma 90.000000
_cell_volume 1662.791040
_symmetry_space_group_name_H-M "P 2/M"
_symmetry_group_IT_number 10
_symmetry_cell_setting 'monoclinic'
loop_
_space_group_symop_operation_xyz
x,y,z
-x,y,-z
-x,-y,-z
x,-y,z
loop_
_atom_site_type_symbol
_atom_site_label
_atom_site_fract_x
_atom_site_fract_y
_atom_site_fract_z
Si Si1 0.000000 0.714177 0.000000
Si Si2 0.763628 0.159006 0.136758
Si Si3 0.412283 0.659164 0.862354
Si Si4 0.871635 0.348601 0.500320
Si Si5 0.919297 0.150327 0.592490
Si Si6 0.157545 0.840674 0.789490
Si Si7 0.727848 0.838394 0.707868
Si Si8 0.383935 0.658591 0.640932
O O1 0.064996 0.641735 0.759578
O O2 0.067489 0.791826 0.935183
O O3 0.810358 0.214261 0.153237
O O4 0.681212 0.245750 0.283441
O O5 0.739925 0.000000 0.210318
O O6 0.833130 0.162167 0.869595
O O7 0.393453 0.500000 0.933347
O O8 0.382293 0.684711 0.790541
O O9 0.516103 0.676687 0.626841
O O10 0.362721 0.762931 0.062778
O O11 0.840430 0.500000 0.602892
O O12 0.922280 0.274058 0.493016
O O13 0.794844 0.244653 0.640798
O O14 0.000000 0.153712 0.500000
O O15 0.919636 0.000000 0.530693
O O16 0.232623 0.821184 0.517441
O O17 0.145589 0.000000 0.836489
O O18 0.725182 0.000000 0.740571
O O19 0.361389 0.500000 0.674394
#
# Coordination Sequence:
#
# PCOD9149196 Si02
#       8
#     2   4   4   4   4   4   4   4
#     4  10  20  36  56  76 101 140 187 224 257 306
#     4  10  20  35  54  78 108 139 174 218 264 312
#     4   9  18  35  57  79 106 137 173 217 262 311
#     4  11  22  35  52  76 107 139 173 216 265 312
#     4  10  21  36  54  77 105 138 177 218 261 312
#     4   9  19  35  55  78 104 138 178 220 267 312
#     4  10  20  34  54  79 104 133 174 218 261 312
#     4   9  19  35  55  79 106 140 175 210 261 319
#
# _framework density 18.041952999999999
#
# number of rings (size 3 to 8) (size 9 to 14) (size 15 to 20)
#    0.000    2.267    0.000    3.600    0.000    6.667 
#    0.000    7.333    0.000    4.000    0.000    0.000 
#    0.000    0.000    0.000    0.000    0.000    0.000 
#
# Total GULP energy -167260.535787 kJ/mol
# GULP energy per Si atom -5575.351193 kJ/mol
# Density = 1.800089 g / cm^3
# Si number density = 18.041953 Si / 1000 Ang^3
#
#
#
# Elastic Constant Matrix: (Units=GPa)
#
#
# Indices 1 2 3 4 5 6 
#
# 1 92.5864 50.1896 20.6453 0.0000 -15.6275 0.0000
# 2 50.1896 98.4836 47.4730 0.0000 -3.2470 0.0000
# 3 20.6453 47.4730 71.8261 0.0000 -10.7810 0.0000
# 4 0.0000 0.0000 0.0000 1.3126 0.0000 5.8152
# 5 -15.6275 -3.2470 -10.7810 0.0000 18.2821 0.0000
# 6 0.0000 0.0000 0.0000 5.8152 0.0000 13.2598
#
#
#
# Elastic Compliance Matrix: (Units=1/GPa)
#
#
# Indices 1 2 3 4 5 6 
#
# 1 0.018618 -0.011097 0.004472 0.000000 0.016580 0.000000
# 2 -0.011097 0.021719 -0.013177 0.000000 -0.013398 0.000000
# 3 0.004472 -0.013177 0.023663 0.000000 0.015436 0.000000
# 4 0.000000 0.000000 0.000000 -0.807973 0.000000 0.354341
# 5 0.016580 -0.013398 0.015436 0.000000 0.075595 0.000000
# 6 0.000000 0.000000 0.000000 0.354341 0.000000 -0.079983
#
#
# Mechanical properties :
#
#
# Convention : Reuss Voigt Hill
#
# Bulk Modulus (GPa) = 40.98950 55.50132 48.24541
# Shear Modulus (GPa) = -7.13648 16.21011 4.53681
#
# Velocity S-wave (km/s) = -1.99100 3.00070 1.58747
# Velocity P-wave (km/s) = 4.18125 6.54482 5.49170
#
# Compressibility (1/GPa) = 0.02439649
#
# Stress axis : x y z
#
# Youngs Moduli (GPa) = 53.71260 46.04243 42.25983
#
# Poissons Ratio (x) = 0.51093 -0.18898
# Poissons Ratio (y) = 0.59604 0.55684
# Poissons Ratio (z) = -0.24019 0.60668
#
# Static dielectric constant tensor:
#      x y z
#    x 1.629080 0.000000 0.006810 
#    y 0.000000 1.613820 0.000000 
#    z 0.006810 0.000000 1.627830 
# 
# From -- ./inp_files/57979.got.cif
#   From: 2010.05.17/outbox.cif.g08.bks.cpg/sg10_29_cif.got.tgz:57979.got - 2010.06.03 11:33:40.
