data_PCOD9149240
_publ_section_title
;
Structure prediction by ZEFSAII (Michael W. Deem and Ramdas Pophale) SiO2 
 PCOD9149240
Probable space group: P 2/M
;
_chemical_formula_sum "Si O2"
_cell_formula_units_Z 28
_cell_length_a 8.014560
_cell_length_b 14.858223
_cell_length_c 14.027454
_cell_angle_alpha 90.000000
_cell_angle_beta 42.518415
_cell_angle_gamma 90.000000
_cell_volume 1128.914458
_symmetry_space_group_name_H-M "P 2/M"
_symmetry_group_IT_number 10
_symmetry_cell_setting 'monoclinic'
loop_
_space_group_symop_operation_xyz
x,y,z
-x,y,-z
-x,-y,-z
x,-y,z
loop_
_atom_site_type_symbol
_atom_site_label
_atom_site_fract_x
_atom_site_fract_y
_atom_site_fract_z
Si Si1 0.723893 0.401933 0.572031
Si Si2 0.433060 0.597609 0.154204
Si Si3 0.058032 0.791904 0.825057
Si Si4 0.007949 0.596856 0.111506
Si Si5 0.489381 0.800925 0.895341
Si Si6 0.584953 0.794121 0.572139
Si Si7 0.953677 0.106371 0.669628
O O1 0.707495 0.500000 0.530489
O O2 0.546918 0.402957 0.739120
O O3 0.664043 0.310395 0.544356
O O4 0.000000 0.395227 0.500000
O O5 0.303133 0.500000 0.191240
O O6 0.373965 0.702523 0.162396
O O7 0.698972 0.592563 0.992531
O O8 0.338677 0.814579 0.737627
O O9 0.002313 0.849465 0.754123
O O10 0.085514 0.684287 0.795712
O O11 0.807940 0.796357 0.995249
O O12 0.898191 0.500000 0.182929
O O13 0.000000 0.607912 0.000000
O O14 0.676444 0.863610 0.759859
O O15 0.500000 0.833018 0.000000
O O16 0.500000 0.812622 0.500000
O O17 0.828234 0.852542 0.485841
O O18 0.973349 0.000000 0.665713
#
# Coordination Sequence:
#
# PCOD9149240 Si02
#       7
#     4   4   4   4   4   4   4
#     4  10  20  34  54  81 117 161 198 227 271 335
#     4   9  17  29  48  75 108 146 181 215 261 321
#     4   9  19  32  51  82 110 137 179 232 281 326
#     4   9  16  28  48  74 107 144 175 205 254 326
#     4   9  18  33  53  80 110 143 186 230 273 330
#     4  10  21  36  55  83 115 147 188 240 289 335
#     4  10  21  38  57  75 101 142 189 238 296 352
#
# _framework density 24.802588
#
# number of rings (size 3 to 8) (size 9 to 14) (size 15 to 20)
#    0.000    2.571    0.000    1.714    0.000    7.429 
#    0.000    4.286    0.000    4.286    0.000   12.000 
#    0.000    0.000    0.000    0.000    0.000    0.000 
#
# Total GULP energy -156125.754097 kJ/mol
# GULP energy per Si atom -5575.919789 kJ/mol
# Density = 2.474614 g / cm^3
# Si number density = 24.802588 Si / 1000 Ang^3
#
#
#
# Elastic Constant Matrix: (Units=GPa)
#
#
# Indices 1 2 3 4 5 6 
#
# 1 71.3568 41.0084 36.4350 0.0000 -21.4958 0.0000
# 2 41.0084 157.9374 86.7942 0.0000 -22.5815 0.0000
# 3 36.4350 86.7942 155.7146 0.0000 -31.8294 0.0000
# 4 0.0000 0.0000 0.0000 103.5596 0.0000 35.6567
# 5 -21.4958 -22.5815 -31.8294 0.0000 48.6682 0.0000
# 6 0.0000 0.0000 0.0000 35.6567 0.0000 24.5490
#
#
#
# Elastic Compliance Matrix: (Units=1/GPa)
#
#
# Indices 1 2 3 4 5 6 
#
# 1 0.018245 -0.003195 -0.001321 0.000000 0.005712 0.000000
# 2 -0.003195 0.009733 -0.004667 0.000000 0.000053 0.000000
# 3 -0.001321 -0.004667 0.010124 0.000000 0.003872 0.000000
# 4 0.000000 0.000000 0.000000 0.019316 0.000000 -0.028057
# 5 0.005712 0.000053 0.003872 0.000000 0.025627 0.000000
# 6 0.000000 0.000000 0.000000 -0.028057 0.000000 0.081486
#
#
# Mechanical properties :
#
#
# Convention : Reuss Voigt Hill
#
# Bulk Modulus (GPa) = 50.66459 79.27599 64.97029
# Shear Modulus (GPa) = 26.38838 50.07344 38.23091
#
# Velocity S-wave (km/s) = 3.26534 4.49807 3.93034
# Velocity P-wave (km/s) = 5.88966 7.68173 6.84460
#
# Compressibility (1/GPa) = 0.01973765
#
# Stress axis : x y z
#
# Youngs Moduli (GPa) = 54.80848 102.73820 98.77584
#
# Poissons Ratio (x) = 0.32823 0.13045
# Poissons Ratio (y) = 0.17511 0.46099
# Poissons Ratio (z) = 0.07238 0.47948
#
# Static dielectric constant tensor:
#      x y z
#    x 2.048560 0.000000 -0.036340 
#    y 0.000000 1.915890 0.000000 
#    z -0.036340 0.000000 2.066370 
# 
# From -- ./inp_files/83936.got.cif
#   From: 2010.05.17/outbox.cif.g08.bks.cpg/sg10_42_cif.got.tgz:83936.got - 2010.06.03 11:33:40.
