data_PCOD9149921
_publ_section_title
;
Structure prediction by ZEFSAII (Michael W. Deem and Ramdas Pophale) SiO2 
 PCOD9149921
Probable space group: P 2/M
;
_chemical_formula_sum "Si O2"
_cell_formula_units_Z 28
_cell_length_a 12.977055
_cell_length_b 7.765217
_cell_length_c 13.724341
_cell_angle_alpha 90.000000
_cell_angle_beta 112.477736
_cell_angle_gamma 90.000000
_cell_volume 1277.928193
_symmetry_space_group_name_H-M "P 2/M"
_symmetry_group_IT_number 10
_symmetry_cell_setting 'monoclinic'
loop_
_space_group_symop_operation_xyz
x,y,z
-x,y,-z
-x,-y,-z
x,-y,z
loop_
_atom_site_type_symbol
_atom_site_label
_atom_site_fract_x
_atom_site_fract_y
_atom_site_fract_z
Si Si1 0.956772 0.791453 0.377654
Si Si2 0.844251 0.202074 0.684295
Si Si3 0.707392 0.703061 0.227693
Si Si4 0.122965 0.291373 0.080791
Si Si5 0.477580 0.800297 0.210977
Si Si6 0.599728 0.211560 0.606531
Si Si7 0.308178 0.298426 0.996798
O O1 0.832568 0.729831 0.309600
O O2 0.000000 0.741565 0.500000
O O3 0.048373 0.726591 0.332901
O O4 0.952073 0.000000 0.372207
O O5 0.857561 0.221017 0.804631
O O6 0.721304 0.272077 0.615811
O O7 0.841218 0.000000 0.657937
O O8 0.683412 0.500000 0.217521
O O9 0.610615 0.783684 0.258476
O O10 0.695268 0.775165 0.113015
O O11 0.130283 0.500000 0.089436
O O12 0.214761 0.227702 0.036850
O O13 0.000000 0.245891 0.000000
O O14 0.425083 0.730169 0.291907
O O15 0.424648 0.716517 0.095701
O O16 0.447295 0.000000 0.194105
O O17 0.500000 0.264750 0.500000
O O18 0.600527 0.000000 0.608437
O O19 0.281296 0.500000 0.975379
#
# Coordination Sequence:
#
# PCOD9149921 Si02
#       7
#     4   4   4   4   4   4   4
#     4  10  23  41  63  89 118 154 199 247 293 344
#     4  10  20  37  60  88 117 148 191 241 290 340
#     4  11  24  41  61  85 119 160 200 239 293 354
#     4  10  20  35  57  83 115 156 196 234 284 344
#     4  11  22  37  62  91 119 152 196 245 296 350
#     4   9  19  35  59  88 117 152 190 235 291 348
#     4  10  21  38  58  83 119 159 197 240 291 351
#
# _framework density 21.910464999999999
#
# number of rings (size 3 to 8) (size 9 to 14) (size 15 to 20)
#    0.000    1.857    1.429    2.143    2.000    5.143 
#    0.000    0.000    0.000    2.143    0.000    0.000 
#    0.000    0.000    0.000    0.000    0.000    0.000 
#
# Total GULP energy -156489.498109 kJ/mol
# GULP energy per Si atom -5588.910647 kJ/mol
# Density = 2.186060 g / cm^3
# Si number density = 21.910465 Si / 1000 Ang^3
#
#
#
# Elastic Constant Matrix: (Units=GPa)
#
#
# Indices 1 2 3 4 5 6 
#
# 1 125.1277 -3.1131 11.2291 0.0000 21.0302 0.0000
# 2 -3.1131 31.7091 -8.4179 0.0000 -4.7450 0.0000
# 3 11.2291 -8.4179 66.3551 0.0000 20.3028 0.0000
# 4 0.0000 0.0000 0.0000 19.4994 0.0000 1.2655
# 5 21.0302 -4.7450 20.3028 0.0000 38.8721 0.0000
# 6 0.0000 0.0000 0.0000 1.2655 0.0000 16.7160
#
#
#
# Elastic Compliance Matrix: (Units=1/GPa)
#
#
# Indices 1 2 3 4 5 6 
#
# 1 0.008792 0.000150 -0.000023 0.000000 -0.004726 0.000000
# 2 0.000150 0.032793 0.003493 0.000000 0.002097 0.000000
# 3 -0.000023 0.003493 0.018309 0.000000 -0.009124 0.000000
# 4 0.000000 0.000000 0.000000 0.051537 0.000000 -0.003902
# 5 -0.004726 0.002097 -0.009124 0.000000 0.033304 0.000000
# 6 0.000000 0.000000 0.000000 -0.003902 0.000000 0.060118
#
#
# Mechanical properties :
#
#
# Convention : Reuss Voigt Hill
#
# Bulk Modulus (GPa) = 14.89555 24.73201 19.81378
# Shear Modulus (GPa) = 22.72826 29.91709 26.32267
#
# Velocity S-wave (km/s) = 3.22425 3.69917 3.46985
# Velocity P-wave (km/s) = 4.54688 5.43668 5.01157
#
# Compressibility (1/GPa) = 0.06713414
#
# Stress axis : x y z
#
# Youngs Moduli (GPa) = 113.74024 30.49469 54.61754
#
# Poissons Ratio (x) = -0.00457 0.00124
# Poissons Ratio (y) = -0.01705 -0.19078
# Poissons Ratio (z) = 0.00258 -0.10652
#
# Static dielectric constant tensor:
#      x y z
#    x 1.804360 0.000000 -0.006600 
#    y 0.000000 1.808550 0.000000 
#    z -0.006600 0.000000 1.759850 
# 
# From -- ./inp_files/49550.got.cif
#   From: 2010.05.17/outbox.cif.g08.bks.cpg/sg10_25_cif.got.tgz:49550.got - 2010.06.03 11:33:40.
