data_PCOD9149750
_publ_section_title
;
Structure prediction by ZEFSAII (Michael W. Deem and Ramdas Pophale) SiO2 
 PCOD9149750
Probable space group: P 2/M
;
_chemical_formula_sum "Si O2"
_cell_formula_units_Z 24
_cell_length_a 13.864173
_cell_length_b 7.700429
_cell_length_c 18.535248
_cell_angle_alpha 90.000000
_cell_angle_beta 42.627000
_cell_angle_gamma 90.000000
_cell_volume 1340.105051
_symmetry_space_group_name_H-M "P 2/M"
_symmetry_group_IT_number 10
_symmetry_cell_setting 'monoclinic'
loop_
_space_group_symop_operation_xyz
x,y,z
-x,y,-z
-x,-y,-z
x,-y,z
loop_
_atom_site_type_symbol
_atom_site_label
_atom_site_fract_x
_atom_site_fract_y
_atom_site_fract_z
Si Si1 0.541539 0.197868 0.359982
Si Si2 0.515321 0.000000 0.869974
Si Si3 0.429084 0.699253 0.815639
Si Si4 0.716732 0.296175 0.399835
Si Si5 0.899075 0.710168 0.992567
Si Si6 0.259752 0.000000 0.126684
Si Si7 0.959291 0.709668 0.794380
O O1 0.527264 0.293971 0.292130
O O2 0.662050 0.269249 0.347909
O O3 0.395598 0.205079 0.485970
O O4 0.577273 0.000000 0.323404
O O5 0.513627 0.168985 0.819835
O O6 0.646725 0.000000 0.852568
O O7 0.372321 0.000000 0.998225
O O8 0.436763 0.500000 0.837368
O O9 0.264680 0.760794 0.908305
O O10 0.704554 0.500000 0.421863
O O11 0.880694 0.245884 0.318581
O O12 0.900308 0.500000 0.997128
O O13 0.951784 0.751960 0.883725
O O14 0.000000 0.778987 0.000000
O O15 0.159911 0.170339 0.176225
O O16 0.937103 0.500000 0.798161
#
# Coordination Sequence:
#
# PCOD9149750 Si02
#       7
#     4   2   4   4   4   2   4
#     4  11  21  33  54  87 122 157 198 228 270 333
#     4  11  24  42  57  90 107 147 190 240 298 354
#     4  11  21  38  59  81 116 151 188 236 282 337
#     4  10  20  35  55  83 121 161 197 226 270 331
#     4   9  17  31  52  81 115 148 181 220 270 331
#     4  11  24  40  63  80 119 139 188 248 296 346
#     4  10  21  37  58  84 113 151 190 231 283 339
#
# _framework density 17.909044000000002
#
# number of rings (size 3 to 8) (size 9 to 14) (size 15 to 20)
#    0.000    1.667    2.500    4.000    2.333    3.333 
#    0.000    2.500    0.000    2.000    0.000    3.500 
#    0.000    0.000    0.000    0.000    0.000    0.000 
#
# Total GULP energy -133989.872284 kJ/mol
# GULP energy per Si atom -5582.911345 kJ/mol
# Density = 1.786828 g / cm^3
# Si number density = 17.909044 Si / 1000 Ang^3
#
#
#
# Elastic Constant Matrix: (Units=GPa)
#
#
# Indices 1 2 3 4 5 6 
#
# 1 113.6840 37.5864 35.2195 0.0000 -8.5097 0.0000
# 2 37.5864 72.6406 14.1372 0.0000 -6.9905 0.0000
# 3 35.2195 14.1372 59.4612 0.0000 -7.1810 0.0000
# 4 0.0000 0.0000 0.0000 60.0574 0.0000 45.2053
# 5 -8.5097 -6.9905 -7.1810 0.0000 25.4351 0.0000
# 6 0.0000 0.0000 0.0000 45.2053 0.0000 86.6028
#
#
#
# Elastic Compliance Matrix: (Units=1/GPa)
#
#
# Indices 1 2 3 4 5 6 
#
# 1 0.012448 -0.005169 -0.006018 0.000000 0.001045 0.000000
# 2 -0.005169 0.016822 -0.000609 0.000000 0.002722 0.000000
# 3 -0.006018 -0.000609 0.020979 0.000000 0.003742 0.000000
# 4 0.000000 0.000000 0.000000 0.027427 0.000000 -0.014316
# 5 0.001045 0.002722 0.003742 0.000000 0.041470 0.000000
# 6 0.000000 0.000000 0.000000 -0.014316 0.000000 0.019020
#
#
# Mechanical properties :
#
#
# Convention : Reuss Voigt Hill
#
# Bulk Modulus (GPa) = 37.51449 46.63021 42.07235
# Shear Modulus (GPa) = 29.30112 45.00857 37.15484
#
# Velocity S-wave (km/s) = 4.04927 5.01860 4.55976
# Velocity P-wave (km/s) = 6.54636 7.72499 7.15997
#
# Compressibility (1/GPa) = 0.02665637
#
# Stress axis : x y z
#
# Youngs Moduli (GPa) = 80.33490 59.44766 47.66710
#
# Poissons Ratio (x) = 0.30729 0.28685
# Poissons Ratio (y) = 0.41526 0.02903
# Poissons Ratio (z) = 0.48344 0.03620
#
# Static dielectric constant tensor:
#      x y z
#    x 1.582350 0.000000 -0.001110 
#    y 0.000000 1.637170 0.000000 
#    z -0.001110 0.000000 1.624800 
# 
# From -- ./inp_files/75902.got.cif
#   From: 2010.05.17/outbox.cif.g08.bks.cpg/sg10_38_cif.got.tgz:75902.got - 2010.06.03 11:33:40.
