data_PCOD9149949
_publ_section_title
;
Structure prediction by ZEFSAII (Michael W. Deem and Ramdas Pophale) SiO2 
 PCOD9149949
Probable space group: P 2/M
;
_chemical_formula_sum "Si O2"
_cell_formula_units_Z 24
_cell_length_a 8.815248
_cell_length_b 13.261243
_cell_length_c 12.231590
_cell_angle_alpha 90.000000
_cell_angle_beta 129.358252
_cell_angle_gamma 90.000000
_cell_volume 1105.582619
_symmetry_space_group_name_H-M "P 2/M"
_symmetry_group_IT_number 10
_symmetry_cell_setting 'monoclinic'
loop_
_space_group_symop_operation_xyz
x,y,z
-x,y,-z
-x,-y,-z
x,-y,z
loop_
_atom_site_type_symbol
_atom_site_label
_atom_site_fract_x
_atom_site_fract_y
_atom_site_fract_z
Si Si1 0.544031 0.324754 0.141436
Si Si2 0.090082 0.221544 0.744796
Si Si3 0.983274 0.387676 0.861959
Si Si4 0.350820 0.178521 0.526300
Si Si5 0.572930 0.890345 0.194249
Si Si6 0.529151 0.606717 0.663026
O O1 0.777149 0.301712 0.265514
O O2 0.454128 0.211208 0.111600
O O3 0.465133 0.389938 0.202735
O O4 0.500000 0.361726 0.000000
O O5 0.069417 0.288515 0.844250
O O6 0.234951 0.126496 0.794330
O O7 0.875968 0.185862 0.611348
O O8 0.060665 0.500000 0.865132
O O9 0.752861 0.387102 0.727167
O O10 0.000000 0.380281 0.000000
O O11 0.500000 0.139565 0.500000
O O12 0.373895 0.121566 0.652743
O O13 0.416822 0.293892 0.577129
O O14 0.485499 0.000000 0.135650
O O15 0.439503 0.500000 0.588456
#
# Coordination Sequence:
#
# PCOD9149949 Si02
#       6
#     4   4   4   4   4   4
#     4   9  20  37  59  83 112 149 184 234 279 333
#     4  10  21  35  59  84 113 149 185 234 283 330
#     4  10  20  35  57  84 115 155 194 226 272 333
#     4  11  21  38  58  81 115 147 188 235 279 336
#     4   9  22  40  60  84 111 145 188 236 291 340
#     4  10  21  35  55  82 117 154 187 230 277 329
#
# _framework density 21.708010000000002
#
# number of rings (size 3 to 8) (size 9 to 14) (size 15 to 20)
#    1.000    1.167    1.667    1.500    0.000    4.000 
#    0.000    0.833    0.000    0.500    0.000    0.000 
#    0.000    0.000    0.000    0.000    0.000    0.000 
#
# Total GULP energy -133610.778422 kJ/mol
# GULP energy per Si atom -5567.115768 kJ/mol
# Density = 2.165860 g / cm^3
# Si number density = 21.708010 Si / 1000 Ang^3
#
#
#
# Elastic Constant Matrix: (Units=GPa)
#
#
# Indices 1 2 3 4 5 6 
#
# 1 81.7179 12.7110 21.0702 0.0000 -4.7454 0.0000
# 2 12.7110 92.5134 10.6408 0.0000 -14.4968 0.0000
# 3 21.0702 10.6408 74.6999 0.0000 -24.5093 0.0000
# 4 0.0000 0.0000 0.0000 13.4881 0.0000 -3.2187
# 5 -4.7454 -14.4968 -24.5093 0.0000 42.3893 0.0000
# 6 0.0000 0.0000 0.0000 -3.2187 0.0000 19.5648
#
#
#
# Elastic Compliance Matrix: (Units=1/GPa)
#
#
# Indices 1 2 3 4 5 6 
#
# 1 0.013441 -0.001599 -0.004010 0.000000 -0.001361 0.000000
# 2 -0.001599 0.011622 0.000050 0.000000 0.003825 0.000000
# 3 -0.004010 0.000050 0.017733 0.000000 0.009822 0.000000
# 4 0.000000 0.000000 0.000000 0.077169 0.000000 0.012695
# 5 -0.001361 0.003825 0.009822 0.000000 0.030425 0.000000
# 6 0.000000 0.000000 0.000000 0.012695 0.000000 0.053201
#
#
# Mechanical properties :
#
#
# Convention : Reuss Voigt Hill
#
# Bulk Modulus (GPa) = 31.56557 37.53057 34.54807
# Shear Modulus (GPa) = 22.19578 28.72239 25.45909
#
# Velocity S-wave (km/s) = 3.20108 3.64142 3.42833
# Velocity P-wave (km/s) = 5.31367 5.91661 5.62323
#
# Compressibility (1/GPa) = 0.03168008
#
# Stress axis : x y z
#
# Youngs Moduli (GPa) = 74.40048 86.04027 56.39119
#
# Poissons Ratio (x) = 0.13755 0.22612
# Poissons Ratio (y) = 0.11894 -0.00284
# Poissons Ratio (z) = 0.29833 -0.00433
#
# Static dielectric constant tensor:
#      x y z
#    x 1.828860 0.000000 0.000890 
#    y 0.000000 1.801190 0.000000 
#    z 0.000890 0.000000 1.868520 
# 
# From -- ./inp_files/42515.got.cif
#   From: 2010.05.17/outbox.cif.g08.bks.cpg/sg10_22_cif.got.tgz:42515.got - 2010.06.03 11:33:40.
