data_PCOD9149402
_publ_section_title
;
Structure prediction by ZEFSAII (Michael W. Deem and Ramdas Pophale) SiO2 
 PCOD9149402
Probable space group: P 2/M
;
_chemical_formula_sum "Si O2"
_cell_formula_units_Z 28
_cell_length_a 22.962611
_cell_length_b 16.833139
_cell_length_c 8.873303
_cell_angle_alpha 90.000000
_cell_angle_beta 27.571838
_cell_angle_gamma 90.000000
_cell_volume 1587.529154
_symmetry_space_group_name_H-M "P 2/M"
_symmetry_group_IT_number 10
_symmetry_cell_setting 'monoclinic'
loop_
_space_group_symop_operation_xyz
x,y,z
-x,y,-z
-x,-y,-z
x,-y,z
loop_
_atom_site_type_symbol
_atom_site_label
_atom_site_fract_x
_atom_site_fract_y
_atom_site_fract_z
Si Si1 0.971094 0.909677 0.240114
Si Si2 0.134716 0.144968 0.109871
Si Si3 0.312291 0.000000 0.792903
Si Si4 0.407692 0.000000 0.919749
Si Si5 0.677289 0.260008 0.193164
Si Si6 0.365500 0.588318 0.892854
Si Si7 0.550479 0.700692 0.053896
Si Si8 0.296933 0.834548 0.163501
O O1 0.848686 0.854167 0.535729
O O2 0.093676 0.871904 0.034448
O O3 0.948036 0.000000 0.353989
O O4 0.000000 0.917334 0.000000
O O5 0.000000 0.138546 0.500000
O O6 0.204011 0.226355 0.988905
O O7 0.228223 0.075945 0.948770
O O8 0.360590 0.000000 0.853558
O O9 0.443084 0.000000 0.402841
O O10 0.352842 0.083412 0.099382
O O11 0.702912 0.342122 0.044819
O O12 0.563027 0.271488 0.572887
O O13 0.649819 0.196739 0.120822
O O14 0.500000 0.583817 0.500000
O O15 0.309618 0.500000 0.020627
O O16 0.394765 0.621413 0.992714
O O17 0.500000 0.692470 0.000000
O O18 0.660783 0.766073 0.818669
#
# Coordination Sequence:
#
# PCOD9149402 Si02
#       8
#     4   4   2   2   4   4   4   4
#     4  11  24  38  52  72 107 150 192 240 276 310
#     4  12  21  35  54  76 101 140 194 231 266 314
#     4  11  21  28  52  78 102 131 182 242 267 311
#     4  11  20  32  51  75 103 142 181 228 283 320
#     4  10  20  34  56  82 108 138 176 228 267 322
#     4   8  16  34  59  84 111 140 170 209 266 326
#     4  10  22  35  53  83 116 141 172 223 272 328
#     4  11  20  37  52  75 105 144 190 227 277 316
#
# _framework density 17.637471000000001
#
# number of rings (size 3 to 8) (size 9 to 14) (size 15 to 20)
#    0.000    1.571    4.286    2.357    4.000    0.286 
#    0.000    0.357    0.000    0.429    0.000    0.000 
#    0.000   10.857    0.000    0.000    0.000    0.000 
#
# Total GULP energy -156048.493561 kJ/mol
# GULP energy per Si atom -5573.160484 kJ/mol
# Density = 1.759733 g / cm^3
# Si number density = 17.637471 Si / 1000 Ang^3
#
#
#
# Elastic Constant Matrix: (Units=GPa)
#
#
# Indices 1 2 3 4 5 6 
#
# 1 120.0401 56.1459 24.9963 0.0000 -13.7804 0.0000
# 2 56.1459 131.0118 24.2892 0.0000 -15.9677 0.0000
# 3 24.9963 24.2892 54.1421 0.0000 -19.4148 0.0000
# 4 0.0000 0.0000 0.0000 -4.7018 0.0000 15.6185
# 5 -13.7804 -15.9677 -19.4148 0.0000 31.7136 0.0000
# 6 0.0000 0.0000 0.0000 15.6185 0.0000 -9.0780
#
#
#
# Elastic Compliance Matrix: (Units=1/GPa)
#
#
# Indices 1 2 3 4 5 6 
#
# 1 0.010928 -0.004031 -0.002898 0.000000 0.000945 0.000000
# 2 -0.004031 0.009962 -0.001842 0.000000 0.002137 0.000000
# 3 -0.002898 -0.001842 0.025433 0.000000 0.013383 0.000000
# 4 0.000000 0.000000 0.000000 0.045107 0.000000 0.077606
# 5 0.000945 0.002137 0.013383 0.000000 0.041212 0.000000
# 6 0.000000 0.000000 0.000000 0.077606 0.000000 0.023362
#
#
# Mechanical properties :
#
#
# Convention : Reuss Voigt Hill
#
# Bulk Modulus (GPa) = 34.74444 57.33964 46.04204
# Shear Modulus (GPa) = 27.30145 16.90427 22.10286
#
# Velocity S-wave (km/s) = 3.93863 3.09921 3.54386
# Velocity P-wave (km/s) = 6.35813 6.73702 6.55032
#
# Compressibility (1/GPa) = 0.02878159
#
# Stress axis : x y z
#
# Youngs Moduli (GPa) = 91.51011 100.37904 39.31831
#
# Poissons Ratio (x) = 0.40460 0.11395
# Poissons Ratio (y) = 0.36885 0.07243
# Poissons Ratio (z) = 0.26520 0.18491
#
# Static dielectric constant tensor:
#      x y z
#    x 1.659050 0.000000 0.029590 
#    y 0.000000 1.629590 0.000000 
#    z 0.029590 0.000000 1.620110 
# 
# From -- ./inp_files/35366.got.cif
#   From: 2010.05.17/outbox.cif.g08.bks.cpg/sg10_18_cif.got.tgz:35366.got - 2010.06.03 11:33:40.
