data_PCOD9149954
_publ_section_title
;
Structure prediction by ZEFSAII (Michael W. Deem and Ramdas Pophale) SiO2 
 PCOD9149954
Probable space group: P 2/M
;
_chemical_formula_sum "Si O2"
_cell_formula_units_Z 28
_cell_length_a 9.192093
_cell_length_b 19.702102
_cell_length_c 16.139294
_cell_angle_alpha 90.000000
_cell_angle_beta 28.610786
_cell_angle_gamma 90.000000
_cell_volume 1399.643607
_symmetry_space_group_name_H-M "P 2/M"
_symmetry_group_IT_number 10
_symmetry_cell_setting 'monoclinic'
loop_
_space_group_symop_operation_xyz
x,y,z
-x,y,-z
-x,-y,-z
x,-y,z
loop_
_atom_site_type_symbol
_atom_site_label
_atom_site_fract_x
_atom_site_fract_y
_atom_site_fract_z
Si Si1 0.640108 0.647527 0.016623
Si Si2 0.633366 0.925999 0.525597
Si Si3 0.633371 0.074001 0.841035
Si Si4 0.638936 0.220372 0.776865
Si Si5 0.359895 0.352475 0.656730
Si Si6 0.646986 0.581271 0.676508
Si Si7 0.361061 0.779627 0.415803
O O1 0.543673 0.726052 0.077639
O O2 0.507727 0.609184 0.162873
O O3 0.500000 0.622920 0.000000
O O4 0.000001 0.641028 0.834470
O O5 0.500000 0.922100 0.500000
O O6 0.544187 0.857548 0.617134
O O7 0.999998 0.925580 0.338392
O O8 0.542794 0.000000 0.606300
O O9 0.544192 0.142450 0.838675
O O10 0.542799 0.000000 0.850904
O O11 0.500000 0.077901 0.000000
O O12 0.595578 0.237549 0.702211
O O13 0.999998 0.226321 0.614870
O O14 0.500000 0.377083 0.500000
O O15 0.492271 0.390819 0.670602
O O16 0.456337 0.273950 0.621307
O O17 0.632927 0.500000 0.683539
O O18 0.000000 0.602970 0.500000
#
# Coordination Sequence:
#
# PCOD9149954 Si02
#       7
#     4   4   4   4   4   4   4
#     4  12  25  42  67  97 131 172 215 260 311 372
#     4   9  18  32  50  75 108 151 203 257 314 373
#     4   9  18  32  50  75 108 151 203 257 314 373
#     4  10  20  35  57  84 119 160 206 263 318 372
#     4  12  25  42  67  97 131 172 215 260 311 372
#     4  11  25  47  73 101 134 167 204 255 311 372
#     4  10  20  35  57  84 119 160 206 263 318 372
#
# _framework density 20.005092999999999
#
# number of rings (size 3 to 8) (size 9 to 14) (size 15 to 20)
#    0.000    1.571    1.429    3.857    0.000    5.714 
#    0.000    2.857    0.000    0.000    0.000    6.000 
#    0.000    0.000    0.000    0.000    0.000    0.000 
#
# Total GULP energy -156443.092992 kJ/mol
# GULP energy per Si atom -5587.253321 kJ/mol
# Density = 1.995956 g / cm^3
# Si number density = 20.005093 Si / 1000 Ang^3
#
#
#
# Elastic Constant Matrix: (Units=GPa)
#
#
# Indices 1 2 3 4 5 6 
#
# 1 132.4784 47.0524 67.6706 0.0000 4.0175 0.0000
# 2 47.0524 88.3089 42.3975 0.0000 4.7548 0.0000
# 3 67.6706 42.3975 119.4469 0.0000 9.2971 0.0000
# 4 0.0000 0.0000 0.0000 18.6468 0.0000 -2.7731
# 5 4.0175 4.7548 9.2971 0.0000 25.0445 0.0000
# 6 0.0000 0.0000 0.0000 -2.7731 0.0000 15.9342
#
#
#
# Elastic Compliance Matrix: (Units=1/GPa)
#
#
# Indices 1 2 3 4 5 6 
#
# 1 0.011523 -0.003639 -0.005300 0.000000 0.000810 0.000000
# 2 -0.003639 0.014815 -0.003114 0.000000 -0.001073 0.000000
# 3 -0.005300 -0.003114 0.012735 0.000000 -0.003286 0.000000
# 4 0.000000 0.000000 0.000000 0.055053 0.000000 0.009581
# 5 0.000810 -0.001073 -0.003286 0.000000 0.041223 0.000000
# 6 0.000000 0.000000 0.000000 0.009581 0.000000 0.064425
#
#
# Mechanical properties :
#
#
# Convention : Reuss Voigt Hill
#
# Bulk Modulus (GPa) = 66.80237 72.71947 69.76092
# Shear Modulus (GPa) = 21.84642 24.13268 22.98955
#
# Velocity S-wave (km/s) = 3.30819 3.47699 3.39364
# Velocity P-wave (km/s) = 6.93234 7.24905 7.09246
#
# Compressibility (1/GPa) = 0.01496953
#
# Stress axis : x y z
#
# Youngs Moduli (GPa) = 86.77931 67.49713 78.52146
#
# Poissons Ratio (x) = 0.24562 0.41615
# Poissons Ratio (y) = 0.31579 0.24448
# Poissons Ratio (z) = 0.45991 0.21016
#
# Static dielectric constant tensor:
#      x y z
#    x 1.679020 0.000000 0.003320 
#    y 0.000000 1.740130 0.000000 
#    z 0.003320 0.000000 1.675770 
# 
# From -- ./inp_files/62459.got.cif
#   From: 2010.05.17/outbox.cif.g08.bks.cpg/sg10_32_cif.got.tgz:62459.got - 2010.06.03 11:33:40.
