data_PCOD9149543
_publ_section_title
;
Structure prediction by ZEFSAII (Michael W. Deem and Ramdas Pophale) SiO2 
 PCOD9149543
Probable space group: P 2/M
;
_chemical_formula_sum "Si O2"
_cell_formula_units_Z 17
_cell_length_a 8.901241
_cell_length_b 19.157954
_cell_length_c 7.953308
_cell_angle_alpha 90.000000
_cell_angle_beta 147.295121
_cell_angle_gamma 90.000000
_cell_volume 732.811172
_symmetry_space_group_name_H-M "P 2/M"
_symmetry_group_IT_number 10
_symmetry_cell_setting 'monoclinic'
loop_
_space_group_symop_operation_xyz
x,y,z
-x,y,-z
-x,-y,-z
x,-y,z
loop_
_atom_site_type_symbol
_atom_site_label
_atom_site_fract_x
_atom_site_fract_y
_atom_site_fract_z
Si Si1 0.000000 0.500000 0.500000
Si Si2 0.170979 0.694475 0.990928
Si Si3 0.330723 0.635292 0.679732
Si Si4 0.979327 0.077259 0.684769
Si Si5 0.520645 0.834492 0.816482
O O1 0.798429 0.561420 0.391901
O O2 0.928806 0.681458 0.625141
O O3 0.412743 0.635388 0.209896
O O4 0.341870 0.765650 0.128413
O O5 0.000000 0.692838 0.000000
O O6 0.500000 0.663886 0.000000
O O7 0.774055 0.141030 0.531478
O O8 0.000000 0.075036 0.500000
O O9 0.895963 0.000000 0.662691
O O10 0.279907 0.099796 0.029729
O O11 0.500000 0.826499 0.000000
#
# Coordination Sequence:
#
# PCOD9149543 Si02
#       5
#     1   4   4   4   4
#     4  12  26  48  80 106 130 172 222 280 324 394
#     4  12  26  44  67 102 143 179 219 280 336 390
#     4  12  25  46  76 100 131 175 225 267 332 397
#     4   9  17  31  54  87 125 164 219 286 336 380
#     4  10  20  34  59  91 124 173 227 271 331 394
#
# _framework density 23.198335
#
# number of rings (size 3 to 8) (size 9 to 14) (size 15 to 20)
#    0.000    1.176    2.353    3.882    0.000    6.588 
#    0.000    3.529    0.000    4.235    0.000    0.000 
#    0.000    0.000    0.000    0.000    0.000    0.471 
#
# Total GULP energy -94744.771477 kJ/mol
# GULP energy per Si atom -5573.221852 kJ/mol
# Density = 2.314553 g / cm^3
# Si number density = 23.198335 Si / 1000 Ang^3
#
#
#
# Elastic Constant Matrix: (Units=GPa)
#
#
# Indices 1 2 3 4 5 6 
#
# 1 122.1723 60.1932 43.0185 0.0000 40.5960 0.0000
# 2 60.1932 147.0911 39.3992 0.0000 26.3978 0.0000
# 3 43.0185 39.3992 95.8239 0.0000 29.6396 0.0000
# 4 0.0000 0.0000 0.0000-3494.2152 0.0000-1939.2153
# 5 40.5960 26.3978 29.6396 0.0000 43.3103 0.0000
# 6 0.0000 0.0000 0.0000-1939.2153 0.0000-1077.3091
#
#
#
# Elastic Compliance Matrix: (Units=1/GPa)
#
#
# Indices 1 2 3 4 5 6 
#
# 1 0.013645 -0.003401 -0.001792 0.000000 -0.009491 0.000000
# 2 -0.003401 0.008849 -0.001813 0.000000 -0.000965 0.000000
# 3 -0.001792 -0.001813 0.014112 0.000000 -0.006873 0.000000
# 4 0.000000 0.000000 0.000000 -0.283955 0.000000 0.511135
# 5 -0.009491 -0.000965 -0.006873 0.000000 0.037277 0.000000
# 6 0.000000 0.000000 0.000000 0.511135 0.000000 -0.920998
#
#
# Mechanical properties :
#
#
# Convention : Reuss Voigt Hill
#
# Bulk Modulus (GPa) = 44.25873 72.25657 58.25765
# Shear Modulus (GPa) = -4.50642 -890.81104 -447.65873
#
# Velocity S-wave (km/s) = -1.39527 -19.61712 -13.90644
# Velocity P-wave (km/s) = 4.06499 21.95208 15.25401
#
# Compressibility (1/GPa) = 0.02259441
#
# Stress axis : x y z
#
# Youngs Moduli (GPa) = 73.28491 113.00673 70.86400
#
# Poissons Ratio (x) = 0.38430 0.12698
# Poissons Ratio (y) = 0.24922 0.12849
# Poissons Ratio (z) = 0.13132 0.20490
#
# Static dielectric constant tensor:
#      x y z
#    x 1.995100 0.000000 -0.031540 
#    y 0.000000 1.828060 0.000000 
#    z -0.031540 0.000000 1.858770 
# 
# From -- ./inp_files/20359.got.cif
#   From: 2010.05.17/outbox.cif.g08.bks.cpg/sg10_11_cif.got.tgz:20359.got - 2010.06.03 11:33:40.
