data_PCOD9149205
_publ_section_title
;
Structure prediction by ZEFSAII (Michael W. Deem and Ramdas Pophale) SiO2 
 PCOD9149205
Probable space group: P 2/M
;
_chemical_formula_sum "Si O2"
_cell_formula_units_Z 28
_cell_length_a 15.489864
_cell_length_b 18.925707
_cell_length_c 8.579580
_cell_angle_alpha 90.000000
_cell_angle_beta 31.589983
_cell_angle_gamma 90.000000
_cell_volume 1317.534233
_symmetry_space_group_name_H-M "P 2/M"
_symmetry_group_IT_number 10
_symmetry_cell_setting 'monoclinic'
loop_
_space_group_symop_operation_xyz
x,y,z
-x,y,-z
-x,-y,-z
x,-y,z
loop_
_atom_site_type_symbol
_atom_site_label
_atom_site_fract_x
_atom_site_fract_y
_atom_site_fract_z
Si Si1 0.867835 0.115084 0.313087
Si Si2 0.959038 0.726394 0.236531
Si Si3 0.155923 0.626639 0.154376
Si Si4 0.686442 0.368873 0.770205
Si Si5 0.476658 0.084639 0.221548
Si Si6 0.832218 0.500000 0.364852
Si Si7 0.172589 0.079925 0.277422
Si Si8 0.314317 0.500000 0.726187
O O1 0.946224 0.189726 0.243302
O O2 0.697006 0.121651 0.480439
O O3 0.833122 0.075600 0.526746
O O4 0.000000 0.079090 0.000000
O O5 0.778512 0.700037 0.564088
O O6 0.088610 0.693949 0.160871
O O7 0.000000 0.698890 0.000000
O O8 0.296891 0.635491 0.068426
O O9 0.000000 0.603367 0.500000
O O10 0.217570 0.567817 0.940545
O O11 0.797971 0.432298 0.526036
O O12 0.500000 0.376044 0.000000
O O13 0.461861 0.000000 0.273305
O O14 0.500000 0.094386 0.000000
O O15 0.646886 0.110574 0.038408
O O16 0.690661 0.500000 0.451623
O O17 0.000000 0.500000 0.000000
O O18 0.000000 0.116092 0.500000
O O19 0.169939 0.000000 0.215164
O O20 0.500000 0.500000 0.500000
#
# Coordination Sequence:
#
# PCOD9149205 Si02
#       8
#     4   4   4   4   4   2   4   2
#     4  10  20  34  54  79 107 143 189 236 278 334
#     4  10  22  39  55  75 107 147 187 226 282 340
#     4  10  21  38  57  78 108 144 182 221 271 332
#     4  11  22  37  57  83 109 137 183 235 273 320
#     4   8  15  30  53  80 110 145 183 225 276 332
#     4  12  22  36  58  82 113 147 172 213 280 341
#     4   9  18  33  55  83 115 149 185 228 278 334
#     4  12  22  34  58  88 112 141 178 223 280 331
#
# _framework density 21.251819999999999
#
# number of rings (size 3 to 8) (size 9 to 14) (size 15 to 20)
#    0.000    2.000    0.000    6.000    0.000    4.571 
#    0.000    0.714    0.000    6.000    0.000    0.000 
#    0.000    0.000    0.000    0.000    0.000    0.000 
#
# Total GULP energy -156069.579319 kJ/mol
# GULP energy per Si atom -5573.913547 kJ/mol
# Density = 2.120345 g / cm^3
# Si number density = 21.251820 Si / 1000 Ang^3
#
#
#
# Elastic Constant Matrix: (Units=GPa)
#
#
# Indices 1 2 3 4 5 6 
#
# 1 125.2050 15.1610 47.3224 0.0000 -32.2882 0.0000
# 2 15.1610 64.5464 17.1545 0.0000 -5.3563 0.0000
# 3 47.3224 17.1545 86.3311 0.0000 -31.6019 0.0000
# 4 0.0000 0.0000 0.0000 10.6976 0.0000 11.9986
# 5 -32.2882 -5.3563 -31.6019 0.0000 47.9433 0.0000
# 6 0.0000 0.0000 0.0000 11.9986 0.0000 4.8751
#
#
#
# Elastic Compliance Matrix: (Units=1/GPa)
#
#
# Indices 1 2 3 4 5 6 
#
# 1 0.010812 -0.001086 -0.004072 0.000000 0.004476 0.000000
# 2 -0.001086 0.016472 -0.002994 0.000000 -0.000865 0.000000
# 3 -0.004072 -0.002994 0.017509 0.000000 0.008464 0.000000
# 4 0.000000 0.000000 0.000000 -0.053097 0.000000 0.130682
# 5 0.004476 -0.000865 0.008464 0.000000 0.029355 0.000000
# 6 0.000000 0.000000 0.000000 0.130682 0.000000 -0.116512
#
#
# Mechanical properties :
#
#
# Convention : Reuss Voigt Hill
#
# Bulk Modulus (GPa) = 35.10341 48.37316 41.73829
# Shear Modulus (GPa) = -71.77592 25.79950 -22.98821
#
# Velocity S-wave (km/s) = -5.81785 3.48802 -3.29250
# Velocity P-wave (km/s) = 5.34566 6.24764 2.28658
#
# Compressibility (1/GPa) = 0.02848726
#
# Stress axis : x y z
#
# Youngs Moduli (GPa) = 92.49159 60.70968 57.11423
#
# Poissons Ratio (x) = 0.06592 0.23259
# Poissons Ratio (y) = 0.10043 0.17102
# Poissons Ratio (z) = 0.37666 0.18179
#
# Static dielectric constant tensor:
#      x y z
#    x 1.822780 0.000000 -0.043910 
#    y 0.000000 1.862480 0.000000 
#    z -0.043910 0.000000 1.810120 
# 
# From -- ./inp_files/30432.got.cif
#   From: 2010.05.17/outbox.cif.g08.bks.cpg/sg10_16_cif.got.tgz:30432.got - 2010.06.03 11:33:40.
