data_PCOD9149655
_publ_section_title
;
Structure prediction by ZEFSAII (Michael W. Deem and Ramdas Pophale) SiO2 
 PCOD9149655
Probable space group: P 2/M
;
_chemical_formula_sum "Si O2"
_cell_formula_units_Z 32
_cell_length_a 30.221926
_cell_length_b 7.539600
_cell_length_c 12.647084
_cell_angle_alpha 90.000000
_cell_angle_beta 150.553715
_cell_angle_gamma 90.000000
_cell_volume 1416.704399
_symmetry_space_group_name_H-M "P 2/M"
_symmetry_group_IT_number 10
_symmetry_cell_setting 'monoclinic'
loop_
_space_group_symop_operation_xyz
x,y,z
-x,y,-z
-x,-y,-z
x,-y,z
loop_
_atom_site_type_symbol
_atom_site_label
_atom_site_fract_x
_atom_site_fract_y
_atom_site_fract_z
Si Si1 0.601130 0.714389 0.194644
Si Si2 0.096061 0.795473 0.667047
Si Si3 0.362262 0.792964 0.969152
Si Si4 0.762155 0.715151 0.674319
Si Si5 0.162704 0.295872 0.583578
Si Si6 0.263243 0.795027 0.141403
Si Si7 0.466016 0.214587 0.547444
Si Si8 0.103141 0.283555 0.229414
O O1 0.600834 0.500000 0.193273
O O2 0.636919 0.771715 0.155220
O O3 0.666813 0.770017 0.425228
O O4 0.500000 0.778683 0.000000
O O5 0.112137 0.793343 0.575386
O O6 0.000000 0.715810 0.500000
O O7 0.093621 0.000000 0.699883
O O8 0.185312 0.713967 0.906237
O O9 0.270398 0.711797 0.821955
O O10 0.357765 0.000000 0.987750
O O11 0.456213 0.720357 0.211069
O O12 0.764405 0.500000 0.685572
O O13 0.771172 0.787612 0.810201
O O14 0.836764 0.772895 0.744822
O O15 0.133538 0.500000 0.524242
O O16 0.140225 0.222994 0.420232
O O17 0.364282 0.717225 0.349927
O O18 0.274450 0.000000 0.129558
O O19 0.500000 0.250999 0.500000
O O20 0.462303 0.000000 0.553795
O O21 0.108120 0.500000 0.240538
O O22 0.000000 0.232089 0.000000
#
# Coordination Sequence:
#
# PCOD9149655 Si02
#       8
#     4   4   4   4   4   4   4   4
#     4  10  20  35  54  79 115 155 190 231 284 337
#     4  10  23  42  62  86 119 154 189 238 297 345
#     4  11  21  34  57  85 114 149 190 238 289 342
#     4  10  20  36  57  82 116 151 188 233 284 339
#     4  11  22  39  63  88 116 150 196 242 287 348
#     4  10  21  38  59  84 117 152 191 238 285 343
#     4   9  18  34  56  80 108 149 194 232 280 340
#     4   9  19  36  58  83 111 148 189 235 286 337
#
# _framework density 22.587634000000001
#
# number of rings (size 3 to 8) (size 9 to 14) (size 15 to 20)
#    0.000    2.000    1.250    2.250    1.750    3.500 
#    0.000    0.625    0.000    4.500    0.000    0.000 
#    0.000    0.000    0.000    0.000    0.000    0.000 
#
# Total GULP energy -178853.958400 kJ/mol
# GULP energy per Si atom -5589.186200 kJ/mol
# Density = 2.253622 g / cm^3
# Si number density = 22.587634 Si / 1000 Ang^3
#
#
#
# Elastic Constant Matrix: (Units=GPa)
#
#
# Indices 1 2 3 4 5 6 
#
# 1 123.3515 -8.6448 50.1525 0.0000 17.5718 0.0000
# 2 -8.6448 55.4255 3.9896 0.0000 2.9563 0.0000
# 3 50.1525 3.9896 121.3245 0.0000 14.3476 0.0000
# 4 0.0000 0.0000 0.0000 -13.4112 0.0000 3.5085
# 5 17.5718 2.9563 14.3476 0.0000 38.7027 0.0000
# 6 0.0000 0.0000 0.0000 3.5085 0.0000 18.6400
#
#
#
# Elastic Compliance Matrix: (Units=1/GPa)
#
#
# Indices 1 2 3 4 5 6 
#
# 1 0.010338 0.002077 -0.003941 0.000000 -0.003391 0.000000
# 2 0.002077 0.018557 -0.001244 0.000000 -0.001899 0.000000
# 3 -0.003941 -0.001244 0.010134 0.000000 -0.001873 0.000000
# 4 0.000000 0.000000 0.000000 -0.071065 0.000000 0.013376
# 5 -0.003391 -0.001899 -0.001873 0.000000 0.028217 0.000000
# 6 0.000000 0.000000 0.000000 0.013376 0.000000 0.051130
#
#
# Mechanical properties :
#
#
# Convention : Reuss Voigt Hill
#
# Bulk Modulus (GPa) = 30.47596 43.45511 36.96554
# Shear Modulus (GPa) = 77.56269 25.75990 51.66129
#
# Velocity S-wave (km/s) = 5.86627 3.38071 4.78760
# Velocity P-wave (km/s) = 7.70751 5.87530 6.85291
#
# Compressibility (1/GPa) = 0.03281275
#
# Stress axis : x y z
#
# Youngs Moduli (GPa) = 96.73273 53.88795 98.68094
#
# Poissons Ratio (x) = -0.11192 0.38886
# Poissons Ratio (y) = -0.20091 0.12278
# Poissons Ratio (z) = 0.38119 0.06705
#
# Static dielectric constant tensor:
#      x y z
#    x 1.780410 0.000000 0.017140 
#    y 0.000000 1.855850 0.000000 
#    z 0.017140 0.000000 1.846910 
# 
# From -- ./inp_files/58226.got.cif
#   From: 2010.05.17/outbox.cif.g08.bks.cpg/sg10_30_cif.got.tgz:58226.got - 2010.06.03 11:33:40.
