data_PCOD9149757
_publ_section_title
;
Structure prediction by ZEFSAII (Michael W. Deem and Ramdas Pophale) SiO2 
 PCOD9149757
Probable space group: P 2/M
;
_chemical_formula_sum "Si O2"
_cell_formula_units_Z 28
_cell_length_a 13.843383
_cell_length_b 13.833930
_cell_length_c 8.712225
_cell_angle_alpha 90.000000
_cell_angle_beta 61.975794
_cell_angle_gamma 90.000000
_cell_volume 1472.835391
_symmetry_space_group_name_H-M "P 2/M"
_symmetry_group_IT_number 10
_symmetry_cell_setting 'monoclinic'
loop_
_space_group_symop_operation_xyz
x,y,z
-x,y,-z
-x,-y,-z
x,-y,z
loop_
_atom_site_type_symbol
_atom_site_label
_atom_site_fract_x
_atom_site_fract_y
_atom_site_fract_z
Si Si1 0.117377 0.891569 0.061887
Si Si2 0.785975 0.763633 0.252712
Si Si3 0.925971 0.824306 0.418802
Si Si4 0.378298 0.610950 0.520090
Si Si5 0.411267 0.889793 0.701400
Si Si6 0.548536 0.745173 0.807280
Si Si7 0.731620 0.104191 0.762936
O O1 0.219202 0.886277 0.103615
O O2 0.009281 0.881165 0.246512
O O3 0.117551 0.000000 0.991151
O O4 0.130339 0.799387 0.941316
O O5 0.853867 0.759214 0.359394
O O6 0.708961 0.669170 0.309889
O O7 0.698286 0.851054 0.299500
O O8 0.836686 0.888396 0.573514
O O9 0.000000 0.778725 0.500000
O O10 0.500000 0.612430 0.500000
O O11 0.344800 0.500000 0.523995
O O12 0.397863 0.668961 0.348193
O O13 0.500000 0.891019 0.500000
O O14 0.457528 0.812019 0.789288
O O15 0.399817 0.000000 0.767997
O O16 0.645510 0.815748 0.785258
O O17 0.500000 0.701646 0.000000
O O18 0.678464 0.000000 0.783807
#
# Coordination Sequence:
#
# PCOD9149757 Si02
#       7
#     4   4   4   4   4   4   4
#     4  10  22  35  55  90 126 162 204 239 274 337
#     4  12  20  38  60  84 113 159 199 239 295 342
#     4  10  21  37  57  83 120 161 201 241 282 338
#     4  11  24  45  66  87 114 148 197 251 305 362
#     4  11  21  34  54  85 124 162 197 225 272 355
#     4  12  22  37  60  89 121 151 193 244 303 359
#     4  10  20  35  55  84 126 168 193 227 281 344
#
# _framework density 19.010950000000001
#
# number of rings (size 3 to 8) (size 9 to 14) (size 15 to 20)
#    0.000    1.143    4.286    2.571    0.000    8.286 
#    0.000    0.000    0.000    2.143    0.000    0.000 
#    0.000    0.000    0.000    0.000    0.000    0.000 
#
# Total GULP energy -156199.390585 kJ/mol
# GULP energy per Si atom -5578.549664 kJ/mol
# Density = 1.896768 g / cm^3
# Si number density = 19.010950 Si / 1000 Ang^3
#
#
#
# Elastic Constant Matrix: (Units=GPa)
#
#
# Indices 1 2 3 4 5 6 
#
# 1 92.5350 22.3077 11.2262 0.0000 2.4173 0.0000
# 2 22.3077 105.0402 35.2349 0.0000 6.1062 0.0000
# 3 11.2262 35.2349 98.9762 0.0000 -1.8132 0.0000
# 4 0.0000 0.0000 0.0000 7.5160 0.0000 1.7884
# 5 2.4173 6.1062 -1.8132 0.0000 28.9232 0.0000
# 6 0.0000 0.0000 0.0000 1.7884 0.0000 6.3885
#
#
#
# Elastic Compliance Matrix: (Units=1/GPa)
#
#
# Indices 1 2 3 4 5 6 
#
# 1 0.011418 -0.002223 -0.000513 0.000000 -0.000517 0.000000
# 2 -0.002223 0.011431 -0.003863 0.000000 -0.002470 0.000000
# 3 -0.000513 -0.003863 0.011566 0.000000 0.001583 0.000000
# 4 0.000000 0.000000 0.000000 0.142544 0.000000 -0.039904
# 5 -0.000517 -0.002470 0.001583 0.000000 0.035238 0.000000
# 6 0.000000 0.000000 0.000000 -0.039904 0.000000 0.167702
#
#
# Mechanical properties :
#
#
# Convention : Reuss Voigt Hill
#
# Bulk Modulus (GPa) = 47.12931 48.23209 47.68070
# Shear Modulus (GPa) = 12.49470 23.75106 18.12288
#
# Velocity S-wave (km/s) = 2.56644 3.53843 3.09088
# Velocity P-wave (km/s) = 5.79885 6.48997 6.15412
#
# Compressibility (1/GPa) = 0.02121822
#
# Stress axis : x y z
#
# Youngs Moduli (GPa) = 87.57845 87.47773 86.46211
#
# Poissons Ratio (x) = 0.19444 0.04438
# Poissons Ratio (y) = 0.19466 0.33398
# Poissons Ratio (z) = 0.04496 0.33790
#
# Static dielectric constant tensor:
#      x y z
#    x 1.696160 0.000000 0.000560 
#    y 0.000000 1.622300 0.000000 
#    z 0.000560 0.000000 1.745120 
# 
# From -- ./inp_files/28931.got.cif
#   From: 2010.05.17/outbox.cif.g08.bks.cpg/sg10_15_cif.got.tgz:28931.got - 2010.06.03 11:33:40.
