data_PCOD9149730
_publ_section_title
;
Structure prediction by ZEFSAII (Michael W. Deem and Ramdas Pophale) SiO2 
 PCOD9149730
Probable space group: P 2/M
;
_chemical_formula_sum "Si O2"
_cell_formula_units_Z 28
_cell_length_a 15.280957
_cell_length_b 8.948734
_cell_length_c 18.411920
_cell_angle_alpha 90.000000
_cell_angle_beta 140.883842
_cell_angle_gamma 90.000000
_cell_volume 1588.429947
_symmetry_space_group_name_H-M "P 2/M"
_symmetry_group_IT_number 10
_symmetry_cell_setting 'monoclinic'
loop_
_space_group_symop_operation_xyz
x,y,z
-x,y,-z
-x,-y,-z
x,-y,z
loop_
_atom_site_type_symbol
_atom_site_label
_atom_site_fract_x
_atom_site_fract_y
_atom_site_fract_z
Si Si1 0.887033 0.323617 0.743302
Si Si2 0.673085 0.679455 0.329522
Si Si3 0.123842 0.177271 0.420170
Si Si4 0.102238 0.328846 0.635900
Si Si5 0.408111 0.178066 0.217779
Si Si6 0.912820 0.820351 0.016025
Si Si7 0.593523 0.323188 0.629150
O O1 0.901838 0.500000 0.739306
O O2 0.862444 0.240820 0.651694
O O3 0.752366 0.301851 0.707454
O O4 0.017488 0.258580 0.870548
O O5 0.676591 0.500000 0.338055
O O6 0.763144 0.748314 0.453527
O O7 0.751799 0.718769 0.305055
O O8 0.518965 0.741637 0.237785
O O9 0.973357 0.225341 0.354768
O O10 0.140036 0.000000 0.432101
O O11 0.110592 0.500000 0.668230
O O12 0.000000 0.330840 0.500000
O O13 0.437969 0.231500 0.319089
O O14 0.423300 0.000000 0.222423
O O15 0.248605 0.217726 0.097878
O O16 0.924133 0.000000 0.031377
O O17 0.000000 0.778554 0.000000
O O18 0.500000 0.280615 0.500000
O O19 0.569718 0.500000 0.628120
#
# Coordination Sequence:
#
# PCOD9149730 Si02
#       7
#     4   4   4   4   4   4   4
#     4  11  22  35  55  79 106 143 185 225 265 318
#     4  10  20  35  55  80 113 146 178 220 267 320
#     4  11  21  33  54  83 114 144 177 220 269 322
#     4   8  16  32  53  77 108 145 178 213 263 320
#     4  11  22  35  55  79 105 141 180 223 271 321
#     4  10  21  39  57  75 105 142 182 228 275 319
#     4  10  21  35  51  74 106 141 174 216 267 318
#
# _framework density 17.627471
#
# number of rings (size 3 to 8) (size 9 to 14) (size 15 to 20)
#    0.000    1.857    1.429    4.286    0.000    6.571 
#    0.000    0.000    0.000    0.857    0.000    6.000 
#    0.000    0.000    0.000    0.000    0.000    0.000 
#
# Total GULP energy -156339.564023 kJ/mol
# GULP energy per Si atom -5583.555858 kJ/mol
# Density = 1.758735 g / cm^3
# Si number density = 17.627471 Si / 1000 Ang^3
#
#
#
# Elastic Constant Matrix: (Units=GPa)
#
#
# Indices 1 2 3 4 5 6 
#
# 1 63.6802 31.1971 3.9690 0.0000 27.1233 0.0000
# 2 31.1971 51.3777 12.8110 0.0000 11.9607 0.0000
# 3 3.9690 12.8110 48.0584 0.0000 20.8710 0.0000
# 4 0.0000 0.0000 0.0000 27.1907 0.0000 0.8652
# 5 27.1233 11.9607 20.8710 0.0000 26.9451 0.0000
# 6 0.0000 0.0000 0.0000 0.8652 0.0000 31.2073
#
#
#
# Elastic Compliance Matrix: (Units=1/GPa)
#
#
# Indices 1 2 3 4 5 6 
#
# 1 0.056917 -0.026234 0.033328 0.000000 -0.071463 0.000000
# 2 -0.026234 0.033986 -0.017796 0.000000 0.025106 0.000000
# 3 0.033328 -0.017796 0.051142 0.000000 -0.065262 0.000000
# 4 0.000000 0.000000 0.000000 0.036810 0.000000 -0.001020
# 5 -0.071463 0.025106 -0.065262 0.000000 0.148454 0.000000
# 6 0.000000 0.000000 0.000000 -0.001020 0.000000 0.032072
#
#
# Mechanical properties :
#
#
# Convention : Reuss Voigt Hill
#
# Bulk Modulus (GPa) = 8.28915 28.78560 18.53737
# Shear Modulus (GPa) = 11.87652 24.74456 18.31054
#
# Velocity S-wave (km/s) = 2.59849 3.75073 3.22646
# Velocity P-wave (km/s) = 3.70344 5.92644 4.94157
#
# Compressibility (1/GPa) = 0.12063964
#
# Stress axis : x y z
#
# Youngs Moduli (GPa) = 17.56955 29.42373 19.55349
#
# Poissons Ratio (x) = 0.77191 -0.65168
# Poissons Ratio (y) = 0.46092 0.34798
# Poissons Ratio (z) = -0.58556 0.52363
#
# Static dielectric constant tensor:
#      x y z
#    x 1.616740 0.000000 0.028780 
#    y 0.000000 1.587530 0.000000 
#    z 0.028780 0.000000 1.582290 
# 
# From -- ./inp_files/63380.got.cif
#   From: 2010.05.17/outbox.cif.g08.bks.cpg/sg10_32_cif.got.tgz:63380.got - 2010.06.03 11:33:40.
