data_PCOD9149805
_publ_section_title
;
Structure prediction by ZEFSAII (Michael W. Deem and Ramdas Pophale) SiO2 
 PCOD9149805
Probable space group: P 2/M
;
_chemical_formula_sum "Si O2"
_cell_formula_units_Z 32
_cell_length_a 28.187885
_cell_length_b 7.557905
_cell_length_c 22.065216
_cell_angle_alpha 90.000000
_cell_angle_beta 18.029270
_cell_angle_gamma 90.000000
_cell_volume 1454.911905
_symmetry_space_group_name_H-M "P 2/M"
_symmetry_group_IT_number 10
_symmetry_cell_setting 'monoclinic'
loop_
_space_group_symop_operation_xyz
x,y,z
-x,y,-z
-x,-y,-z
x,-y,z
loop_
_atom_site_type_symbol
_atom_site_label
_atom_site_fract_x
_atom_site_fract_y
_atom_site_fract_z
Si Si1 0.030295 0.702956 0.633850
Si Si2 0.734808 0.785805 0.181755
Si Si3 0.642141 0.206959 0.552476
Si Si4 0.365351 0.214176 0.209092
Si Si5 0.416196 0.784061 0.510398
Si Si6 0.460231 0.786541 0.884892
Si Si7 0.887835 0.710202 0.688273
Si Si8 0.937371 0.295077 0.270473
O O1 0.980217 0.500000 0.704940
O O2 0.199028 0.708212 0.399230
O O3 0.921741 0.784256 0.714388
O O4 0.046951 0.784261 0.680661
O O5 0.591250 0.733656 0.313609
O O6 0.689524 0.727976 0.304744
O O7 0.741775 0.000000 0.172770
O O8 0.897329 0.718914 0.961540
O O9 0.636850 0.280238 0.490958
O O10 0.516035 0.282004 0.752111
O O11 0.804982 0.216915 0.388787
O O12 0.604874 0.000000 0.590799
O O13 0.419623 0.269433 0.209923
O O14 0.352386 0.000000 0.222245
O O15 0.500000 0.266767 0.000000
O O16 0.411656 0.000000 0.517122
O O17 0.465015 0.000000 0.878130
O O18 0.289688 0.735206 0.110326
O O19 0.918865 0.500000 0.654508
O O20 0.000000 0.782513 0.500000
O O21 0.893842 0.500000 0.330376
#
# Coordination Sequence:
#
# PCOD9149805 Si02
#       8
#     4   4   4   4   4   4   4   4
#     4  10  22  38  54  77 109 145 184 221 262 321
#     4   9  18  36  61  85 109 142 181 223 270 319
#     4  10  20  37  58  81 110 144 183 225 269 321
#     4  10  20  35  56  81 108 138 176 223 271 318
#     4   8  17  35  60  87 110 137 182 228 266 318
#     4  10  21  35  54  83 111 137 175 224 273 320
#     4  10  22  39  57  78 106 142 183 224 270 326
#     4  11  23  37  53  80 115 148 183 222 265 319
#
# _framework density 21.994458000000002
#
# number of rings (size 3 to 8) (size 9 to 14) (size 15 to 20)
#    0.000    2.250    1.250    1.875    1.750    3.000 
#    0.000    5.000    0.000    0.000    0.000    0.000 
#    0.000    0.000    0.000    0.000    0.000    0.000 
#
# Total GULP energy -178705.619331 kJ/mol
# GULP energy per Si atom -5584.550604 kJ/mol
# Density = 2.194440 g / cm^3
# Si number density = 21.994458 Si / 1000 Ang^3
#
#
#
# Elastic Constant Matrix: (Units=GPa)
#
#
# Indices 1 2 3 4 5 6 
#
# 1 92.1061 6.4829 0.4386 0.0000 11.9531 0.0000
# 2 6.4829 51.5201 -11.8423 0.0000 5.4968 0.0000
# 3 0.4386 -11.8423 89.9339 0.0000 7.7159 0.0000
# 4 0.0000 0.0000 0.0000 17.8436 0.0000 -1.6110
# 5 11.9531 5.4968 7.7159 0.0000 29.6466 0.0000
# 6 0.0000 0.0000 0.0000 -1.6110 0.0000 2.6466
#
#
#
# Elastic Compliance Matrix: (Units=1/GPa)
#
#
# Indices 1 2 3 4 5 6 
#
# 1 0.011508 -0.000917 0.000211 0.000000 -0.004525 0.000000
# 2 -0.000917 0.020693 0.003096 0.000000 -0.004273 0.000000
# 3 0.000211 0.003096 0.011847 0.000000 -0.003743 0.000000
# 4 0.000000 0.000000 0.000000 0.059301 0.000000 0.036097
# 5 -0.004525 -0.004273 -0.003743 0.000000 0.037321 0.000000
# 6 0.000000 0.000000 0.000000 0.036097 0.000000 0.399812
#
#
# Mechanical properties :
#
#
# Convention : Reuss Voigt Hill
#
# Bulk Modulus (GPa) = 20.47986 24.85761 22.66874
# Shear Modulus (GPa) = 9.05834 25.92610 17.49222
#
# Velocity S-wave (km/s) = 2.03160 3.43703 2.82317
# Velocity P-wave (km/s) = 3.85160 5.20357 4.57777
#
# Compressibility (1/GPa) = 0.04882847
#
# Stress axis : x y z
#
# Youngs Moduli (GPa) = 86.89778 48.32622 84.40961
#
# Poissons Ratio (x) = 0.04430 -0.01784
# Poissons Ratio (y) = 0.07966 -0.26132
# Poissons Ratio (z) = -0.01837 -0.14961
#
# Static dielectric constant tensor:
#      x y z
#    x 1.826480 0.000000 0.035580 
#    y 0.000000 1.840970 0.000000 
#    z 0.035580 0.000000 1.745000 
# 
# From -- ./inp_files/86777.got.cif
#   From: 2010.05.17/outbox.cif.g08.bks.cpg/sg10_44_cif.got.tgz:86777.got - 2010.06.03 11:33:40.
