data_PCOD9149751
_publ_section_title
;
Structure prediction by ZEFSAII (Michael W. Deem and Ramdas Pophale) SiO2 
 PCOD9149751
Probable space group: P 2/M
;
_chemical_formula_sum "Si O2"
_cell_formula_units_Z 28
_cell_length_a 12.219719
_cell_length_b 7.744592
_cell_length_c 16.085473
_cell_angle_alpha 90.000000
_cell_angle_beta 55.318719
_cell_angle_gamma 90.000000
_cell_volume 1251.813772
_symmetry_space_group_name_H-M "P 2/M"
_symmetry_group_IT_number 10
_symmetry_cell_setting 'monoclinic'
loop_
_space_group_symop_operation_xyz
x,y,z
-x,y,-z
-x,-y,-z
x,-y,z
loop_
_atom_site_type_symbol
_atom_site_label
_atom_site_fract_x
_atom_site_fract_y
_atom_site_fract_z
Si Si1 0.124701 0.795876 0.499519
Si Si2 0.174503 0.200371 0.130010
Si Si3 0.153635 0.209555 0.951390
Si Si4 0.336668 0.700879 0.718483
Si Si5 0.117171 0.700899 0.691998
Si Si6 0.575708 0.301130 0.888284
Si Si7 0.408206 0.710679 0.303056
O O1 0.132366 0.714088 0.587070
O O2 0.261486 0.766033 0.391985
O O3 0.000000 0.729365 0.500000
O O4 0.104273 0.000000 0.521234
O O5 0.269190 0.295626 0.153903
O O6 0.020004 0.213677 0.220123
O O7 0.212977 0.000000 0.115943
O O8 0.191993 0.264704 0.027997
O O9 0.248564 0.285191 0.840137
O O10 0.161458 0.000000 0.944377
O O11 0.000000 0.256744 0.000000
O O12 0.359294 0.500000 0.687454
O O13 0.244864 0.775915 0.685243
O O14 0.480624 0.773654 0.679951
O O15 0.105308 0.500000 0.721394
O O16 0.530234 0.500000 0.902430
O O17 0.557096 0.225597 0.804885
O O18 0.500000 0.220901 0.000000
O O19 0.410754 0.500000 0.300469
#
# Coordination Sequence:
#
# PCOD9149751 Si02
#       7
#     4   4   4   4   4   4   4
#     4  11  25  44  65  89 117 152 197 246 297 356
#     4  11  22  36  57  86 122 159 199 248 297 350
#     4  10  20  35  55  83 122 164 200 238 291 349
#     4  10  22  39  61  90 121 156 200 246 293 352
#     4  11  23  39  62  90 118 152 196 246 299 352
#     4  10  21  38  61  88 120 158 200 244 293 351
#     4  10  22  41  63  88 121 158 196 244 298 350
#
# _framework density 22.367542
#
# number of rings (size 3 to 8) (size 9 to 14) (size 15 to 20)
#    0.000    1.571    1.429    3.000    0.000    8.571 
#    0.000    2.857    0.000    0.000    0.000    0.000 
#    0.000    0.000    0.000    0.000    0.000    0.000 
#
# Total GULP energy -156570.849751 kJ/mol
# GULP energy per Si atom -5591.816063 kJ/mol
# Density = 2.231663 g / cm^3
# Si number density = 22.367542 Si / 1000 Ang^3
#
#
#
# Elastic Constant Matrix: (Units=GPa)
#
#
# Indices 1 2 3 4 5 6 
#
# 1 167.3098 -2.3423 50.1080 0.0000 0.0726 0.0000
# 2 -2.3423 41.7238 -11.5875 0.0000 2.5570 0.0000
# 3 50.1080 -11.5875 94.0970 0.0000 9.9412 0.0000
# 4 0.0000 0.0000 0.0000 30.8460 0.0000 -14.5337
# 5 0.0726 2.5570 9.9412 0.0000 38.9879 0.0000
# 6 0.0000 0.0000 0.0000 -14.5337 0.0000 10.1019
#
#
#
# Elastic Compliance Matrix: (Units=1/GPa)
#
#
# Indices 1 2 3 4 5 6 
#
# 1 0.007172 -0.000781 -0.004028 0.000000 0.001065 0.000000
# 2 -0.000781 0.025135 0.003787 0.000000 -0.002613 0.000000
# 3 -0.004028 0.003787 0.013631 0.000000 -0.003717 0.000000
# 4 0.000000 0.000000 0.000000 0.100641 0.000000 0.144792
# 5 0.001065 -0.002613 -0.003717 0.000000 0.026766 0.000000
# 6 0.000000 0.000000 0.000000 0.144792 0.000000 0.307303
#
#
# Mechanical properties :
#
#
# Convention : Reuss Voigt Hill
#
# Bulk Modulus (GPa) = 22.78174 41.72078 32.25126
# Shear Modulus (GPa) = 10.05382 33.78400 21.91891
#
# Velocity S-wave (km/s) = 2.12240 3.89061 3.13380
# Velocity P-wave (km/s) = 4.02659 6.23501 5.24827
#
# Compressibility (1/GPa) = 0.04389480
#
# Stress axis : x y z
#
# Youngs Moduli (GPa) = 139.43433 39.78479 73.36091
#
# Poissons Ratio (x) = 0.03108 0.29548
# Poissons Ratio (y) = 0.10893 -0.27784
# Poissons Ratio (z) = 0.56162 -0.15068
#
# Static dielectric constant tensor:
#      x y z
#    x 1.838870 0.000000 0.009440 
#    y 0.000000 1.820450 0.000000 
#    z 0.009440 0.000000 1.774100 
# 
# From -- ./inp_files/63643.got.cif
#   From: 2010.05.17/outbox.cif.g08.bks.cpg/sg10_32_cif.got.tgz:63643.got - 2010.06.03 11:33:40.
