data_PCOD9149550
_publ_section_title
;
Structure prediction by ZEFSAII (Michael W. Deem and Ramdas Pophale) SiO2 
 PCOD9149550
Probable space group: P 2/M
;
_chemical_formula_sum "Si O2"
_cell_formula_units_Z 26
_cell_length_a 15.813306
_cell_length_b 9.164944
_cell_length_c 14.321989
_cell_angle_alpha 90.000000
_cell_angle_beta 144.852634
_cell_angle_gamma 90.000000
_cell_volume 1194.917811
_symmetry_space_group_name_H-M "P 2/M"
_symmetry_group_IT_number 10
_symmetry_cell_setting 'monoclinic'
loop_
_space_group_symop_operation_xyz
x,y,z
-x,y,-z
-x,-y,-z
x,-y,z
loop_
_atom_site_type_symbol
_atom_site_label
_atom_site_fract_x
_atom_site_fract_y
_atom_site_fract_z
Si Si1 0.274381 0.336210 0.028802
Si Si2 0.335981 0.500000 0.390734
Si Si3 0.059787 0.500000 0.949111
Si Si4 0.669590 0.166045 0.619818
Si Si5 0.145434 0.835892 0.739804
Si Si6 0.188909 0.500000 0.436090
Si Si7 0.442948 0.156736 0.684481
Si Si8 0.812474 0.234098 0.423682
O O1 0.291656 0.500000 0.004959
O O2 0.430281 0.275459 0.200893
O O3 0.162412 0.362312 0.013583
O O4 0.205071 0.233904 0.887919
O O5 0.500000 0.500000 0.500000
O O6 0.275931 0.334407 0.309351
O O7 0.332038 0.500000 0.499964
O O8 0.934470 0.500000 0.756092
O O9 0.000000 0.500000 0.000000
O O10 0.500000 0.164406 0.500000
O O11 0.661425 0.165749 0.500001
O O12 0.728996 0.000000 0.700808
O O13 0.189982 0.740961 0.689496
O O14 0.968404 0.843615 0.580859
O O15 0.202372 0.000000 0.777549
O O16 0.178401 0.367726 0.497187
O O17 0.338416 0.161393 0.679776
O O18 0.520034 0.000000 0.748626
#
# Coordination Sequence:
#
# PCOD9149550 Si02
#       8
#     4   2   2   4   4   2   4   4
#     4  10  24  43  65  94 132 173 225 270 328 389
#     4  10  20  34  60  92 129 167 215 260 344 394
#     4  10  24  46  68  94 130 180 227 266 323 398
#     4   9  19  34  54  86 126 165 212 271 332 396
#     4  11  23  44  70  96 130 177 219 269 337 411
#     4  12  22  39  67 102 131 173 221 287 327 392
#     4  11  22  39  62  94 133 171 216 279 336 399
#     4  11  23  39  68  99 133 164 224 268 341 394
#
# _framework density 21.758818000000002
#
# number of rings (size 3 to 8) (size 9 to 14) (size 15 to 20)
#    0.462    1.077    3.077    2.308    3.231    3.692 
#    0.000    2.308    0.000    1.846    0.000    0.000 
#    0.000    0.000    0.000    0.000    0.000    0.000 
#
# Total GULP energy -144777.474484 kJ/mol
# GULP energy per Si atom -5568.364403 kJ/mol
# Density = 2.170929 g / cm^3
# Si number density = 21.758818 Si / 1000 Ang^3
#
#
#
# Elastic Constant Matrix: (Units=GPa)
#
#
# Indices 1 2 3 4 5 6 
#
# 1 157.7494 42.8221 37.3020 0.0000 -13.4862 0.0000
# 2 42.8221 145.7791 35.0441 0.0000 -7.3684 0.0000
# 3 37.3020 35.0441 76.9284 0.0000 -12.7734 0.0000
# 4 0.0000 0.0000 0.0000 27.6434 0.0000 7.1080
# 5 -13.4862 -7.3684 -12.7734 0.0000 32.5351 0.0000
# 6 0.0000 0.0000 0.0000 7.1080 0.0000 22.9704
#
#
#
# Elastic Compliance Matrix: (Units=1/GPa)
#
#
# Indices 1 2 3 4 5 6 
#
# 1 0.007523 -0.001476 -0.002689 0.000000 0.001729 0.000000
# 2 -0.001476 0.007998 -0.002919 0.000000 0.000053 0.000000
# 3 -0.002689 -0.002919 0.016407 0.000000 0.004666 0.000000
# 4 0.000000 0.000000 0.000000 0.039302 0.000000 -0.012162
# 5 0.001729 0.000053 0.004666 0.000000 0.033297 0.000000
# 6 0.000000 0.000000 0.000000 -0.012162 0.000000 0.047298
#
#
# Mechanical properties :
#
#
# Convention : Reuss Voigt Hill
#
# Bulk Modulus (GPa) = 56.30184 67.86592 62.08388
# Shear Modulus (GPa) = 29.08472 34.31570 31.70021
#
# Velocity S-wave (km/s) = 3.66004 3.97557 3.82106
# Velocity P-wave (km/s) = 6.61761 7.23404 6.93268
#
# Compressibility (1/GPa) = 0.01776141
#
# Stress axis : x y z
#
# Youngs Moduli (GPa) = 132.91779 125.03674 60.94960
#
# Poissons Ratio (x) = 0.18459 0.16386
# Poissons Ratio (y) = 0.19623 0.17788
# Poissons Ratio (z) = 0.35735 0.36492
#
# Static dielectric constant tensor:
#      x y z
#    x 1.833500 0.000000 0.030270 
#    y 0.000000 1.886530 0.000000 
#    z 0.030270 0.000000 1.791980 
# 
# From -- ./inp_files/66934.got.cif
#   From: 2010.05.17/outbox.cif.g08.bks.cpg/sg10_34_cif.got.tgz:66934.got - 2010.06.03 11:33:40.
