data_PCOD9149164
_publ_section_title
;
Structure prediction by ZEFSAII (Michael W. Deem and Ramdas Pophale) SiO2 
 PCOD9149164
Probable space group: P 2/M
;
_chemical_formula_sum "Si O2"
_cell_formula_units_Z 30
_cell_length_a 5.382437
_cell_length_b 15.844793
_cell_length_c 16.854078
_cell_angle_alpha 90.000000
_cell_angle_beta 69.999390
_cell_angle_gamma 90.000000
_cell_volume 1350.686808
_symmetry_space_group_name_H-M "P 2/M"
_symmetry_group_IT_number 10
_symmetry_cell_setting 'monoclinic'
loop_
_space_group_symop_operation_xyz
x,y,z
-x,y,-z
-x,-y,-z
x,-y,z
loop_
_atom_site_type_symbol
_atom_site_label
_atom_site_fract_x
_atom_site_fract_y
_atom_site_fract_z
Si Si1 0.000000 0.364387 0.000000
Si Si2 0.441164 0.863397 0.715626
Si Si3 0.827062 0.903587 0.820008
Si Si4 0.776354 0.270715 0.882698
Si Si5 0.437922 0.410170 0.835876
Si Si6 0.284330 0.904448 0.470366
Si Si7 0.812062 0.399657 0.445664
Si Si8 0.257709 0.681528 0.713613
O O1 0.829958 0.414049 0.083179
O O2 0.186914 0.307630 0.034344
O O3 0.623400 0.882138 0.771297
O O4 0.586420 0.910102 0.628745
O O5 0.439400 0.764636 0.691001
O O6 0.136278 0.892239 0.760509
O O7 0.756670 0.829692 0.889107
O O8 0.790828 0.000000 0.849390
O O9 0.567217 0.326122 0.857259
O O10 0.033038 0.289060 0.800124
O O11 0.581427 0.500000 0.833114
O O12 0.395274 0.394223 0.747284
O O13 0.500000 0.858828 0.500000
O O14 0.000000 0.862590 0.500000
O O15 0.242197 0.000000 0.508843
O O16 0.500000 0.389587 0.500000
O O17 0.859545 0.500000 0.426051
O O18 0.850953 0.348120 0.359336
O O19 0.000000 0.375442 0.500000
#
# Coordination Sequence:
#
# PCOD9149164 Si02
#       8
#     2   4   4   4   4   4   4   4
#     4  10  23  42  63  96 142 170 211 270 335 406
#     4  11  22  39  62  91 125 169 221 282 334 399
#     4  11  22  40  66  94 128 172 225 275 329 392
#     4  10  23  41  64  98 131 174 218 277 332 401
#     4  11  22  40  68  98 133 175 218 269 335 407
#     4  10  20  34  53  83 119 157 206 264 328 394
#     4  10  23  41  63  91 128 175 226 277 330 391
#     4  10  23  41  62  93 133 170 228 279 336 391
#
# _framework density 22.210922
#
# number of rings (size 3 to 8) (size 9 to 14) (size 15 to 20)
#    0.000    1.600    1.333    3.000    1.867    5.333 
#    0.000    1.667    0.000    1.600    0.000    0.000 
#    0.000    0.000    0.000    0.000    0.000    0.000 
#
# Total GULP energy -167376.645804 kJ/mol
# GULP energy per Si atom -5579.221527 kJ/mol
# Density = 2.216037 g / cm^3
# Si number density = 22.210922 Si / 1000 Ang^3
#
#
#
# Elastic Constant Matrix: (Units=GPa)
#
#
# Indices 1 2 3 4 5 6 
#
# 1 136.3348 33.3321 24.5436 0.0000 16.4353 0.0000
# 2 33.3321 139.6536 35.4695 0.0000 7.2272 0.0000
# 3 24.5436 35.4695 71.1446 0.0000 27.4624 0.0000
# 4 0.0000 0.0000 0.0000 26.9010 0.0000 26.4760
# 5 16.4353 7.2272 27.4624 0.0000 34.3354 0.0000
# 6 0.0000 0.0000 0.0000 26.4760 0.0000 78.1879
#
#
#
# Elastic Compliance Matrix: (Units=1/GPa)
#
#
# Indices 1 2 3 4 5 6 
#
# 1 0.008235 -0.001575 -0.000958 0.000000 -0.002844 0.000000
# 2 -0.001575 0.008620 -0.004839 0.000000 0.002810 0.000000
# 3 -0.000958 -0.004839 0.023477 0.000000 -0.017300 0.000000
# 4 0.000000 0.000000 0.000000 0.055755 0.000000 -0.018880
# 5 -0.002844 0.002810 -0.017300 0.000000 0.043732 0.000000
# 6 0.000000 0.000000 0.000000 -0.018880 0.000000 0.019183
#
#
# Mechanical properties :
#
#
# Convention : Reuss Voigt Hill
#
# Bulk Modulus (GPa) = 39.07955 59.31371 49.19663
# Shear Modulus (GPa) = 27.43110 44.80404 36.11757
#
# Velocity S-wave (km/s) = 3.51811 4.49621 4.03689
# Velocity P-wave (km/s) = 5.84258 7.32920 6.62770
#
# Compressibility (1/GPa) = 0.02558883
#
# Stress axis : x y z
#
# Youngs Moduli (GPa) = 121.42854 116.00830 42.59515
#
# Poissons Ratio (x) = 0.18273 0.04080
# Poissons Ratio (y) = 0.19126 0.20611
# Poissons Ratio (z) = 0.11630 0.56134
#
# Static dielectric constant tensor:
#      x y z
#    x 1.945030 0.000000 0.005750 
#    y 0.000000 1.950180 0.000000 
#    z 0.005750 0.000000 1.789360 
# 
# From -- ./inp_files/73511.got.cif
#   From: 2010.05.17/outbox.cif.g08.bks.cpg/sg10_37_cif.got.tgz:73511.got - 2010.06.03 11:33:40.
