data_PCOD9149515
_publ_section_title
;
Structure prediction by ZEFSAII (Michael W. Deem and Ramdas Pophale) SiO2 
 PCOD9149515
Probable space group: P 2/M
;
_chemical_formula_sum "Si O2"
_cell_formula_units_Z 28
_cell_length_a 12.898374
_cell_length_b 20.578638
_cell_length_c 8.386658
_cell_angle_alpha 90.000000
_cell_angle_beta 32.338294
_cell_angle_gamma 90.000000
_cell_volume 1190.767743
_symmetry_space_group_name_H-M "P 2/M"
_symmetry_group_IT_number 10
_symmetry_cell_setting 'monoclinic'
loop_
_space_group_symop_operation_xyz
x,y,z
-x,y,-z
-x,-y,-z
x,-y,z
loop_
_atom_site_type_symbol
_atom_site_label
_atom_site_fract_x
_atom_site_fract_y
_atom_site_fract_z
Si Si1 0.499352 0.330723 0.185448
Si Si2 0.093803 0.387382 0.218051
Si Si3 0.405746 0.186069 0.837925
Si Si4 0.979210 0.243744 0.716921
Si Si5 0.698168 0.430074 0.346964
Si Si6 0.717573 0.929617 0.784464
Si Si7 0.821103 0.860942 0.345093
O O1 0.522132 0.252832 0.172437
O O2 0.331103 0.367361 0.503158
O O3 0.500000 0.347504 0.000000
O O4 0.696490 0.361105 0.999451
O O5 0.987798 0.320153 0.312760
O O6 0.000000 0.417457 0.500000
O O7 0.131253 0.424772 0.005526
O O8 0.608723 0.148006 0.539750
O O9 0.234831 0.217973 0.951726
O O10 0.288346 0.131093 0.089025
O O11 0.000000 0.231537 0.500000
O O12 0.131211 0.205630 0.624369
O O13 0.500000 0.432073 0.500000
O O14 0.709890 0.500000 0.417547
O O15 0.829813 0.912844 0.477463
O O16 0.768836 0.000000 0.786971
O O17 0.500000 0.932452 0.000000
O O18 0.000000 0.874888 0.000000
#
# Coordination Sequence:
#
# PCOD9149515 Si02
#       7
#     4   4   4   4   4   4   4
#     4  10  20  34  58  85 114 150 192 246 297 351
#     4   9  20  35  55  84 113 150 193 244 295 349
#     4  10  21  38  60  85 122 152 203 246 295 355
#     4  10  20  36  58  86 120 149 200 250 297 357
#     4   9  19  37  57  81 116 157 197 232 290 366
#     4   9  18  36  60  83 116 160 200 242 295 360
#     4  11  23  35  56  90 118 156 192 247 306 352
#
# _framework density 23.514240999999998
#
# number of rings (size 3 to 8) (size 9 to 14) (size 15 to 20)
#    0.000    2.286    1.429    1.286    6.000    1.429 
#    0.000    2.143    0.000    0.857    0.000    5.000 
#    0.000    0.000    0.000    0.000    0.000    0.000 
#
# Total GULP energy -156087.023304 kJ/mol
# GULP energy per Si atom -5574.536547 kJ/mol
# Density = 2.346072 g / cm^3
# Si number density = 23.514241 Si / 1000 Ang^3
#
#
#
# Elastic Constant Matrix: (Units=GPa)
#
#
# Indices 1 2 3 4 5 6 
#
# 1 48.8640 17.4832 12.4362 0.0000 -13.2472 0.0000
# 2 17.4832 129.9926 37.4744 0.0000 19.3821 0.0000
# 3 12.4362 37.4744 136.0353 0.0000 18.2026 0.0000
# 4 0.0000 0.0000 0.0000-1013.8703 0.0000 -632.5564
# 5 -13.2472 19.3821 18.2026 0.0000 40.2498 0.0000
# 6 0.0000 0.0000 0.0000 -632.5564 0.0000 -379.8277
#
#
#
# Elastic Compliance Matrix: (Units=1/GPa)
#
#
# Indices 1 2 3 4 5 6 
#
# 1 0.026014 -0.004492 -0.002742 0.000000 0.011965 0.000000
# 2 -0.004492 0.009532 -0.001493 0.000000 -0.005393 0.000000
# 3 -0.002742 -0.001493 0.008555 0.000000 -0.004052 0.000000
# 4 0.000000 0.000000 0.000000 0.025269 0.000000 -0.042082
# 5 0.011965 -0.005393 -0.004052 0.000000 0.033212 0.000000
# 6 0.000000 0.000000 0.000000 -0.042082 0.000000 0.067449
#
#
# Mechanical properties :
#
#
# Convention : Reuss Voigt Hill
#
# Bulk Modulus (GPa) = 37.52919 49.96440 43.74680
# Shear Modulus (GPa) = 25.46247 -254.18976 -114.36364
#
# Velocity S-wave (km/s) = 3.29424 -10.40841 -6.98151
# Velocity P-wave (km/s) = 5.51944 11.09739 6.80763
#
# Compressibility (1/GPa) = 0.02664592
#
# Stress axis : x y z
#
# Youngs Moduli (GPa) = 38.44122 104.91463 116.88684
#
# Poissons Ratio (x) = 0.47131 0.32046
# Poissons Ratio (y) = 0.17269 0.17456
# Poissons Ratio (z) = 0.10539 0.15668
#
# Static dielectric constant tensor:
#      x y z
#    x 1.911590 0.000000 0.005810 
#    y 0.000000 1.913450 0.000000 
#    z 0.005810 0.000000 2.031580 
# 
# From -- ./inp_files/30356.got.cif
#   From: 2010.05.17/outbox.cif.g08.bks.cpg/sg10_16_cif.got.tgz:30356.got - 2010.06.03 11:33:40.
