data_PCOD9149685
_publ_section_title
;
Structure prediction by ZEFSAII (Michael W. Deem and Ramdas Pophale) SiO2 
 PCOD9149685
Probable space group: P 2/M
;
_chemical_formula_sum "Si O2"
_cell_formula_units_Z 28
_cell_length_a 27.200259
_cell_length_b 10.574182
_cell_length_c 8.627169
_cell_angle_alpha 90.000000
_cell_angle_beta 39.111579
_cell_angle_gamma 90.000000
_cell_volume 1565.316897
_symmetry_space_group_name_H-M "P 2/M"
_symmetry_group_IT_number 10
_symmetry_cell_setting 'monoclinic'
loop_
_space_group_symop_operation_xyz
x,y,z
-x,y,-z
-x,-y,-z
x,-y,z
loop_
_atom_site_type_symbol
_atom_site_label
_atom_site_fract_x
_atom_site_fract_y
_atom_site_fract_z
Si Si1 0.701788 0.642780 0.373270
Si Si2 0.259124 0.639937 0.082199
Si Si3 0.163105 0.753009 0.751280
Si Si4 0.297118 0.139512 0.212504
Si Si5 0.912983 0.642773 0.362621
Si Si6 0.407813 0.856081 0.228437
Si Si7 0.016263 0.853545 0.276903
O O1 0.673326 0.500000 0.472623
O O2 0.777152 0.668681 0.296050
O O3 0.637989 0.749035 0.566056
O O4 0.726390 0.652705 0.134625
O O5 0.286336 0.500000 0.066241
O O6 0.298106 0.750298 0.085025
O O7 0.167434 0.645649 0.344051
O O8 0.219970 0.840450 0.507820
O O9 0.112124 0.674114 0.752185
O O10 0.105232 0.826940 0.007378
O O11 0.370140 0.148649 0.149331
O O12 0.294356 0.000000 0.148745
O O13 0.945494 0.500000 0.294891
O O14 0.966119 0.753106 0.301942
O O15 0.393176 0.000000 0.322485
O O16 0.500000 0.835366 0.000000
O O17 0.000000 0.834324 0.500000
O O18 0.996664 0.000000 0.288550
#
# Coordination Sequence:
#
# PCOD9149685 Si02
#       7
#     4   4   4   4   4   4   4
#     4  10  20  35  57  82 106 136 174 215 259 308
#     4   9  19  35  53  77 108 138 172 215 262 311
#     4  10  20  35  55  77 103 134 174 220 263 311
#     4   9  18  33  55  78 100 134 176 214 255 307
#     4  10  21  36  55  77 102 136 175 217 266 315
#     4   9  19  36  56  80 110 141 174 212 255 306
#     4  11  24  38  52  74 105 140 177 219 266 313
#
# _framework density 17.887751999999999
#
# number of rings (size 3 to 8) (size 9 to 14) (size 15 to 20)
#    0.000    2.286    0.000    2.143    0.000   10.286 
#    0.000    0.714    0.000    4.286    0.000    0.000 
#    0.000    0.000    0.000    0.000    0.000    0.000 
#
# Total GULP energy -156178.226025 kJ/mol
# GULP energy per Si atom -5577.793787 kJ/mol
# Density = 1.784704 g / cm^3
# Si number density = 17.887752 Si / 1000 Ang^3
#
#
#
# Elastic Constant Matrix: (Units=GPa)
#
#
# Indices 1 2 3 4 5 6 
#
# 1 72.5000 73.3259 49.6219 0.0000 -3.5489 0.0000
# 2 73.3259 173.1970 71.1413 0.0000 1.9504 0.0000
# 3 49.6219 71.1413 68.9837 0.0000 5.8375 0.0000
# 4 0.0000 0.0000 0.0000 17.1261 0.0000 5.4623
# 5 -3.5489 1.9504 5.8375 0.0000 18.9140 0.0000
# 6 0.0000 0.0000 0.0000 5.4623 0.0000 19.5440
#
#
#
# Elastic Compliance Matrix: (Units=1/GPa)
#
#
# Indices 1 2 3 4 5 6 
#
# 1 0.034102 -0.007046 -0.018347 0.000000 0.012788 0.000000
# 2 -0.007046 0.011564 -0.006823 0.000000 -0.000409 0.000000
# 3 -0.018347 -0.006823 0.035899 0.000000 -0.013819 0.000000
# 4 0.000000 0.000000 0.000000 0.064105 0.000000 -0.017916
# 5 0.012788 -0.000409 -0.013819 0.000000 0.059577 0.000000
# 6 0.000000 0.000000 0.000000 -0.017916 0.000000 0.056174
#
#
# Mechanical properties :
#
#
# Convention : Reuss Voigt Hill
#
# Bulk Modulus (GPa) = 58.36115 78.09545 68.22830
# Shear Modulus (GPa) = 15.08011 19.15626 17.11819
#
# Velocity S-wave (km/s) = 2.90667 3.27603 3.09686
# Velocity P-wave (km/s) = 6.63039 7.61993 7.14232
#
# Compressibility (1/GPa) = 0.01713469
#
# Stress axis : x y z
#
# Youngs Moduli (GPa) = 29.32342 86.47710 27.85613
#
# Poissons Ratio (x) = 0.60931 0.51107
# Poissons Ratio (y) = 0.20661 0.19005
# Poissons Ratio (z) = 0.53799 0.58999
#
# Static dielectric constant tensor:
#      x y z
#    x 1.589340 0.000000 -0.000710 
#    y 0.000000 1.624790 0.000000 
#    z -0.000710 0.000000 1.600740 
# 
# From -- ./inp_files/37040.got.cif
#   From: 2010.05.17/outbox.cif.g08.bks.cpg/sg10_19_cif.got.tgz:37040.got - 2010.06.03 11:33:40.
