data_PCOD9149308
_publ_section_title
;
Structure prediction by ZEFSAII (Michael W. Deem and Ramdas Pophale) SiO2 
 PCOD9149308
Probable space group: P 2/M
;
_chemical_formula_sum "Si O2"
_cell_formula_units_Z 28
_cell_length_a 15.563011
_cell_length_b 7.403113
_cell_length_c 20.771105
_cell_angle_alpha 90.000000
_cell_angle_beta 151.909339
_cell_angle_gamma 90.000000
_cell_volume 1126.851963
_symmetry_space_group_name_H-M "P 2/M"
_symmetry_group_IT_number 10
_symmetry_cell_setting 'monoclinic'
loop_
_space_group_symop_operation_xyz
x,y,z
-x,y,-z
-x,-y,-z
x,-y,z
loop_
_atom_site_type_symbol
_atom_site_label
_atom_site_fract_x
_atom_site_fract_y
_atom_site_fract_z
Si Si1 0.606724 0.286460 0.399969
Si Si2 0.642884 0.782770 0.183316
Si Si3 0.689227 0.782522 0.598985
Si Si4 0.932696 0.218922 0.112377
Si Si5 0.198647 0.707289 0.110336
Si Si6 0.164912 0.295356 0.566940
Si Si7 0.234227 0.217422 0.866388
O O1 0.588622 0.500000 0.373361
O O2 0.697568 0.264255 0.529463
O O3 0.396861 0.214373 0.261346
O O4 0.743353 0.211682 0.435590
O O5 0.678237 0.700681 0.275498
O O6 0.779813 0.720688 0.216743
O O7 0.656738 0.000000 0.198199
O O8 0.440248 0.744428 0.025075
O O9 0.500000 0.710510 0.500000
O O10 0.856761 0.725839 0.754414
O O11 0.687741 0.000000 0.600957
O O12 0.883959 0.281768 0.152150
O O13 0.917019 0.000000 0.100715
O O14 0.811317 0.288068 0.973984
O O15 0.196142 0.500000 0.131663
O O16 0.000000 0.788056 0.000000
O O17 0.106141 0.500000 0.512204
O O18 0.000000 0.209959 0.500000
O O19 0.212122 0.000000 0.848895
#
# Coordination Sequence:
#
# PCOD9149308 Si02
#       7
#     4   4   4   4   4   4   4
#     4  10  22  39  58  80 111 151 188 225 274 329
#     4   9  17  32  54  76 101 134 175 216 262 315
#     4  10  22  38  56  83 116 145 179 227 278 329
#     4  10  20  34  55  80 108 140 177 220 271 325
#     4  10  21  37  57  82 109 138 180 231 276 325
#     4  10  22  37  51  73 110 146 179 222 266 311
#     4   8  16  31  51  77 105 131 165 219 268 308
#
# _framework density 24.847985000000001
#
# number of rings (size 3 to 8) (size 9 to 14) (size 15 to 20)
#    0.000    2.429    0.000    2.571    2.000    2.571 
#    0.000    2.143    0.000    0.000    0.000    0.000 
#    0.000    0.000    0.000    0.000    0.000    0.000 
#
# Total GULP energy -156372.135283 kJ/mol
# GULP energy per Si atom -5584.719117 kJ/mol
# Density = 2.479143 g / cm^3
# Si number density = 24.847985 Si / 1000 Ang^3
#
#
#
# Elastic Constant Matrix: (Units=GPa)
#
#
# Indices 1 2 3 4 5 6 
#
# 1 93.8012 0.6170 -2.3513 0.0000 -6.4822 0.0000
# 2 0.6170 86.1528 5.4525 0.0000 7.2423 0.0000
# 3 -2.3513 5.4525 79.0753 0.0000 -5.8677 0.0000
# 4 0.0000 0.0000 0.0000 6.6801 0.0000 -16.0705
# 5 -6.4822 7.2423 -5.8677 0.0000 45.1974 0.0000
# 6 0.0000 0.0000 0.0000 -16.0705 0.0000 -2.8156
#
#
#
# Elastic Compliance Matrix: (Units=1/GPa)
#
#
# Indices 1 2 3 4 5 6 
#
# 1 0.010788 -0.000245 0.000460 0.000000 0.001646 0.000000
# 2 -0.000245 0.011844 -0.000977 0.000000 -0.002060 0.000000
# 3 0.000460 -0.000977 0.012868 0.000000 0.001893 0.000000
# 4 0.000000 0.000000 0.000000 0.010162 0.000000 -0.058002
# 5 0.001646 -0.002060 0.001893 0.000000 0.022937 0.000000
# 6 0.000000 0.000000 0.000000 -0.058002 0.000000 -0.024110
#
#
# Mechanical properties :
#
#
# Convention : Reuss Voigt Hill
#
# Bulk Modulus (GPa) = 29.43261 29.60731 29.51996
# Shear Modulus (GPa) = 87.20324 26.83314 57.01819
#
# Velocity S-wave (km/s) = 5.93050 3.28974 4.79548
# Velocity P-wave (km/s) = 7.66585 5.13528 6.52443
#
# Compressibility (1/GPa) = 0.03397592
#
# Stress axis : x y z
#
# Youngs Moduli (GPa) = 92.69788 84.43095 77.71415
#
# Poissons Ratio (x) = 0.02066 -0.03573
# Poissons Ratio (y) = 0.02269 0.07591
# Poissons Ratio (z) = -0.04262 0.08247
#
# Static dielectric constant tensor:
#      x y z
#    x 2.016700 0.000000 0.076810 
#    y 0.000000 1.943590 0.000000 
#    z 0.076810 0.000000 1.949380 
# 
# From -- ./inp_files/70268.got.cif
#   From: 2010.05.17/outbox.cif.g08.bks.cpg/sg10_36_cif.got.tgz:70268.got - 2010.06.03 11:33:40.
