data_PCOD9149383
_publ_section_title
;
Structure prediction by ZEFSAII (Michael W. Deem and Ramdas Pophale) SiO2 
 PCOD9149383
Probable space group: P 2/M
;
_chemical_formula_sum "Si O2"
_cell_formula_units_Z 16
_cell_length_a 9.120022
_cell_length_b 10.760226
_cell_length_c 11.690218
_cell_angle_alpha 90.000000
_cell_angle_beta 40.184864
_cell_angle_gamma 90.000000
_cell_volume 740.238838
_symmetry_space_group_name_H-M "P 2/M"
_symmetry_group_IT_number 10
_symmetry_cell_setting 'monoclinic'
loop_
_space_group_symop_operation_xyz
x,y,z
-x,y,-z
-x,-y,-z
x,-y,z
loop_
_atom_site_type_symbol
_atom_site_label
_atom_site_fract_x
_atom_site_fract_y
_atom_site_fract_z
Si Si1 0.608321 0.640449 0.046272
Si Si2 0.228100 0.288118 0.438951
Si Si3 0.885777 0.645985 0.230826
Si Si4 0.408265 0.866918 0.682982
O O1 0.671034 0.500000 0.973384
O O2 0.413858 0.635445 0.256615
O O3 0.500000 0.705244 0.000000
O O4 0.853291 0.690366 0.934051
O O5 0.179595 0.340606 0.595234
O O6 0.370231 0.161319 0.372574
O O7 0.000000 0.279937 0.500000
O O8 0.856276 0.500000 0.214648
O O9 0.740879 0.742046 0.241768
O O10 0.500000 0.878846 0.500000
O O11 0.301325 0.000000 0.779127
#
# Coordination Sequence:
#
# PCOD9149383 Si02
#       4
#     4   4   4   4
#     4  10  20  34  55  87 125 153 187 240 296 346
#     4  11  21  35  60  88 119 155 195 238 295 349
#     4  10  21  38  61  89 120 153 193 242 292 348
#     4   9  21  41  62  85 118 158 197 242 293 347
#
# _framework density 21.614646
#
# number of rings (size 3 to 8) (size 9 to 14) (size 15 to 20)
#    0.000    2.000    2.500    0.750    0.000    8.000 
#    0.000    5.000    0.000    1.500    0.000    0.000 
#    0.000    0.000    0.000    0.000    0.000    0.000 
#
# Total GULP energy -89134.124584 kJ/mol
# GULP energy per Si atom -5570.882787 kJ/mol
# Density = 2.156545 g / cm^3
# Si number density = 21.614646 Si / 1000 Ang^3
#
#
#
# Elastic Constant Matrix: (Units=GPa)
#
#
# Indices 1 2 3 4 5 6 
#
# 1 106.1084 67.7669 50.7678 0.0000 -25.3043 0.0000
# 2 67.7669 128.0505 22.6220 0.0000 -18.4236 0.0000
# 3 50.7678 22.6220 130.9136 0.0000 -7.2511 0.0000
# 4 0.0000 0.0000 0.0000 -16.2058 0.0000 -9.6159
# 5 -25.3043 -18.4236 -7.2511 0.0000 49.0038 0.0000
# 6 0.0000 0.0000 0.0000 -9.6159 0.0000 13.5266
#
#
#
# Elastic Compliance Matrix: (Units=1/GPa)
#
#
# Indices 1 2 3 4 5 6 
#
# 1 0.018538 -0.008015 -0.005486 0.000000 0.005748 0.000000
# 2 -0.008015 0.011934 0.001074 0.000000 0.000507 0.000000
# 3 -0.005486 0.001074 0.009524 0.000000 -0.001020 0.000000
# 4 0.000000 0.000000 0.000000 -0.043400 0.000000 -0.030852
# 5 0.005748 0.000507 -0.001020 0.000000 0.023414 0.000000
# 6 0.000000 0.000000 0.000000 -0.030852 0.000000 0.051996
#
#
# Mechanical properties :
#
#
# Convention : Reuss Voigt Hill
#
# Bulk Modulus (GPa) = 66.03578 71.93177 68.98377
# Shear Modulus (GPa) = 49.06393 24.19266 36.62830
#
# Velocity S-wave (km/s) = 4.76956 3.34918 4.12102
# Velocity P-wave (km/s) = 7.80700 6.95036 7.39110
#
# Compressibility (1/GPa) = 0.01514331
#
# Stress axis : x y z
#
# Youngs Moduli (GPa) = 53.94203 83.79258 104.99854
#
# Poissons Ratio (x) = 0.67158 0.57600
# Poissons Ratio (y) = 0.43233 -0.11276
# Poissons Ratio (z) = 0.29592 -0.08999
#
# Static dielectric constant tensor:
#      x y z
#    x 1.860850 0.000000 -0.012620 
#    y 0.000000 1.832110 0.000000 
#    z -0.012620 0.000000 1.792860 
# 
# From -- ./inp_files/16865.got.cif
#   From: 2010.05.17/outbox.cif.g08.bks.cpg/sg10_9_cif.got.tgz:16865.got - 2010.06.03 11:33:40.
