data_PCOD9149833
_publ_section_title
;
Structure prediction by ZEFSAII (Michael W. Deem and Ramdas Pophale) SiO2 
 PCOD9149833
Probable space group: P 2/M
;
_chemical_formula_sum "Si O2"
_cell_formula_units_Z 32
_cell_length_a 20.562314
_cell_length_b 13.762910
_cell_length_c 16.757846
_cell_angle_alpha 90.000000
_cell_angle_beta 159.279512
_cell_angle_gamma 90.000000
_cell_volume 1677.914089
_symmetry_space_group_name_H-M "P 2/M"
_symmetry_group_IT_number 10
_symmetry_cell_setting 'monoclinic'
loop_
_space_group_symop_operation_xyz
x,y,z
-x,y,-z
-x,-y,-z
x,-y,z
loop_
_atom_site_type_symbol
_atom_site_label
_atom_site_fract_x
_atom_site_fract_y
_atom_site_fract_z
Si Si1 0.650717 0.612958 0.742179
Si Si2 0.716265 0.291733 0.080449
Si Si3 0.066303 0.285029 0.374530
Si Si4 0.719850 0.608535 0.245269
Si Si5 0.063958 0.611662 0.209960
Si Si6 0.411572 0.893067 0.982904
Si Si7 0.569755 0.276848 0.380232
Si Si8 0.734533 0.890453 0.482531
O O1 0.500000 0.613001 0.500000
O O2 0.662595 0.500000 0.786549
O O3 0.577066 0.688483 0.723308
O O4 0.855687 0.639682 0.947611
O O5 0.761187 0.369988 0.199802
O O6 0.713077 0.191473 0.126146
O O7 0.868292 0.282138 0.187466
O O8 0.522205 0.306500 0.811229
O O9 0.199342 0.313943 0.599971
O O10 0.070404 0.368468 0.312333
O O11 0.121313 0.186217 0.390648
O O12 0.783923 0.500000 0.340044
O O13 0.500000 0.612221 0.000000
O O14 0.089317 0.500000 0.218306
O O15 0.240387 0.668993 0.381428
O O16 0.323904 0.000000 0.875504
O O17 0.500000 0.867352 0.000000
O O18 0.578705 0.899527 0.236530
O O19 0.632327 0.165389 0.438132
O O20 0.801475 0.000000 0.577272
#
# Coordination Sequence:
#
# PCOD9149833 Si02
#       8
#     4   4   4   4   4   4   4   4
#     4  10  21  37  59  89 120 147 182 226 271 330
#     4  11  21  33  51  76 106 145 187 233 277 323
#     4  11  21  34  52  77 110 142 187 234 278 323
#     4  11  23  36  49  70 103 149 196 234 275 328
#     4  10  20  35  56  82 114 151 187 222 270 326
#     4   9  17  31  50  71  98 135 179 228 281 325
#     4  10  20  37  58  81 116 150 189 224 281 331
#     4   9  19  34  55  79 106 143 185 232 280 333
#
# _framework density 19.071297999999999
#
# number of rings (size 3 to 8) (size 9 to 14) (size 15 to 20)
#    0.000    1.875    1.250    4.500    0.000    4.500 
#    0.000    1.875    0.000    4.125    0.000    3.500 
#    0.000    0.000    0.000    0.000    0.000    0.000 
#
# Total GULP energy -178377.848480 kJ/mol
# GULP energy per Si atom -5574.307765 kJ/mol
# Density = 1.902789 g / cm^3
# Si number density = 19.071298 Si / 1000 Ang^3
#
#
#
# Elastic Constant Matrix: (Units=GPa)
#
#
# Indices 1 2 3 4 5 6 
#
# 1 19.4116 14.8251 -2.9891 0.0000 0.2003 0.0000
# 2 14.8251 73.6603 28.3077 0.0000 6.8383 0.0000
# 3 -2.9891 28.3077 79.5328 0.0000 0.6636 0.0000
# 4 0.0000 0.0000 0.0000 28.8510 0.0000 29.7134
# 5 0.2003 6.8383 0.6636 0.0000 26.5121 0.0000
# 6 0.0000 0.0000 0.0000 29.7134 0.0000 38.8194
#
#
#
# Elastic Compliance Matrix: (Units=1/GPa)
#
#
# Indices 1 2 3 4 5 6 
#
# 1 0.065573 -0.016761 0.008400 0.000000 0.003618 0.000000
# 2 -0.016761 0.020429 -0.007860 0.000000 -0.004946 0.000000
# 3 0.008400 -0.007860 0.015674 0.000000 0.001572 0.000000
# 4 0.000000 0.000000 0.000000 0.163733 0.000000 -0.125325
# 5 0.003618 -0.004946 0.001572 0.000000 0.038928 0.000000
# 6 0.000000 0.000000 0.000000 -0.125325 0.000000 0.121688
#
#
# Mechanical properties :
#
#
# Convention : Reuss Voigt Hill
#
# Bulk Modulus (GPa) = 14.44400 28.09911 21.27155
# Shear Modulus (GPa) = 10.38327 27.66723 19.02525
#
# Velocity S-wave (km/s) = 2.33587 3.81297 3.16188
# Velocity P-wave (km/s) = 3.85554 5.84386 4.95055
#
# Compressibility (1/GPa) = 0.06923292
#
# Stress axis : x y z
#
# Youngs Moduli (GPa) = 15.25023 48.95001 63.80184
#
# Poissons Ratio (x) = 0.82047 -0.53594
# Poissons Ratio (y) = 0.25561 0.50147
# Poissons Ratio (z) = -0.12810 0.38474
#
# Static dielectric constant tensor:
#      x y z
#    x 1.613220 0.000000 -0.059570 
#    y 0.000000 1.695400 0.000000 
#    z -0.059570 0.000000 1.578260 
# 
# From -- ./inp_files/79752.got.cif
#   From: 2010.05.17/outbox.cif.g08.bks.cpg/sg10_40_cif.got.tgz:79752.got - 2010.06.03 11:33:40.
