data_PCOD9149100
_publ_section_title
;
Structure prediction by ZEFSAII (Michael W. Deem and Ramdas Pophale) SiO2 
 PCOD9149100
Probable space group: P 2/M
;
_chemical_formula_sum "Si O2"
_cell_formula_units_Z 24
_cell_length_a 17.153571
_cell_length_b 7.330347
_cell_length_c 14.959178
_cell_angle_alpha 90.000000
_cell_angle_beta 30.134917
_cell_angle_gamma 90.000000
_cell_volume 944.328933
_symmetry_space_group_name_H-M "P 2/M"
_symmetry_group_IT_number 10
_symmetry_cell_setting 'monoclinic'
loop_
_space_group_symop_operation_xyz
x,y,z
-x,y,-z
-x,-y,-z
x,-y,z
loop_
_atom_site_type_symbol
_atom_site_label
_atom_site_fract_x
_atom_site_fract_y
_atom_site_fract_z
Si Si1 0.163566 0.776827 0.206668
Si Si2 0.339478 0.221855 0.202765
Si Si3 0.640696 0.206589 0.147764
Si Si4 0.850573 0.708269 0.096743
Si Si5 0.663997 0.779009 0.451407
Si Si6 0.164275 0.778329 0.546351
O O1 0.204120 0.726566 0.267386
O O2 0.999422 0.716684 0.330524
O O3 0.162692 0.000000 0.204982
O O4 0.298584 0.714136 0.005068
O O5 0.297173 0.279641 0.344500
O O6 0.345438 0.000000 0.199035
O O7 0.500000 0.283612 0.000000
O O8 0.787214 0.201935 0.069811
O O9 0.497426 0.286078 0.345255
O O10 0.590688 0.000000 0.175663
O O11 0.888202 0.500000 0.036366
O O12 0.712584 0.712500 0.306324
O O13 0.000000 0.788280 0.000000
O O14 0.794883 0.725001 0.393739
O O15 0.657136 0.000000 0.450593
O O16 0.162346 0.000000 0.548578
#
# Coordination Sequence:
#
# PCOD9149100 Si02
#       6
#     4   4   4   4   4   4
#     4   9  16  26  42  66  97 132 167 203 246 295
#     4   9  15  23  37  61  96 133 166 203 246 291
#     4  10  20  34  53  77 103 132 168 209 253 301
#     4  11  24  39  54  74 100 131 168 209 254 304
#     4  10  20  34  53  77 103 132 168 209 253 301
#     4   9  16  26  42  66  97 132 167 203 246 295
#
# _framework density 25.414874999999999
#
# number of rings (size 3 to 8) (size 9 to 14) (size 15 to 20)
#    0.000    2.333    0.000    3.500    0.000   11.333 
#    0.000    0.000    0.000    0.000    0.000    1.167 
#    0.000    9.333    0.000    0.000    0.000    0.000 
#
# Total GULP energy -134287.893480 kJ/mol
# GULP energy per Si atom -5595.328895 kJ/mol
# Density = 2.535703 g / cm^3
# Si number density = 25.414875 Si / 1000 Ang^3
#
#
#
# Elastic Constant Matrix: (Units=GPa)
#
#
# Indices 1 2 3 4 5 6 
#
# 1 86.4885 -6.2135 -9.1793 0.0000 11.2424 0.0000
# 2 -6.2135 100.5180 -4.5460 0.0000 -0.9670 0.0000
# 3 -9.1793 -4.5460 75.0766 0.0000 8.5473 0.0000
# 4 0.0000 0.0000 0.0000 20.6011 0.0000 8.8831
# 5 11.2424 -0.9670 8.5473 0.0000 50.4917 0.0000
# 6 0.0000 0.0000 0.0000 8.8831 0.0000 -18.2107
#
#
#
# Elastic Compliance Matrix: (Units=1/GPa)
#
#
# Indices 1 2 3 4 5 6 
#
# 1 0.012214 0.000811 0.001887 0.000000 -0.003023 0.000000
# 2 0.000811 0.010030 0.000719 0.000000 -0.000110 0.000000
# 3 0.001887 0.000719 0.013908 0.000000 -0.002761 0.000000
# 4 0.000000 0.000000 0.000000 0.040106 0.000000 0.019563
# 5 -0.003023 -0.000110 -0.002761 0.000000 0.020944 0.000000
# 6 0.000000 0.000000 0.000000 0.019563 0.000000 -0.045370
#
#
# Mechanical properties :
#
#
# Convention : Reuss Voigt Hill
#
# Bulk Modulus (GPa) = 23.26345 24.68953 23.97649
# Shear Modulus (GPa) = 84.27997 29.37788 56.82892
#
# Velocity S-wave (km/s) = 5.76486 3.40359 4.73382
# Velocity P-wave (km/s) = 7.31334 5.01813 6.27162
#
# Compressibility (1/GPa) = 0.04298589
#
# Stress axis : x y z
#
# Youngs Moduli (GPa) = 81.87503 99.70021 71.89986
#
# Poissons Ratio (x) = -0.08088 -0.13565
# Poissons Ratio (y) = -0.06642 -0.05170
# Poissons Ratio (z) = -0.15447 -0.07169
#
# Static dielectric constant tensor:
#      x y z
#    x 1.929840 0.000000 -0.056130 
#    y 0.000000 2.015510 0.000000 
#    z -0.056130 0.000000 1.982900 
# 
# From -- ./inp_files/27017.got.cif
#   From: 2010.05.17/outbox.cif.g08.bks.cpg/sg10_14_cif.got.tgz:27017.got - 2010.06.03 11:33:40.
