data_PCOD9149151
_publ_section_title
;
Structure prediction by ZEFSAII (Michael W. Deem and Ramdas Pophale) SiO2 
 PCOD9149151
Probable space group: P 2/M
;
_chemical_formula_sum "Si O2"
_cell_formula_units_Z 24
_cell_length_a 25.223568
_cell_length_b 8.202515
_cell_length_c 12.147615
_cell_angle_alpha 90.000000
_cell_angle_beta 156.852934
_cell_angle_gamma 90.000000
_cell_volume 987.960123
_symmetry_space_group_name_H-M "P 2/M"
_symmetry_group_IT_number 10
_symmetry_cell_setting 'monoclinic'
loop_
_space_group_symop_operation_xyz
x,y,z
-x,y,-z
-x,-y,-z
x,-y,z
loop_
_atom_site_type_symbol
_atom_site_label
_atom_site_fract_x
_atom_site_fract_y
_atom_site_fract_z
Si Si1 0.585231 0.196733 0.330599
Si Si2 0.302858 0.197736 0.680977
Si Si3 0.008757 0.803415 0.144263
Si Si4 0.823003 0.184264 0.230740
Si Si5 0.097228 0.315631 0.839380
Si Si6 0.466324 0.692785 0.312433
O O1 0.687721 0.246797 0.429848
O O2 0.583275 0.267761 0.448601
O O3 0.590426 0.000000 0.348611
O O4 0.439228 0.248081 0.001613
O O5 0.162639 0.246057 0.467186
O O6 0.304998 0.000000 0.684635
O O7 0.907898 0.736596 0.043326
O O8 0.996401 0.000000 0.123082
O O9 0.000000 0.753426 0.000000
O O10 0.940711 0.299093 0.501162
O O11 0.825759 0.207073 0.103487
O O12 0.861875 0.000000 0.334452
O O13 0.673560 0.220690 0.986487
O O14 0.145270 0.500000 0.919251
O O15 0.500000 0.746430 0.500000
O O16 0.442427 0.500000 0.268124
#
# Coordination Sequence:
#
# PCOD9149151 Si02
#       6
#     4   4   4   4   4   4
#     4   9  17  33  57  79 101 138 187 231 270 321
#     4   8  16  32  54  79 105 135 178 231 275 313
#     4  10  20  34  53  80 114 151 189 228 272 328
#     4  11  22  39  63  86 109 144 194 241 281 335
#     4  11  22  38  60  86 117 149 185 234 292 344
#     4  11  24  39  54  80 119 154 183 226 285 340
#
# _framework density 24.292480000000001
#
# number of rings (size 3 to 8) (size 9 to 14) (size 15 to 20)
#    0.000    2.000    0.000    6.500    0.000    4.333 
#    0.000    4.167    0.000    0.000    0.000    0.000 
#    0.000    0.000    0.000    0.000    0.000    0.000 
#
# Total GULP energy -134240.194088 kJ/mol
# GULP energy per Si atom -5593.341420 kJ/mol
# Density = 2.423719 g / cm^3
# Si number density = 24.292480 Si / 1000 Ang^3
#
#
#
# Elastic Constant Matrix: (Units=GPa)
#
#
# Indices 1 2 3 4 5 6 
#
# 1 171.7137 0.2696 9.5493 0.0000 -3.4060 0.0000
# 2 0.2696 38.1725 -3.7198 0.0000 -2.4796 0.0000
# 3 9.5493 -3.7198 40.5228 0.0000 0.9198 0.0000
# 4 0.0000 0.0000 0.0000 -1.3000 0.0000 -42.0786
# 5 -3.4060 -2.4796 0.9198 0.0000 45.0509 0.0000
# 6 0.0000 0.0000 0.0000 -42.0786 0.0000 -81.5647
#
#
#
# Elastic Compliance Matrix: (Units=1/GPa)
#
#
# Indices 1 2 3 4 5 6 
#
# 1 0.005912 -0.000150 -0.001418 0.000000 0.000468 0.000000
# 2 -0.000150 0.026526 0.002438 0.000000 0.001399 0.000000
# 3 -0.001418 0.002438 0.025246 0.000000 -0.000488 0.000000
# 4 0.000000 0.000000 0.000000 0.049000 0.000000 -0.025279
# 5 0.000468 0.001399 -0.000488 0.000000 0.022319 0.000000
# 6 0.000000 0.000000 0.000000 -0.025279 0.000000 0.000781
#
#
# Mechanical properties :
#
#
# Convention : Reuss Voigt Hill
#
# Bulk Modulus (GPa) = 16.82715 29.17856 23.00285
# Shear Modulus (GPa) = 33.81765 8.72457 21.27111
#
# Velocity S-wave (km/s) = 3.73514 1.89717 2.96231
# Velocity P-wave (km/s) = 5.05407 4.10322 4.60326
#
# Compressibility (1/GPa) = 0.05942778
#
# Stress axis : x y z
#
# Youngs Moduli (GPa) = 169.14779 37.69823 39.60957
#
# Poissons Ratio (x) = 0.00564 0.05615
# Poissons Ratio (y) = 0.02529 -0.09659
# Poissons Ratio (z) = 0.23977 -0.09193
#
# Static dielectric constant tensor:
#      x y z
#    x 1.939100 0.000000 -0.061890 
#    y 0.000000 1.839250 0.000000 
#    z -0.061890 0.000000 2.001270 
# 
# From -- ./inp_files/56691.got.cif
#   From: 2010.05.17/outbox.cif.g08.bks.cpg/sg10_29_cif.got.tgz:56691.got - 2010.06.03 11:33:40.
