data_PCOD9149387
_publ_section_title
;
Structure prediction by ZEFSAII (Michael W. Deem and Ramdas Pophale) SiO2 
 PCOD9149387
Probable space group: P 2/M
;
_chemical_formula_sum "Si O2"
_cell_formula_units_Z 28
_cell_length_a 15.957205
_cell_length_b 18.269341
_cell_length_c 5.728647
_cell_angle_alpha 90.000000
_cell_angle_beta 121.661861
_cell_angle_gamma 90.000000
_cell_volume 1421.488440
_symmetry_space_group_name_H-M "P 2/M"
_symmetry_group_IT_number 10
_symmetry_cell_setting 'monoclinic'
loop_
_space_group_symop_operation_xyz
x,y,z
-x,y,-z
-x,-y,-z
x,-y,z
loop_
_atom_site_type_symbol
_atom_site_label
_atom_site_fract_x
_atom_site_fract_y
_atom_site_fract_z
Si Si1 0.592287 0.656878 0.000155
Si Si2 0.239621 0.174022 0.031266
Si Si3 0.244117 0.292547 0.395737
Si Si4 0.111273 0.298187 0.584295
Si Si5 0.952126 0.087686 0.179000
Si Si6 0.549988 0.819221 0.818771
Si Si7 0.761823 0.584696 0.996185
O O1 0.672797 0.689396 0.295655
O O2 0.500000 0.624266 0.000000
O O3 0.555589 0.730072 0.816448
O O4 0.652847 0.599364 0.938331
O O5 0.274936 0.218912 0.309668
O O6 0.336319 0.153747 0.027018
O O7 0.175572 0.236914 0.810096
O O8 0.161837 0.111717 0.978571
O O9 0.137075 0.282415 0.354570
O O10 0.235477 0.363784 0.224249
O O11 0.000000 0.294854 0.500000
O O12 0.158541 0.377025 0.716666
O O13 0.000000 0.112724 0.500000
O O14 0.960908 0.000000 0.190689
O O15 0.000000 0.113616 0.000000
O O16 0.500000 0.843973 0.500000
O O17 0.500000 0.836361 0.000000
O O18 0.780628 0.500000 0.984755
#
# Coordination Sequence:
#
# PCOD9149387 Si02
#       7
#     4   4   4   4   4   4   4
#     4  10  20  34  56  77 113 145 191 253 311 359
#     4  11  21  35  62  90 121 158 201 251 302 354
#     4  10  20  37  53  84 112 147 198 251 299 363
#     4  10  22  37  56  83 110 145 202 253 304 362
#     4  10  24  42  63  97 136 172 205 243 301 365
#     4  11  22  35  60  91 122 155 201 254 308 361
#     4  10  22  37  52  75 108 151 195 247 308 375
#
# _framework density 19.697664
#
# number of rings (size 3 to 8) (size 9 to 14) (size 15 to 20)
#    0.000    1.714    4.286    2.143    4.000    4.571 
#    0.000    1.429    0.000    0.857    0.000    0.000 
#    0.000    0.571    0.000    0.000    0.000    0.000 
#
# Total GULP energy -156056.811023 kJ/mol
# GULP energy per Si atom -5573.457537 kJ/mol
# Density = 1.965283 g / cm^3
# Si number density = 19.697664 Si / 1000 Ang^3
#
#
#
# Elastic Constant Matrix: (Units=GPa)
#
#
# Indices 1 2 3 4 5 6 
#
# 1 193.3441 10.6856 45.8921 0.0000 -6.3702 0.0000
# 2 10.6856 18.0092 11.1687 0.0000 -5.0278 0.0000
# 3 45.8921 11.1687 75.5945 0.0000 -16.4005 0.0000
# 4 0.0000 0.0000 0.0000 2.2793 0.0000 4.8822
# 5 -6.3702 -5.0278 -16.4005 0.0000 22.9509 0.0000
# 6 0.0000 0.0000 0.0000 4.8822 0.0000 24.0436
#
#
#
# Elastic Compliance Matrix: (Units=1/GPa)
#
#
# Indices 1 2 3 4 5 6 
#
# 1 0.006112 -0.001675 -0.003757 0.000000 -0.001355 0.000000
# 2 -0.001675 0.062923 -0.006379 0.000000 0.008761 0.000000
# 3 -0.003757 -0.006379 0.018844 0.000000 0.011025 0.000000
# 4 0.000000 0.000000 0.000000 0.776423 0.000000 -0.157656
# 5 -0.001355 0.008761 0.011025 0.000000 0.052993 0.000000
# 6 0.000000 0.000000 0.000000 -0.157656 0.000000 0.073604
#
#
# Mechanical properties :
#
#
# Convention : Reuss Voigt Hill
#
# Bulk Modulus (GPa) = 15.56254 46.93784 31.25019
# Shear Modulus (GPa) = 4.82654 24.46819 14.64736
#
# Velocity S-wave (km/s) = 1.56704 3.52829 2.72988
# Velocity P-wave (km/s) = 3.34545 6.36234 5.08288
#
# Compressibility (1/GPa) = 0.06425687
#
# Stress axis : x y z
#
# Youngs Moduli (GPa) = 163.61840 15.89247 53.06817
#
# Poissons Ratio (x) = 0.02662 0.19937
# Poissons Ratio (y) = 0.27403 0.33852
# Poissons Ratio (z) = 0.61470 0.10138
#
# Static dielectric constant tensor:
#      x y z
#    x 1.757930 0.000000 -0.043550 
#    y 0.000000 1.646820 0.000000 
#    z -0.043550 0.000000 1.801710 
# 
# From -- ./inp_files/9686.got.cif
#   From: 2010.05.17/outbox.cif.g08.bks.cpg/sg10_5_cif.got.tgz:9686.got - 2010.06.03 11:33:40.
