data_PCOD9149169
_publ_section_title
;
Structure prediction by ZEFSAII (Michael W. Deem and Ramdas Pophale) SiO2 
 PCOD9149169
Probable space group: P 2/M
;
_chemical_formula_sum "Si O2"
_cell_formula_units_Z 30
_cell_length_a 11.740175
_cell_length_b 11.200912
_cell_length_c 10.629622
_cell_angle_alpha 90.000000
_cell_angle_beta 100.510062
_cell_angle_gamma 90.000000
_cell_volume 1374.351298
_symmetry_space_group_name_H-M "P 2/M"
_symmetry_group_IT_number 10
_symmetry_cell_setting 'monoclinic'
loop_
_space_group_symop_operation_xyz
x,y,z
-x,y,-z
-x,-y,-z
x,-y,z
loop_
_atom_site_type_symbol
_atom_site_label
_atom_site_fract_x
_atom_site_fract_y
_atom_site_fract_z
Si Si1 0.500000 0.199279 0.000000
Si Si2 0.639281 0.871242 0.274359
Si Si3 0.651974 0.633926 0.868857
Si Si4 0.838082 0.635671 0.695264
Si Si5 0.071171 0.374338 0.886030
Si Si6 0.872235 0.126363 0.171169
Si Si7 0.444217 0.631598 0.626197
Si Si8 0.914336 0.133578 0.600542
O O1 0.442501 0.135227 0.867592
O O2 0.604830 0.278208 0.965010
O O3 0.771602 0.872861 0.254277
O O4 0.622779 0.751957 0.351857
O O5 0.614425 0.000000 0.331528
O O6 0.662542 0.500000 0.921281
O O7 0.765408 0.660709 0.808059
O O8 0.549719 0.631629 0.745529
O O9 0.803246 0.500000 0.646366
O O10 0.831468 0.752054 0.604986
O O11 0.973537 0.628116 0.758274
O O12 0.135690 0.500000 0.883721
O O13 0.139110 0.251295 0.901272
O O14 0.000000 0.379045 0.000000
O O15 0.997888 0.126477 0.262544
O O16 0.860210 0.000000 0.096933
O O17 0.500000 0.639691 0.500000
O O18 0.385695 0.500000 0.625560
O O19 0.000000 0.152997 0.500000
O O20 0.861207 0.000000 0.576408
#
# Coordination Sequence:
#
# PCOD9149169 Si02
#       8
#     2   4   4   4   4   4   4   4
#     4  10  20  34  54  74 103 142 177 220 263 308
#     4  10  21  36  53  76 105 137 174 217 262 307
#     4   9  18  33  53  78 105 136 175 216 261 312
#     4   9  18  32  49  73 103 130 163 207 250 296
#     4   9  18  31  48  71  99 128 160 200 242 286
#     4   9  19  34  50  71 100 131 165 202 245 298
#     4   9  19  36  55  76 103 134 171 216 263 312
#     4   9  18  34  53  73 101 134 168 206 248 302
#
# _framework density 21.828479999999999
#
# number of rings (size 3 to 8) (size 9 to 14) (size 15 to 20)
#    0.000    2.800    0.000    0.400    1.867    2.933 
#    0.000    3.333    0.000    0.000    0.000    0.000 
#    0.000    0.000    0.000    0.000    0.000    0.000 
#
# Total GULP energy -167124.668611 kJ/mol
# GULP energy per Si atom -5570.822287 kJ/mol
# Density = 2.177880 g / cm^3
# Si number density = 21.828480 Si / 1000 Ang^3
#
#
#
# Elastic Constant Matrix: (Units=GPa)
#
#
# Indices 1 2 3 4 5 6 
#
# 1 59.3911 39.0229 2.9189 0.0000 2.9763 0.0000
# 2 39.0229 264.7766 53.6377 0.0000 -39.2933 0.0000
# 3 2.9189 53.6377 41.1300 0.0000 -0.7388 0.0000
# 4 0.0000 0.0000 0.0000 63.5465 0.0000 -24.8045
# 5 2.9763 -39.2933 -0.7388 0.0000 31.3326 0.0000
# 6 0.0000 0.0000 0.0000 -24.8045 0.0000 6.2876
#
#
#
# Elastic Compliance Matrix: (Units=1/GPa)
#
#
# Indices 1 2 3 4 5 6 
#
# 1 0.020555 -0.005409 0.005440 0.000000 -0.008608 0.000000
# 2 -0.005409 0.008184 -0.010099 0.000000 0.010539 0.000000
# 3 0.005440 -0.010099 0.036877 0.000000 -0.012313 0.000000
# 4 0.000000 0.000000 0.000000 -0.029149 0.000000 -0.114991
# 5 -0.008608 0.010539 -0.012313 0.000000 0.045659 0.000000
# 6 0.000000 0.000000 0.000000 -0.114991 0.000000 -0.294596
#
#
# Mechanical properties :
#
#
# Convention : Reuss Voigt Hill
#
# Bulk Modulus (GPa) = 21.98766 61.82852 41.90809
# Shear Modulus (GPa) = -28.22092 38.21456 4.99682
#
# Velocity S-wave (km/s) = -3.59952 4.18865 1.51463
# Velocity P-wave (km/s) = 2.67967 7.19578 4.72221
#
# Compressibility (1/GPa) = 0.04548005
#
# Stress axis : x y z
#
# Youngs Moduli (GPa) = 48.64881 122.19233 27.11753
#
# Poissons Ratio (x) = 0.66093 -0.14753
# Poissons Ratio (y) = 0.26314 0.27387
# Poissons Ratio (z) = -0.26467 1.23407
#
# Static dielectric constant tensor:
#      x y z
#    x 1.787230 0.000000 0.048450 
#    y 0.000000 1.892960 0.000000 
#    z 0.048450 0.000000 1.786870 
# 
# From -- ./inp_files/46655.got.cif
#   From: 2010.05.17/outbox.cif.g08.bks.cpg/sg10_24_cif.got.tgz:46655.got - 2010.06.03 11:33:40.
