data_PCOD9149955
_publ_section_title
;
Structure prediction by ZEFSAII (Michael W. Deem and Ramdas Pophale) SiO2 
 PCOD9149955
Probable space group: P 2/M
;
_chemical_formula_sum "Si O2"
_cell_formula_units_Z 20
_cell_length_a 15.754766
_cell_length_b 12.215952
_cell_length_c 12.478513
_cell_angle_alpha 90.000000
_cell_angle_beta 153.368216
_cell_angle_gamma 90.000000
_cell_volume 1076.532858
_symmetry_space_group_name_H-M "P 2/M"
_symmetry_group_IT_number 10
_symmetry_cell_setting 'monoclinic'
loop_
_space_group_symop_operation_xyz
x,y,z
-x,y,-z
-x,-y,-z
x,-y,z
loop_
_atom_site_type_symbol
_atom_site_label
_atom_site_fract_x
_atom_site_fract_y
_atom_site_fract_z
Si Si1 0.652982 0.270785 0.257202
Si Si2 0.165709 0.500000 0.594360
Si Si3 0.637965 0.269649 0.885279
Si Si4 0.983223 0.874732 0.352416
Si Si5 0.819756 0.500000 0.076691
Si Si6 0.219850 0.500000 0.219026
Si Si7 0.500000 0.316343 0.500000
O O1 0.714074 0.388827 0.276157
O O2 0.549124 0.271856 0.253900
O O3 0.841412 0.200164 0.484165
O O4 0.500000 0.223048 0.000000
O O5 0.000000 0.500000 0.500000
O O6 0.041874 0.500000 0.346683
O O7 0.598117 0.257957 0.712544
O O8 0.787517 0.179365 0.093433
O O9 0.732592 0.387484 0.019542
O O10 0.000000 0.874145 0.500000
O O11 0.998555 0.000000 0.332572
O O12 0.775211 0.500000 0.902853
O O13 0.344256 0.393200 0.384857
O O14 0.000000 0.500000 0.000000
#
# Coordination Sequence:
#
# PCOD9149955 Si02
#       7
#     4   2   4   4   2   2   2
#     4  12  23  37  62  91 119 159 200 241 302 370
#     4  12  22  34  56  88 131 156 185 240 308 363
#     4  11  22  41  61  90 124 158 200 246 298 356
#     4  11  24  43  63  87 119 156 202 255 304 351
#     4  10  20  35  57  84 122 161 188 233 296 349
#     4   9  19  33  55  82 118 160 202 239 278 341
#     4   9  22  36  57  88 120 158 203 241 292 358
#
# _framework density 18.57816
#
# number of rings (size 3 to 8) (size 9 to 14) (size 15 to 20)
#    0.000    1.200    4.000    3.300    2.800    1.200 
#    0.000    0.500    0.000    1.200    0.000    0.000 
#    0.000    0.000    0.000    0.000    0.000    0.000 
#
# Total GULP energy -111526.370400 kJ/mol
# GULP energy per Si atom -5576.318520 kJ/mol
# Density = 1.853587 g / cm^3
# Si number density = 18.578160 Si / 1000 Ang^3
#
#
#
# Elastic Constant Matrix: (Units=GPa)
#
#
# Indices 1 2 3 4 5 6 
#
# 1 71.0473 35.5385 34.5330 0.0000 8.5078 0.0000
# 2 35.5385 110.7341 43.2626 0.0000 15.1859 0.0000
# 3 34.5330 43.2626 105.9394 0.0000 6.2779 0.0000
# 4 0.0000 0.0000 0.0000 -70.2587 0.0000 24.0347
# 5 8.5078 15.1859 6.2779 0.0000 49.1105 0.0000
# 6 0.0000 0.0000 0.0000 24.0347 0.0000 -10.5835
#
#
#
# Elastic Compliance Matrix: (Units=1/GPa)
#
#
# Indices 1 2 3 4 5 6 
#
# 1 0.018320 -0.004032 -0.004243 0.000000 -0.001385 0.000000
# 2 -0.004032 0.012023 -0.003443 0.000000 -0.002579 0.000000
# 3 -0.004243 -0.003443 0.012214 0.000000 0.000238 0.000000
# 4 0.000000 0.000000 0.000000 -0.063788 0.000000 -0.144860
# 5 -0.001385 -0.002579 0.000238 0.000000 0.021369 0.000000
# 6 0.000000 0.000000 0.000000 -0.144860 0.000000 -0.423458
#
#
# Mechanical properties :
#
#
# Convention : Reuss Voigt Hill
#
# Bulk Modulus (GPa) = 52.29613 57.15434 54.72523
# Shear Modulus (GPa) = -12.70618 5.27944 -3.71337
#
# Velocity S-wave (km/s) = -2.61804 1.68758 -1.41532
# Velocity P-wave (km/s) = 4.36709 5.88458 5.18169
#
# Compressibility (1/GPa) = 0.01912187
#
# Stress axis : x y z
#
# Youngs Moduli (GPa) = 54.58462 83.17074 81.87064
#
# Poissons Ratio (x) = 0.33534 0.34740
# Poissons Ratio (y) = 0.22008 0.28187
# Poissons Ratio (z) = 0.23162 0.28635
#
# Static dielectric constant tensor:
#      x y z
#    x 1.679500 0.000000 -0.031620 
#    y 0.000000 1.670080 0.000000 
#    z -0.031620 0.000000 1.741130 
# 
# From -- ./inp_files/69136.got.cif
#   From: 2010.05.17/outbox.cif.g08.bks.cpg/sg10_35_cif.got.tgz:69136.got - 2010.06.03 11:33:40.
