data_PCOD9149143
_publ_section_title
;
Structure prediction by ZEFSAII (Michael W. Deem and Ramdas Pophale) SiO2 
 PCOD9149143
Probable space group: P 2/M
;
_chemical_formula_sum "Si O2"
_cell_formula_units_Z 26
_cell_length_a 9.295679
_cell_length_b 9.695298
_cell_length_c 18.738597
_cell_angle_alpha 90.000000
_cell_angle_beta 128.068919
_cell_angle_gamma 90.000000
_cell_volume 1329.544410
_symmetry_space_group_name_H-M "P 2/M"
_symmetry_group_IT_number 10
_symmetry_cell_setting 'monoclinic'
loop_
_space_group_symop_operation_xyz
x,y,z
-x,y,-z
-x,-y,-z
x,-y,z
loop_
_atom_site_type_symbol
_atom_site_label
_atom_site_fract_x
_atom_site_fract_y
_atom_site_fract_z
Si Si1 0.477846 0.344097 0.335738
Si Si2 0.130850 0.163732 0.209322
Si Si3 0.203606 0.334333 0.942793
Si Si4 0.205088 0.664299 0.666680
Si Si5 0.500000 0.253684 0.500000
Si Si6 0.556592 0.334938 0.126879
Si Si7 0.101252 0.154021 0.369753
O O1 0.434342 0.500000 0.297500
O O2 0.327090 0.237202 0.261706
O O3 0.679959 0.310219 0.369406
O O4 0.475574 0.339142 0.420371
O O5 0.080725 0.181230 0.278411
O O6 0.979360 0.245689 0.117870
O O7 0.136419 0.000000 0.196599
O O8 0.167831 0.500000 0.937910
O O9 0.314956 0.312485 0.902672
O O10 0.350532 0.287748 0.047406
O O11 0.176693 0.500000 0.665140
O O12 0.339882 0.714553 0.771492
O O13 0.015203 0.739589 0.620112
O O14 0.315872 0.166092 0.451081
O O15 0.540548 0.500000 0.128866
O O16 0.035493 0.000000 0.364128
#
# Coordination Sequence:
#
# PCOD9149143 Si02
#       7
#     4   4   4   4   2   4   4
#     4  10  22  38  58  80 106 141 181 223 272 321
#     4  10  20  34  53  80 111 146 185 222 263 315
#     4   9  15  28  53  80 107 143 183 221 262 309
#     4  10  20  36  57  83 111 140 176 224 272 317
#     4  10  22  40  58  82 108 136 180 224 262 320
#     4   8  15  28  50  81 111 139 176 222 266 311
#     4  10  21  37  58  81 109 143 178 217 268 324
#
# _framework density 19.555571
#
# number of rings (size 3 to 8) (size 9 to 14) (size 15 to 20)
#    0.000    2.462    1.538    1.846    0.000    4.923 
#    0.000    5.385    0.000    4.615    0.000    0.000 
#    0.000    0.000    0.000    0.000    0.000    0.000 
#
# Total GULP energy -144989.895703 kJ/mol
# GULP energy per Si atom -5576.534450 kJ/mol
# Density = 1.951106 g / cm^3
# Si number density = 19.555571 Si / 1000 Ang^3
#
#
#
# Elastic Constant Matrix: (Units=GPa)
#
#
# Indices 1 2 3 4 5 6 
#
# 1 88.5175 52.0596 24.4854 0.0000 22.4306 0.0000
# 2 52.0596 76.5400 20.7802 0.0000 21.9800 0.0000
# 3 24.4854 20.7802 75.1141 0.0000 26.8715 0.0000
# 4 0.0000 0.0000 0.0000 18.5348 0.0000 19.6021
# 5 22.4306 21.9800 26.8715 0.0000 27.7008 0.0000
# 6 0.0000 0.0000 0.0000 19.6021 0.0000 67.3536
#
#
#
# Elastic Compliance Matrix: (Units=1/GPa)
#
#
# Indices 1 2 3 4 5 6 
#
# 1 0.019879 -0.011536 -0.001232 0.000000 -0.005748 0.000000
# 2 -0.011536 0.023617 0.000902 0.000000 -0.010273 0.000000
# 3 -0.001232 0.000902 0.020467 0.000000 -0.019572 0.000000
# 4 0.000000 0.000000 0.000000 0.077942 0.000000 -0.022684
# 5 -0.005748 -0.010273 -0.019572 0.000000 0.067892 0.000000
# 6 0.000000 0.000000 0.000000 -0.022684 0.000000 0.021449
#
#
# Mechanical properties :
#
#
# Convention : Reuss Voigt Hill
#
# Bulk Modulus (GPa) = 24.85682 48.31357 36.58519
# Shear Modulus (GPa) = 18.62971 32.24095 25.43533
#
# Velocity S-wave (km/s) = 3.08986 4.06480 3.61039
# Velocity P-wave (km/s) = 5.04659 6.84029 6.01073
#
# Compressibility (1/GPa) = 0.04023041
#
# Stress axis : x y z
#
# Youngs Moduli (GPa) = 50.30374 42.34322 48.85916
#
# Poissons Ratio (x) = 0.48846 0.06022
# Poissons Ratio (y) = 0.58029 -0.04408
# Poissons Ratio (z) = 0.06200 -0.03820
#
# Static dielectric constant tensor:
#      x y z
#    x 1.682010 0.000000 -0.011230 
#    y 0.000000 1.658760 0.000000 
#    z -0.011230 0.000000 1.718400 
# 
# From -- ./inp_files/34175.got.cif
#   From: 2010.05.17/outbox.cif.g08.bks.cpg/sg10_18_cif.got.tgz:34175.got - 2010.06.03 11:33:40.
