data_PCOD9149723
_publ_section_title
;
Structure prediction by ZEFSAII (Michael W. Deem and Ramdas Pophale) SiO2 
 PCOD9149723
Probable space group: P 2/M
;
_chemical_formula_sum "Si O2"
_cell_formula_units_Z 24
_cell_length_a 15.315222
_cell_length_b 7.576103
_cell_length_c 14.491651
_cell_angle_alpha 90.000000
_cell_angle_beta 39.590238
_cell_angle_gamma 90.000000
_cell_volume 1071.583402
_symmetry_space_group_name_H-M "P 2/M"
_symmetry_group_IT_number 10
_symmetry_cell_setting 'monoclinic'
loop_
_space_group_symop_operation_xyz
x,y,z
-x,y,-z
-x,-y,-z
x,-y,z
loop_
_atom_site_type_symbol
_atom_site_label
_atom_site_fract_x
_atom_site_fract_y
_atom_site_fract_z
Si Si1 0.546573 0.798116 0.204609
Si Si2 0.283753 0.706338 0.315091
Si Si3 0.213637 0.215765 0.867505
Si Si4 0.030851 0.705817 0.628683
Si Si5 0.282331 0.284883 0.114506
Si Si6 0.067637 0.213332 0.804001
O O1 0.401390 0.718591 0.295506
O O2 0.644868 0.720311 0.203576
O O3 0.518704 0.000000 0.252374
O O4 0.636396 0.790157 0.037965
O O5 0.257346 0.500000 0.320768
O O6 0.141211 0.784455 0.468219
O O7 0.332654 0.771245 0.175256
O O8 0.175639 0.268543 0.794482
O O9 0.216054 0.000000 0.867690
O O10 0.083346 0.268381 0.036674
O O11 0.014196 0.500000 0.618282
O O12 0.090760 0.719373 0.682831
O O13 0.876369 0.774682 0.758215
O O14 0.292421 0.500000 0.096768
O O15 0.068082 0.000000 0.800680
#
# Coordination Sequence:
#
# PCOD9149723 Si02
#       6
#     4   4   4   4   4   4
#     4  11  21  35  55  81 108 135 173 220 262 304
#     4  10  22  38  53  73 108 147 176 208 258 317
#     4   8  16  31  53  78 104 135 170 210 259 313
#     4  10  20  35  55  80 106 135 176 221 259 301
#     4  10  20  36  57  77 101 140 182 215 256 310
#     4   9  16  32  56  78 102 135 172 213 261 310
#
# _framework density 22.396763
#
# number of rings (size 3 to 8) (size 9 to 14) (size 15 to 20)
#    0.000    2.333    1.667    2.500    0.000    5.333 
#    0.000    4.167    0.000    8.000    0.000    0.000 
#    0.000    0.000    0.000    0.000    0.000    0.000 
#
# Total GULP energy -133996.511213 kJ/mol
# GULP energy per Si atom -5583.187967 kJ/mol
# Density = 2.234579 g / cm^3
# Si number density = 22.396763 Si / 1000 Ang^3
#
#
#
# Elastic Constant Matrix: (Units=GPa)
#
#
# Indices 1 2 3 4 5 6 
#
# 1 108.7063 -5.7624 -4.6419 0.0000 -6.8952 0.0000
# 2 -5.7624 47.9949 -5.5600 0.0000 0.0936 0.0000
# 3 -4.6419 -5.5600 34.7246 0.0000 -12.3082 0.0000
# 4 0.0000 0.0000 0.0000 47.4929 0.0000 -3.0951
# 5 -6.8952 0.0936 -12.3082 0.0000 21.6967 0.0000
# 6 0.0000 0.0000 0.0000 -3.0951 0.0000 19.6678
#
#
#
# Elastic Compliance Matrix: (Units=1/GPa)
#
#
# Indices 1 2 3 4 5 6 
#
# 1 0.009737 0.001543 0.003308 0.000000 0.004965 0.000000
# 2 0.001543 0.021566 0.004756 0.000000 0.003095 0.000000
# 3 0.003308 0.004756 0.038010 0.000000 0.022593 0.000000
# 4 0.000000 0.000000 0.000000 0.021274 0.000000 0.003348
# 5 0.004965 0.003095 0.022593 0.000000 0.060471 0.000000
# 6 0.000000 0.000000 0.000000 0.003348 0.000000 0.051371
#
#
# Mechanical properties :
#
#
# Convention : Reuss Voigt Hill
#
# Bulk Modulus (GPa) = 11.29590 17.72192 14.50891
# Shear Modulus (GPa) = 23.50463 31.59748 27.55106
#
# Velocity S-wave (km/s) = 3.24306 3.76014 3.51113
# Velocity P-wave (km/s) = 4.36781 5.17508 4.78849
#
# Compressibility (1/GPa) = 0.08852771
#
# Stress axis : x y z
#
# Youngs Moduli (GPa) = 102.70055 46.36985 26.30877
#
# Poissons Ratio (x) = -0.07153 -0.08704
# Poissons Ratio (y) = -0.15843 -0.12514
# Poissons Ratio (z) = -0.33977 -0.22056
#
# Static dielectric constant tensor:
#      x y z
#    x 1.851250 0.000000 -0.009670 
#    y 0.000000 1.846100 0.000000 
#    z -0.009670 0.000000 1.799680 
# 
# From -- ./inp_files/33786.got.cif
#   From: 2010.05.17/outbox.cif.g08.bks.cpg/sg10_17_cif.got.tgz:33786.got - 2010.06.03 11:33:40.
