data_PCOD9149591
_publ_section_title
;
Structure prediction by ZEFSAII (Michael W. Deem and Ramdas Pophale) SiO2 
 PCOD9149591
Probable space group: P 2/M
;
_chemical_formula_sum "Si O2"
_cell_formula_units_Z 32
_cell_length_a 16.123327
_cell_length_b 14.006952
_cell_length_c 18.730159
_cell_angle_alpha 90.000000
_cell_angle_beta 22.869803
_cell_angle_gamma 90.000000
_cell_volume 1643.938146
_symmetry_space_group_name_H-M "P 2/M"
_symmetry_group_IT_number 10
_symmetry_cell_setting 'monoclinic'
loop_
_space_group_symop_operation_xyz
x,y,z
-x,y,-z
-x,-y,-z
x,-y,z
loop_
_atom_site_type_symbol
_atom_site_label
_atom_site_fract_x
_atom_site_fract_y
_atom_site_fract_z
Si Si1 0.876292 0.107433 0.395951
Si Si2 0.589842 0.109296 0.230205
Si Si3 0.041069 0.106967 0.832119
Si Si4 0.021968 0.313358 0.696742
Si Si5 0.620970 0.614449 0.103290
Si Si6 0.324512 0.229566 0.697143
Si Si7 0.483257 0.613634 0.374086
Si Si8 0.850544 0.386358 0.555936
O O1 0.644540 0.125893 0.614213
O O2 0.845812 0.108808 0.333913
O O3 0.006761 0.203274 0.303983
O O4 0.951246 0.000000 0.354628
O O5 0.636037 0.175067 0.260697
O O6 0.587282 0.000000 0.258077
O O7 0.788240 0.117614 0.019809
O O8 0.112033 0.190591 0.828688
O O9 0.077656 0.000000 0.834408
O O10 0.250574 0.334335 0.554908
O O11 0.045430 0.370776 0.604281
O O12 0.827821 0.342526 0.901486
O O13 0.633348 0.500000 0.083858
O O14 0.596737 0.630937 0.207485
O O15 0.393855 0.649737 0.251759
O O16 0.500000 0.200132 0.500000
O O17 0.369744 0.339123 0.681603
O O18 0.452040 0.500000 0.407138
O O19 0.832416 0.500000 0.580957
O O20 0.000000 0.346829 0.500000
#
# Coordination Sequence:
#
# PCOD9149591 Si02
#       8
#     4   4   4   4   4   4   4   4
#     4  10  21  36  54  81 109 134 176 227 272 317
#     4  10  20  35  53  72  97 129 171 225 283 333
#     4  10  21  35  53  74  98 131 174 231 290 336
#     4  11  19  35  60  82 105 148 178 208 259 322
#     4   9  19  35  58  82 106 141 178 214 256 310
#     4  12  21  34  50  73  96 136 175 225 282 333
#     4  10  22  38  52  73 105 139 183 231 266 312
#     4   9  19  35  57  91 125 142 167 215 257 297
#
# _framework density 19.465451999999999
#
# number of rings (size 3 to 8) (size 9 to 14) (size 15 to 20)
#    0.000    1.875    2.500    2.625    1.750    2.250 
#    2.250    1.875    0.000    1.875    0.000    0.875 
#    0.000    0.000    0.000    0.000    0.000    0.000 
#
# Total GULP energy -178387.169322 kJ/mol
# GULP energy per Si atom -5574.599041 kJ/mol
# Density = 1.942115 g / cm^3
# Si number density = 19.465452 Si / 1000 Ang^3
#
#
#
# Elastic Constant Matrix: (Units=GPa)
#
#
# Indices 1 2 3 4 5 6 
#
# 1 29.1222 9.2862 14.9319 0.0000 -4.9143 0.0000
# 2 9.2862 58.6026 34.5291 0.0000 -7.0771 0.0000
# 3 14.9319 34.5291 131.0316 0.0000 4.3465 0.0000
# 4 0.0000 0.0000 0.0000 19.6721 0.0000 0.4134
# 5 -4.9143 -7.0771 4.3465 0.0000 7.9541 0.0000
# 6 0.0000 0.0000 0.0000 0.4134 0.0000 14.6185
#
#
#
# Elastic Compliance Matrix: (Units=1/GPa)
#
#
# Indices 1 2 3 4 5 6 
#
# 1 0.042246 0.000356 -0.005891 0.000000 0.029637 0.000000
# 2 0.000356 0.024485 -0.007356 0.000000 0.026025 0.000000
# 3 -0.005891 -0.007356 0.010775 0.000000 -0.016073 0.000000
# 4 0.000000 0.000000 0.000000 0.050864 0.000000 -0.001438
# 5 0.029637 0.026025 -0.016073 0.000000 0.175971 0.000000
# 6 0.000000 0.000000 0.000000 -0.001438 0.000000 0.068447
#
#
# Mechanical properties :
#
#
# Convention : Reuss Voigt Hill
#
# Bulk Modulus (GPa) = 19.33368 37.36119 28.34744
# Shear Modulus (GPa) = 12.02470 19.11622 15.57046
#
# Velocity S-wave (km/s) = 2.48815 3.13718 2.83132
# Velocity P-wave (km/s) = 4.26713 5.68839 5.02823
#
# Compressibility (1/GPa) = 0.05172321
#
# Stress axis : x y z
#
# Youngs Moduli (GPa) = 23.67070 40.84173 92.81043
#
# Poissons Ratio (x) = -0.01453 0.54676
# Poissons Ratio (y) = -0.00842 0.68271
# Poissons Ratio (z) = 0.13945 0.30043
#
# Static dielectric constant tensor:
#      x y z
#    x 1.663050 0.000000 -0.027760 
#    y 0.000000 1.747310 0.000000 
#    z -0.027760 0.000000 1.715540 
# 
# From -- ./inp_files/85944.got.cif
#   From: 2010.05.17/outbox.cif.g08.bks.cpg/sg10_43_cif.got.tgz:85944.got - 2010.06.03 11:33:40.
