data_PCOD9149706
_publ_section_title
;
Structure prediction by ZEFSAII (Michael W. Deem and Ramdas Pophale) SiO2 
 PCOD9149706
Probable space group: P 2/M
;
_chemical_formula_sum "Si O2"
_cell_formula_units_Z 24
_cell_length_a 15.059758
_cell_length_b 7.520275
_cell_length_c 21.809317
_cell_angle_alpha 90.000000
_cell_angle_beta 23.075863
_cell_angle_gamma 90.000000
_cell_volume 968.108410
_symmetry_space_group_name_H-M "P 2/M"
_symmetry_group_IT_number 10
_symmetry_cell_setting 'monoclinic'
loop_
_space_group_symop_operation_xyz
x,y,z
-x,y,-z
-x,-y,-z
x,-y,z
loop_
_atom_site_type_symbol
_atom_site_label
_atom_site_fract_x
_atom_site_fract_y
_atom_site_fract_z
Si Si1 0.174989 0.707225 0.649335
Si Si2 0.879274 0.292824 0.183142
Si Si3 0.605293 0.797627 0.135794
Si Si4 0.760865 0.785318 0.836574
Si Si5 0.496526 0.715917 0.666508
Si Si6 0.180838 0.217691 0.335009
O O1 0.238412 0.500000 0.613042
O O2 0.201207 0.785653 0.700519
O O3 0.322707 0.778218 0.499135
O O4 0.913658 0.719278 0.795012
O O5 0.816720 0.500000 0.224712
O O6 0.744969 0.226283 0.209342
O O7 0.149634 0.285283 0.009585
O O8 0.477913 0.792130 0.282073
O O9 0.430837 0.722059 0.197149
O O10 0.652098 0.000000 0.087784
O O11 0.868498 0.728968 0.703125
O O12 0.762246 0.000000 0.839121
O O13 0.500000 0.728670 0.000000
O O14 0.507477 0.500000 0.666378
O O15 0.000000 0.277317 0.500000
O O16 0.184151 0.000000 0.334162
#
# Coordination Sequence:
#
# PCOD9149706 Si02
#       6
#     4   4   4   4   4   4
#     4  10  21  37  58  83 109 141 185 231 270 315
#     4  10  21  38  58  79 109 148 183 219 271 331
#     4  11  22  36  57  84 111 141 182 229 271 318
#     4  10  20  35  55  78 107 144 181 218 268 327
#     4  10  21  38  58  80 109 146 184 222 271 329
#     4   9  18  33  52  74 103 140 177 213 261 320
#
# _framework density 24.790611999999999
#
# number of rings (size 3 to 8) (size 9 to 14) (size 15 to 20)
#    0.000    2.000    0.000    3.500    0.000    9.000 
#    0.000    1.667    0.000    7.500    0.000    0.000 
#    0.000    0.000    0.000    0.000    0.000    0.000 
#
# Total GULP energy -134237.116431 kJ/mol
# GULP energy per Si atom -5593.213185 kJ/mol
# Density = 2.473419 g / cm^3
# Si number density = 24.790612 Si / 1000 Ang^3
#
#
#
# Elastic Constant Matrix: (Units=GPa)
#
#
# Indices 1 2 3 4 5 6 
#
# 1 90.7503 -6.9404 -16.7717 0.0000 -0.2458 0.0000
# 2 -6.9404 64.2784 -6.2193 0.0000 -2.2429 0.0000
# 3 -16.7717 -6.2193 63.5866 0.0000 -0.0117 0.0000
# 4 0.0000 0.0000 0.0000 -177.4273 0.0000 -22.5199
# 5 -0.2458 -2.2429 -0.0117 0.0000 45.8487 0.0000
# 6 0.0000 0.0000 0.0000 -22.5199 0.0000 10.7901
#
#
#
# Elastic Compliance Matrix: (Units=1/GPa)
#
#
# Indices 1 2 3 4 5 6 
#
# 1 0.011742 0.001587 0.003252 0.000000 0.000141 0.000000
# 2 0.001587 0.015948 0.001979 0.000000 0.000789 0.000000
# 3 0.003252 0.001979 0.016778 0.000000 0.000119 0.000000
# 4 0.000000 0.000000 0.000000 -0.004456 0.000000 -0.009300
# 5 0.000141 0.000789 0.000119 0.000000 0.021850 0.000000
# 6 0.000000 0.000000 0.000000 -0.009300 0.000000 0.073268
#
#
# Mechanical properties :
#
#
# Convention : Reuss Voigt Hill
#
# Bulk Modulus (GPa) = 17.21023 17.63916 17.42469
# Shear Modulus (GPa) = 35.49578 -7.58792 13.95393
#
# Velocity S-wave (km/s) = 3.78805 -1.75141 2.37507
# Velocity P-wave (km/s) = 5.10781 1.74378 3.81645
#
# Compressibility (1/GPa) = 0.05810499
#
# Stress axis : x y z
#
# Youngs Moduli (GPa) = 85.16347 62.70494 59.60181
#
# Poissons Ratio (x) = -0.09954 -0.19385
# Poissons Ratio (y) = -0.13519 -0.11793
# Poissons Ratio (z) = -0.27699 -0.12407
#
# Static dielectric constant tensor:
#      x y z
#    x 1.912690 0.000000 -0.000100 
#    y 0.000000 1.936840 0.000000 
#    z -0.000100 0.000000 1.982900 
# 
# From -- ./inp_files/66320.got.cif
#   From: 2010.05.17/outbox.cif.g08.bks.cpg/sg10_34_cif.got.tgz:66320.got - 2010.06.03 11:33:40.
