data_PCOD9149418
_publ_section_title
;
Structure prediction by ZEFSAII (Michael W. Deem and Ramdas Pophale) SiO2 
 PCOD9149418
Probable space group: P 2/M
;
_chemical_formula_sum "Si O2"
_cell_formula_units_Z 28
_cell_length_a 15.172069
_cell_length_b 7.534267
_cell_length_c 11.960102
_cell_angle_alpha 90.000000
_cell_angle_beta 112.511378
_cell_angle_gamma 90.000000
_cell_volume 1262.991163
_symmetry_space_group_name_H-M "P 2/M"
_symmetry_group_IT_number 10
_symmetry_cell_setting 'monoclinic'
loop_
_space_group_symop_operation_xyz
x,y,z
-x,y,-z
-x,-y,-z
x,-y,z
loop_
_atom_site_type_symbol
_atom_site_label
_atom_site_fract_x
_atom_site_fract_y
_atom_site_fract_z
Si Si1 0.794271 0.293644 0.161620
Si Si2 0.460672 0.283576 0.654769
Si Si3 0.888126 0.786148 0.441171
Si Si4 0.145052 0.792678 0.329894
Si Si5 0.647128 0.713851 0.621461
Si Si6 0.034934 0.705699 0.900922
Si Si7 0.411574 0.282365 0.880171
O O1 0.782531 0.500000 0.124961
O O2 0.838669 0.287730 0.307354
O O3 0.872577 0.215008 0.115277
O O4 0.688512 0.217248 0.118709
O O5 0.459554 0.500000 0.654284
O O6 0.393327 0.226815 0.519239
O O7 0.568575 0.229403 0.674348
O O8 0.426639 0.224179 0.759461
O O9 0.843101 0.726523 0.536972
O O10 0.000000 0.739668 0.500000
O O11 0.881113 0.000000 0.429388
O O12 0.244122 0.771327 0.313066
O O13 0.054632 0.707685 0.226263
O O14 0.121374 0.000000 0.326410
O O15 0.647064 0.500000 0.621446
O O16 0.058752 0.500000 0.936670
O O17 0.000000 0.788770 0.000000
O O18 0.408990 0.500000 0.876740
O O19 0.500000 0.230435 0.000000
#
# Coordination Sequence:
#
# PCOD9149418 Si02
#       7
#     4   4   4   4   4   4   4
#     4  10  20  34  56  84 108 137 180 226 267 310
#     4   8  15  29  49  74 102 135 172 213 266 317
#     4  10  20  35  54  77 108 143 175 214 269 323
#     4  11  22  35  53  79 108 141 179 216 264 321
#     4   9  17  31  53  77 103 135 172 216 265 315
#     4  10  22  38  54  76 108 142 177 218 264 314
#     4   9  17  29  48  76 107 135 169 215 264 314
#
# _framework density 22.169592000000002
#
# number of rings (size 3 to 8) (size 9 to 14) (size 15 to 20)
#    0.000    2.429    1.429    2.143    0.000    4.000 
#    0.000    5.714    0.000    1.286    0.000    0.000 
#    0.000    0.000    0.000    0.000    0.000    0.000 
#
# Total GULP energy -156392.999830 kJ/mol
# GULP energy per Si atom -5585.464280 kJ/mol
# Density = 2.211913 g / cm^3
# Si number density = 22.169592 Si / 1000 Ang^3
#
#
#
# Elastic Constant Matrix: (Units=GPa)
#
#
# Indices 1 2 3 4 5 6 
#
# 1 213.3829 4.3970 77.4316 0.0000 -1.4274 0.0000
# 2 4.3970 56.2784 -0.1689 0.0000 -4.7456 0.0000
# 3 77.4316 -0.1689 73.8308 0.0000 -11.8719 0.0000
# 4 0.0000 0.0000 0.0000 -3.2465 0.0000 -16.3615
# 5 -1.4274 -4.7456 -11.8719 0.0000 36.4371 0.0000
# 6 0.0000 0.0000 0.0000 -16.3615 0.0000 -28.1619
#
#
#
# Elastic Compliance Matrix: (Units=1/GPa)
#
#
# Indices 1 2 3 4 5 6 
#
# 1 0.007813 -0.000857 -0.008616 0.000000 -0.002613 0.000000
# 2 -0.000857 0.018074 0.001385 0.000000 0.002772 0.000000
# 3 -0.008616 0.001385 0.023806 0.000000 0.007599 0.000000
# 4 0.000000 0.000000 0.000000 0.159764 0.000000 -0.092820
# 5 -0.002613 0.002772 0.007599 0.000000 0.030179 0.000000
# 6 0.000000 0.000000 0.000000 -0.092820 0.000000 0.018418
#
#
# Mechanical properties :
#
#
# Convention : Reuss Voigt Hill
#
# Bulk Modulus (GPa) = 29.83478 56.31241 43.07360
# Shear Modulus (GPa) = 17.51916 18.46124 17.99020
#
# Velocity S-wave (km/s) = 2.81416 2.88883 2.85174
# Velocity P-wave (km/s) = 4.90368 6.04839 5.50586
#
# Compressibility (1/GPa) = 0.03351793
#
# Stress axis : x y z
#
# Youngs Moduli (GPa) = 127.98698 55.32930 42.00565
#
# Poissons Ratio (x) = 0.04740 0.36194
# Poissons Ratio (y) = 0.10964 -0.05820
# Poissons Ratio (z) = 1.10280 -0.07666
#
# Static dielectric constant tensor:
#      x y z
#    x 1.830050 0.000000 -0.024860 
#    y 0.000000 1.824500 0.000000 
#    z -0.024860 0.000000 1.764860 
# 
# From -- ./inp_files/49140.got.cif
#   From: 2010.05.17/outbox.cif.g08.bks.cpg/sg10_25_cif.got.tgz:49140.got - 2010.06.03 11:33:40.
