data_PCOD9149435
_publ_section_title
;
Structure prediction by ZEFSAII (Michael W. Deem and Ramdas Pophale) SiO2 
 PCOD9149435
Probable space group: P 2/M
;
_chemical_formula_sum "Si O2"
_cell_formula_units_Z 26
_cell_length_a 12.214152
_cell_length_b 13.543994
_cell_length_c 10.496636
_cell_angle_alpha 90.000000
_cell_angle_beta 56.637604
_cell_angle_gamma 90.000000
_cell_volume 1450.291698
_symmetry_space_group_name_H-M "P 2/M"
_symmetry_group_IT_number 10
_symmetry_cell_setting 'monoclinic'
loop_
_space_group_symop_operation_xyz
x,y,z
-x,y,-z
-x,-y,-z
x,-y,z
loop_
_atom_site_type_symbol
_atom_site_label
_atom_site_fract_x
_atom_site_fract_y
_atom_site_fract_z
Si Si1 0.216632 0.389635 0.484344
Si Si2 0.788266 0.182706 0.814233
Si Si3 0.541062 0.000000 0.326084
Si Si4 0.353881 0.796268 0.846842
Si Si5 0.580042 0.323635 0.836828
Si Si6 0.622176 0.000000 0.823262
Si Si7 0.643459 0.385910 0.344194
Si Si8 0.000000 0.248300 0.500000
O O1 0.166318 0.500000 0.496530
O O2 0.356500 0.380336 0.321339
O O3 0.251446 0.375197 0.609591
O O4 0.111109 0.313838 0.497623
O O5 0.707076 0.279000 0.823952
O O6 0.928770 0.188001 0.658128
O O7 0.709598 0.093466 0.801656
O O8 0.765093 0.180848 0.980206
O O9 0.500000 0.000000 0.500000
O O10 0.615769 0.897008 0.248259
O O11 0.427063 0.000000 0.290645
O O12 0.483012 0.762830 0.846821
O O13 0.332863 0.700139 0.772954
O O14 0.500000 0.377363 0.000000
O O15 0.500000 0.000000 0.000000
O O16 0.500000 0.372035 0.500000
O O17 0.648927 0.500000 0.292709
#
# Coordination Sequence:
#
# PCOD9149435 Si02
#       8
#     4   4   2   4   4   2   4   2
#     4  10  20  36  56  77 111 156 199 249 298 352
#     4  10  20  35  59  80 114 157 196 242 286 347
#     4  12  24  30  56  98 126 157 181 232 311 366
#     4  11  19  35  55  88 122 148 192 244 302 363
#     4   9  17  29  51  81 111 144 181 242 306 346
#     4  12  18  39  62  89 120 154 193 246 307 366
#     4  10  20  34  56  84 118 155 190 245 314 367
#     4  10  23  39  56  82 108 156 210 243 283 342
#
# _framework density 17.927427999999999
#
# number of rings (size 3 to 8) (size 9 to 14) (size 15 to 20)
#    0.000    1.692    4.615    1.154    0.000    0.615 
#    0.000    7.692    0.000    2.769    0.000    3.231 
#    0.000    0.000    0.000    0.000    0.000    0.000 
#
# Total GULP energy -144801.919276 kJ/mol
# GULP energy per Si atom -5569.304588 kJ/mol
# Density = 1.788662 g / cm^3
# Si number density = 17.927428 Si / 1000 Ang^3
#
#
#
# Elastic Constant Matrix: (Units=GPa)
#
#
# Indices 1 2 3 4 5 6 
#
# 1 46.7796 27.5860 43.3830 0.0000 -4.6162 0.0000
# 2 27.5860 96.8492 72.9827 0.0000 4.7138 0.0000
# 3 43.3830 72.9827 167.7050 0.0000 -0.1662 0.0000
# 4 0.0000 0.0000 0.0000 -0.5218 0.0000 10.9686
# 5 -4.6162 4.7138 -0.1662 0.0000 29.4489 0.0000
# 6 0.0000 0.0000 0.0000 10.9686 0.0000 24.6954
#
#
#
# Elastic Compliance Matrix: (Units=1/GPa)
#
#
# Indices 1 2 3 4 5 6 
#
# 1 0.029888 -0.004392 -0.005815 0.000000 0.005355 0.000000
# 2 -0.004392 0.016195 -0.005915 0.000000 -0.003314 0.000000
# 3 -0.005815 -0.005915 0.010041 0.000000 0.000092 0.000000
# 4 0.000000 0.000000 0.000000 -0.185407 0.000000 0.082349
# 5 0.005355 -0.003314 0.000092 0.000000 0.035328 0.000000
# 6 0.000000 0.000000 0.000000 0.082349 0.000000 0.003918
#
#
# Mechanical properties :
#
#
# Convention : Reuss Voigt Hill
#
# Bulk Modulus (GPa) = 41.87491 66.58190 54.22841
# Shear Modulus (GPa) = -100.33368 21.88331 -39.22518
#
# Velocity S-wave (km/s) = -7.48920 3.49759 -4.68268
# Velocity P-wave (km/s) = 7.16766 7.31650 1.03821
#
# Compressibility (1/GPa) = 0.02388065
#
# Stress axis : x y z
#
# Youngs Moduli (GPa) = 33.45834 61.74789 99.58821
#
# Poissons Ratio (x) = 0.27117 0.57912
# Poissons Ratio (y) = 0.14694 0.58906
# Poissons Ratio (z) = 0.19456 0.36524
#
# Static dielectric constant tensor:
#      x y z
#    x 1.609720 0.000000 0.011400 
#    y 0.000000 1.634060 0.000000 
#    z 0.011400 0.000000 1.664250 
# 
# From -- ./inp_files/24850.got.cif
#   From: 2010.05.17/outbox.cif.g08.bks.cpg/sg10_13_cif.got.tgz:24850.got - 2010.06.03 11:33:40.
