data_PCOD9149897
_publ_section_title
;
Structure prediction by ZEFSAII (Michael W. Deem and Ramdas Pophale) SiO2 
 PCOD9149897
Probable space group: P 2/M
;
_chemical_formula_sum "Si O2"
_cell_formula_units_Z 28
_cell_length_a 25.206659
_cell_length_b 7.673941
_cell_length_c 22.183251
_cell_angle_alpha 90.000000
_cell_angle_beta 162.486524
_cell_angle_gamma 90.000000
_cell_volume 1291.292336
_symmetry_space_group_name_H-M "P 2/M"
_symmetry_group_IT_number 10
_symmetry_cell_setting 'monoclinic'
loop_
_space_group_symop_operation_xyz
x,y,z
-x,y,-z
-x,-y,-z
x,-y,z
loop_
_atom_site_type_symbol
_atom_site_label
_atom_site_fract_x
_atom_site_fract_y
_atom_site_fract_z
Si Si1 0.003076 0.206984 0.571432
Si Si2 0.379585 0.213996 0.174548
Si Si3 0.701981 0.295467 0.721431
Si Si4 0.361890 0.790300 0.019220
Si Si5 0.070577 0.800472 0.919787
Si Si6 0.610823 0.293078 0.177674
Si Si7 0.262951 0.788278 0.375251
O O1 0.812139 0.230928 0.393915
O O2 0.000000 0.279645 0.500000
O O3 0.032978 0.000000 0.598660
O O4 0.171266 0.276275 0.790039
O O5 0.402594 0.271252 0.130758
O O6 0.543726 0.267773 0.393812
O O7 0.377615 0.000000 0.174083
O O8 0.196030 0.276470 0.004480
O O9 0.500000 0.230984 0.500000
O O10 0.699710 0.500000 0.734482
O O11 0.775977 0.272509 0.734474
O O12 0.813273 0.201727 0.893297
O O13 0.506925 0.748434 0.126119
O O14 0.353036 0.000000 0.013569
O O15 0.884183 0.722830 0.737378
O O16 0.034830 0.000000 0.862800
O O17 0.617832 0.500000 0.178704
O O18 0.500000 0.222045 0.000000
O O19 0.257505 0.000000 0.368676
#
# Coordination Sequence:
#
# PCOD9149897 Si02
#       7
#     4   4   4   4   4   4   4
#     4  10  20  35  59  89 116 146 187 236 287 337
#     4   9  19  36  57  82 111 144 182 230 278 326
#     4  11  22  35  54  81 110 145 186 228 277 326
#     4  10  21  38  61  87 115 149 191 238 286 338
#     4  10  20  35  57  82 108 140 183 228 278 332
#     4  11  23  37  57  85 117 153 188 230 284 342
#     4  10  20  35  58  84 109 142 183 227 278 332
#
# _framework density 21.683703999999999
#
# number of rings (size 3 to 8) (size 9 to 14) (size 15 to 20)
#    0.000    1.857    2.857    1.286    0.000    5.429 
#    0.000    5.714    0.000    1.714    0.000    0.000 
#    0.000    0.000    0.000    0.000    0.000    0.000 
#
# Total GULP energy -156446.259237 kJ/mol
# GULP energy per Si atom -5587.366401 kJ/mol
# Density = 2.163435 g / cm^3
# Si number density = 21.683704 Si / 1000 Ang^3
#
#
#
# Elastic Constant Matrix: (Units=GPa)
#
#
# Indices 1 2 3 4 5 6 
#
# 1 124.8630 -20.1843 16.2257 0.0000 14.3567 0.0000
# 2 -20.1843 38.5814 -12.0897 0.0000 -5.0937 0.0000
# 3 16.2257 -12.0897 49.8117 0.0000 20.5616 0.0000
# 4 0.0000 0.0000 0.0000 12.6424 0.0000 25.8657
# 5 14.3567 -5.0937 20.5616 0.0000 42.8371 0.0000
# 6 0.0000 0.0000 0.0000 25.8657 0.0000 -83.0992
#
#
#
# Elastic Compliance Matrix: (Units=1/GPa)
#
#
# Indices 1 2 3 4 5 6 
#
# 1 0.009051 0.004119 -0.001121 0.000000 -0.002006 0.000000
# 2 0.004119 0.029928 0.006264 0.000000 -0.000828 0.000000
# 3 -0.001121 0.006264 0.026811 0.000000 -0.011749 0.000000
# 4 0.000000 0.000000 0.000000 0.048325 0.000000 0.015042
# 5 -0.002006 -0.000828 -0.011749 0.000000 0.029557 0.000000
# 6 0.000000 0.000000 0.000000 0.015042 0.000000 -0.007352
#
#
# Mechanical properties :
#
#
# Convention : Reuss Voigt Hill
#
# Bulk Modulus (GPa) = 11.86043 20.12882 15.99462
# Shear Modulus (GPa) = 34.27041 9.76303 22.01672
#
# Velocity S-wave (km/s) = 3.97982 2.12420 3.18992
# Velocity P-wave (km/s) = 5.15755 3.91400 4.57819
#
# Compressibility (1/GPa) = 0.08431399
#
# Stress axis : x y z
#
# Youngs Moduli (GPa) = 110.48663 33.41394 37.29877
#
# Poissons Ratio (x) = -0.13764 0.04180
# Poissons Ratio (y) = -0.45511 -0.23364
# Poissons Ratio (z) = 0.12381 -0.20930
#
# Static dielectric constant tensor:
#      x y z
#    x 1.774240 0.000000 0.016780 
#    y 0.000000 1.815660 0.000000 
#    z 0.016780 0.000000 1.777560 
# 
# From -- ./inp_files/86530.got.cif
#   From: 2010.05.17/outbox.cif.g08.bks.cpg/sg10_44_cif.got.tgz:86530.got - 2010.06.03 11:33:40.
