data_PCOD9149498
_publ_section_title
;
Structure prediction by ZEFSAII (Michael W. Deem and Ramdas Pophale) SiO2 
 PCOD9149498
Probable space group: P 2/M
;
_chemical_formula_sum "Si O2"
_cell_formula_units_Z 28
_cell_length_a 12.174182
_cell_length_b 8.103987
_cell_length_c 15.923180
_cell_angle_alpha 90.000000
_cell_angle_beta 124.234310
_cell_angle_gamma 90.000000
_cell_volume 1298.791079
_symmetry_space_group_name_H-M "P 2/M"
_symmetry_group_IT_number 10
_symmetry_cell_setting 'monoclinic'
loop_
_space_group_symop_operation_xyz
x,y,z
-x,y,-z
-x,-y,-z
x,-y,z
loop_
_atom_site_type_symbol
_atom_site_label
_atom_site_fract_x
_atom_site_fract_y
_atom_site_fract_z
Si Si1 0.858136 0.302447 0.143781
Si Si2 0.349006 0.194413 0.277788
Si Si3 0.393501 0.693925 0.691925
Si Si4 0.405243 0.298630 0.883965
Si Si5 0.849466 0.800660 0.954071
Si Si6 0.875657 0.192949 0.500815
Si Si7 0.854320 0.306664 0.679547
O O1 0.866008 0.500000 0.155853
O O2 0.745321 0.245131 0.159749
O O3 0.006431 0.236717 0.223789
O O4 0.812291 0.261148 0.030183
O O5 0.490034 0.278990 0.324932
O O6 0.249445 0.255646 0.161440
O O7 0.271966 0.223867 0.331200
O O8 0.369591 0.000000 0.275230
O O9 0.362177 0.500000 0.683792
O O10 0.442072 0.750577 0.805303
O O11 0.259965 0.785573 0.608613
O O12 0.409251 0.500000 0.888245
O O13 0.500000 0.239944 0.000000
O O14 0.849402 0.000000 0.954371
O O15 0.000000 0.744608 0.000000
O O16 0.860138 0.283396 0.582648
O O17 0.000000 0.256101 0.500000
O O18 0.899185 0.000000 0.528918
O O19 0.846575 0.500000 0.696761
#
# Coordination Sequence:
#
# PCOD9149498 Si02
#       7
#     4   4   4   4   4   4   4
#     4  10  20  34  57  88 120 156 203 256 304 357
#     4  11  23  40  61  88 127 166 207 254 307 370
#     4  11  23  41  66  92 124 162 204 255 309 363
#     4   9  18  34  57  87 122 157 194 242 300 358
#     4  10  20  35  55  83 123 168 206 243 297 361
#     4  11  25  45  68  93 123 160 202 249 306 369
#     4  11  23  39  62  92 122 157 208 259 308 363
#
# _framework density 21.558510999999999
#
# number of rings (size 3 to 8) (size 9 to 14) (size 15 to 20)
#    0.000    1.571    1.429    3.429    0.000    6.000 
#    0.000    4.286    0.000    3.857    0.000    0.000 
#    0.000    0.000    0.000    0.000    0.000    0.000 
#
# Total GULP energy -156552.341283 kJ/mol
# GULP energy per Si atom -5591.155046 kJ/mol
# Density = 2.150944 g / cm^3
# Si number density = 21.558511 Si / 1000 Ang^3
#
#
#
# Elastic Constant Matrix: (Units=GPa)
#
#
# Indices 1 2 3 4 5 6 
#
# 1 130.8310 -5.7694 23.4298 0.0000 -3.9380 0.0000
# 2 -5.7694 15.5721 -11.3643 0.0000 2.5010 0.0000
# 3 23.4298 -11.3643 66.4056 0.0000 -5.0847 0.0000
# 4 0.0000 0.0000 0.0000 39.9463 0.0000 -8.2735
# 5 -3.9380 2.5010 -5.0847 0.0000 34.9810 0.0000
# 6 0.0000 0.0000 0.0000 -8.2735 0.0000 14.4500
#
#
#
# Elastic Compliance Matrix: (Units=1/GPa)
#
#
# Indices 1 2 3 4 5 6 
#
# 1 0.008181 0.001001 -0.002680 0.000000 0.000460 0.000000
# 2 0.001001 0.073921 0.012035 0.000000 -0.003423 0.000000
# 3 -0.002680 0.012035 0.018177 0.000000 0.001480 0.000000
# 4 0.000000 0.000000 0.000000 0.028402 0.000000 0.016262
# 5 0.000460 -0.003423 0.001480 0.000000 0.029099 0.000000
# 6 0.000000 0.000000 0.000000 0.016262 0.000000 0.078515
#
#
# Mechanical properties :
#
#
# Convention : Reuss Voigt Hill
#
# Bulk Modulus (GPa) = 8.26496 25.04454 16.65475
# Shear Modulus (GPa) = 19.53789 31.64297 25.59043
#
# Velocity S-wave (km/s) = 3.01370 3.83531 3.44906
# Velocity P-wave (km/s) = 3.99399 5.59062 4.85834
#
# Compressibility (1/GPa) = 0.12099270
#
# Stress axis : x y z
#
# Youngs Moduli (GPa) = 122.22843 13.52797 55.01309
#
# Poissons Ratio (x) = -0.01355 0.14744
# Poissons Ratio (y) = -0.12241 -0.66208
# Poissons Ratio (z) = 0.32758 -0.16281
#
# Static dielectric constant tensor:
#      x y z
#    x 1.774460 0.000000 0.007920 
#    y 0.000000 1.749170 0.000000 
#    z 0.007920 0.000000 1.773700 
# 
# From -- ./inp_files/49563.got.cif
#   From: 2010.05.17/outbox.cif.g08.bks.cpg/sg10_25_cif.got.tgz:49563.got - 2010.06.03 11:33:40.
