data_PCOD9149861
_publ_section_title
;
Structure prediction by ZEFSAII (Michael W. Deem and Ramdas Pophale) SiO2 
 PCOD9149861
Probable space group: P 2/M
;
_chemical_formula_sum "Si O2"
_cell_formula_units_Z 24
_cell_length_a 11.249043
_cell_length_b 12.948908
_cell_length_c 17.415724
_cell_angle_alpha 90.000000
_cell_angle_beta 30.363653
_cell_angle_gamma 90.000000
_cell_volume 1282.330056
_symmetry_space_group_name_H-M "P 2/M"
_symmetry_group_IT_number 10
_symmetry_cell_setting 'monoclinic'
loop_
_space_group_symop_operation_xyz
x,y,z
-x,y,-z
-x,-y,-z
x,-y,z
loop_
_atom_site_type_symbol
_atom_site_label
_atom_site_fract_x
_atom_site_fract_y
_atom_site_fract_z
Si Si1 0.706758 0.500000 0.323220
Si Si2 0.457055 0.694652 0.847203
Si Si3 0.257139 0.884727 0.586800
Si Si4 0.281802 0.500000 0.850315
Si Si5 0.025415 0.686708 0.198150
Si Si6 0.940149 0.383434 0.649950
Si Si7 0.785321 0.811701 0.563599
O O1 0.500000 0.500000 0.500000
O O2 0.600550 0.500000 0.298280
O O3 0.862239 0.603703 0.244997
O O4 0.356462 0.603460 0.851127
O O5 0.687732 0.649110 0.758931
O O6 0.553488 0.791068 0.743761
O O7 0.255583 0.715009 0.021660
O O8 0.500000 0.879930 0.500000
O O9 0.267809 0.868596 0.487660
O O10 0.104874 0.791601 0.705639
O O11 0.158898 0.000000 0.654013
O O12 0.000000 0.500000 0.000000
O O13 0.076837 0.629102 0.249307
O O14 0.999462 0.500000 0.595809
O O15 0.124614 0.301645 0.513644
O O16 0.000000 0.851598 0.500000
#
# Coordination Sequence:
#
# PCOD9149861 Si02
#       7
#     2   4   4   2   4   4   4
#     4  12  26  37  53  84 119 161 200 229 285 357
#     4  11  22  35  55  84 125 154 191 238 292 352
#     4  10  23  44  66  86 112 154 204 249 296 352
#     4  12  24  35  48  83 125 163 191 233 292 342
#     4  11  22  38  59  86 119 154 194 242 293 352
#     4  10  20  35  56  84 119 162 199 231 281 353
#     4   9  22  38  60  89 114 153 199 246 297 346
#
# _framework density 18.71593
#
# number of rings (size 3 to 8) (size 9 to 14) (size 15 to 20)
#    0.000    1.500    3.333    1.000    8.167    2.000 
#    0.000    0.833    0.000   15.000    0.000    0.000 
#    0.000    0.000    0.000    0.000    0.000    0.000 
#
# Total GULP energy -133948.197446 kJ/mol
# GULP energy per Si atom -5581.174894 kJ/mol
# Density = 1.867333 g / cm^3
# Si number density = 18.715930 Si / 1000 Ang^3
#
#
#
# Elastic Constant Matrix: (Units=GPa)
#
#
# Indices 1 2 3 4 5 6 
#
# 1 86.9156 20.6282 6.7505 0.0000 11.3736 0.0000
# 2 20.6282 95.8364 13.7860 0.0000 -3.2672 0.0000
# 3 6.7505 13.7860 87.4516 0.0000 9.3440 0.0000
# 4 0.0000 0.0000 0.0000 15.4005 0.0000 -1.0308
# 5 11.3736 -3.2672 9.3440 0.0000 29.8168 0.0000
# 6 0.0000 0.0000 0.0000 -1.0308 0.0000 15.5788
#
#
#
# Elastic Compliance Matrix: (Units=1/GPa)
#
#
# Indices 1 2 3 4 5 6 
#
# 1 0.012892 -0.002959 0.000032 0.000000 -0.005252 0.000000
# 2 -0.002959 0.011445 -0.001894 0.000000 0.002976 0.000000
# 3 0.000032 -0.001894 0.012162 0.000000 -0.004031 0.000000
# 4 0.000000 0.000000 0.000000 0.065222 0.000000 0.004316
# 5 -0.005252 0.002976 -0.004031 0.000000 0.037131 0.000000
# 6 0.000000 0.000000 0.000000 0.004316 0.000000 0.064475
#
#
# Mechanical properties :
#
#
# Convention : Reuss Voigt Hill
#
# Bulk Modulus (GPa) = 37.23157 39.17033 38.20095
# Shear Modulus (GPa) = 22.53058 27.42849 24.97953
#
# Velocity S-wave (km/s) = 3.47337 3.83236 3.65727
# Velocity P-wave (km/s) = 6.00183 6.36843 6.18785
#
# Compressibility (1/GPa) = 0.02685892
#
# Stress axis : x y z
#
# Youngs Moduli (GPa) = 77.56508 87.37297 82.22557
#
# Poissons Ratio (x) = 0.25851 -0.00267
# Poissons Ratio (y) = 0.22949 0.15572
# Poissons Ratio (z) = -0.00251 0.16547
#
# Static dielectric constant tensor:
#      x y z
#    x 1.698910 0.000000 0.012770 
#    y 0.000000 1.650160 0.000000 
#    z 0.012770 0.000000 1.655100 
# 
# From -- ./inp_files/76620.got.cif
#   From: 2010.05.17/outbox.cif.g08.bks.cpg/sg10_39_cif.got.tgz:76620.got - 2010.06.03 11:33:40.
