data_PCOD9149310
_publ_section_title
;
Structure prediction by ZEFSAII (Michael W. Deem and Ramdas Pophale) SiO2 
 PCOD9149310
Probable space group: P 2/M
;
_chemical_formula_sum "Si O2"
_cell_formula_units_Z 32
_cell_length_a 29.023059
_cell_length_b 9.111831
_cell_length_c 17.623857
_cell_angle_alpha 90.000000
_cell_angle_beta 22.576517
_cell_angle_gamma 90.000000
_cell_volume 1789.315977
_symmetry_space_group_name_H-M "P 2/M"
_symmetry_group_IT_number 10
_symmetry_cell_setting 'monoclinic'
loop_
_space_group_symop_operation_xyz
x,y,z
-x,y,-z
-x,-y,-z
x,-y,z
loop_
_atom_site_type_symbol
_atom_site_label
_atom_site_fract_x
_atom_site_fract_y
_atom_site_fract_z
Si Si1 0.156845 0.326024 0.128849
Si Si2 0.206841 0.173110 0.209248
Si Si3 0.079846 0.825088 0.561493
Si Si4 0.485080 0.826994 0.757536
Si Si5 0.887900 0.325610 0.336477
Si Si6 0.087599 0.168044 0.940431
Si Si7 0.717513 0.325626 0.451946
Si Si8 0.433459 0.674997 0.678978
O O1 0.134638 0.500000 0.159999
O O2 0.158172 0.268379 0.213519
O O3 0.053608 0.240048 0.242113
O O4 0.290376 0.297453 0.893555
O O5 0.145899 0.208512 0.381733
O O6 0.184340 0.000000 0.226840
O O7 0.350313 0.194487 0.993752
O O8 0.142423 0.749920 0.538115
O O9 0.077115 0.000000 0.575173
O O10 0.585828 0.742443 0.651352
O O11 0.483544 0.762762 0.674693
O O12 0.510745 0.000000 0.717736
O O13 0.900759 0.500000 0.325302
O O14 0.789116 0.297387 0.421343
O O15 0.012489 0.256048 0.117054
O O16 0.206208 0.249764 0.731324
O O17 0.110894 0.000000 0.927771
O O18 0.000000 0.164979 0.000000
O O19 0.714233 0.500000 0.445085
O O20 0.500000 0.713493 0.500000
O O21 0.449494 0.500000 0.667884
#
# Coordination Sequence:
#
# PCOD9149310 Si02
#       8
#     4   4   4   4   4   4   4   4
#     4  10  20  34  55  81 106 136 175 217 264 321
#     4   9  20  38  56  76 103 137 177 221 270 321
#     4  11  22  36  55  77 105 140 176 220 273 323
#     4  10  20  35  56  79 104 137 180 224 263 313
#     4  10  21  36  53  77 109 141 176 220 266 313
#     4   9  17  31  52  76 102 134 172 212 254 303
#     4  10  20  35  55  78 107 143 179 216 262 316
#     4   9  19  36  55  77 109 144 174 209 257 313
#
# _framework density 17.883928999999998
#
# number of rings (size 3 to 8) (size 9 to 14) (size 15 to 20)
#    0.000    2.250    0.000    2.625    0.000    7.750 
#    0.000    4.375    0.000    3.750    0.000    0.000 
#    0.000    0.000    0.000    0.000    0.000    0.000 
#
# Total GULP energy -178653.627799 kJ/mol
# GULP energy per Si atom -5582.925869 kJ/mol
# Density = 1.784322 g / cm^3
# Si number density = 17.883929 Si / 1000 Ang^3
#
#
#
# Elastic Constant Matrix: (Units=GPa)
#
#
# Indices 1 2 3 4 5 6 
#
# 1 73.0220 56.2910 48.4616 0.0000 4.0066 0.0000
# 2 56.2910 82.0504 46.8384 0.0000 -1.7325 0.0000
# 3 48.4616 46.8384 61.6244 0.0000 8.6872 0.0000
# 4 0.0000 0.0000 0.0000 24.9389 0.0000 1.3644
# 5 4.0066 -1.7325 8.6872 0.0000 27.8247 0.0000
# 6 0.0000 0.0000 0.0000 1.3644 0.0000 32.3663
#
#
#
# Elastic Compliance Matrix: (Units=1/GPa)
#
#
# Indices 1 2 3 4 5 6 
#
# 1 0.037392 -0.015841 -0.017225 0.000000 -0.000993 0.000000
# 2 -0.015841 0.029522 -0.011048 0.000000 0.007569 0.000000
# 3 -0.017225 -0.011048 0.039664 0.000000 -0.010591 0.000000
# 4 0.000000 0.000000 0.000000 0.040191 0.000000 -0.001694
# 5 -0.000993 0.007569 -0.010591 0.000000 0.039860 0.000000
# 6 0.000000 0.000000 0.000000 -0.001694 0.000000 0.030968
#
#
# Mechanical properties :
#
#
# Convention : Reuss Voigt Hill
#
# Bulk Modulus (GPa) = 54.49859 57.76430 56.13144
# Shear Modulus (GPa) = 16.02867 21.36637 18.69752
#
# Velocity S-wave (km/s) = 2.99701 3.46023 3.23692
# Velocity P-wave (km/s) = 6.52041 6.95226 6.73979
#
# Compressibility (1/GPa) = 0.01834910
#
# Stress axis : x y z
#
# Youngs Moduli (GPa) = 26.74374 33.87300 25.21203
#
# Poissons Ratio (x) = 0.53658 0.43428
# Poissons Ratio (y) = 0.42364 0.27855
# Poissons Ratio (z) = 0.46066 0.37424
#
# Static dielectric constant tensor:
#      x y z
#    x 1.602900 0.000000 -0.004550 
#    y 0.000000 1.595340 0.000000 
#    z -0.004550 0.000000 1.603750 
# 
# From -- ./inp_files/71560.got.cif
#   From: 2010.05.17/outbox.cif.g08.bks.cpg/sg10_36_cif.got.tgz:71560.got - 2010.06.03 11:33:40.
