data_PCOD9149235
_publ_section_title
;
Structure prediction by ZEFSAII (Michael W. Deem and Ramdas Pophale) SiO2 
 PCOD9149235
Probable space group: P 2/M
;
_chemical_formula_sum "Si O2"
_cell_formula_units_Z 26
_cell_length_a 15.329547
_cell_length_b 19.032492
_cell_length_c 14.525499
_cell_angle_alpha 90.000000
_cell_angle_beta 19.948134
_cell_angle_gamma 90.000000
_cell_volume 1445.859400
_symmetry_space_group_name_H-M "P 2/M"
_symmetry_group_IT_number 10
_symmetry_cell_setting 'monoclinic'
loop_
_space_group_symop_operation_xyz
x,y,z
-x,y,-z
-x,-y,-z
x,-y,z
loop_
_atom_site_type_symbol
_atom_site_label
_atom_site_fract_x
_atom_site_fract_y
_atom_site_fract_z
Si Si1 0.296165 0.642245 0.442137
Si Si2 0.755068 0.156484 0.810637
Si Si3 0.398304 0.576418 0.703430
Si Si4 0.245603 0.727501 0.816100
Si Si5 0.250205 0.582600 0.294561
Si Si6 0.791025 0.737239 0.944993
Si Si7 0.246757 0.000000 0.190118
O O1 0.369070 0.599111 0.460937
O O2 0.245023 0.591207 0.408119
O O3 0.557079 0.683759 0.161177
O O4 0.061790 0.696340 0.680438
O O5 0.752470 0.077012 0.855497
O O6 0.000000 0.163158 0.500000
O O7 0.500000 0.166394 0.000000
O O8 0.781261 0.209098 0.870126
O O9 0.500000 0.569256 0.500000
O O10 0.291860 0.500000 0.838460
O O11 0.221044 0.645214 0.871949
O O12 0.500000 0.733407 0.500000
O O13 0.257808 0.766483 0.902526
O O14 0.000000 0.746934 0.000000
O O15 0.249175 0.500000 0.271981
O O16 0.000000 0.616848 0.500000
O O17 0.500000 0.614281 0.000000
O O18 0.000000 0.000000 0.500000
O O19 0.500000 0.000000 0.000000
#
# Coordination Sequence:
#
# PCOD9149235 Si02
#       7
#     4   4   4   4   4   4   2
#     4  11  22  35  50  72 101 127 163 212 255 301
#     4  10  20  34  54  81 112 140 169 203 242 295
#     4   9  18  33  52  71  92 122 161 210 266 313
#     4  10  20  36  53  72 100 131 168 217 263 309
#     4  10  21  36  51  66  89 127 170 206 245 295
#     4  11  22  34  52  77 101 133 169 202 252 306
#     4   8  16  32  52  76 108 142 168 198 240 286
#
# _framework density 17.982385000000001
#
# number of rings (size 3 to 8) (size 9 to 14) (size 15 to 20)
#    0.000    2.000    0.000    5.077    0.000    4.000 
#    0.000   11.538    0.000    0.000    0.000    1.077 
#    0.000    0.000    0.000    1.308    0.000    0.000 
#
# Total GULP energy -144852.664924 kJ/mol
# GULP energy per Si atom -5571.256343 kJ/mol
# Density = 1.794146 g / cm^3
# Si number density = 17.982385 Si / 1000 Ang^3
#
#
#
# Elastic Constant Matrix: (Units=GPa)
#
#
# Indices 1 2 3 4 5 6 
#
# 1 113.2409 31.6855 51.5731 0.0000 -1.5836 0.0000
# 2 31.6855 54.3385 20.8080 0.0000 8.1076 0.0000
# 3 51.5731 20.8080 89.7625 0.0000 -12.3519 0.0000
# 4 0.0000 0.0000 0.0000 9.7145 0.0000 -6.7331
# 5 -1.5836 8.1076 -12.3519 0.0000 25.3957 0.0000
# 6 0.0000 0.0000 0.0000 -6.7331 0.0000 22.2417
#
#
#
# Elastic Compliance Matrix: (Units=1/GPa)
#
#
# Indices 1 2 3 4 5 6 
#
# 1 0.013212 -0.005108 -0.006505 0.000000 -0.000709 0.000000
# 2 -0.005108 0.024479 -0.004136 0.000000 -0.010145 0.000000
# 3 -0.006505 -0.004136 0.017107 0.000000 0.009235 0.000000
# 4 0.000000 0.000000 0.000000 0.130272 0.000000 0.039436
# 5 -0.000709 -0.010145 0.009235 0.000000 0.047063 0.000000
# 6 0.000000 0.000000 0.000000 0.039436 0.000000 0.056899
#
#
# Mechanical properties :
#
#
# Convention : Reuss Voigt Hill
#
# Bulk Modulus (GPa) = 42.91454 51.71944 47.31699
# Shear Modulus (GPa) = 15.23014 21.68875 18.45944
#
# Velocity S-wave (km/s) = 2.91339 3.47668 3.20743
# Velocity P-wave (km/s) = 5.93580 6.70373 6.33142
#
# Compressibility (1/GPa) = 0.02330212
#
# Stress axis : x y z
#
# Youngs Moduli (GPa) = 75.68635 40.85144 58.45400
#
# Poissons Ratio (x) = 0.20865 0.38023
# Poissons Ratio (y) = 0.38658 0.24176
# Poissons Ratio (z) = 0.49232 0.16896
#
# Static dielectric constant tensor:
#      x y z
#    x 1.625250 0.000000 0.002720 
#    y 0.000000 1.649100 0.000000 
#    z 0.002720 0.000000 1.638310 
# 
# From -- ./inp_files/67793.got.cif
#   From: 2010.05.17/outbox.cif.g08.bks.cpg/sg10_34_cif.got.tgz:67793.got - 2010.06.03 11:33:40.
