data_PCOD9149777
_publ_section_title
;
Structure prediction by ZEFSAII (Michael W. Deem and Ramdas Pophale) SiO2 
 PCOD9149777
Probable space group: P 2/M
;
_chemical_formula_sum "Si O2"
_cell_formula_units_Z 28
_cell_length_a 27.304484
_cell_length_b 8.831182
_cell_length_c 9.685953
_cell_angle_alpha 90.000000
_cell_angle_beta 138.086243
_cell_angle_gamma 90.000000
_cell_volume 1560.195217
_symmetry_space_group_name_H-M "P 2/M"
_symmetry_group_IT_number 10
_symmetry_cell_setting 'monoclinic'
loop_
_space_group_symop_operation_xyz
x,y,z
-x,y,-z
-x,-y,-z
x,-y,z
loop_
_atom_site_type_symbol
_atom_site_label
_atom_site_fract_x
_atom_site_fract_y
_atom_site_fract_z
Si Si1 0.056550 0.823471 0.731862
Si Si2 0.583012 0.180210 0.663317
Si Si3 0.926817 0.318532 0.932762
Si Si4 0.190178 0.330063 0.900143
Si Si5 0.766767 0.179063 0.527260
Si Si6 0.701934 0.324148 0.119125
Si Si7 0.304567 0.821693 0.328268
O O1 0.060142 0.736150 0.883231
O O2 0.132999 0.798815 0.815630
O O3 0.000000 0.763563 0.500000
O O4 0.041709 0.000000 0.728159
O O5 0.500000 0.237509 0.500000
O O6 0.616655 0.200242 0.579579
O O7 0.582511 0.000000 0.689173
O O8 0.637206 0.252911 0.890408
O O9 0.921661 0.500000 0.915832
O O10 0.847824 0.252623 0.718071
O O11 0.000000 0.272658 0.000000
O O12 0.159959 0.500000 0.855362
O O13 0.225545 0.317131 0.824573
O O14 0.254711 0.297772 0.142878
O O15 0.723373 0.242150 0.304792
O O16 0.715050 0.202018 0.553347
O O17 0.778721 0.000000 0.537404
O O18 0.685135 0.500000 0.109582
O O19 0.285317 0.000000 0.258785
#
# Coordination Sequence:
#
# PCOD9149777 Si02
#       7
#     4   4   4   4   4   4   4
#     4  11  24  39  56  81 110 144 189 237 286 341
#     4   9  18  36  62  89 117 149 187 233 284 340
#     4  11  25  42  59  82 114 152 193 240 292 342
#     4  10  20  35  56  79 105 143 187 234 284 334
#     4  11  22  37  59  84 114 152 193 238 286 341
#     4  10  22  37  56  85 117 150 191 234 283 341
#     4   9  18  34  57  84 111 143 185 230 279 336
#
# _framework density 17.946473000000001
#
# number of rings (size 3 to 8) (size 9 to 14) (size 15 to 20)
#    0.000    1.857    1.429    2.143    2.000    4.857 
#    0.000    0.714    0.000    4.286    0.000    0.000 
#    0.000    0.000    0.000    0.000    0.000    0.000 
#
# Total GULP energy -156035.100052 kJ/mol
# GULP energy per Si atom -5572.682145 kJ/mol
# Density = 1.790563 g / cm^3
# Si number density = 17.946473 Si / 1000 Ang^3
#
#
#
# Elastic Constant Matrix: (Units=GPa)
#
#
# Indices 1 2 3 4 5 6 
#
# 1 111.7043 47.4182 77.9402 0.0000 0.7901 0.0000
# 2 47.4182 50.5186 35.9998 0.0000 -10.6505 0.0000
# 3 77.9402 35.9998 101.2291 0.0000 -6.4588 0.0000
# 4 0.0000 0.0000 0.0000 4.3615 0.0000 2.9227
# 5 0.7901 -10.6505 -6.4588 0.0000 29.5222 0.0000
# 6 0.0000 0.0000 0.0000 2.9227 0.0000 29.5131
#
#
#
# Elastic Compliance Matrix: (Units=1/GPa)
#
#
# Indices 1 2 3 4 5 6 
#
# 1 0.026565 -0.016062 -0.015371 0.000000 -0.009868 0.000000
# 2 -0.016062 0.038025 -0.000257 0.000000 0.014091 0.000000
# 3 -0.015371 -0.000257 0.022134 0.000000 0.005161 0.000000
# 4 0.000000 0.000000 0.000000 0.245577 0.000000 -0.024320
# 5 -0.009868 0.014091 0.005161 0.000000 0.040350 0.000000
# 6 0.000000 0.000000 0.000000 -0.024320 0.000000 0.036292
#
#
# Mechanical properties :
#
#
# Convention : Reuss Voigt Hill
#
# Bulk Modulus (GPa) = 42.83728 65.12983 53.98355
# Shear Modulus (GPa) = 10.41441 19.48560 14.95001
#
# Velocity S-wave (km/s) = 2.41156 3.29867 2.88936
# Velocity P-wave (km/s) = 5.62810 7.13290 6.42471
#
# Compressibility (1/GPa) = 0.02334415
#
# Stress axis : x y z
#
# Youngs Moduli (GPa) = 37.64305 26.29881 45.17890
#
# Poissons Ratio (x) = 0.42240 0.69446
# Poissons Ratio (y) = 0.60461 0.01161
# Poissons Ratio (z) = 0.57862 0.00676
#
# Static dielectric constant tensor:
#      x y z
#    x 1.606560 0.000000 -0.043860 
#    y 0.000000 1.614300 0.000000 
#    z -0.043860 0.000000 1.508240 
# 
# From -- ./inp_files/37317.got.cif
#   From: 2010.05.17/outbox.cif.g08.bks.cpg/sg10_19_cif.got.tgz:37317.got - 2010.06.03 11:33:40.
