data_PCOD9149615
_publ_section_title
;
Structure prediction by ZEFSAII (Michael W. Deem and Ramdas Pophale) SiO2 
 PCOD9149615
Probable space group: P 2/M
;
_chemical_formula_sum "Si O2"
_cell_formula_units_Z 16
_cell_length_a 6.467039
_cell_length_b 19.367152
_cell_length_c 7.700396
_cell_angle_alpha 90.000000
_cell_angle_beta 42.569081
_cell_angle_gamma 90.000000
_cell_volume 652.436715
_symmetry_space_group_name_H-M "P 2/M"
_symmetry_group_IT_number 10
_symmetry_cell_setting 'monoclinic'
loop_
_space_group_symop_operation_xyz
x,y,z
-x,y,-z
-x,-y,-z
x,-y,z
loop_
_atom_site_type_symbol
_atom_site_label
_atom_site_fract_x
_atom_site_fract_y
_atom_site_fract_z
Si Si1 0.868125 0.000000 0.278211
Si Si2 0.353679 0.351225 0.409747
Si Si3 0.154704 0.709994 0.098254
Si Si4 0.129941 0.850568 0.723500
Si Si5 0.366338 0.500000 0.274243
O O1 0.500000 0.000000 0.500000
O O2 0.950441 0.925494 0.307627
O O3 0.000000 0.000000 0.000000
O O4 0.500000 0.327289 0.500000
O O5 0.461866 0.428728 0.305375
O O6 0.998066 0.347631 0.683127
O O7 0.496031 0.301615 0.174922
O O8 0.041706 0.783437 0.242601
O O9 0.000000 0.703981 0.000000
O O10 0.500000 0.842084 0.500000
O O11 0.000000 0.854119 0.000000
O O12 0.000000 0.500000 0.500000
O O13 0.500000 0.500000 0.000000
#
# Coordination Sequence:
#
# PCOD9149615 Si02
#       5
#     2   4   4   4   2
#     4   8  14  20  30  50  84 126 160 184 222 278
#     4  10  20  35  54  74  95 125 163 200 238 286
#     4   9  16  27  46  69  92 121 161 202 233 271
#     4   9  14  22  35  57  88 124 160 193 228 274
#     4  12  25  40  55  74 100 128 154 196 251 300
#
# _framework density 24.523453
#
# number of rings (size 3 to 8) (size 9 to 14) (size 15 to 20)
#    0.000    2.500    0.000    5.625    0.000    0.000 
#    0.000    5.000    0.000    0.000    0.000    0.000 
#    0.000    0.000    0.000   22.500    0.000   29.000 
#
# Total GULP energy -89274.220236 kJ/mol
# GULP energy per Si atom -5579.638765 kJ/mol
# Density = 2.446764 g / cm^3
# Si number density = 24.523453 Si / 1000 Ang^3
#
#
#
# Elastic Constant Matrix: (Units=GPa)
#
#
# Indices 1 2 3 4 5 6 
#
# 1 32.7335 -9.5481 37.1511 0.0000 -8.0968 0.0000
# 2 -9.5481 201.6503 61.6427 0.0000 10.0415 0.0000
# 3 37.1511 61.6427 216.2096 0.0000 -10.4826 0.0000
# 4 0.0000 0.0000 0.0000 37.3569 0.0000 -17.1478
# 5 -8.0968 10.0415 -10.4826 0.0000 43.1232 0.0000
# 6 0.0000 0.0000 0.0000 -17.1478 0.0000 25.4837
#
#
#
# Elastic Compliance Matrix: (Units=1/GPa)
#
#
# Indices 1 2 3 4 5 6 
#
# 1 0.042413 0.004290 -0.008271 0.000000 0.004954 0.000000
# 2 0.004290 0.005987 -0.002502 0.000000 -0.001197 0.000000
# 3 -0.008271 -0.002502 0.006793 0.000000 0.000681 0.000000
# 4 0.000000 0.000000 0.000000 0.038732 0.000000 0.026063
# 5 0.004954 -0.001197 0.000681 0.000000 0.024564 0.000000
# 6 0.000000 0.000000 0.000000 0.026063 0.000000 0.056778
#
#
# Mechanical properties :
#
#
# Convention : Reuss Voigt Hill
#
# Bulk Modulus (GPa) = 23.68150 69.89829 46.78990
# Shear Modulus (GPa) = 24.71470 45.28260 34.99865
#
# Velocity S-wave (km/s) = 3.17803 4.30176 3.78186
# Velocity P-wave (km/s) = 4.81083 7.29644 6.17989
#
# Compressibility (1/GPa) = 0.04222705
#
# Stress axis : x y z
#
# Youngs Moduli (GPa) = 23.57741 167.03884 147.21823
#
# Poissons Ratio (x) = -0.71658 1.21761
# Poissons Ratio (y) = -0.10114 0.36834
# Poissons Ratio (z) = 0.19500 0.41793
#
# Static dielectric constant tensor:
#      x y z
#    x 2.105920 0.000000 -0.039030 
#    y 0.000000 2.022860 0.000000 
#    z -0.039030 0.000000 1.904180 
# 
# From -- ./inp_files/14546.got.cif
#   From: 2010.05.17/outbox.cif.g08.bks.cpg/sg10_8_cif.got.tgz:14546.got - 2010.06.03 11:33:40.
