data_PCOD9149569
_publ_section_title
;
Structure prediction by ZEFSAII (Michael W. Deem and Ramdas Pophale) SiO2 
 PCOD9149569
Probable space group: P 2/M
;
_chemical_formula_sum "Si O2"
_cell_formula_units_Z 32
_cell_length_a 20.348394
_cell_length_b 7.488295
_cell_length_c 28.294494
_cell_angle_alpha 90.000000
_cell_angle_beta 159.909513
_cell_angle_gamma 90.000000
_cell_volume 1480.970888
_symmetry_space_group_name_H-M "P 2/M"
_symmetry_group_IT_number 10
_symmetry_cell_setting 'monoclinic'
loop_
_space_group_symop_operation_xyz
x,y,z
-x,y,-z
-x,-y,-z
x,-y,z
loop_
_atom_site_type_symbol
_atom_site_label
_atom_site_fract_x
_atom_site_fract_y
_atom_site_fract_z
Si Si1 0.913623 0.286431 0.870221
Si Si2 0.535695 0.216649 0.871352
Si Si3 0.031469 0.788082 0.848254
Si Si4 0.607252 0.217093 0.025914
Si Si5 0.042848 0.215538 0.305119
Si Si6 0.702277 0.281347 0.817961
Si Si7 0.140582 0.294734 0.555650
Si Si8 0.287257 0.709235 0.559923
O O1 0.915542 0.500000 0.874942
O O2 0.751243 0.225403 0.797215
O O3 0.908752 0.242390 0.812027
O O4 0.117840 0.223831 0.028925
O O5 0.356709 0.289141 0.721601
O O6 0.527774 0.000000 0.862896
O O7 0.747917 0.277309 0.997959
O O8 0.521608 0.268632 0.917201
O O9 0.939374 0.721703 0.737129
O O10 0.052067 0.000000 0.856095
O O11 0.829101 0.269531 0.176052
O O12 0.602899 0.000000 0.023456
O O13 0.500000 0.281559 0.000000
O O14 0.192091 0.278662 0.444518
O O15 0.052133 0.000000 0.311930
O O16 0.697637 0.500000 0.815458
O O17 0.500796 0.214722 0.701032
O O18 0.073856 0.500000 0.505098
O O19 0.157134 0.214030 0.514257
O O20 0.000000 0.212100 0.500000
O O21 0.308780 0.500000 0.586103
#
# Coordination Sequence:
#
# PCOD9149569 Si02
#       8
#     4   4   4   4   4   4   4   4
#     4   9  16  30  55  79  98 126 170 209 242 294
#     4   9  18  32  51  74  96 124 166 205 239 291
#     4   9  18  33  50  74 106 130 156 206 260 293
#     4   8  15  29  50  72  93 120 159 209 251 277
#     4   9  19  34  51  72  98 131 168 206 247 294
#     4   8  16  31  51  77 102 128 166 210 246 285
#     4  10  22  36  49  71 104 135 160 199 255 301
#     4  10  20  35  52  69 100 138 166 199 249 299
#
# _framework density 21.607447000000001
#
# number of rings (size 3 to 8) (size 9 to 14) (size 15 to 20)
#    0.000    3.000    0.000    3.000    1.750    2.750 
#    0.000    5.000    0.000    4.500    0.000    0.000 
#    0.000    0.000    0.000    0.000    0.000    0.000 
#
# Total GULP energy -178519.067454 kJ/mol
# GULP energy per Si atom -5578.720858 kJ/mol
# Density = 2.155827 g / cm^3
# Si number density = 21.607447 Si / 1000 Ang^3
#
#
#
# Elastic Constant Matrix: (Units=GPa)
#
#
# Indices 1 2 3 4 5 6 
#
# 1 165.9895 6.2014 23.7389 0.0000 0.1941 0.0000
# 2 6.2014 58.3764 -3.5320 0.0000 3.4394 0.0000
# 3 23.7389 -3.5320 44.3793 0.0000 -4.7782 0.0000
# 4 0.0000 0.0000 0.0000 15.6400 0.0000 -2.8528
# 5 0.1941 3.4394 -4.7782 0.0000 17.1941 0.0000
# 6 0.0000 0.0000 0.0000 -2.8528 0.0000 8.2637
#
#
#
# Elastic Compliance Matrix: (Units=1/GPa)
#
#
# Indices 1 2 3 4 5 6 
#
# 1 0.006586 -0.000868 -0.003692 0.000000 -0.000927 0.000000
# 2 -0.000868 0.017495 0.001527 0.000000 -0.003066 0.000000
# 3 -0.003692 0.001527 0.025360 0.000000 0.006784 0.000000
# 4 0.000000 0.000000 0.000000 0.068235 0.000000 0.023556
# 5 -0.000927 -0.003066 0.006784 0.000000 0.060668 0.000000
# 6 0.000000 0.000000 0.000000 0.023556 0.000000 0.129143
#
#
# Mechanical properties :
#
#
# Convention : Reuss Voigt Hill
#
# Bulk Modulus (GPa) = 23.05504 35.72909 29.39207
# Shear Modulus (GPa) = 15.24334 24.37537 19.80935
#
# Velocity S-wave (km/s) = 2.65894 3.36236 3.03113
# Velocity P-wave (km/s) = 4.48551 5.62543 5.08749
#
# Compressibility (1/GPa) = 0.04337446
#
# Stress axis : x y z
#
# Youngs Moduli (GPa) = 151.83768 57.15771 39.43263
#
# Poissons Ratio (x) = 0.04964 0.14558
# Poissons Ratio (y) = 0.13186 -0.06021
# Poissons Ratio (z) = 0.56055 -0.08727
#
# Static dielectric constant tensor:
#      x y z
#    x 1.837940 0.000000 -0.011840 
#    y 0.000000 1.840010 0.000000 
#    z -0.011840 0.000000 1.742420 
# 
# From -- ./inp_files/86958.got.cif
#   From: 2010.05.17/outbox.cif.g08.bks.cpg/sg10_44_cif.got.tgz:86958.got - 2010.06.03 11:33:40.
