data_PCOD9149021
_publ_section_title
;
Structure prediction by ZEFSAII (Michael W. Deem and Ramdas Pophale) SiO2 
 PCOD9149021
Probable space group: P 2/M
;
_chemical_formula_sum "Si O2"
_cell_formula_units_Z 24
_cell_length_a 12.709453
_cell_length_b 7.569531
_cell_length_c 11.748195
_cell_angle_alpha 90.000000
_cell_angle_beta 87.945106
_cell_angle_gamma 90.000000
_cell_volume 1129.503568
_symmetry_space_group_name_H-M "P 2/M"
_symmetry_group_IT_number 10
_symmetry_cell_setting 'monoclinic'
loop_
_space_group_symop_operation_xyz
x,y,z
-x,y,-z
-x,-y,-z
x,-y,z
loop_
_atom_site_type_symbol
_atom_site_label
_atom_site_fract_x
_atom_site_fract_y
_atom_site_fract_z
Si Si1 0.772707 0.789915 0.283546
Si Si2 0.146184 0.707245 0.234441
Si Si3 0.423300 0.712138 0.842472
Si Si4 0.649195 0.715836 0.906103
Si Si5 0.946084 0.201533 0.113593
Si Si6 0.878240 0.786462 0.510639
O O1 0.651320 0.763068 0.258230
O O2 0.813927 0.722659 0.403039
O O3 0.844275 0.715643 0.177210
O O4 0.792963 0.000000 0.283691
O O5 0.131701 0.500000 0.210837
O O6 0.242521 0.775547 0.154341
O O7 0.037155 0.799093 0.205210
O O8 0.168113 0.729198 0.366783
O O9 0.425641 0.500000 0.847036
O O10 0.544592 0.771090 0.840952
O O11 0.369905 0.773221 0.963201
O O12 0.651697 0.500000 0.905535
O O13 0.918136 0.000000 0.081673
O O14 0.000000 0.284710 0.000000
O O15 0.000000 0.727224 0.500000
O O16 0.878472 0.000000 0.509866
#
# Coordination Sequence:
#
# PCOD9149021 Si02
#       6
#     4   4   4   4   4   4
#     4  10  20  34  52  76 104 133 172 219 259 301
#     4  11  21  33  53  80 107 131 173 224 260 301
#     4   9  17  34  58  77 102 140 175 204 255 318
#     4   8  17  34  54  78 107 139 168 207 261 313
#     4  10  20  34  52  75 106 141 171 205 261 323
#     4  10  20  38  56  69 100 147 180 208 258 314
#
# _framework density 21.248273999999999
#
# number of rings (size 3 to 8) (size 9 to 14) (size 15 to 20)
#    0.000    2.333    1.667    2.500    0.000    2.000 
#    0.000    5.000    0.000    5.000    0.000    0.000 
#    0.000    0.000    0.000    0.000    0.000    0.000 
#
# Total GULP energy -134006.780711 kJ/mol
# GULP energy per Si atom -5583.615863 kJ/mol
# Density = 2.119991 g / cm^3
# Si number density = 21.248274 Si / 1000 Ang^3
#
#
#
# Elastic Constant Matrix: (Units=GPa)
#
#
# Indices 1 2 3 4 5 6 
#
# 1 77.6894 -3.3768 -4.1814 0.0000 20.6214 0.0000
# 2 -3.3768 54.4658 -3.2779 0.0000 -2.5665 0.0000
# 3 -4.1814 -3.2779 48.4361 0.0000 22.6342 0.0000
# 4 0.0000 0.0000 0.0000 13.8273 0.0000 4.7765
# 5 20.6214 -2.5665 22.6342 0.0000 39.4962 0.0000
# 6 0.0000 0.0000 0.0000 4.7765 0.0000 13.7131
#
#
#
# Elastic Compliance Matrix: (Units=1/GPa)
#
#
# Indices 1 2 3 4 5 6 
#
# 1 0.016791 0.000883 0.007620 0.000000 -0.013076 0.000000
# 2 0.000883 0.018494 0.001341 0.000000 -0.000028 0.000000
# 3 0.007620 0.001341 0.031703 0.000000 -0.022059 0.000000
# 4 0.000000 0.000000 0.000000 0.082212 0.000000 -0.028636
# 5 -0.013076 -0.000028 -0.022059 0.000000 0.044786 0.000000
# 6 0.000000 0.000000 0.000000 -0.028636 0.000000 0.082897
#
#
# Mechanical properties :
#
#
# Convention : Reuss Voigt Hill
#
# Bulk Modulus (GPa) = 11.53718 17.65769 14.59743
# Shear Modulus (GPa) = 17.47719 26.16914 21.82316
#
# Velocity S-wave (km/s) = 2.87108 3.51321 3.20825
# Velocity P-wave (km/s) = 4.05367 4.97846 4.53968
#
# Compressibility (1/GPa) = 0.08667632
#
# Stress axis : x y z
#
# Youngs Moduli (GPa) = 59.55521 54.07070 31.54324
#
# Poissons Ratio (x) = -0.04777 -0.24035
# Poissons Ratio (y) = -0.05261 -0.04230
# Poissons Ratio (z) = -0.45380 -0.07250
#
# Static dielectric constant tensor:
#      x y z
#    x 1.752990 0.000000 0.007590 
#    y 0.000000 1.814750 0.000000 
#    z 0.007590 0.000000 1.770920 
# 
# From -- ./inp_files/45118.got.cif
#   From: 2010.05.17/outbox.cif.g08.bks.cpg/sg10_23_cif.got.tgz:45118.got - 2010.06.03 11:33:40.
