data_PCOD9149184
_publ_section_title
;
Structure prediction by ZEFSAII (Michael W. Deem and Ramdas Pophale) SiO2 
 PCOD9149184
Probable space group: P 2/M
;
_chemical_formula_sum "Si O2"
_cell_formula_units_Z 28
_cell_length_a 29.895228
_cell_length_b 7.502097
_cell_length_c 9.596181
_cell_angle_alpha 90.000000
_cell_angle_beta 142.127252
_cell_angle_gamma 90.000000
_cell_volume 1321.257761
_symmetry_space_group_name_H-M "P 2/M"
_symmetry_group_IT_number 10
_symmetry_cell_setting 'monoclinic'
loop_
_space_group_symop_operation_xyz
x,y,z
-x,y,-z
-x,-y,-z
x,-y,z
loop_
_atom_site_type_symbol
_atom_site_label
_atom_site_fract_x
_atom_site_fract_y
_atom_site_fract_z
Si Si1 0.930098 0.282018 0.738327
Si Si2 0.370005 0.704589 0.489896
Si Si3 0.792993 0.282265 0.900539
Si Si4 0.207074 0.715559 0.419052
Si Si5 0.512323 0.796251 0.682060
Si Si6 0.372826 0.791789 0.816988
Si Si7 0.930257 0.717895 0.418500
O O1 0.930086 0.500000 0.738041
O O2 0.855907 0.224406 0.631758
O O3 0.934465 0.224571 0.588929
O O4 0.000000 0.226253 0.000000
O O5 0.371797 0.500000 0.447194
O O6 0.288757 0.777348 0.263341
O O7 0.436162 0.798260 0.576284
O O8 0.379972 0.708277 0.681519
O O9 0.791426 0.500000 0.897109
O O10 0.808540 0.228637 0.779026
O O11 0.856136 0.225141 0.159930
O O12 0.207423 0.500000 0.420794
O O13 0.288782 0.774701 0.655296
O O14 0.500000 0.713463 0.500000
O O15 0.537597 0.000000 0.718696
O O16 0.572563 0.715531 0.933388
O O17 0.390712 0.000000 0.841085
O O18 0.930308 0.500000 0.418858
O O19 0.000000 0.773996 0.500000
#
# Coordination Sequence:
#
# PCOD9149184 Si02
#       7
#     4   4   4   4   4   4   4
#     4   9  16  25  40  65  96 129 161 196 242 290
#     4  10  20  34  54  78 103 130 164 209 255 300
#     4   8  15  27  41  62  92 122 152 191 239 285
#     4   9  17  30  48  70  98 127 159 203 247 290
#     4  10  22  38  53  72 101 135 170 208 249 297
#     4  10  20  35  55  75  98 132 170 205 247 302
#     4   9  15  23  38  61  92 128 160 191 233 288
#
# _framework density 21.191929999999999
#
# number of rings (size 3 to 8) (size 9 to 14) (size 15 to 20)
#    0.000    2.714    0.000    3.000    0.000    7.714 
#    0.000    1.429    0.000    0.429    0.000    0.000 
#    0.000   19.429    0.000    0.000    0.000    0.000 
#
# Total GULP energy -156345.584050 kJ/mol
# GULP energy per Si atom -5583.770859 kJ/mol
# Density = 2.114370 g / cm^3
# Si number density = 21.191930 Si / 1000 Ang^3
#
#
#
# Elastic Constant Matrix: (Units=GPa)
#
#
# Indices 1 2 3 4 5 6 
#
# 1 161.3905 -6.4204 109.6162 0.0000 5.8887 0.0000
# 2 -6.4204 57.5329 -2.1827 0.0000 -1.6713 0.0000
# 3 109.6162 -2.1827 215.3193 0.0000 -6.4268 0.0000
# 4 0.0000 0.0000 0.0000 -28.0033 0.0000 -13.4661
# 5 5.8887 -1.6713 -6.4268 0.0000 17.9408 0.0000
# 6 0.0000 0.0000 0.0000 -13.4661 0.0000 2.6206
#
#
#
# Elastic Compliance Matrix: (Units=1/GPa)
#
#
# Indices 1 2 3 4 5 6 
#
# 1 0.009948 0.000766 -0.005208 0.000000 -0.005060 0.000000
# 2 0.000766 0.017498 -0.000173 0.000000 0.001317 0.000000
# 3 -0.005208 -0.000173 0.007424 0.000000 0.004353 0.000000
# 4 0.000000 0.000000 0.000000 -0.010288 0.000000 -0.052866
# 5 -0.005060 0.001317 0.004353 0.000000 0.059081 0.000000
# 6 0.000000 0.000000 0.000000 -0.052866 0.000000 0.109938
#
#
# Mechanical properties :
#
#
# Convention : Reuss Voigt Hill
#
# Bulk Modulus (GPa) = 39.00164 70.69655 54.84910
# Shear Modulus (GPa) = 23.65424 20.72692 22.19058
#
# Velocity S-wave (km/s) = 3.34457 3.13078 3.23944
# Velocity P-wave (km/s) = 5.77571 6.81921 6.31904
#
# Compressibility (1/GPa) = 0.02563995
#
# Stress axis : x y z
#
# Youngs Moduli (GPa) = 100.51887 57.14778 134.70423
#
# Poissons Ratio (x) = -0.04375 0.70152
# Poissons Ratio (y) = -0.07696 0.02332
# Poissons Ratio (z) = 0.52349 0.00989
#
# Static dielectric constant tensor:
#      x y z
#    x 1.712060 0.000000 -0.004670 
#    y 0.000000 1.795150 0.000000 
#    z -0.004670 0.000000 1.747720 
# 
# From -- ./inp_files/37246.got.cif
#   From: 2010.05.17/outbox.cif.g08.bks.cpg/sg10_19_cif.got.tgz:37246.got - 2010.06.03 11:33:40.
