data_PCOD9149298
_publ_section_title
;
Structure prediction by ZEFSAII (Michael W. Deem and Ramdas Pophale) SiO2 
 PCOD9149298
Probable space group: P 2/M
;
_chemical_formula_sum "Si O2"
_cell_formula_units_Z 20
_cell_length_a 27.999859
_cell_length_b 7.712582
_cell_length_c 9.756300
_cell_angle_alpha 90.000000
_cell_angle_beta 152.015824
_cell_angle_gamma 90.000000
_cell_volume 988.608680
_symmetry_space_group_name_H-M "P 2/M"
_symmetry_group_IT_number 10
_symmetry_cell_setting 'monoclinic'
loop_
_space_group_symop_operation_xyz
x,y,z
-x,y,-z
-x,-y,-z
x,-y,z
loop_
_atom_site_type_symbol
_atom_site_label
_atom_site_fract_x
_atom_site_fract_y
_atom_site_fract_z
Si Si1 0.407121 0.711818 0.357737
Si Si2 0.177354 0.203930 0.083543
Si Si3 0.406262 0.710049 0.670357
Si Si4 0.179664 0.297622 0.772721
Si Si5 0.985357 0.799374 0.114485
O O1 0.500000 0.771481 0.500000
O O2 0.405664 0.500000 0.350265
O O3 0.422918 0.762875 0.555204
O O4 0.293521 0.768532 0.028738
O O5 0.293935 0.227505 0.425687
O O6 0.155676 0.000000 0.010923
O O7 0.166409 0.282889 0.903746
O O8 0.100067 0.277600 0.000752
O O9 0.403645 0.500000 0.668274
O O10 0.500000 0.769860 0.000000
O O11 0.174624 0.500000 0.723486
O O12 0.090666 0.206376 0.464408
O O13 0.954033 0.000000 0.013326
O O14 0.000000 0.721731 0.000000
#
# Coordination Sequence:
#
# PCOD9149298 Si02
#       5
#     4   4   4   4   4
#     4   8  15  29  48  71  99 129 161 199 247 299
#     4  10  20  35  55  75 100 139 177 208 251 307
#     4   9  18  32  51  75 102 132 167 210 255 296
#     4  10  20  34  55  80 103 132 172 215 256 302
#     4  10  22  38  53  73 104 138 171 211 259 307
#
# _framework density 20.230452
#
# number of rings (size 3 to 8) (size 9 to 14) (size 15 to 20)
#    0.000    2.600    0.000    3.000    0.000    6.400 
#    0.000    2.000    0.000   15.000    0.000    0.000 
#    0.000    0.000    0.000    0.000    0.000    0.000 
#
# Total GULP energy -111597.735553 kJ/mol
# GULP energy per Si atom -5579.886778 kJ/mol
# Density = 2.018441 g / cm^3
# Si number density = 20.230452 Si / 1000 Ang^3
#
#
#
# Elastic Constant Matrix: (Units=GPa)
#
#
# Indices 1 2 3 4 5 6 
#
# 1 165.4778 -4.3449 83.2967 0.0000 35.6027 0.0000
# 2 -4.3449 34.6734 -14.4259 0.0000 0.4334 0.0000
# 3 83.2967 -14.4259 138.1901 0.0000 11.0898 0.0000
# 4 0.0000 0.0000 0.0000 22.6350 0.0000 1.0677
# 5 35.6027 0.4334 11.0898 0.0000 21.2572 0.0000
# 6 0.0000 0.0000 0.0000 1.0677 0.0000 13.6740
#
#
#
# Elastic Compliance Matrix: (Units=1/GPa)
#
#
# Indices 1 2 3 4 5 6 
#
# 1 0.013499 -0.000854 -0.006693 0.000000 -0.019100 0.000000
# 2 -0.000854 0.030318 0.003773 0.000000 -0.001155 0.000000
# 3 -0.006693 0.003773 0.011242 0.000000 0.005269 0.000000
# 4 0.000000 0.000000 0.000000 0.044343 0.000000 -0.003462
# 5 -0.019100 -0.001155 0.005269 0.000000 0.076307 0.000000
# 6 0.000000 0.000000 0.000000 -0.003462 0.000000 0.073402
#
#
# Mechanical properties :
#
#
# Convention : Reuss Voigt Hill
#
# Bulk Modulus (GPa) = 21.04887 51.93256 36.49071
# Shear Modulus (GPa) = 18.34881 29.76761 24.05821
#
# Velocity S-wave (km/s) = 3.01489 3.84008 3.45223
# Velocity P-wave (km/s) = 4.74832 6.73705 5.82814
#
# Compressibility (1/GPa) = 0.04750849
#
# Stress axis : x y z
#
# Youngs Moduli (GPa) = 74.07779 32.98421 88.95218
#
# Poissons Ratio (x) = 0.02818 0.59539
# Poissons Ratio (y) = 0.06330 -0.33558
# Poissons Ratio (z) = 0.49583 -0.12444
#
# Static dielectric constant tensor:
#      x y z
#    x 1.722340 0.000000 0.013580 
#    y 0.000000 1.740630 0.000000 
#    z 0.013580 0.000000 1.678900 
# 
# From -- ./inp_files/26907.got.cif
#   From: 2010.05.17/outbox.cif.g08.bks.cpg/sg10_14_cif.got.tgz:26907.got - 2010.06.03 11:33:40.
