data_PCOD9149404
_publ_section_title
;
Structure prediction by ZEFSAII (Michael W. Deem and Ramdas Pophale) SiO2 
 PCOD9149404
Probable space group: P 2/M
;
_chemical_formula_sum "Si O2"
_cell_formula_units_Z 28
_cell_length_a 26.011856
_cell_length_b 9.670940
_cell_length_c 5.480907
_cell_angle_alpha 90.000000
_cell_angle_beta 106.966180
_cell_angle_gamma 90.000000
_cell_volume 1318.763961
_symmetry_space_group_name_H-M "P 2/M"
_symmetry_group_IT_number 10
_symmetry_cell_setting 'monoclinic'
loop_
_space_group_symop_operation_xyz
x,y,z
-x,y,-z
-x,-y,-z
x,-y,z
loop_
_atom_site_type_symbol
_atom_site_label
_atom_site_fract_x
_atom_site_fract_y
_atom_site_fract_z
Si Si1 0.680497 0.847335 0.099115
Si Si2 0.061241 0.332974 0.069617
Si Si3 0.791411 0.155099 0.980838
Si Si4 0.737472 0.345873 0.566025
Si Si5 0.628903 0.652119 0.700290
Si Si6 0.526905 0.666388 0.284355
Si Si7 0.123600 0.667230 0.652980
O O1 0.729934 0.864238 0.979034
O O2 0.706512 0.742723 0.324659
O O3 0.668174 0.000000 0.181651
O O4 0.630673 0.772959 0.899770
O O5 0.059156 0.500000 0.072361
O O6 0.088138 0.299147 0.846430
O O7 0.093996 0.295134 0.359643
O O8 0.000000 0.281042 0.000000
O O9 0.823789 0.240115 0.229271
O O10 0.813076 0.000000 0.964605
O O11 0.786325 0.258247 0.744491
O O12 0.753823 0.500000 0.509395
O O13 0.690251 0.363151 0.700733
O O14 0.611563 0.500000 0.773429
O O15 0.590282 0.687537 0.420758
O O16 0.500000 0.715738 0.500000
O O17 0.519785 0.500000 0.267307
O O18 0.500000 0.721453 0.000000
O O19 0.133624 0.500000 0.669137
#
# Coordination Sequence:
#
# PCOD9149404 Si02
#       7
#     4   4   4   4   4   4   4
#     4  10  21  36  55  78 109 150 188 227 280 342
#     4   9  18  34  57  85 115 147 189 240 288 333
#     4  10  22  38  53  77 113 151 189 229 283 344
#     4  10  20  34  56  82 109 141 185 236 281 334
#     4   9  19  34  54  81 108 141 185 233 283 332
#     4   9  18  31  52  82 114 143 179 232 290 342
#     4  10  20  34  57  87 114 148 191 238 286 334
#
# _framework density 21.232004
#
# number of rings (size 3 to 8) (size 9 to 14) (size 15 to 20)
#    0.000    2.429    0.000    1.714    4.000    4.000 
#    0.000    0.000    0.000    3.429    0.000    0.000 
#    0.000    0.000    0.000    0.000    0.000    0.000 
#
# Total GULP energy -156034.304679 kJ/mol
# GULP energy per Si atom -5572.653739 kJ/mol
# Density = 2.118368 g / cm^3
# Si number density = 21.232004 Si / 1000 Ang^3
#
#
#
# Elastic Constant Matrix: (Units=GPa)
#
#
# Indices 1 2 3 4 5 6 
#
# 1 58.7928 3.1336 24.6987 0.0000 8.4232 0.0000
# 2 3.1336 131.5611 61.3280 0.0000 12.2509 0.0000
# 3 24.6987 61.3280 159.2675 0.0000 18.6941 0.0000
# 4 0.0000 0.0000 0.0000 -35.9970 0.0000 -33.1005
# 5 8.4232 12.2509 18.6941 0.0000 32.0929 0.0000
# 6 0.0000 0.0000 0.0000 -33.1005 0.0000 -20.0514
#
#
#
# Elastic Compliance Matrix: (Units=1/GPa)
#
#
# Indices 1 2 3 4 5 6 
#
# 1 0.018712 0.001277 -0.002962 0.000000 -0.003673 0.000000
# 2 0.001277 0.009425 -0.003613 0.000000 -0.001829 0.000000
# 3 -0.002962 -0.003613 0.008454 0.000000 -0.002768 0.000000
# 4 0.000000 0.000000 0.000000 0.053635 0.000000 -0.088539
# 5 -0.003673 -0.001829 -0.002768 0.000000 0.034434 0.000000
# 6 0.000000 0.000000 0.000000 -0.088539 0.000000 0.096287
#
#
# Mechanical properties :
#
#
# Convention : Reuss Voigt Hill
#
# Bulk Modulus (GPa) = 38.46875 58.66021 48.56448
# Shear Modulus (GPa) = 20.81537 12.57296 16.69417
#
# Velocity S-wave (km/s) = 3.13449 2.43609 2.80710
# Velocity P-wave (km/s) = 5.59086 5.96665 5.78181
#
# Compressibility (1/GPa) = 0.02599513
#
# Stress axis : x y z
#
# Youngs Moduli (GPa) = 53.44286 106.10139 118.28539
#
# Poissons Ratio (x) = -0.13552 0.35041
# Poissons Ratio (y) = -0.06826 0.42732
# Poissons Ratio (z) = 0.15832 0.38331
#
# Static dielectric constant tensor:
#      x y z
#    x 1.865360 0.000000 -0.045580 
#    y 0.000000 1.821890 0.000000 
#    z -0.045580 0.000000 1.787940 
# 
# From -- ./inp_files/13552.got.cif
#   From: 2010.05.17/outbox.cif.g08.bks.cpg/sg10_7_cif.got.tgz:13552.got - 2010.06.03 11:33:40.
