data_PCOD9149150
_publ_section_title
;
Structure prediction by ZEFSAII (Michael W. Deem and Ramdas Pophale) SiO2 
 PCOD9149150
Probable space group: P 2/M
;
_chemical_formula_sum "Si O2"
_cell_formula_units_Z 28
_cell_length_a 18.866324
_cell_length_b 7.518542
_cell_length_c 15.680933
_cell_angle_alpha 90.000000
_cell_angle_beta 144.311833
_cell_angle_gamma 90.000000
_cell_volume 1297.596014
_symmetry_space_group_name_H-M "P 2/M"
_symmetry_group_IT_number 10
_symmetry_cell_setting 'monoclinic'
loop_
_space_group_symop_operation_xyz
x,y,z
-x,y,-z
-x,-y,-z
x,-y,z
loop_
_atom_site_type_symbol
_atom_site_label
_atom_site_fract_x
_atom_site_fract_y
_atom_site_fract_z
Si Si1 0.134208 0.797574 0.642742
Si Si2 0.459900 0.207483 0.186948
Si Si3 0.823503 0.716610 0.772444
Si Si4 0.916627 0.282787 0.043329
Si Si5 0.392336 0.216832 0.829426
Si Si6 0.440057 0.715220 0.530381
Si Si7 0.190041 0.297316 0.884829
O O1 0.257237 0.718164 0.721589
O O2 0.161202 0.800501 0.769626
O O3 0.000000 0.715556 0.500000
O O4 0.124911 0.000000 0.599749
O O5 0.564179 0.267205 0.222912
O O6 0.495245 0.228530 0.319781
O O7 0.439166 0.000000 0.148573
O O8 0.333543 0.299682 0.042154
O O9 0.823521 0.500000 0.772563
O O10 0.699635 0.775538 0.608527
O O11 0.946277 0.771488 0.844942
O O12 0.834692 0.771447 0.882423
O O13 0.912808 0.500000 0.041231
O O14 0.870858 0.220246 0.089628
O O15 0.387385 0.000000 0.830515
O O16 0.500000 0.272430 0.000000
O O17 0.500000 0.774317 0.500000
O O18 0.442951 0.500000 0.532673
O O19 0.146710 0.500000 0.831294
#
# Coordination Sequence:
#
# PCOD9149150 Si02
#       7
#     4   4   4   4   4   4   4
#     4  10  21  38  59  81 107 143 183 222 271 332
#     4  11  22  36  57  80 105 144 189 227 270 326
#     4   8  14  28  49  72 102 141 178 209 256 323
#     4   8  15  28  49  75 102 137 176 214 261 319
#     4   9  17  35  59  78 104 142 184 226 270 324
#     4  10  20  34  53  80 114 145 177 223 273 321
#     4  11  21  34  54  81 110 136 175 227 278 325
#
# _framework density 21.578365000000002
#
# number of rings (size 3 to 8) (size 9 to 14) (size 15 to 20)
#    0.000    2.429    1.429    2.571    0.000    4.000 
#    0.000    2.143    0.000    0.857    0.000    6.000 
#    0.000    0.000    0.000    0.000    0.000    0.000 
#
# Total GULP energy -156328.851948 kJ/mol
# GULP energy per Si atom -5583.173284 kJ/mol
# Density = 2.152925 g / cm^3
# Si number density = 21.578365 Si / 1000 Ang^3
#
#
#
# Elastic Constant Matrix: (Units=GPa)
#
#
# Indices 1 2 3 4 5 6 
#
# 1 154.8751 0.2015 57.8448 0.0000 -7.1398 0.0000
# 2 0.2015 57.5546 -5.3211 0.0000 1.3478 0.0000
# 3 57.8448 -5.3211 134.9596 0.0000 7.6579 0.0000
# 4 0.0000 0.0000 0.0000 1.2897 0.0000 -15.0640
# 5 -7.1398 1.3478 7.6579 0.0000 32.0278 0.0000
# 6 0.0000 0.0000 0.0000 -15.0640 0.0000 4.7009
#
#
#
# Elastic Compliance Matrix: (Units=1/GPa)
#
#
# Indices 1 2 3 4 5 6 
#
# 1 0.007906 -0.000418 -0.003554 0.000000 0.002630 0.000000
# 2 -0.000418 0.017487 0.000928 0.000000 -0.001051 0.000000
# 3 -0.003554 0.000928 0.009141 0.000000 -0.003017 0.000000
# 4 0.000000 0.000000 0.000000 -0.021284 0.000000 -0.068206
# 5 0.002630 -0.001051 -0.003017 0.000000 0.032575 0.000000
# 6 0.000000 0.000000 0.000000 -0.068206 0.000000 -0.005839
#
#
# Mechanical properties :
#
#
# Convention : Reuss Voigt Hill
#
# Bulk Modulus (GPa) = 35.15481 50.31554 42.73517
# Shear Modulus (GPa) = 90.00177 27.24796 58.62486
#
# Velocity S-wave (km/s) = 6.46528 3.55737 5.21798
# Velocity P-wave (km/s) = 8.48882 6.34361 7.49338
#
# Compressibility (1/GPa) = 0.02844561
#
# Stress axis : x y z
#
# Youngs Moduli (GPa) = 126.48436 57.18630 109.39932
#
# Poissons Ratio (x) = 0.02390 0.38884
# Poissons Ratio (y) = 0.05286 -0.10154
# Poissons Ratio (z) = 0.44957 -0.05308
#
# Static dielectric constant tensor:
#      x y z
#    x 1.777260 0.000000 0.021230 
#    y 0.000000 1.845700 0.000000 
#    z 0.021230 0.000000 1.733030 
# 
# From -- ./inp_files/68707.got.cif
#   From: 2010.05.17/outbox.cif.g08.bks.cpg/sg10_35_cif.got.tgz:68707.got - 2010.06.03 11:33:40.
