data_PCOD9149375
_publ_section_title
;
Structure prediction by ZEFSAII (Michael W. Deem and Ramdas Pophale) SiO2 
 PCOD9149375
Probable space group: P 2/M
;
_chemical_formula_sum "Si O2"
_cell_formula_units_Z 32
_cell_length_a 22.826332
_cell_length_b 11.519797
_cell_length_c 5.614572
_cell_angle_alpha 90.000000
_cell_angle_beta 90.739646
_cell_angle_gamma 90.000000
_cell_volume 1476.255140
_symmetry_space_group_name_H-M "P 2/M"
_symmetry_group_IT_number 10
_symmetry_cell_setting 'monoclinic'
loop_
_space_group_symop_operation_xyz
x,y,z
-x,y,-z
-x,-y,-z
x,-y,z
loop_
_atom_site_type_symbol
_atom_site_label
_atom_site_fract_x
_atom_site_fract_y
_atom_site_fract_z
Si Si1 0.763737 0.632052 0.467233
Si Si2 0.352973 0.259497 0.735619
Si Si3 0.524396 0.364443 0.251054
Si Si4 0.913120 0.866542 0.553783
Si Si5 0.787340 0.172616 0.791551
Si Si6 0.945298 0.631761 0.818013
Si Si7 0.655214 0.126976 0.760014
Si Si8 0.859350 0.262624 0.167415
O O1 0.751262 0.500000 0.500492
O O2 0.711156 0.686283 0.310470
O O3 0.769920 0.697154 0.716331
O O4 0.826359 0.656181 0.350655
O O5 0.405777 0.350757 0.745253
O O6 0.362737 0.185907 0.491416
O O7 0.354814 0.193793 0.990324
O O8 0.500000 0.314473 0.500000
O O9 0.507201 0.500000 0.249674
O O10 0.500000 0.313516 0.000000
O O11 0.845199 0.865131 0.647241
O O12 0.945451 0.753959 0.671284
O O13 0.907091 0.823487 0.282250
O O14 0.934259 0.000000 0.584938
O O15 0.725933 0.113750 0.746810
O O16 0.810457 0.176734 0.058877
O O17 0.943142 0.500000 0.705896
O O18 0.888023 0.654676 0.974400
O O19 0.000000 0.630502 0.000000
O O20 0.627901 0.000000 0.775905
#
# Coordination Sequence:
#
# PCOD9149375 Si02
#       8
#     4   4   4   4   4   4   4   4
#     4  10  20  34  55  86 122 156 191 244 309 373
#     4  11  22  39  59  92 123 156 207 259 311 364
#     4  10  21  39  64  91 121 162 202 245 307 373
#     4  10  22  38  61  89 118 153 202 258 314 371
#     4   9  20  37  53  83 118 161 200 240 300 372
#     4  10  23  42  62  84 115 159 206 250 304 378
#     4  11  22  38  60  85 122 165 210 255 309 371
#     4  10  20  37  57  85 119 154 196 246 309 370
#
# _framework density 21.676468
#
# number of rings (size 3 to 8) (size 9 to 14) (size 15 to 20)
#    0.000    1.875    1.250    2.250    0.000    8.750 
#    0.000    3.125    0.000    7.500    0.000    0.000 
#    0.000    0.000    0.000    0.000    0.000    0.000 
#
# Total GULP energy -178167.696562 kJ/mol
# GULP energy per Si atom -5567.740518 kJ/mol
# Density = 2.162713 g / cm^3
# Si number density = 21.676468 Si / 1000 Ang^3
#
#
#
# Elastic Constant Matrix: (Units=GPa)
#
#
# Indices 1 2 3 4 5 6 
#
# 1 60.3395 0.0742 10.6314 0.0000 2.2847 0.0000
# 2 0.0742 133.9830 44.0519 0.0000 5.5263 0.0000
# 3 10.6314 44.0519 106.9706 0.0000 8.0986 0.0000
# 4 0.0000 0.0000 0.0000 -3.1897 0.0000 -3.9096
# 5 2.2847 5.5263 8.0986 0.0000 28.9871 0.0000
# 6 0.0000 0.0000 0.0000 -3.9096 0.0000 5.6381
#
#
#
# Elastic Compliance Matrix: (Units=1/GPa)
#
#
# Indices 1 2 3 4 5 6 
#
# 1 0.016939 0.000647 -0.001879 0.000000 -0.000933 0.000000
# 2 0.000647 0.008670 -0.003581 0.000000 -0.000703 0.000000
# 3 -0.001879 -0.003581 0.011184 0.000000 -0.002294 0.000000
# 4 0.000000 0.000000 0.000000 -0.169472 0.000000 -0.117515
# 5 -0.000933 -0.000703 -0.002294 0.000000 0.035347 0.000000
# 6 0.000000 0.000000 0.000000 -0.117515 0.000000 0.095876
#
#
# Mechanical properties :
#
#
# Convention : Reuss Voigt Hill
#
# Bulk Modulus (GPa) = 36.81248 45.64536 41.22892
# Shear Modulus (GPa) = 290.28007 22.72282 156.50145
#
# Velocity S-wave (km/s) = 11.58471 3.24121 8.50620
# Velocity P-wave (km/s) = 13.99858 5.92542 10.74874
#
# Compressibility (1/GPa) = 0.02716470
#
# Stress axis : x y z
#
# Youngs Moduli (GPa) = 59.03695 115.34294 89.41631
#
# Poissons Ratio (x) = -0.07463 0.16803
# Poissons Ratio (y) = -0.03820 0.32023
# Poissons Ratio (z) = 0.11094 0.41309
#
# Static dielectric constant tensor:
#      x y z
#    x 1.796040 0.000000 -0.003440 
#    y 0.000000 1.838090 0.000000 
#    z -0.003440 0.000000 1.875760 
# 
# From -- ./inp_files/13176.got.cif
#   From: 2010.05.17/outbox.cif.g08.bks.cpg/sg10_7_cif.got.tgz:13176.got - 2010.06.03 11:33:40.
