data_PCOD9149632
_publ_section_title
;
Structure prediction by ZEFSAII (Michael W. Deem and Ramdas Pophale) SiO2 
 PCOD9149632
Probable space group: P 2/M
;
_chemical_formula_sum "Si O2"
_cell_formula_units_Z 32
_cell_length_a 23.287370
_cell_length_b 8.418044
_cell_length_c 29.187657
_cell_angle_alpha 90.000000
_cell_angle_beta 18.291678
_cell_angle_gamma 90.000000
_cell_volume 1795.805515
_symmetry_space_group_name_H-M "P 2/M"
_symmetry_group_IT_number 10
_symmetry_cell_setting 'monoclinic'
loop_
_space_group_symop_operation_xyz
x,y,z
-x,y,-z
-x,-y,-z
x,-y,z
loop_
_atom_site_type_symbol
_atom_site_label
_atom_site_fract_x
_atom_site_fract_y
_atom_site_fract_z
Si Si1 0.506811 0.693678 0.046898
Si Si2 0.209186 0.807863 0.846416
Si Si3 0.494114 0.188522 0.202313
Si Si4 0.509031 0.309746 0.294338
Si Si5 0.209579 0.691912 0.595159
Si Si6 0.490533 0.191869 0.454867
Si Si7 0.791526 0.692161 0.653245
Si Si8 0.207656 0.307910 0.094378
O O1 0.507391 0.500000 0.045248
O O2 0.331870 0.741536 0.209782
O O3 0.500000 0.750721 0.000000
O O4 0.685139 0.742871 0.940792
O O5 0.311312 0.746087 0.814266
O O6 0.334920 0.757878 0.708000
O O7 0.209892 0.000000 0.847408
O O8 0.000000 0.754442 0.000000
O O9 0.498925 0.244642 0.250898
O O10 0.314976 0.249949 0.311045
O O11 0.496991 0.000000 0.198284
O O12 0.668308 0.253455 0.042048
O O13 0.507489 0.500000 0.293795
O O14 0.336312 0.256437 0.456396
O O15 0.208341 0.500000 0.596146
O O16 0.312189 0.749392 0.562991
O O17 0.000976 0.748233 0.749836
O O18 0.500000 0.247806 0.500000
O O19 0.488091 0.000000 0.457070
O O20 0.791744 0.500000 0.651865
O O21 0.000000 0.746922 0.500000
O O22 0.206190 0.500000 0.095267
#
# Coordination Sequence:
#
# PCOD9149632 Si02
#       8
#     4   4   4   4   4   4   4   4
#     4   8  14  26  47  73  97 123 158 200 243 289
#     4   9  18  33  51  72 101 135 171 209 250 301
#     4  11  22  35  52  75 105 140 175 211 255 305
#     4  10  20  35  54  77 105 135 172 216 260 306
#     4   9  19  34  53  76 101 131 167 212 259 301
#     4   9  18  32  49  70  98 131 165 203 247 299
#     4   9  18  33  53  75 100 132 170 211 254 300
#     4   9  18  34  53  75 103 132 168 212 254 299
#
# _framework density 17.819302
#
# number of rings (size 3 to 8) (size 9 to 14) (size 15 to 20)
#    0.000    2.750    0.000    2.250    0.000    3.750 
#    0.000    5.000    0.000    6.000    0.000    0.000 
#    0.000    0.000    0.000    0.000    0.000    0.000 
#
# Total GULP energy -178451.302235 kJ/mol
# GULP energy per Si atom -5576.603195 kJ/mol
# Density = 1.777874 g / cm^3
# Si number density = 17.819302 Si / 1000 Ang^3
#
#
#
# Elastic Constant Matrix: (Units=GPa)
#
#
# Indices 1 2 3 4 5 6 
#
# 1 200.0057 21.4156 115.1250 0.0000 0.5038 0.0000
# 2 21.4156 13.0570 22.6307 0.0000 -3.3556 0.0000
# 3 115.1250 22.6307 160.2166 0.0000 -34.2482 0.0000
# 4 0.0000 0.0000 0.0000 53.0685 0.0000 -23.6984
# 5 0.5038 -3.3556 -34.2482 0.0000 21.6064 0.0000
# 6 0.0000 0.0000 0.0000 -23.6984 0.0000 19.3324
#
#
#
# Elastic Compliance Matrix: (Units=1/GPa)
#
#
# Indices 1 2 3 4 5 6 
#
# 1 0.013800 -0.003624 -0.014509 0.000000 -0.023883 0.000000
# 2 -0.003624 0.103974 -0.013026 0.000000 -0.004416 0.000000
# 3 -0.014509 -0.013026 0.027447 0.000000 0.041822 0.000000
# 4 0.000000 0.000000 0.000000 0.041635 0.000000 0.051038
# 5 -0.023883 -0.004416 0.041822 0.000000 0.112445 0.000000
# 6 0.000000 0.000000 0.000000 0.051038 0.000000 0.114291
#
#
# Mechanical properties :
#
#
# Convention : Reuss Voigt Hill
#
# Bulk Modulus (GPa) = 12.06248 76.84689 44.45469
# Shear Modulus (GPa) = 9.92959 33.07533 21.50246
#
# Velocity S-wave (km/s) = 2.36315 4.31298 3.47752
# Velocity P-wave (km/s) = 3.77227 8.24753 6.41294
#
# Compressibility (1/GPa) = 0.08290170
#
# Stress axis : x y z
#
# Youngs Moduli (GPa) = 72.46484 9.61780 36.43340
#
# Poissons Ratio (x) = 0.03485 0.52863
# Poissons Ratio (y) = 0.26260 0.47460
# Poissons Ratio (z) = 1.05143 0.12529
#
# Static dielectric constant tensor:
#      x y z
#    x 1.582260 0.000000 0.002620 
#    y 0.000000 1.610920 0.000000 
#    z 0.002620 0.000000 1.605900 
# 
# From -- ./inp_files/86734.got.cif
#   From: 2010.05.17/outbox.cif.g08.bks.cpg/sg10_44_cif.got.tgz:86734.got - 2010.06.03 11:33:40.
