data_PCOD9149207
_publ_section_title
;
Structure prediction by ZEFSAII (Michael W. Deem and Ramdas Pophale) SiO2 
 PCOD9149207
Probable space group: P 2/M
;
_chemical_formula_sum "Si O2"
_cell_formula_units_Z 28
_cell_length_a 8.882602
_cell_length_b 12.827968
_cell_length_c 17.212687
_cell_angle_alpha 90.000000
_cell_angle_beta 121.067674
_cell_angle_gamma 90.000000
_cell_volume 1679.978438
_symmetry_space_group_name_H-M "P 2/M"
_symmetry_group_IT_number 10
_symmetry_cell_setting 'monoclinic'
loop_
_space_group_symop_operation_xyz
x,y,z
-x,y,-z
-x,-y,-z
x,-y,z
loop_
_atom_site_type_symbol
_atom_site_label
_atom_site_fract_x
_atom_site_fract_y
_atom_site_fract_z
Si Si1 0.969067 0.500000 0.400071
Si Si2 0.849568 0.298289 0.280341
Si Si3 0.831428 0.122746 0.402079
Si Si4 0.331075 0.500000 0.400071
Si Si5 0.474096 0.376035 0.903505
Si Si6 0.211115 0.298289 0.280341
Si Si7 0.167087 0.623965 0.096495
Si Si8 0.527271 0.877254 0.597921
O O1 0.868502 0.397308 0.343278
O O2 0.000000 0.500000 0.500000
O O3 0.157975 0.500000 0.407975
O O4 0.830725 0.195570 0.327049
O O5 0.683810 0.317264 0.180800
O O6 0.026598 0.294347 0.276598
O O7 0.655065 0.139140 0.405065
O O8 0.000000 0.149019 0.500000
O O9 0.843246 0.000000 0.385491
O O10 0.500000 0.500000 0.500000
O O11 0.318053 0.397308 0.343278
O O12 0.431634 0.500000 0.891576
O O13 0.654744 0.361392 0.904744
O O14 0.500000 0.345184 0.000000
O O15 0.177789 0.317264 0.180800
O O16 0.323372 0.195570 0.327049
O O17 0.148482 0.500000 0.108424
O O18 0.000000 0.654816 0.000000
O O19 0.500000 0.850982 0.500000
O O20 0.572265 0.000000 0.614510
#
# Coordination Sequence:
#
# PCOD9149207 Si02
#       8
#     2   4   4   2   4   4   4   4
#     4  10  22  34  47  72 107 142 173 212 260 314
#     4  11  21  35  54  78 109 143 180 221 267 321
#     4  10  21  37  56  79 107 141 184 228 269 317
#     4  10  22  34  47  72 107 142 173 212 260 314
#     4  10  20  34  54  79 108 143 180 221 266 318
#     4  11  21  35  54  78 109 143 180 221 267 321
#     4  10  20  34  54  79 108 143 180 221 266 318
#     4  10  21  37  56  79 107 141 184 228 269 317
#
# _framework density 16.666879999999999
#
# number of rings (size 3 to 8) (size 9 to 14) (size 15 to 20)
#    0.000    1.714    1.429    3.429    0.000    7.429 
#    0.000    0.000    0.000    0.857    0.000    0.000 
#    0.000    0.000    0.000    0.000    0.000    0.000 
#
# Total GULP energy -156431.521612 kJ/mol
# GULP energy per Si atom -5586.840058 kJ/mol
# Density = 1.662895 g / cm^3
# Si number density = 16.666880 Si / 1000 Ang^3
#
#
#
# Elastic Constant Matrix: (Units=GPa)
#
#
# Indices 1 2 3 4 5 6 
#
# 1 71.2194 54.5410 76.1160 0.0000 4.3472 0.0000
# 2 54.5410 71.2040 80.6603 0.0000 1.4069 0.0000
# 3 76.1160 80.6603 188.1593 0.0000 1.9512 0.0000
# 4 0.0000 0.0000 0.0000 24.9140 0.0000 -0.0121
# 5 4.3472 1.4069 1.9512 0.0000 37.7790 0.0000
# 6 0.0000 0.0000 0.0000 -0.0121 0.0000 25.1383
#
#
#
# Elastic Compliance Matrix: (Units=1/GPa)
#
#
# Indices 1 2 3 4 5 6 
#
# 1 0.036974 -0.022071 -0.005463 0.000000 -0.003151 0.000000
# 2 -0.022071 0.040483 -0.008441 0.000000 0.001468 0.000000
# 3 -0.005463 -0.008441 0.011140 0.000000 0.000368 0.000000
# 4 0.000000 0.000000 0.000000 0.040138 0.000000 0.000019
# 5 -0.003151 0.001468 0.000368 0.000000 0.026759 0.000000
# 6 0.000000 0.000000 0.000000 0.000019 0.000000 0.039780
#
#
# Mechanical properties :
#
#
# Convention : Reuss Voigt Hill
#
# Bulk Modulus (GPa) = 60.07234 83.69082 71.88158
# Shear Modulus (GPa) = 18.33023 25.51730 21.92377
#
# Velocity S-wave (km/s) = 3.31992 3.91707 3.63079
# Velocity P-wave (km/s) = 7.12861 8.41313 7.79736
#
# Compressibility (1/GPa) = 0.01664660
#
# Stress axis : x y z
#
# Youngs Moduli (GPa) = 27.04575 24.70155 89.76995
#
# Poissons Ratio (x) = 0.54518 0.49044
# Poissons Ratio (y) = 0.59692 0.75779
# Poissons Ratio (z) = 0.14776 0.20852
#
# Static dielectric constant tensor:
#      x y z
#    x 1.552100 0.000000 -0.001190 
#    y 0.000000 1.549750 0.000000 
#    z -0.001190 0.000000 1.529960 
# 
# From -- ./inp_files/61290.got.cif
#   From: 2010.05.17/outbox.cif.g08.bks.cpg/sg10_31_cif.got.tgz:61290.got - 2010.06.03 11:33:40.
