data_PCOD9149806
_publ_section_title
;
Structure prediction by ZEFSAII (Michael W. Deem and Ramdas Pophale) SiO2 
 PCOD9149806
Probable space group: P 2/M
;
_chemical_formula_sum "Si O2"
_cell_formula_units_Z 28
_cell_length_a 18.947093
_cell_length_b 9.605972
_cell_length_c 17.454071
_cell_angle_alpha 90.000000
_cell_angle_beta 22.778281
_cell_angle_gamma 90.000000
_cell_volume 1229.923150
_symmetry_space_group_name_H-M "P 2/M"
_symmetry_group_IT_number 10
_symmetry_cell_setting 'monoclinic'
loop_
_space_group_symop_operation_xyz
x,y,z
-x,y,-z
-x,-y,-z
x,-y,z
loop_
_atom_site_type_symbol
_atom_site_label
_atom_site_fract_x
_atom_site_fract_y
_atom_site_fract_z
Si Si1 0.634449 0.833449 0.687262
Si Si2 0.267701 0.335884 0.096553
Si Si3 0.936529 0.661270 0.307288
Si Si4 0.267637 0.346491 0.873233
Si Si5 0.176875 0.655310 0.792066
Si Si6 0.280074 0.844403 0.227600
Si Si7 0.452638 0.846676 0.455128
O O1 0.443564 0.749466 0.888227
O O2 0.743221 0.815562 0.659496
O O3 0.770202 0.764122 0.490163
O O4 0.604089 0.000000 0.708137
O O5 0.312655 0.500000 0.059216
O O6 0.095454 0.322560 0.212656
O O7 0.217612 0.268416 0.228741
O O8 0.873360 0.500000 0.372439
O O9 0.062468 0.681354 0.105735
O O10 0.319874 0.500000 0.853524
O O11 0.283180 0.361350 0.765896
O O12 0.393913 0.212498 0.755552
O O13 0.128995 0.500000 0.814000
O O14 0.294750 0.734115 0.613725
O O15 0.000000 0.734626 0.000000
O O16 0.213367 0.000000 0.274879
O O17 0.500000 0.847853 0.000000
O O18 0.500000 0.857543 0.500000
O O19 0.396854 0.000000 0.487514
#
# Coordination Sequence:
#
# PCOD9149806 Si02
#       7
#     4   4   4   4   4   4   4
#     4  10  21  37  57  80 109 145 182 225 275 327
#     4  10  20  35  56  81 108 141 183 229 275 322
#     4  10  22  38  55  78 110 148 186 225 269 322
#     4   9  18  35  54  72 100 137 174 211 255 310
#     4   9  17  31  53  79 102 129 169 214 257 305
#     4   8  16  32  53  78 107 140 179 223 273 325
#     4   9  17  30  50  74 100 130 162 203 254 302
#
# _framework density 22.765650000000001
#
# number of rings (size 3 to 8) (size 9 to 14) (size 15 to 20)
#    0.000    2.714    0.000    2.143    0.000    7.429 
#    2.571    2.857    0.000    0.000    0.000    0.000 
#    0.000    0.000    0.000    0.000    0.000    0.000 
#
# Total GULP energy -156164.740675 kJ/mol
# GULP energy per Si atom -5577.312167 kJ/mol
# Density = 2.271383 g / cm^3
# Si number density = 22.765650 Si / 1000 Ang^3
#
#
#
# Elastic Constant Matrix: (Units=GPa)
#
#
# Indices 1 2 3 4 5 6 
#
# 1 80.0487 19.8556 3.6192 0.0000 22.6807 0.0000
# 2 19.8556 120.9620 58.8413 0.0000 9.1079 0.0000
# 3 3.6192 58.8413 97.2260 0.0000 17.0239 0.0000
# 4 0.0000 0.0000 0.0000 15.1012 0.0000 5.5821
# 5 22.6807 9.1079 17.0239 0.0000 31.7619 0.0000
# 6 0.0000 0.0000 0.0000 5.5821 0.0000 10.9332
#
#
#
# Elastic Compliance Matrix: (Units=1/GPa)
#
#
# Indices 1 2 3 4 5 6 
#
# 1 0.016955 -0.003693 0.003905 0.000000 -0.013142 0.000000
# 2 -0.003693 0.012528 -0.008031 0.000000 0.003349 0.000000
# 3 0.003905 -0.008031 0.016648 0.000000 -0.009408 0.000000
# 4 0.000000 0.000000 0.000000 0.081624 0.000000 -0.041674
# 5 -0.013142 0.003349 -0.009408 0.000000 0.044951 0.000000
# 6 0.000000 0.000000 0.000000 -0.041674 0.000000 0.112741
#
#
# Mechanical properties :
#
#
# Convention : Reuss Voigt Hill
#
# Bulk Modulus (GPa) = 32.79471 51.42987 42.11229
# Shear Modulus (GPa) = 16.06432 25.95399 21.00915
#
# Velocity S-wave (km/s) = 2.65927 3.38013 3.04113
# Velocity P-wave (km/s) = 4.88524 6.15416 5.55604
#
# Compressibility (1/GPa) = 0.03049273
#
# Stress axis : x y z
#
# Youngs Moduli (GPa) = 58.97826 79.82388 60.06907
#
# Poissons Ratio (x) = 0.29481 -0.23457
# Poissons Ratio (y) = 0.21782 0.48239
# Poissons Ratio (z) = -0.23031 0.64104
#
# Static dielectric constant tensor:
#      x y z
#    x 2.013530 0.000000 0.011640 
#    y 0.000000 1.829390 0.000000 
#    z 0.011640 0.000000 1.834580 
# 
# From -- ./inp_files/86468.got.cif
#   From: 2010.05.17/outbox.cif.g08.bks.cpg/sg10_44_cif.got.tgz:86468.got - 2010.06.03 11:33:40.
