data_PCOD9149809
_publ_section_title
;
Structure prediction by ZEFSAII (Michael W. Deem and Ramdas Pophale) SiO2 
 PCOD9149809
Probable space group: P 2/M
;
_chemical_formula_sum "Si O2"
_cell_formula_units_Z 32
_cell_length_a 19.920481
_cell_length_b 9.187406
_cell_length_c 26.445412
_cell_angle_alpha 90.000000
_cell_angle_beta 19.857458
_cell_angle_gamma 90.000000
_cell_volume 1644.048778
_symmetry_space_group_name_H-M "P 2/M"
_symmetry_group_IT_number 10
_symmetry_cell_setting 'monoclinic'
loop_
_space_group_symop_operation_xyz
x,y,z
-x,y,-z
-x,-y,-z
x,-y,z
loop_
_atom_site_type_symbol
_atom_site_label
_atom_site_fract_x
_atom_site_fract_y
_atom_site_fract_z
Si Si1 0.531130 0.329131 0.162737
Si Si2 0.388652 0.675510 0.003384
Si Si3 0.093805 0.832196 0.845107
Si Si4 0.714844 0.330259 0.142176
Si Si5 0.495300 0.168337 0.383379
Si Si6 0.190763 0.324471 0.243724
Si Si7 0.707232 0.667764 0.384785
Si Si8 0.882062 0.171411 0.531264
O O1 0.478941 0.500000 0.192669
O O2 0.638516 0.279292 0.035173
O O3 0.655492 0.318976 0.125518
O O4 0.332782 0.238957 0.310311
O O5 0.376204 0.500000 0.014153
O O6 0.611207 0.711735 0.864232
O O7 0.237854 0.726266 0.153285
O O8 0.298247 0.830680 0.731483
O O9 0.139944 0.750848 0.759725
O O10 0.037477 0.000000 0.876617
O O11 0.924074 0.750701 0.996328
O O12 0.731469 0.500000 0.144572
O O13 0.550362 0.253463 0.293392
O O14 0.339141 0.250096 0.530052
O O15 0.441350 0.000000 0.412697
O O16 0.169150 0.500000 0.260172
O O17 0.003687 0.250268 0.401158
O O18 0.500000 0.666698 0.500000
O O19 0.765781 0.500000 0.351473
O O20 0.000000 0.195256 0.500000
O O21 0.871058 0.000000 0.529525
#
# Coordination Sequence:
#
# PCOD9149809 Si02
#       8
#     4   4   4   4   4   4   4   4
#     4  10  21  38  57  76 104 142 181 221 269 324
#     4   8  15  30  54  81 102 127 171 218 258 308
#     4  10  20  35  56  81 109 145 186 224 272 332
#     4  11  23  36  53  79 108 143 185 230 280 327
#     4  10  20  35  56  81 110 145 184 226 273 330
#     4   9  16  30  56  82 102 131 172 217 262 309
#     4   9  17  31  54  83 111 138 175 227 275 314
#     4  11  22  34  51  80 111 139 173 215 264 318
#
# _framework density 19.464141000000001
#
# number of rings (size 3 to 8) (size 9 to 14) (size 15 to 20)
#    0.000    2.250    1.250    3.000    0.000    6.000 
#    0.000    3.125    0.000    6.000    0.000    0.000 
#    0.000    0.000    0.000    0.000    0.000    0.000 
#
# Total GULP energy -178627.288518 kJ/mol
# GULP energy per Si atom -5582.102766 kJ/mol
# Density = 1.941984 g / cm^3
# Si number density = 19.464141 Si / 1000 Ang^3
#
#
#
# Elastic Constant Matrix: (Units=GPa)
#
#
# Indices 1 2 3 4 5 6 
#
# 1 56.7057 38.4221 32.6021 0.0000 38.1264 0.0000
# 2 38.4221 95.3670 36.6632 0.0000 18.0298 0.0000
# 3 32.6021 36.6632 63.5529 0.0000 36.7791 0.0000
# 4 0.0000 0.0000 0.0000 1.6642 0.0000 -4.6106
# 5 38.1264 18.0298 36.7791 0.0000 39.2822 0.0000
# 6 0.0000 0.0000 0.0000 -4.6106 0.0000 6.6763
#
#
#
# Elastic Compliance Matrix: (Units=1/GPa)
#
#
# Indices 1 2 3 4 5 6 
#
# 1 0.082145 -0.025681 0.026179 0.000000 -0.092451 0.000000
# 2 -0.025681 0.021606 -0.017409 0.000000 0.031308 0.000000
# 3 0.026179 -0.017409 0.048954 0.000000 -0.063253 0.000000
# 4 0.000000 0.000000 0.000000 -0.657937 0.000000 -0.454371
# 5 -0.092451 0.031308 -0.063253 0.000000 0.160041 0.000000
# 6 0.000000 0.000000 0.000000 -0.454371 0.000000 -0.164005
#
#
# Mechanical properties :
#
#
# Convention : Reuss Voigt Hill
#
# Bulk Modulus (GPa) = 8.41163 47.88894 28.15029
# Shear Modulus (GPa) = -11.47453 16.72042 2.62294
#
# Velocity S-wave (km/s) = -2.43064 2.93411 1.16211
# Velocity P-wave (km/s) = 1.88318 6.01130 4.03667
#
# Compressibility (1/GPa) = 0.11888304
#
# Stress axis : x y z
#
# Youngs Moduli (GPa) = 12.17366 46.28369 20.42743
#
# Poissons Ratio (x) = 1.18859 -0.53476
# Poissons Ratio (y) = 0.31263 0.35561
# Poissons Ratio (z) = -0.31869 0.80574
#
# Static dielectric constant tensor:
#      x y z
#    x 1.711850 0.000000 0.007720 
#    y 0.000000 1.657230 0.000000 
#    z 0.007720 0.000000 1.643230 
# 
# From -- ./inp_files/93660.got.cif
#   From: 2010.05.17/outbox.cif.g08.bks.cpg/sg10_47_cif.got.tgz:93660.got - 2010.06.03 11:33:40.
