data_PCOD9149211
_publ_section_title
;
Structure prediction by ZEFSAII (Michael W. Deem and Ramdas Pophale) SiO2 
 PCOD9149211
Probable space group: P 2/M
;
_chemical_formula_sum "Si O2"
_cell_formula_units_Z 28
_cell_length_a 25.018565
_cell_length_b 7.670171
_cell_length_c 22.666031
_cell_angle_alpha 90.000000
_cell_angle_beta 17.598265
_cell_angle_gamma 90.000000
_cell_volume 1315.043152
_symmetry_space_group_name_H-M "P 2/M"
_symmetry_group_IT_number 10
_symmetry_cell_setting 'monoclinic'
loop_
_space_group_symop_operation_xyz
x,y,z
-x,y,-z
-x,-y,-z
x,-y,z
loop_
_atom_site_type_symbol
_atom_site_label
_atom_site_fract_x
_atom_site_fract_y
_atom_site_fract_z
Si Si1 0.779274 0.796500 0.105872
Si Si2 0.812441 0.701018 0.329127
Si Si3 0.319748 0.713614 0.025232
Si Si4 0.542224 0.706103 0.244690
Si Si5 0.977180 0.286900 0.455870
Si Si6 0.415891 0.287248 0.150629
Si Si7 0.214546 0.201489 0.771949
O O1 0.670416 0.723635 0.165900
O O2 0.730912 0.723062 0.221893
O O3 0.737153 0.000000 0.153417
O O4 0.991712 0.781266 0.873844
O O5 0.485194 0.500000 0.735836
O O6 0.652964 0.779060 0.535374
O O7 0.743635 0.709336 0.333773
O O8 0.314825 0.500000 0.029375
O O9 0.366865 0.775370 0.910211
O O10 0.469158 0.767122 0.914696
O O11 0.134350 0.771196 0.248096
O O12 0.839092 0.500000 0.317350
O O13 0.980801 0.500000 0.452874
O O14 0.786218 0.231375 0.634298
O O15 0.000000 0.232416 0.500000
O O16 0.418667 0.500000 0.147024
O O17 0.500000 0.231077 0.000000
O O18 0.273122 0.000000 0.705809
O O19 0.000000 0.200701 0.000000
#
# Coordination Sequence:
#
# PCOD9149211 Si02
#       7
#     4   4   4   4   4   4   4
#     4  10  21  37  57  78 103 138 180 226 270 312
#     4  10  20  34  54  79 109 142 176 216 267 322
#     4   9  17  28  40  60  95 134 170 205 248 307
#     4  10  22  36  50  74 109 147 180 214 262 322
#     4   9  14  21  37  60  86 123 165 202 244 296
#     4   9  14  21  36  58  86 121 161 202 244 295
#     4   8  16  32  53  78 104 133 174 222 270 314
#
# _framework density 21.292078
#
# number of rings (size 3 to 8) (size 9 to 14) (size 15 to 20)
#    0.000    2.714    1.429    1.714    0.000    6.000 
#    0.000    7.143    0.000    0.000    0.000    0.000 
#    0.000    1.143    0.000    0.143    0.000    0.000 
#
# Total GULP energy -156238.395692 kJ/mol
# GULP energy per Si atom -5579.942703 kJ/mol
# Density = 2.124362 g / cm^3
# Si number density = 21.292078 Si / 1000 Ang^3
#
#
#
# Elastic Constant Matrix: (Units=GPa)
#
#
# Indices 1 2 3 4 5 6 
#
# 1 71.2701 -7.8636 34.5232 0.0000 -0.9105 0.0000
# 2 -7.8636 34.4451 -4.2865 0.0000 5.0204 0.0000
# 3 34.5232 -4.2865 128.3609 0.0000 5.1318 0.0000
# 4 0.0000 0.0000 0.0000 40.7877 0.0000 30.5685
# 5 -0.9105 5.0204 5.1318 0.0000 30.6996 0.0000
# 6 0.0000 0.0000 0.0000 30.5685 0.0000 141.3647
#
#
#
# Elastic Compliance Matrix: (Units=1/GPa)
#
#
# Indices 1 2 3 4 5 6 
#
# 1 0.016497 0.003120 -0.004361 0.000000 0.000708 0.000000
# 2 0.003120 0.030514 0.000378 0.000000 -0.004961 0.000000
# 3 -0.004361 0.000378 0.009044 0.000000 -0.001703 0.000000
# 4 0.000000 0.000000 0.000000 0.029259 0.000000 -0.006327
# 5 0.000708 -0.004961 -0.001703 0.000000 0.033691 0.000000
# 6 0.000000 0.000000 0.000000 -0.006327 0.000000 0.008442
#
#
# Mechanical properties :
#
#
# Convention : Reuss Voigt Hill
#
# Bulk Modulus (GPa) = 18.40608 30.98026 24.69317
# Shear Modulus (GPa) = 33.94847 56.68393 45.31620
#
# Velocity S-wave (km/s) = 3.99735 5.16526 4.61837
# Velocity P-wave (km/s) = 5.47434 7.08201 6.32943
#
# Compressibility (1/GPa) = 0.05432987
#
# Stress axis : x y z
#
# Youngs Moduli (GPa) = 60.61740 32.77170 110.56851
#
# Poissons Ratio (x) = -0.10226 0.48219
# Poissons Ratio (y) = -0.18914 -0.04181
# Poissons Ratio (z) = 0.26435 -0.01239
#
# Static dielectric constant tensor:
#      x y z
#    x 1.745590 0.000000 0.013540 
#    y 0.000000 1.792030 0.000000 
#    z 0.013540 0.000000 1.772630 
# 
# From -- ./inp_files/86445.got.cif
#   From: 2010.05.17/outbox.cif.g08.bks.cpg/sg10_44_cif.got.tgz:86445.got - 2010.06.03 11:33:40.
