data_PCOD9149444
_publ_section_title
;
Structure prediction by ZEFSAII (Michael W. Deem and Ramdas Pophale) SiO2 
 PCOD9149444
Probable space group: P 2/M
;
_chemical_formula_sum "Si O2"
_cell_formula_units_Z 18
_cell_length_a 13.449890
_cell_length_b 16.725757
_cell_length_c 10.375987
_cell_angle_alpha 90.000000
_cell_angle_beta 160.419778
_cell_angle_gamma 90.000000
_cell_volume 782.244509
_symmetry_space_group_name_H-M "P 2/M"
_symmetry_group_IT_number 10
_symmetry_cell_setting 'monoclinic'
loop_
_space_group_symop_operation_xyz
x,y,z
-x,y,-z
-x,-y,-z
x,-y,z
loop_
_atom_site_type_symbol
_atom_site_label
_atom_site_fract_x
_atom_site_fract_y
_atom_site_fract_z
Si Si1 0.148345 0.500000 0.542169
Si Si2 0.242898 0.332341 0.579359
Si Si3 0.353821 0.255860 0.455963
Si Si4 0.853557 0.162176 0.456123
Si Si5 0.739519 0.086259 0.577210
O O1 0.078127 0.417047 0.384055
O O2 0.000000 0.500000 0.500000
O O3 0.500000 0.500000 0.000000
O O4 0.386665 0.314667 0.616530
O O5 0.059830 0.252465 0.393477
O O6 0.500000 0.336524 0.000000
O O7 0.500000 0.278009 0.500000
O O8 0.444394 0.165732 0.610539
O O9 0.000000 0.252736 0.000000
O O10 0.883624 0.104007 0.614199
O O11 0.000000 0.140219 0.500000
O O12 0.500000 0.164586 0.000000
O O13 0.583727 0.000000 0.385846
O O14 0.000000 0.082071 0.000000
#
# Coordination Sequence:
#
# PCOD9149444 Si02
#       5
#     2   4   4   4   4
#     4  10  20  34  56  86 114 142 181 228 271 318
#     4   9  20  37  59  84 111 145 186 226 270 325
#     4  10  22  39  58  81 112 147 183 226 276 326
#     4  10  21  37  57  81 110 144 182 226 275 325
#     4   9  20  37  57  81 110 145 185 227 273 327
#
# _framework density 23.010708999999999
#
# number of rings (size 3 to 8) (size 9 to 14) (size 15 to 20)
#    0.000    2.444    0.000    0.667    0.000   20.889 
#    0.000    5.556    0.000    0.000    0.000    0.000 
#    0.000    0.000    0.000    0.000    0.000    0.000 
#
# Total GULP energy -100625.708348 kJ/mol
# GULP energy per Si atom -5590.317130 kJ/mol
# Density = 2.295834 g / cm^3
# Si number density = 23.010709 Si / 1000 Ang^3
#
#
#
# Elastic Constant Matrix: (Units=GPa)
#
#
# Indices 1 2 3 4 5 6 
#
# 1 223.8161 67.0664 49.4385 0.0000 -25.9199 0.0000
# 2 67.0664 160.8985 24.8994 0.0000 -22.2273 0.0000
# 3 49.4385 24.8994 46.0347 0.0000 -5.2567 0.0000
# 4 0.0000 0.0000 0.0000 -15.4203 0.0000 34.0820
# 5 -25.9199 -22.2273 -5.2567 0.0000 45.7578 0.0000
# 6 0.0000 0.0000 0.0000 34.0820 0.0000 -24.3433
#
#
#
# Elastic Compliance Matrix: (Units=1/GPa)
#
#
# Indices 1 2 3 4 5 6 
#
# 1 0.006475 -0.001472 -0.005898 0.000000 0.002275 0.000000
# 2 -0.001472 0.007523 -0.002195 0.000000 0.002568 0.000000
# 3 -0.005898 -0.002195 0.029123 0.000000 -0.001062 0.000000
# 4 0.000000 0.000000 0.000000 0.030963 0.000000 0.043350
# 5 0.002275 0.002568 -0.001062 0.000000 0.024269 0.000000
# 6 0.000000 0.000000 0.000000 0.043350 0.000000 0.019614
#
#
# Mechanical properties :
#
#
# Convention : Reuss Voigt Hill
#
# Bulk Modulus (GPa) = 41.68195 79.28423 60.48309
# Shear Modulus (GPa) = 34.46029 20.48851 27.47440
#
# Velocity S-wave (km/s) = 3.87405 2.98718 3.45915
# Velocity P-wave (km/s) = 6.17774 6.81380 6.50355
#
# Compressibility (1/GPa) = 0.02399120
#
# Stress axis : x y z
#
# Youngs Moduli (GPa) = 154.43072 132.92263 34.33710
#
# Poissons Ratio (x) = 0.19566 0.20253
# Poissons Ratio (y) = 0.22732 0.07537
# Poissons Ratio (z) = 0.91086 0.29177
#
# Static dielectric constant tensor:
#      x y z
#    x 1.811900 0.000000 0.020130 
#    y 0.000000 1.942640 0.000000 
#    z 0.020130 0.000000 1.924940 
# 
# From -- ./inp_files/7090.got.cif
#   From: 2010.05.17/outbox.cif.g08.bks.cpg/sg10_4_cif.got.tgz:7090.got - 2010.06.03 11:33:40.
