data_PCOD9149506
_publ_section_title
;
Structure prediction by ZEFSAII (Michael W. Deem and Ramdas Pophale) SiO2 
 PCOD9149506
Probable space group: P 2/M
;
_chemical_formula_sum "Si O2"
_cell_formula_units_Z 30
_cell_length_a 32.394987
_cell_length_b 8.488212
_cell_length_c 5.646621
_cell_angle_alpha 90.000000
_cell_angle_beta 121.589191
_cell_angle_gamma 90.000000
_cell_volume 1322.614993
_symmetry_space_group_name_H-M "P 2/M"
_symmetry_group_IT_number 10
_symmetry_cell_setting 'monoclinic'
loop_
_space_group_symop_operation_xyz
x,y,z
-x,y,-z
-x,-y,-z
x,-y,z
loop_
_atom_site_type_symbol
_atom_site_label
_atom_site_fract_x
_atom_site_fract_y
_atom_site_fract_z
Si Si1 0.699450 0.324417 0.916582
Si Si2 0.055723 0.173664 0.751001
Si Si3 0.204113 0.323894 0.482224
Si Si4 0.226761 0.169843 0.123917
Si Si5 0.395414 0.189922 0.162135
Si Si6 0.869580 0.317807 0.363089
Si Si7 0.556248 0.191844 0.190336
Si Si8 0.029603 0.500000 0.841935
O O1 0.683968 0.500000 0.803020
O O2 0.717925 0.224345 0.750082
O O3 0.659146 0.246485 0.956359
O O4 0.751520 0.333532 0.200225
O O5 0.089443 0.209294 0.624724
O O6 0.057548 0.332652 0.914694
O O7 0.000000 0.164510 0.500000
O O8 0.068382 0.000000 0.889823
O O9 0.204678 0.500000 0.372628
O O10 0.219133 0.174644 0.378620
O O11 0.151604 0.299172 0.437800
O O12 0.219561 0.000000 0.989756
O O13 0.180503 0.278948 0.923397
O O14 0.422950 0.241753 0.489237
O O15 0.397660 0.000000 0.165733
O O16 0.416410 0.244253 0.969936
O O17 0.884003 0.500000 0.374749
O O18 0.558576 0.000000 0.197663
O O19 0.500000 0.237176 0.000000
O O20 0.000000 0.500000 0.500000
O O21 0.000000 0.500000 0.000000
#
# Coordination Sequence:
#
# PCOD9149506 Si02
#       8
#     4   4   4   4   4   4   4   2
#     4  10  22  39  58  80 116 158 202 251 310 378
#     4  10  21  40  65  93 128 168 218 277 333 396
#     4   9  20  38  59  83 114 158 202 248 307 379
#     4  11  22  36  57  86 118 153 198 256 315 376
#     4  10  20  34  57  90 118 155 208 259 314 370
#     4  10  20  39  62  86 120 161 207 252 311 387
#     4   9  18  34  57  86 122 160 203 258 315 373
#     4  10  22  44  68  96 130 170 214 264 332 386
#
# _framework density 22.682338000000001
#
# number of rings (size 3 to 8) (size 9 to 14) (size 15 to 20)
#    0.000    2.133    0.667    3.200    1.867    5.067 
#    4.800    0.000    0.000    2.400    0.000    0.000 
#    0.000    0.000    0.000    0.000    0.000    0.000 
#
# Total GULP energy -167033.706034 kJ/mol
# GULP energy per Si atom -5567.790201 kJ/mol
# Density = 2.263071 g / cm^3
# Si number density = 22.682338 Si / 1000 Ang^3
#
#
#
# Elastic Constant Matrix: (Units=GPa)
#
#
# Indices 1 2 3 4 5 6 
#
# 1 164.0849 41.4196 31.3270 0.0000 -10.4247 0.0000
# 2 41.4196 82.4084 9.1997 0.0000 -21.9754 0.0000
# 3 31.3270 9.1997 38.5251 0.0000 -5.3563 0.0000
# 4 0.0000 0.0000 0.0000 6.5725 0.0000 -4.5143
# 5 -10.4247 -21.9754 -5.3563 0.0000 27.7792 0.0000
# 6 0.0000 0.0000 0.0000 -4.5143 0.0000 17.8798
#
#
#
# Elastic Compliance Matrix: (Units=1/GPa)
#
#
# Indices 1 2 3 4 5 6 
#
# 1 0.008070 -0.003672 -0.005824 0.000000 -0.001000 0.000000
# 2 -0.003672 0.017207 0.000594 0.000000 0.012348 0.000000
# 3 -0.005824 0.000594 0.031148 0.000000 0.004290 0.000000
# 4 0.000000 0.000000 0.000000 0.184070 0.000000 0.046474
# 5 -0.001000 0.012348 0.004290 0.000000 0.046219 0.000000
# 6 0.000000 0.000000 0.000000 0.046474 0.000000 0.067663
#
#
# Mechanical properties :
#
#
# Convention : Reuss Voigt Hill
#
# Bulk Modulus (GPa) = 25.89355 49.87901 37.88628
# Shear Modulus (GPa) = 12.98519 23.98443 18.48481
#
# Velocity S-wave (km/s) = 2.39525 3.25531 2.85782
# Velocity P-wave (km/s) = 4.36923 6.01393 5.25631
#
# Compressibility (1/GPa) = 0.03861965
#
# Stress axis : x y z
#
# Youngs Moduli (GPa) = 123.91806 58.11562 32.10520
#
# Poissons Ratio (x) = 0.21343 0.18698
# Poissons Ratio (y) = 0.45508 -0.01907
# Poissons Ratio (z) = 0.72171 -0.03453
#
# Static dielectric constant tensor:
#      x y z
#    x 1.885550 0.000000 -0.158210 
#    y 0.000000 2.075090 0.000000 
#    z -0.158210 0.000000 2.126610 
# 
# From -- ./inp_files/13667.got.cif
#   From: 2010.05.17/outbox.cif.g08.bks.cpg/sg10_7_cif.got.tgz:13667.got - 2010.06.03 11:33:40.
