data_PCOD9149775
_publ_section_title
;
Structure prediction by ZEFSAII (Michael W. Deem and Ramdas Pophale) SiO2 
 PCOD9149775
Probable space group: P 2/M
;
_chemical_formula_sum "Si O2"
_cell_formula_units_Z 28
_cell_length_a 11.181704
_cell_length_b 9.132653
_cell_length_c 15.808137
_cell_angle_alpha 90.000000
_cell_angle_beta 82.590643
_cell_angle_gamma 90.000000
_cell_volume 1600.825914
_symmetry_space_group_name_H-M "P 2/M"
_symmetry_group_IT_number 10
_symmetry_cell_setting 'monoclinic'
loop_
_space_group_symop_operation_xyz
x,y,z
-x,y,-z
-x,-y,-z
x,-y,z
loop_
_atom_site_type_symbol
_atom_site_label
_atom_site_fract_x
_atom_site_fract_y
_atom_site_fract_z
Si Si1 0.301278 0.834027 0.042701
Si Si2 0.532315 0.165486 0.136959
Si Si3 0.899388 0.823117 0.442204
Si Si4 0.089074 0.824215 0.756236
Si Si5 0.372836 0.825563 0.558712
Si Si6 0.660634 0.671648 0.262437
Si Si7 0.940066 0.673155 0.915825
O O1 0.402319 0.821948 0.105755
O O2 0.199042 0.715468 0.062983
O O3 0.250290 0.000000 0.050631
O O4 0.371576 0.819450 0.947780
O O5 0.559611 0.283931 0.204702
O O6 0.544428 0.000000 0.170973
O O7 0.926723 0.781008 0.341718
O O8 0.757360 0.787415 0.472654
O O9 0.000000 0.768213 0.500000
O O10 0.906017 0.000000 0.443916
O O11 0.218555 0.760645 0.771562
O O12 0.994690 0.757520 0.830558
O O13 0.088730 0.000000 0.760368
O O14 0.500000 0.803645 0.500000
O O15 0.376148 0.730418 0.642758
O O16 0.364720 0.000000 0.579549
O O17 0.684938 0.500000 0.260524
O O18 0.958908 0.500000 0.903204
O O19 0.000000 0.717395 0.000000
#
# Coordination Sequence:
#
# PCOD9149775 Si02
#       7
#     4   4   4   4   4   4   4
#     4   9  19  35  55  77 102 136 179 226 266 309
#     4   9  18  35  56  77 102 135 179 223 265 314
#     4   8  15  31  55  80 104 132 173 223 273 320
#     4  10  20  35  56  79 105 139 183 226 264 315
#     4   9  18  34  55  79 105 137 179 225 271 319
#     4  11  21  33  53  79 108 140 174 213 269 327
#     4  11  23  36  51  76 111 146 179 219 270 323
#
# _framework density 17.490970000000001
#
# number of rings (size 3 to 8) (size 9 to 14) (size 15 to 20)
#    0.000    2.429    0.000    4.714    0.000    4.857 
#    2.571    1.429    0.000   10.714    0.000    0.000 
#    0.000    0.000    0.000    0.000    0.000    0.000 
#
# Total GULP energy -156066.651731 kJ/mol
# GULP energy per Si atom -5573.808990 kJ/mol
# Density = 1.745116 g / cm^3
# Si number density = 17.490970 Si / 1000 Ang^3
#
#
#
# Elastic Constant Matrix: (Units=GPa)
#
#
# Indices 1 2 3 4 5 6 
#
# 1 84.0641 34.0845 50.5850 0.0000 0.4149 0.0000
# 2 34.0845 52.4416 28.8679 0.0000 1.9287 0.0000
# 3 50.5850 28.8679 48.1727 0.0000 7.4967 0.0000
# 4 0.0000 0.0000 0.0000 3727.5980 0.0000 -585.0680
# 5 0.4149 1.9287 7.4967 0.0000 25.5528 0.0000
# 6 0.0000 0.0000 0.0000 -585.0680 0.0000 103.1217
#
#
#
# Elastic Compliance Matrix: (Units=1/GPa)
#
#
# Indices 1 2 3 4 5 6 
#
# 1 0.035199 -0.003015 -0.036781 0.000000 0.010447 0.000000
# 2 -0.003015 0.028934 -0.014503 0.000000 0.002120 0.000000
# 3 -0.036781 -0.014503 0.071053 0.000000 -0.019154 0.000000
# 4 0.000000 0.000000 0.000000 0.002450 0.000000 0.013900
# 5 0.010447 0.002120 -0.019154 0.000000 0.044424 0.000000
# 6 0.000000 0.000000 0.000000 0.013900 0.000000 0.088559
#
#
# Mechanical properties :
#
#
# Convention : Reuss Voigt Hill
#
# Bulk Modulus (GPa) = 37.60982 45.75036 41.68009
# Shear Modulus (GPa) = 12.88392 775.99724 394.44058
#
# Velocity S-wave (km/s) = 2.71699 21.08599 15.03331
# Velocity P-wave (km/s) = 5.60284 24.88049 18.03373
#
# Compressibility (1/GPa) = 0.02658880
#
# Stress axis : x y z
#
# Youngs Moduli (GPa) = 28.40971 34.56143 14.07395
#
# Poissons Ratio (x) = 0.10420 0.51765
# Poissons Ratio (y) = 0.08565 0.20411
# Poissons Ratio (z) = 1.04494 0.50124
#
# Static dielectric constant tensor:
#      x y z
#    x 1.622080 0.000000 -0.001710 
#    y 0.000000 1.585860 0.000000 
#    z -0.001710 0.000000 1.596170 
# 
# From -- ./inp_files/63397.got.cif
#   From: 2010.05.17/outbox.cif.g08.bks.cpg/sg10_32_cif.got.tgz:63397.got - 2010.06.03 11:33:40.
