data_PCOD9149999
_publ_section_title
;
Structure prediction by ZEFSAII (Michael W. Deem and Ramdas Pophale) SiO2 
 PCOD9149999
Probable space group: P 2/M
;
_chemical_formula_sum "Si O2"
_cell_formula_units_Z 32
_cell_length_a 25.094295
_cell_length_b 8.577419
_cell_length_c 14.474563
_cell_angle_alpha 90.000000
_cell_angle_beta 149.889853
_cell_angle_gamma 90.000000
_cell_volume 1562.967602
_symmetry_space_group_name_H-M "P 2/M"
_symmetry_group_IT_number 10
_symmetry_cell_setting 'monoclinic'
loop_
_space_group_symop_operation_xyz
x,y,z
-x,y,-z
-x,-y,-z
x,-y,z
loop_
_atom_site_type_symbol
_atom_site_label
_atom_site_fract_x
_atom_site_fract_y
_atom_site_fract_z
Si Si1 0.825598 0.817406 0.970342
Si Si2 0.604933 0.685745 0.713366
Si Si3 0.959738 0.676653 0.668685
Si Si4 0.879591 0.684300 0.852665
Si Si5 0.342998 0.814383 0.016191
Si Si6 0.386730 0.810137 0.871049
Si Si7 0.112099 0.822658 0.617083
Si Si8 0.793483 0.817471 0.543793
O O1 0.709534 0.765311 0.828042
O O2 0.845977 0.776823 0.893498
O O3 0.839593 0.000000 0.009106
O O4 0.918441 0.723530 0.161862
O O5 0.500000 0.734656 0.500000
O O6 0.616107 0.500000 0.721178
O O7 0.599668 0.730753 0.813459
O O8 0.951039 0.500000 0.689018
O O9 0.897303 0.703170 0.480426
O O10 0.905611 0.789998 0.661165
O O11 0.876636 0.500000 0.868462
O O12 0.801448 0.726047 0.651330
O O13 0.000000 0.722269 0.000000
O O14 0.363996 0.000000 0.054084
O O15 0.371270 0.761398 0.954367
O O16 0.215458 0.791921 0.833228
O O17 0.294864 0.760911 0.661871
O O18 0.382609 0.000000 0.866639
O O19 0.500000 0.762813 0.000000
O O20 0.000000 0.820043 0.500000
O O21 0.127155 0.000000 0.601648
O O22 0.776429 0.000000 0.536452
#
# Coordination Sequence:
#
# PCOD9149999 Si02
#       8
#     4   4   4   4   4   4   4   4
#     4  12  25  42  67  95 125 167 219 268 316 382
#     4  11  26  47  68  93 129 169 211 266 327 382
#     4  12  23  36  58  89 127 165 203 255 320 381
#     4  11  23  39  61  92 132 172 209 261 326 386
#     4  10  20  38  64  94 126 164 212 264 314 371
#     4   9  19  37  62  93 127 162 206 261 312 363
#     4  10  20  35  57  88 123 161 205 255 311 372
#     4  11  21  37  61  89 123 166 213 258 311 373
#
# _framework density 20.473873000000001
#
# number of rings (size 3 to 8) (size 9 to 14) (size 15 to 20)
#    0.000    1.250    2.500    4.125    0.000    4.250 
#    0.000    1.250    0.000    2.625    0.000    0.000 
#    0.000    0.000    0.000    0.000    0.000    0.000 
#
# Total GULP energy -178866.163328 kJ/mol
# GULP energy per Si atom -5589.567604 kJ/mol
# Density = 2.042727 g / cm^3
# Si number density = 20.473873 Si / 1000 Ang^3
#
#
#
# Elastic Constant Matrix: (Units=GPa)
#
#
# Indices 1 2 3 4 5 6 
#
# 1 69.0754 3.6073 38.2699 0.0000 -6.4864 0.0000
# 2 3.6073 31.0586 15.6093 0.0000 -6.5472 0.0000
# 3 38.2699 15.6093 125.9061 0.0000 -12.9525 0.0000
# 4 0.0000 0.0000 0.0000 -4.2793 0.0000 35.5688
# 5 -6.4864 -6.5472 -12.9525 0.0000 36.8504 0.0000
# 6 0.0000 0.0000 0.0000 35.5688 0.0000 -32.9542
#
#
#
# Elastic Compliance Matrix: (Units=1/GPa)
#
#
# Indices 1 2 3 4 5 6 
#
# 1 0.017488 0.000918 -0.005287 0.000000 0.001383 0.000000
# 2 0.000918 0.035215 -0.004134 0.000000 0.004965 0.000000
# 3 -0.005287 -0.004134 0.010262 0.000000 0.001942 0.000000
# 4 0.000000 0.000000 0.000000 0.029316 0.000000 0.031641
# 5 0.001383 0.004965 0.001942 0.000000 0.028945 0.000000
# 6 0.000000 0.000000 0.000000 0.031641 0.000000 0.003807
#
#
# Mechanical properties :
#
#
# Convention : Reuss Voigt Hill
#
# Bulk Modulus (GPa) = 21.75914 37.89037 29.82475
# Shear Modulus (GPa) = 31.77469 11.16028 21.46748
#
# Velocity S-wave (km/s) = 3.94377 2.33727 3.24162
# Velocity P-wave (km/s) = 5.60255 5.08238 5.34880
#
# Compressibility (1/GPa) = 0.04595771
#
# Stress axis : x y z
#
# Youngs Moduli (GPa) = 57.18178 28.39713 97.44940
#
# Poissons Ratio (x) = -0.02605 0.51522
# Poissons Ratio (y) = -0.05246 0.40285
# Poissons Ratio (z) = 0.30233 0.11739
#
# Static dielectric constant tensor:
#      x y z
#    x 1.737050 0.000000 -0.010630 
#    y 0.000000 1.698960 0.000000 
#    z -0.010630 0.000000 1.732750 
# 
# From -- ./inp_files/71631.got.cif
#   From: 2010.05.17/outbox.cif.g08.bks.cpg/sg10_36_cif.got.tgz:71631.got - 2010.06.03 11:33:40.
