data_PCOD9149368
_publ_section_title
;
Structure prediction by ZEFSAII (Michael W. Deem and Ramdas Pophale) SiO2 
 PCOD9149368
Probable space group: P 2/M
;
_chemical_formula_sum "Si O2"
_cell_formula_units_Z 24
_cell_length_a 15.897827
_cell_length_b 11.037755
_cell_length_c 22.790811
_cell_angle_alpha 90.000000
_cell_angle_beta 19.091723
_cell_angle_gamma 90.000000
_cell_volume 1308.079464
_symmetry_space_group_name_H-M "P 2/M"
_symmetry_group_IT_number 10
_symmetry_cell_setting 'monoclinic'
loop_
_space_group_symop_operation_xyz
x,y,z
-x,y,-z
-x,-y,-z
x,-y,z
loop_
_atom_site_type_symbol
_atom_site_label
_atom_site_fract_x
_atom_site_fract_y
_atom_site_fract_z
Si Si1 0.088427 0.000000 0.536261
Si Si2 0.800281 0.354278 0.077246
Si Si3 0.596288 0.000000 0.790773
Si Si4 0.806686 0.216282 0.949175
Si Si5 0.725174 0.751586 0.526358
Si Si6 0.655332 0.138892 0.450662
Si Si7 0.754033 0.643415 0.864531
O O1 0.184278 0.121163 0.505252
O O2 0.226728 0.000000 0.382850
O O3 0.782848 0.000000 0.724569
O O4 0.813936 0.500000 0.058636
O O5 0.506921 0.315859 0.287679
O O6 0.852810 0.280189 0.981941
O O7 0.000000 0.326441 0.000000
O O8 0.424448 0.879701 0.898926
O O9 0.762124 0.311508 0.926160
O O10 0.053557 0.143092 0.763280
O O11 0.617591 0.785757 0.533574
O O12 0.987618 0.679009 0.340853
O O13 0.500000 0.194872 0.500000
O O14 0.573711 0.000000 0.514276
O O15 0.737230 0.500000 0.876169
O O16 0.500000 0.694396 0.000000
#
# Coordination Sequence:
#
# PCOD9149368 Si02
#       7
#     2   4   2   4   4   4   4
#     4  11  22  37  58  87 119 151 189 237 293 350
#     4  11  24  41  61  86 116 153 198 242 287 345
#     4  11  22  37  58  87 119 151 189 237 293 350
#     4  11  21  39  60  86 117 155 191 239 291 346
#     4  11  21  39  60  86 117 155 191 239 291 346
#     4  10  20  34  55  85 118 149 184 229 281 342
#     4  10  22  39  60  86 117 155 199 242 284 339
#
# _framework density 18.347508000000001
#
# number of rings (size 3 to 8) (size 9 to 14) (size 15 to 20)
#    0.000    1.333    3.333    3.000    0.000    0.000 
#    0.000    3.333    0.000   12.000    0.000    0.000 
#    0.000    0.000    0.000    0.000    0.000    0.000 
#
# Total GULP energy -133804.649563 kJ/mol
# GULP energy per Si atom -5575.193732 kJ/mol
# Density = 1.830575 g / cm^3
# Si number density = 18.347508 Si / 1000 Ang^3
#
#
#
# Elastic Constant Matrix: (Units=GPa)
#
#
# Indices 1 2 3 4 5 6 
#
# 1 80.5965 18.5351 3.5647 0.0000 -3.8671 0.0000
# 2 18.5351 78.4021 9.3746 0.0000 -0.6762 0.0000
# 3 3.5647 9.3746 37.4412 0.0000 7.6511 0.0000
# 4 0.0000 0.0000 0.0000 151.6420 0.0000 34.5924
# 5 -3.8671 -0.6762 7.6511 0.0000 30.4321 0.0000
# 6 0.0000 0.0000 0.0000 34.5924 0.0000 16.6760
#
#
#
# Elastic Compliance Matrix: (Units=1/GPa)
#
#
# Indices 1 2 3 4 5 6 
#
# 1 0.013226 -0.003005 -0.000882 0.000000 0.001836 0.000000
# 2 -0.003005 0.013872 -0.003344 0.000000 0.000767 0.000000
# 3 -0.000882 -0.003344 0.029166 0.000000 -0.007519 0.000000
# 4 0.000000 0.000000 0.000000 0.012518 0.000000 -0.025967
# 5 0.001836 0.000767 -0.007519 0.000000 0.035001 0.000000
# 6 0.000000 0.000000 0.000000 -0.025967 0.000000 0.113833
#
#
# Mechanical properties :
#
#
# Convention : Reuss Voigt Hill
#
# Bulk Modulus (GPa) = 23.92247 28.82093 26.37170
# Shear Modulus (GPa) = 20.32427 50.74770 35.53599
#
# Velocity S-wave (km/s) = 3.33188 5.26491 4.40572
# Velocity P-wave (km/s) = 5.27909 7.25958 6.34705
#
# Compressibility (1/GPa) = 0.04180171
#
# Stress axis : x y z
#
# Youngs Moduli (GPa) = 75.61016 72.08914 34.28613
#
# Poissons Ratio (x) = 0.21666 0.03023
# Poissons Ratio (y) = 0.22724 0.11465
# Poissons Ratio (z) = 0.06667 0.24105
#
# Static dielectric constant tensor:
#      x y z
#    x 1.652430 0.000000 -0.044260 
#    y 0.000000 1.633810 0.000000 
#    z -0.044260 0.000000 1.693020 
# 
# From -- ./inp_files/70605.got.cif
#   From: 2010.05.17/outbox.cif.g08.bks.cpg/sg10_36_cif.got.tgz:70605.got - 2010.06.03 11:33:40.
