data_PCOD9149819
_publ_section_title
;
Structure prediction by ZEFSAII (Michael W. Deem and Ramdas Pophale) SiO2 
 PCOD9149819
Probable space group: P 2/M
;
_chemical_formula_sum "Si O2"
_cell_formula_units_Z 32
_cell_length_a 13.078011
_cell_length_b 8.930364
_cell_length_c 30.788833
_cell_angle_alpha 90.000000
_cell_angle_beta 152.736922
_cell_angle_gamma 90.000000
_cell_volume 1647.185111
_symmetry_space_group_name_H-M "P 2/M"
_symmetry_group_IT_number 10
_symmetry_cell_setting 'monoclinic'
loop_
_space_group_symop_operation_xyz
x,y,z
-x,y,-z
-x,-y,-z
x,-y,z
loop_
_atom_site_type_symbol
_atom_site_label
_atom_site_fract_x
_atom_site_fract_y
_atom_site_fract_z
Si Si1 0.296154 0.672987 0.452732
Si Si2 0.867013 0.822703 0.319140
Si Si3 0.624082 0.330341 0.653583
Si Si4 0.881416 0.675564 0.178492
Si Si5 0.446841 0.821241 0.876338
Si Si6 0.890570 0.321120 0.079127
Si Si7 0.821031 0.679604 0.395089
Si Si8 0.637384 0.824442 0.747297
O O1 0.500000 0.724549 0.500000
O O2 0.240892 0.500000 0.420103
O O3 0.407113 0.671748 0.542243
O O4 0.081840 0.775420 0.372238
O O5 0.655564 0.781729 0.209381
O O6 0.883086 0.737463 0.370739
O O7 0.864079 0.000000 0.325820
O O8 0.644940 0.500000 0.680655
O O9 0.612166 0.209098 0.686472
O O10 0.852697 0.308227 0.712962
O O11 0.823457 0.500000 0.161892
O O12 0.727419 0.769189 0.152291
O O13 0.855790 0.713867 0.117609
O O14 0.470978 0.000000 0.887499
O O15 0.680886 0.743029 0.974278
O O16 0.902438 0.500000 0.080068
O O17 0.123352 0.248874 0.151688
O O18 0.813363 0.500000 0.392599
O O19 0.576728 0.745872 0.312603
O O20 0.000000 0.725981 0.500000
O O21 0.637985 0.000000 0.756994
#
# Coordination Sequence:
#
# PCOD9149819 Si02
#       8
#     4   4   4   4   4   4   4   4
#     4  10  20  35  56  81 112 154 198 235 276 332
#     4  11  25  41  57  84 120 154 191 238 292 347
#     4   9  18  33  53  80 114 149 190 238 282 334
#     4   9  18  33  55  83 115 154 197 238 283 337
#     4  11  23  37  54  81 118 155 193 240 291 342
#     4  10  21  38  60  85 115 153 198 242 283 335
#     4  11  24  43  67  91 115 147 190 238 285 339
#     4  11  22  37  60  88 117 146 181 232 291 345
#
# _framework density 19.427081999999999
#
# number of rings (size 3 to 8) (size 9 to 14) (size 15 to 20)
#    0.000    1.750    0.000    5.250    0.000   11.750 
#    0.000    0.625    0.000    3.750    0.000    0.000 
#    0.000    0.000    0.000    0.000    0.000    0.000 
#
# Total GULP energy -178778.828008 kJ/mol
# GULP energy per Si atom -5586.838375 kJ/mol
# Density = 1.938286 g / cm^3
# Si number density = 19.427082 Si / 1000 Ang^3
#
#
#
# Elastic Constant Matrix: (Units=GPa)
#
#
# Indices 1 2 3 4 5 6 
#
# 1 79.5446 38.7469 44.4273 0.0000 8.7873 0.0000
# 2 38.7469 71.5893 53.2795 0.0000 -0.3896 0.0000
# 3 44.4273 53.2795 132.9699 0.0000 -0.8301 0.0000
# 4 0.0000 0.0000 0.0000 27.5996 0.0000 -0.7874
# 5 8.7873 -0.3896 -0.8301 0.0000 24.1381 0.0000
# 6 0.0000 0.0000 0.0000 -0.7874 0.0000 36.6484
#
#
#
# Elastic Compliance Matrix: (Units=1/GPa)
#
#
# Indices 1 2 3 4 5 6 
#
# 1 0.019031 -0.007942 -0.003221 0.000000 -0.007167 0.000000
# 2 -0.007942 0.023219 -0.006631 0.000000 0.003038 0.000000
# 3 -0.003221 -0.006631 0.011263 0.000000 0.001453 0.000000
# 4 0.000000 0.000000 0.000000 0.036255 0.000000 0.000779
# 5 -0.007167 0.003038 0.001453 0.000000 0.044136 0.000000
# 6 0.000000 0.000000 0.000000 0.000779 0.000000 0.027303
#
#
# Mechanical properties :
#
#
# Convention : Reuss Voigt Hill
#
# Bulk Modulus (GPa) = 55.79015 61.89013 58.84014
# Shear Modulus (GPa) = 24.65858 27.52056 26.08957
#
# Velocity S-wave (km/s) = 3.56657 3.76787 3.66860
# Velocity P-wave (km/s) = 6.76318 7.13133 6.94970
#
# Compressibility (1/GPa) = 0.01792431
#
# Stress axis : x y z
#
# Youngs Moduli (GPa) = 52.54596 43.06881 88.78894
#
# Poissons Ratio (x) = 0.34206 0.28598
# Poissons Ratio (y) = 0.41733 0.58875
# Poissons Ratio (z) = 0.16925 0.28558
#
# Static dielectric constant tensor:
#      x y z
#    x 1.703590 0.000000 -0.013680 
#    y 0.000000 1.652600 0.000000 
#    z -0.013680 0.000000 1.689790 
# 
# From -- ./inp_files/95011.got.cif
#   From: 2010.05.17/outbox.cif.g08.bks.cpg/sg10_48_cif.got.tgz:95011.got - 2010.06.03 11:33:40.
