data_PCOD9149389
_publ_section_title
;
Structure prediction by ZEFSAII (Michael W. Deem and Ramdas Pophale) SiO2 
 PCOD9149389
Probable space group: P 2/M
;
_chemical_formula_sum "Si O2"
_cell_formula_units_Z 24
_cell_length_a 7.476028
_cell_length_b 17.276079
_cell_length_c 7.431349
_cell_angle_alpha 90.000000
_cell_angle_beta 104.513318
_cell_angle_gamma 90.000000
_cell_volume 929.178666
_symmetry_space_group_name_H-M "P 2/M"
_symmetry_group_IT_number 10
_symmetry_cell_setting 'monoclinic'
loop_
_space_group_symop_operation_xyz
x,y,z
-x,y,-z
-x,-y,-z
x,-y,z
loop_
_atom_site_type_symbol
_atom_site_label
_atom_site_fract_x
_atom_site_fract_y
_atom_site_fract_z
Si Si1 0.721716 0.000000 0.020239
Si Si2 0.718321 0.667448 0.016558
Si Si3 0.277955 0.000000 0.410935
Si Si4 0.884982 0.500000 0.106987
Si Si5 0.716349 0.669135 0.591410
Si Si6 0.721661 0.166282 0.020254
Si Si7 0.850967 0.500000 0.546931
Si Si8 0.722455 0.833948 0.588905
O O1 0.748589 0.000000 0.811712
O O2 0.794045 0.083149 0.106836
O O3 0.500000 0.000000 0.000000
O O4 0.750930 0.669877 0.812049
O O5 0.792206 0.750484 0.107195
O O6 0.500000 0.666666 0.000000
O O7 0.795660 0.586487 0.101295
O O8 0.500000 0.000000 0.500000
O O9 0.209614 0.083006 0.464305
O O10 0.928548 0.500000 0.350568
O O11 0.886925 0.500000 0.867139
O O12 0.500000 0.673029 0.500000
O O13 0.770005 0.584357 0.537164
O O14 0.792593 0.750857 0.536519
O O15 0.748405 0.165980 0.811567
O O16 0.500000 0.166250 0.000000
O O17 0.500000 0.834279 0.500000
#
# Coordination Sequence:
#
# PCOD9149389 Si02
#       8
#     2   4   2   2   4   4   2   4
#     4   8  12  20  36  60  98 129 150 190 235 279
#     4  10  20  34  56  79 102 134 170 207 249 299
#     4   8  12  20  36  64  94 124 156 190 235 282
#     4  12  23  40  54  72 101 132 170 210 256 304
#     4  10  20  36  54  77 105 134 168 209 252 297
#     4   8  14  24  40  68  97 127 160 192 238 285
#     4  12  27  40  54  74  99 132 170 211 260 308
#     4   8  14  24  42  66  97 127 157 197 239 284
#
# _framework density 25.829262
#
# number of rings (size 3 to 8) (size 9 to 14) (size 15 to 20)
#    0.000    2.667    1.667    0.500    2.333    0.000 
#    0.000    0.000    0.000    0.000    0.000    2.333 
#    0.000    0.000    0.000    0.000    0.000    0.000 
#
# Total GULP energy -133761.331663 kJ/mol
# GULP energy per Si atom -5573.388819 kJ/mol
# Density = 2.577047 g / cm^3
# Si number density = 25.829262 Si / 1000 Ang^3
#
#
#
# Elastic Constant Matrix: (Units=GPa)
#
#
# Indices 1 2 3 4 5 6 
#
# 1 60.2018 66.0019 7.7007 0.0000 -5.8102 0.0000
# 2 66.0019 418.9282 74.3425 0.0000 -4.6312 0.0000
# 3 7.7007 74.3425 73.4653 0.0000 -8.2891 0.0000
# 4 0.0000 0.0000 0.0000 -48.7328 0.0000 -12.7097
# 5 -5.8102 -4.6312 -8.2891 0.0000 26.0415 0.0000
# 6 0.0000 0.0000 0.0000 -12.7097 0.0000 -88.3278
#
#
#
# Elastic Compliance Matrix: (Units=1/GPa)
#
#
# Indices 1 2 3 4 5 6 
#
# 1 0.020706 -0.003557 0.001949 0.000000 0.004608 0.000000
# 2 -0.003557 0.003525 -0.003333 0.000000 -0.001228 0.000000
# 3 0.001949 -0.003333 0.017387 0.000000 0.005377 0.000000
# 4 0.000000 0.000000 0.000000 -0.021320 0.000000 0.003068
# 5 0.004608 -0.001228 0.005377 0.000000 0.040921 0.000000
# 6 0.000000 0.000000 0.000000 0.003068 0.000000 -0.011763
#
#
# Mechanical properties :
#
#
# Convention : Reuss Voigt Hill
#
# Bulk Modulus (GPa) = 31.50985 94.29839 62.90412
# Shear Modulus (GPa) = 71.51231 4.76618 38.13925
#
# Velocity S-wave (km/s) = 5.26751 1.35988 3.84681
# Velocity P-wave (km/s) = 7.01579 6.24926 6.64359
#
# Compressibility (1/GPa) = 0.03173611
#
# Stress axis : x y z
#
# Youngs Moduli (GPa) = 48.29512 283.65609 57.51379
#
# Poissons Ratio (x) = 1.00901 -0.11210
# Poissons Ratio (y) = 0.17179 0.19170
# Poissons Ratio (z) = -0.09413 0.94546
#
# Static dielectric constant tensor:
#      x y z
#    x 2.202240 0.000000 -0.362510 
#    y 0.000000 2.039530 0.000000 
#    z -0.362510 0.000000 2.779740 
# 
# From -- ./inp_files/43163.got.cif
#   From: 2010.05.17/outbox.cif.g08.bks.cpg/sg10_22_cif.got.tgz:43163.got - 2010.06.03 11:33:40.
