data_PCOD9149243
_publ_section_title
;
Structure prediction by ZEFSAII (Michael W. Deem and Ramdas Pophale) SiO2 
 PCOD9149243
Probable space group: P 2/M
;
_chemical_formula_sum "Si O2"
_cell_formula_units_Z 32
_cell_length_a 31.398736
_cell_length_b 7.957072
_cell_length_c 12.202588
_cell_angle_alpha 90.000000
_cell_angle_beta 150.099102
_cell_angle_gamma 90.000000
_cell_volume 1519.790480
_symmetry_space_group_name_H-M "P 2/M"
_symmetry_group_IT_number 10
_symmetry_cell_setting 'monoclinic'
loop_
_space_group_symop_operation_xyz
x,y,z
-x,y,-z
-x,-y,-z
x,-y,z
loop_
_atom_site_type_symbol
_atom_site_label
_atom_site_fract_x
_atom_site_fract_y
_atom_site_fract_z
Si Si1 0.928831 0.801114 0.758435
Si Si2 0.500735 0.306985 0.299749
Si Si3 0.667204 0.298956 0.960599
Si Si4 0.742684 0.698083 0.363915
Si Si5 0.686751 0.806864 0.767097
Si Si6 0.957654 0.205044 0.576751
Si Si7 0.129513 0.205269 0.841924
Si Si8 0.570934 0.809433 0.080407
O O1 0.833560 0.778497 0.591767
O O2 0.933540 0.733350 0.644025
O O3 0.945844 0.000000 0.786264
O O4 0.000000 0.730513 0.000000
O O5 0.481586 0.500000 0.225122
O O6 0.434173 0.269240 0.248327
O O7 0.599434 0.288145 0.547066
O O8 0.473087 0.194469 0.136552
O O9 0.679704 0.500000 0.973393
O O10 0.698870 0.203359 0.925161
O O11 0.711944 0.245523 0.173717
O O12 0.755414 0.500000 0.386111
O O13 0.664454 0.732653 0.271592
O O14 0.674928 0.000000 0.706734
O O15 0.775256 0.737846 0.916202
O O16 0.054156 0.252018 0.757027
O O17 0.898740 0.261124 0.343354
O O18 0.953374 0.000000 0.566879
O O19 0.132305 0.000000 0.845734
O O20 0.584218 0.000000 0.148825
O O21 0.500000 0.725835 0.000000
#
# Coordination Sequence:
#
# PCOD9149243 Si02
#       8
#     4   4   4   4   4   4   4   4
#     4  10  20  34  54  82 111 140 181 234 285 328
#     4  10  21  36  52  73 108 147 179 215 264 329
#     4   9  19  34  51  72 101 141 181 218 267 324
#     4  10  21  37  58  82 110 146 184 222 271 337
#     4  11  20  29  47  79 110 138 177 225 272 321
#     4   8  14  29  50  70  99 136 175 221 271 323
#     4   8  15  27  46  72  99 134 176 218 269 322
#     4  10  21  39  62  85 107 136 180 234 277 318
#
# _framework density 21.055533
#
# number of rings (size 3 to 8) (size 9 to 14) (size 15 to 20)
#    0.000    2.500    0.000    4.125    0.000    6.750 
#    2.250    0.000    0.000    1.500    0.000    6.125 
#    0.000    0.000    0.000    0.000    0.000    0.000 
#
# Total GULP energy -178522.731751 kJ/mol
# GULP energy per Si atom -5578.835367 kJ/mol
# Density = 2.100761 g / cm^3
# Si number density = 21.055533 Si / 1000 Ang^3
#
#
#
# Elastic Constant Matrix: (Units=GPa)
#
#
# Indices 1 2 3 4 5 6 
#
# 1 77.6602 -3.3492 24.6178 0.0000 17.9300 0.0000
# 2 -3.3492 17.9897 -2.1665 0.0000 -2.1428 0.0000
# 3 24.6178 -2.1665 96.8882 0.0000 32.5583 0.0000
# 4 0.0000 0.0000 0.0000 0.2925 0.0000 -18.4524
# 5 17.9300 -2.1428 32.5583 0.0000 26.4747 0.0000
# 6 0.0000 0.0000 0.0000 -18.4524 0.0000 -6.3980
#
#
#
# Elastic Compliance Matrix: (Units=1/GPa)
#
#
# Indices 1 2 3 4 5 6 
#
# 1 0.015339 0.001653 -0.000706 0.000000 -0.009386 0.000000
# 2 0.001653 0.056319 -0.000539 0.000000 0.004102 0.000000
# 3 -0.000706 -0.000539 0.017627 0.000000 -0.021243 0.000000
# 4 0.000000 0.000000 0.000000 0.018688 0.000000 -0.053897
# 5 -0.009386 0.004102 -0.021243 0.000000 0.070584 0.000000
# 6 0.000000 0.000000 0.000000 -0.053897 0.000000 -0.000854
#
#
# Mechanical properties :
#
#
# Convention : Reuss Voigt Hill
#
# Bulk Modulus (GPa) = 11.09889 25.63802 18.36846
# Shear Modulus (GPa) = 24.16385 15.63626 19.90006
#
# Velocity S-wave (km/s) = 3.39134 2.72806 3.07762
# Velocity P-wave (km/s) = 4.54066 4.70382 4.62296
#
# Compressibility (1/GPa) = 0.09009908
#
# Stress axis : x y z
#
# Youngs Moduli (GPa) = 65.19431 17.75608 56.73114
#
# Poissons Ratio (x) = -0.02934 0.04008
# Poissons Ratio (y) = -0.10774 0.03058
# Poissons Ratio (z) = 0.04605 0.00957
#
# Static dielectric constant tensor:
#      x y z
#    x 1.774690 0.000000 0.013980 
#    y 0.000000 1.744760 0.000000 
#    z 0.013980 0.000000 1.757900 
# 
# From -- ./inp_files/58258.got.cif
#   From: 2010.05.17/outbox.cif.g08.bks.cpg/sg10_30_cif.got.tgz:58258.got - 2010.06.03 11:33:40.
