data_PCOD9149662
_publ_section_title
;
Structure prediction by ZEFSAII (Michael W. Deem and Ramdas Pophale) SiO2 
 PCOD9149662
Probable space group: P 2/M
;
_chemical_formula_sum "Si O2"
_cell_formula_units_Z 28
_cell_length_a 15.595918
_cell_length_b 11.531264
_cell_length_c 9.995563
_cell_angle_alpha 90.000000
_cell_angle_beta 114.950485
_cell_angle_gamma 90.000000
_cell_volume 1629.842530
_symmetry_space_group_name_H-M "P 2/M"
_symmetry_group_IT_number 10
_symmetry_cell_setting 'monoclinic'
loop_
_space_group_symop_operation_xyz
x,y,z
-x,y,-z
-x,-y,-z
x,-y,z
loop_
_atom_site_type_symbol
_atom_site_label
_atom_site_fract_x
_atom_site_fract_y
_atom_site_fract_z
Si Si1 0.467631 0.500000 0.131811
Si Si2 0.402867 0.750931 0.148471
Si Si3 0.331957 0.749426 0.400714
Si Si4 0.404919 0.500000 0.528332
Si Si5 0.132869 0.140005 0.205808
Si Si6 0.601837 0.862549 0.289055
Si Si7 0.742575 0.140150 0.152778
Si Si8 0.927468 0.860774 0.141284
O O1 0.407712 0.614769 0.121988
O O2 0.555916 0.500000 0.293924
O O3 0.500000 0.500000 0.000000
O O4 0.382619 0.767718 0.291788
O O5 0.505493 0.801767 0.180117
O O6 0.323147 0.813334 0.009481
O O7 0.347954 0.616405 0.455911
O O8 0.224099 0.790128 0.312197
O O9 0.378352 0.826816 0.546442
O O10 0.500000 0.500000 0.500000
O O11 0.036329 0.177581 0.217211
O O12 0.147071 0.000000 0.231896
O O13 0.112666 0.160456 0.034728
O O14 0.690492 0.825652 0.255353
O O15 0.590286 0.000000 0.268749
O O16 0.849726 0.181134 0.196206
O O17 0.743267 0.000000 0.148155
O O18 0.932882 0.000000 0.157203
#
# Coordination Sequence:
#
# PCOD9149662 Si02
#       8
#     2   4   4   2   4   4   4   4
#     4  12  24  40  60  79 102 147 199 229 262 318
#     4  12  22  36  56  78 109 147 187 225 264 327
#     4  12  22  36  56  78 111 145 184 227 273 332
#     4  12  22  42  54  76 112 149 186 227 272 315
#     4   9  17  31  55  86 108 138 187 230 273 327
#     4  11  23  34  49  80 117 147 178 222 274 335
#     4  10  20  35  54  81 114 147 180 223 281 326
#     4   8  15  31  55  80 110 141 181 232 272 321
#
# _framework density 17.179573999999999
#
# number of rings (size 3 to 8) (size 9 to 14) (size 15 to 20)
#    0.000    1.429    4.286    3.429    0.000    3.429 
#    0.000    0.714    0.000    6.000    0.000    1.000 
#    0.000    0.000    0.000    0.000    0.000    0.000 
#
# Total GULP energy -156249.918911 kJ/mol
# GULP energy per Si atom -5580.354247 kJ/mol
# Density = 1.714047 g / cm^3
# Si number density = 17.179574 Si / 1000 Ang^3
#
#
#
# Elastic Constant Matrix: (Units=GPa)
#
#
# Indices 1 2 3 4 5 6 
#
# 1 139.2465 33.2779 32.6377 0.0000 2.0131 0.0000
# 2 33.2779 40.8116 12.1048 0.0000 5.2011 0.0000
# 3 32.6377 12.1048 55.9241 0.0000 -9.0481 0.0000
# 4 0.0000 0.0000 0.0000 -23.6010 0.0000 -53.0623
# 5 2.0131 5.2011 -9.0481 0.0000 38.3232 0.0000
# 6 0.0000 0.0000 0.0000 -53.0623 0.0000 -60.8581
#
#
#
# Elastic Compliance Matrix: (Units=1/GPa)
#
#
# Indices 1 2 3 4 5 6 
#
# 1 0.009799 -0.006603 -0.004396 0.000000 -0.000657 0.000000
# 2 -0.006603 0.031622 -0.003774 0.000000 -0.004836 0.000000
# 3 -0.004396 -0.003774 0.022233 0.000000 0.005992 0.000000
# 4 0.000000 0.000000 0.000000 0.044123 0.000000 -0.038471
# 5 -0.000657 -0.004836 0.005992 0.000000 0.028199 0.000000
# 6 0.000000 0.000000 0.000000 -0.038471 0.000000 0.017111
#
#
# Mechanical properties :
#
#
# Convention : Reuss Voigt Hill
#
# Bulk Modulus (GPa) = 29.31692 43.55813 36.43753
# Shear Modulus (GPa) = 25.77279 1.30360 13.53820
#
# Velocity S-wave (km/s) = 3.87744 0.87204 2.81025
# Velocity P-wave (km/s) = 6.09493 5.14039 5.63789
#
# Compressibility (1/GPa) = 0.03410999
#
# Stress axis : x y z
#
# Youngs Moduli (GPa) = 102.04744 31.62315 44.97776
#
# Poissons Ratio (x) = 0.20880 0.19772
# Poissons Ratio (y) = 0.67381 0.16973
# Poissons Ratio (z) = 0.44860 0.11933
#
# Static dielectric constant tensor:
#      x y z
#    x 1.614610 0.000000 -0.016490 
#    y 0.000000 1.563770 0.000000 
#    z -0.016490 0.000000 1.579100 
# 
# From -- ./inp_files/28284.got.cif
#   From: 2010.05.17/outbox.cif.g08.bks.cpg/sg10_15_cif.got.tgz:28284.got - 2010.06.03 11:33:40.
