data_PCOD9149656
_publ_section_title
;
Structure prediction by ZEFSAII (Michael W. Deem and Ramdas Pophale) SiO2 
 PCOD9149656
Probable space group: P 2/M
;
_chemical_formula_sum "Si O2"
_cell_formula_units_Z 28
_cell_length_a 12.843007
_cell_length_b 8.750974
_cell_length_c 15.245199
_cell_angle_alpha 90.000000
_cell_angle_beta 105.234563
_cell_angle_gamma 90.000000
_cell_volume 1653.178250
_symmetry_space_group_name_H-M "P 2/M"
_symmetry_group_IT_number 10
_symmetry_cell_setting 'monoclinic'
loop_
_space_group_symop_operation_xyz
x,y,z
-x,y,-z
-x,-y,-z
x,-y,z
loop_
_atom_site_type_symbol
_atom_site_label
_atom_site_fract_x
_atom_site_fract_y
_atom_site_fract_z
Si Si1 0.288639 0.681599 0.769226
Si Si2 0.074520 0.316982 0.398580
Si Si3 0.094108 0.318126 0.200597
Si Si4 0.496615 0.816125 0.102691
Si Si5 0.846276 0.182449 0.410691
Si Si6 0.746774 0.183407 0.902640
Si Si7 0.137923 0.817257 0.887911
O O1 0.282327 0.500000 0.760041
O O2 0.406467 0.734876 0.825737
O O3 0.251114 0.758463 0.670379
O O4 0.205295 0.737990 0.825570
O O5 0.067918 0.500000 0.407602
O O6 0.107928 0.281902 0.306652
O O7 0.151289 0.247824 0.490277
O O8 0.956340 0.246613 0.390894
O O9 0.079055 0.500000 0.189466
O O10 0.193631 0.264232 0.164038
O O11 0.985451 0.235773 0.143602
O O12 0.378791 0.776894 0.113688
O O13 0.511377 0.000000 0.112080
O O14 0.500000 0.777362 0.000000
O O15 0.850396 0.000000 0.412840
O O16 0.754287 0.000000 0.893369
O O17 0.808411 0.221581 0.006911
O O18 0.144920 0.000000 0.877742
#
# Coordination Sequence:
#
# PCOD9149656 Si02
#       7
#     4   4   4   4   4   4   4
#     4  12  23  35  55  84 116 147 181 230 286 332
#     4  10  20  35  54  80 115 147 178 227 280 330
#     4  11  23  36  54  82 117 152 183 225 279 333
#     4  10  20  39  60  80 108 146 191 234 275 323
#     4  11  21  34  56  83 109 145 185 227 275 333
#     4  10  22  38  57  79 109 151 192 231 272 323
#     4  11  21  36  56  80 111 151 191 228 273 329
#
# _framework density 16.937073000000002
#
# number of rings (size 3 to 8) (size 9 to 14) (size 15 to 20)
#    0.000    1.286    2.857    5.143    0.000    5.429 
#    0.000    0.000    0.000    0.857    0.000    6.000 
#    0.000    0.000    0.000    0.000    0.000    0.000 
#
# Total GULP energy -156490.445733 kJ/mol
# GULP energy per Si atom -5588.944490 kJ/mol
# Density = 1.689852 g / cm^3
# Si number density = 16.937073 Si / 1000 Ang^3
#
#
#
# Elastic Constant Matrix: (Units=GPa)
#
#
# Indices 1 2 3 4 5 6 
#
# 1 93.5210 40.7542 47.9694 0.0000 5.2113 0.0000
# 2 40.7542 85.2869 54.9822 0.0000 5.7632 0.0000
# 3 47.9694 54.9822 107.1045 0.0000 19.1871 0.0000
# 4 0.0000 0.0000 0.0000 70.5595 0.0000 41.8650
# 5 5.2113 5.7632 19.1871 0.0000 19.2580 0.0000
# 6 0.0000 0.0000 0.0000 41.8650 0.0000 73.4167
#
#
#
# Elastic Compliance Matrix: (Units=1/GPa)
#
#
# Indices 1 2 3 4 5 6 
#
# 1 0.014890 -0.004056 -0.004969 0.000000 0.002136 0.000000
# 2 -0.004056 0.018960 -0.008639 0.000000 0.004030 0.000000
# 3 -0.004969 -0.008639 0.018615 0.000000 -0.014617 0.000000
# 4 0.000000 0.000000 0.000000 0.021419 0.000000 -0.012214
# 5 0.002136 0.004030 -0.014617 0.000000 0.064706 0.000000
# 6 0.000000 0.000000 0.000000 -0.012214 0.000000 0.020586
#
#
# Mechanical properties :
#
#
# Convention : Reuss Voigt Hill
#
# Bulk Modulus (GPa) = 58.35028 63.70267 61.02648
# Shear Modulus (GPa) = 24.97291 42.12729 33.55010
#
# Velocity S-wave (km/s) = 3.84403 4.99268 4.45552
# Velocity P-wave (km/s) = 7.36397 8.42192 7.91065
#
# Compressibility (1/GPa) = 0.01713788
#
# Stress axis : x y z
#
# Youngs Moduli (GPa) = 67.15838 52.74270 53.71868
#
# Poissons Ratio (x) = 0.21392 0.26695
# Poissons Ratio (y) = 0.27239 0.46405
# Poissons Ratio (z) = 0.33374 0.45562
#
# Static dielectric constant tensor:
#      x y z
#    x 1.542570 0.000000 0.001870 
#    y 0.000000 1.566680 0.000000 
#    z 0.001870 0.000000 1.573360 
# 
# From -- ./inp_files/49084.got.cif
#   From: 2010.05.17/outbox.cif.g08.bks.cpg/sg10_25_cif.got.tgz:49084.got - 2010.06.03 11:33:40.
