data_PCOD9149503
_publ_section_title
;
Structure prediction by ZEFSAII (Michael W. Deem and Ramdas Pophale) SiO2 
 PCOD9149503
Probable space group: P 2/M
;
_chemical_formula_sum "Si O2"
_cell_formula_units_Z 24
_cell_length_a 10.971189
_cell_length_b 12.135425
_cell_length_c 24.244765
_cell_angle_alpha 90.000000
_cell_angle_beta 23.679207
_cell_angle_gamma 90.000000
_cell_volume 1296.394197
_symmetry_space_group_name_H-M "P 2/M"
_symmetry_group_IT_number 10
_symmetry_cell_setting 'monoclinic'
loop_
_space_group_symop_operation_xyz
x,y,z
-x,y,-z
-x,-y,-z
x,-y,z
loop_
_atom_site_type_symbol
_atom_site_label
_atom_site_fract_x
_atom_site_fract_y
_atom_site_fract_z
Si Si1 0.907267 0.622208 0.475871
Si Si2 0.801117 0.786311 0.718543
Si Si3 0.120920 0.000000 0.385689
Si Si4 0.859942 0.371521 0.336966
Si Si5 0.812941 0.000000 0.133951
Si Si6 0.780355 0.631126 0.243289
Si Si7 0.908724 0.220513 0.973630
O O1 0.889799 0.500000 0.458115
O O2 0.570124 0.672433 0.611761
O O3 0.000000 0.613534 0.500000
O O4 0.168511 0.691800 0.339699
O O5 0.981708 0.725730 0.693474
O O6 0.934563 0.893712 0.631178
O O7 0.450433 0.803334 0.879278
O O8 0.000000 0.000000 0.500000
O O9 0.474161 0.000000 0.253806
O O10 0.500000 0.369404 0.500000
O O11 0.960829 0.500000 0.305189
O O12 0.902367 0.350208 0.254356
O O13 0.909326 0.887537 0.122540
O O14 0.000000 0.000000 0.000000
O O15 0.762559 0.500000 0.241421
O O16 0.983305 0.683806 0.111651
O O17 0.000000 0.241395 0.000000
#
# Coordination Sequence:
#
# PCOD9149503 Si02
#       7
#     4   4   2   4   2   4   4
#     4  10  20  34  57  89 122 155 202 261 317 374
#     4  12  22  38  63  91 120 165 215 255 310 379
#     4  12  26  40  66  99 126 162 214 273 320 380
#     4  10  21  41  66  88 124 175 216 261 315 371
#     4  10  20  44  61  83 127 167 197 245 329 389
#     4  10  22  39  60  91 128 167 210 258 319 379
#     4  11  22  39  64  90 127 167 206 262 319 389
#
# _framework density 18.512888
#
# number of rings (size 3 to 8) (size 9 to 14) (size 15 to 20)
#    0.000    1.333    5.000    2.000    2.333    2.333 
#    0.000    2.917    0.000    2.000    0.000    0.000 
#    0.000    0.000    0.000    0.000    0.000    0.000 
#
# Total GULP energy -133658.171554 kJ/mol
# GULP energy per Si atom -5569.090481 kJ/mol
# Density = 1.847075 g / cm^3
# Si number density = 18.512888 Si / 1000 Ang^3
#
#
#
# Elastic Constant Matrix: (Units=GPa)
#
#
# Indices 1 2 3 4 5 6 
#
# 1 115.4191 48.0514 27.3155 0.0000 7.1004 0.0000
# 2 48.0514 96.9614 26.0299 0.0000 3.9533 0.0000
# 3 27.3155 26.0299 45.9285 0.0000 2.4596 0.0000
# 4 0.0000 0.0000 0.0000 22.7638 0.0000 1.3403
# 5 7.1004 3.9533 2.4596 0.0000 29.1366 0.0000
# 6 0.0000 0.0000 0.0000 1.3403 0.0000 31.8032
#
#
#
# Elastic Compliance Matrix: (Units=1/GPa)
#
#
# Indices 1 2 3 4 5 6 
#
# 1 0.011692 -0.004574 -0.004261 0.000000 -0.001869 0.000000
# 2 -0.004574 0.013987 -0.005188 0.000000 -0.000345 0.000000
# 3 -0.004261 -0.005188 0.027278 0.000000 -0.000560 0.000000
# 4 0.000000 0.000000 0.000000 0.044039 0.000000 -0.001856
# 5 -0.001869 -0.000345 -0.000560 0.000000 0.034871 0.000000
# 6 0.000000 0.000000 0.000000 -0.001856 0.000000 0.031522
#
#
# Mechanical properties :
#
#
# Convention : Reuss Voigt Hill
#
# Bulk Modulus (GPa) = 40.14516 51.23360 45.68938
# Shear Modulus (GPa) = 25.03286 27.20154 26.11720
#
# Velocity S-wave (km/s) = 3.68120 3.83734 3.76008
# Velocity P-wave (km/s) = 6.30875 6.88246 6.60184
#
# Compressibility (1/GPa) = 0.02490961
#
# Stress axis : x y z
#
# Youngs Moduli (GPa) = 85.53039 71.49479 36.65996
#
# Poissons Ratio (x) = 0.32702 0.15621
# Poissons Ratio (y) = 0.39121 0.19020
# Poissons Ratio (z) = 0.36446 0.37094
#
# Static dielectric constant tensor:
#      x y z
#    x 1.663150 0.000000 -0.010130 
#    y 0.000000 1.721100 0.000000 
#    z -0.010130 0.000000 1.629670 
# 
# From -- ./inp_files/92833.got.cif
#   From: 2010.05.17/outbox.cif.g08.bks.cpg/sg10_47_cif.got.tgz:92833.got - 2010.06.03 11:33:40.
