data_PCOD9149509
_publ_section_title
;
Structure prediction by ZEFSAII (Michael W. Deem and Ramdas Pophale) SiO2 
 PCOD9149509
Probable space group: P 2/M
;
_chemical_formula_sum "Si O2"
_cell_formula_units_Z 22
_cell_length_a 14.600857
_cell_length_b 12.164096
_cell_length_c 7.310236
_cell_angle_alpha 90.000000
_cell_angle_beta 111.862078
_cell_angle_gamma 90.000000
_cell_volume 1204.970358
_symmetry_space_group_name_H-M "P 2/M"
_symmetry_group_IT_number 10
_symmetry_cell_setting 'monoclinic'
loop_
_space_group_symop_operation_xyz
x,y,z
-x,y,-z
-x,-y,-z
x,-y,z
loop_
_atom_site_type_symbol
_atom_site_label
_atom_site_fract_x
_atom_site_fract_y
_atom_site_fract_z
Si Si1 0.913721 0.624598 0.227013
Si Si2 0.637913 0.500000 0.260987
Si Si3 0.199270 0.672538 0.509189
Si Si4 0.000000 0.208860 0.000000
Si Si5 0.578233 0.500000 0.791098
Si Si6 0.739065 0.333182 0.833541
Si Si7 0.794193 0.126130 0.707125
O O1 0.949399 0.500000 0.229028
O O2 0.890756 0.647265 0.423317
O O3 0.972630 0.713896 0.152742
O O4 0.804020 0.634093 0.054576
O O5 0.705530 0.606373 0.349757
O O6 0.539157 0.500000 0.310163
O O7 0.603859 0.500000 0.026257
O O8 0.194326 0.633647 0.293875
O O9 0.210975 0.803483 0.485626
O O10 0.905295 0.138900 0.868912
O O11 0.636078 0.395046 0.755061
O O12 0.730379 0.202277 0.798051
O O13 0.766652 0.000000 0.670894
#
# Coordination Sequence:
#
# PCOD9149509 Si02
#       7
#     4   2   4   2   2   4   4
#     4  11  19  35  52  83 120 143 177 229 284 343
#     4  11  21  33  61  93 119 143 175 224 277 347
#     4  10  20  34  58  80 115 145 183 219 288 331
#     4  10  22  36  58  80 108 151 193 238 280 312
#     4  11  19  35  61  93 119 140 176 228 274 343
#     4   9  19  33  59  78 116 143 179 220 287 327
#     4   9  21  39  57  78 109 147 199 238 267 320
#
# _framework density 18.257712000000001
#
# number of rings (size 3 to 8) (size 9 to 14) (size 15 to 20)
#    1.091    0.909    3.636    1.091    0.000    2.182 
#    1.636    6.364    0.000    2.182    0.000    2.545 
#    0.000    0.000    0.000    0.000    0.000    0.000 
#
# Total GULP energy -122497.269854 kJ/mol
# GULP energy per Si atom -5568.057721 kJ/mol
# Density = 1.821616 g / cm^3
# Si number density = 18.257712 Si / 1000 Ang^3
#
#
#
# Elastic Constant Matrix: (Units=GPa)
#
#
# Indices 1 2 3 4 5 6 
#
# 1 108.1831 37.6048 13.7518 0.0000 -6.8650 0.0000
# 2 37.6048 156.0922 16.8047 0.0000 1.3401 0.0000
# 3 13.7518 16.8047 67.4497 0.0000 -8.7999 0.0000
# 4 0.0000 0.0000 0.0000 4.1895 0.0000 6.6869
# 5 -6.8650 1.3401 -8.7999 0.0000 29.0284 0.0000
# 6 0.0000 0.0000 0.0000 6.6869 0.0000 5.9519
#
#
#
# Elastic Compliance Matrix: (Units=1/GPa)
#
#
# Indices 1 2 3 4 5 6 
#
# 1 0.010368 -0.002384 -0.001235 0.000000 0.002188 0.000000
# 2 -0.002384 0.007151 -0.001470 0.000000 -0.001340 0.000000
# 3 -0.001235 -0.001470 0.016049 0.000000 0.004641 0.000000
# 4 0.000000 0.000000 0.000000 -0.300918 0.000000 0.338078
# 5 0.002188 -0.001340 0.004641 0.000000 0.036435 0.000000
# 6 0.000000 0.000000 0.000000 0.338078 0.000000 -0.211813
#
#
# Mechanical properties :
#
#
# Convention : Reuss Voigt Hill
#
# Bulk Modulus (GPa) = 42.75168 52.00527 47.37848
# Shear Modulus (GPa) = -11.77150 25.40488 6.81669
#
# Velocity S-wave (km/s) = -2.54193 3.73428 1.93435
# Velocity P-wave (km/s) = 3.85374 6.86578 5.56733
#
# Compressibility (1/GPa) = 0.02339089
#
# Stress axis : x y z
#
# Youngs Moduli (GPa) = 96.45143 139.85008 62.30763
#
# Poissons Ratio (x) = 0.33335 0.07692
# Poissons Ratio (y) = 0.22991 0.09161
# Poissons Ratio (z) = 0.11907 0.20562
#
# Static dielectric constant tensor:
#      x y z
#    x 1.652160 0.000000 -0.001060 
#    y 0.000000 1.638260 0.000000 
#    z -0.001060 0.000000 1.677750 
# 
# From -- ./inp_files/27591.got.cif
#   From: 2010.05.17/outbox.cif.g08.bks.cpg/sg10_14_cif.got.tgz:27591.got - 2010.06.03 11:33:40.
