data_PCOD9149894
_publ_section_title
;
Structure prediction by ZEFSAII (Michael W. Deem and Ramdas Pophale) SiO2 
 PCOD9149894
Probable space group: P 2/M
;
_chemical_formula_sum "Si O2"
_cell_formula_units_Z 28
_cell_length_a 9.656672
_cell_length_b 7.541495
_cell_length_c 30.775751
_cell_angle_alpha 90.000000
_cell_angle_beta 36.524267
_cell_angle_gamma 90.000000
_cell_volume 1333.919607
_symmetry_space_group_name_H-M "P 2/M"
_symmetry_group_IT_number 10
_symmetry_cell_setting 'monoclinic'
loop_
_space_group_symop_operation_xyz
x,y,z
-x,y,-z
-x,-y,-z
x,-y,z
loop_
_atom_site_type_symbol
_atom_site_label
_atom_site_fract_x
_atom_site_fract_y
_atom_site_fract_z
Si Si1 0.048716 0.296716 0.440489
Si Si2 0.979168 0.714261 0.141040
Si Si3 0.068944 0.709903 0.706786
Si Si4 0.230633 0.282570 0.572412
Si Si5 0.857281 0.717088 0.993953
Si Si6 0.676706 0.716829 0.870046
Si Si7 0.571645 0.794696 0.308114
O O1 0.961684 0.500000 0.465303
O O2 0.325176 0.297576 0.364089
O O3 0.000000 0.214076 0.500000
O O4 0.916381 0.220486 0.432160
O O5 0.977049 0.500000 0.141452
O O6 0.742040 0.771387 0.224087
O O7 0.024504 0.774937 0.080812
O O8 0.189985 0.769750 0.119562
O O9 0.032292 0.500000 0.711026
O O10 0.128165 0.780736 0.644306
O O11 0.282730 0.732263 0.686522
O O12 0.839380 0.779217 0.789280
O O13 0.500000 0.232245 0.500000
O O14 0.223148 0.500000 0.575259
O O15 0.856509 0.500000 0.993748
O O16 0.589062 0.774273 0.063966
O O17 0.000000 0.773989 0.000000
O O18 0.676563 0.500000 0.869401
O O19 0.520545 0.000000 0.327173
#
# Coordination Sequence:
#
# PCOD9149894 Si02
#       7
#     4   4   4   4   4   4   4
#     4  10  20  35  57  82 107 135 168 208 255 307
#     4   9  17  31  51  71  96 131 168 207 255 308
#     4   9  17  32  54  76 100 132 172 216 259 303
#     4   9  17  30  52  81 106 130 165 208 251 298
#     4   9  16  25  43  74 103 124 157 211 264 305
#     4   8  14  25  43  68  95 124 158 199 249 299
#     4  11  22  35  52  75 105 138 174 213 253 302
#
# _framework density 20.990770999999999
#
# number of rings (size 3 to 8) (size 9 to 14) (size 15 to 20)
#    0.000    2.714    0.000    3.429    0.000    5.429 
#    0.000    5.000    0.000    9.000    0.000    0.000 
#    0.000    0.000    0.000    0.000    0.000    0.000 
#
# Total GULP energy -156316.006651 kJ/mol
# GULP energy per Si atom -5582.714523 kJ/mol
# Density = 2.094300 g / cm^3
# Si number density = 20.990771 Si / 1000 Ang^3
#
#
#
# Elastic Constant Matrix: (Units=GPa)
#
#
# Indices 1 2 3 4 5 6 
#
# 1 162.7746 -7.8881 129.6936 0.0000 20.9633 0.0000
# 2 -7.8881 43.1267 0.4978 0.0000 5.1223 0.0000
# 3 129.6936 0.4978 152.3024 0.0000 21.7085 0.0000
# 4 0.0000 0.0000 0.0000 -44.3707 0.0000 7.1043
# 5 20.9633 5.1223 21.7085 0.0000 41.5121 0.0000
# 6 0.0000 0.0000 0.0000 7.1043 0.0000 -20.0927
#
#
#
# Elastic Compliance Matrix: (Units=1/GPa)
#
#
# Indices 1 2 3 4 5 6 
#
# 1 0.019835 0.004035 -0.016646 0.000000 -0.001810 0.000000
# 2 0.004035 0.024372 -0.003022 0.000000 -0.003465 0.000000
# 3 -0.016646 -0.003022 0.021069 0.000000 -0.002239 0.000000
# 4 0.000000 0.000000 0.000000 -0.023890 0.000000 -0.008447
# 5 -0.001810 -0.003465 -0.002239 0.000000 0.026602 0.000000
# 6 0.000000 0.000000 0.000000 -0.008447 0.000000 -0.052756
#
#
# Mechanical properties :
#
#
# Convention : Reuss Voigt Hill
#
# Bulk Modulus (GPa) = 29.40193 66.97891 48.19042
# Shear Modulus (GPa) = 86.45438 11.13643 48.79541
#
# Velocity S-wave (km/s) = 6.42466 2.30584 4.82665
# Velocity P-wave (km/s) = 8.31099 6.25038 7.35322
#
# Compressibility (1/GPa) = 0.03401137
#
# Stress axis : x y z
#
# Youngs Moduli (GPa) = 50.41681 41.03082 47.46198
#
# Poissons Ratio (x) = -0.16556 0.79003
# Poissons Ratio (y) = -0.20343 0.14342
# Poissons Ratio (z) = 0.83921 0.12399
#
# Static dielectric constant tensor:
#      x y z
#    x 1.722750 0.000000 0.015130 
#    y 0.000000 1.781750 0.000000 
#    z 0.015130 0.000000 1.733300 
# 
# From -- ./inp_files/37935.got.cif
#   From: 2010.05.17/outbox.cif.g08.bks.cpg/sg10_19_cif.got.tgz:37935.got - 2010.06.03 11:33:40.
