data_PCOD9149817
_publ_section_title
;
Structure prediction by ZEFSAII (Michael W. Deem and Ramdas Pophale) SiO2 
 PCOD9149817
Probable space group: P 2/M
;
_chemical_formula_sum "Si O2"
_cell_formula_units_Z 28
_cell_length_a 18.850860
_cell_length_b 8.951598
_cell_length_c 15.493434
_cell_angle_alpha 90.000000
_cell_angle_beta 141.594865
_cell_angle_gamma 90.000000
_cell_volume 1624.140014
_symmetry_space_group_name_H-M "P 2/M"
_symmetry_group_IT_number 10
_symmetry_cell_setting 'monoclinic'
loop_
_space_group_symop_operation_xyz
x,y,z
-x,y,-z
-x,-y,-z
x,-y,z
loop_
_atom_site_type_symbol
_atom_site_label
_atom_site_fract_x
_atom_site_fract_y
_atom_site_fract_z
Si Si1 0.657726 0.820470 0.322233
Si Si2 0.592246 0.322823 0.895445
Si Si3 0.363772 0.170914 0.889194
Si Si4 0.997735 0.178924 0.896400
Si Si5 0.257455 0.822889 0.110180
Si Si6 0.633994 0.676992 0.621468
Si Si7 0.217159 0.677398 0.402424
O O1 0.533692 0.750967 0.225650
O O2 0.688030 0.780365 0.251817
O O3 0.747726 0.760308 0.476790
O O4 0.648381 0.000000 0.316589
O O5 0.579817 0.500000 0.878976
O O6 0.667650 0.262633 0.888811
O O7 0.650547 0.273339 0.041253
O O8 0.329364 0.000000 0.876245
O O9 0.500000 0.168321 0.000000
O O10 0.898738 0.262482 0.750688
O O11 0.977169 0.000000 0.873562
O O12 0.000000 0.221854 0.000000
O O13 0.122624 0.209498 0.976489
O O14 0.298963 0.771956 0.244042
O O15 0.273875 0.000000 0.115648
O O16 0.500000 0.709750 0.500000
O O17 0.650105 0.500000 0.655145
O O18 0.683854 0.705848 0.574274
O O19 0.210627 0.500000 0.410482
#
# Coordination Sequence:
#
# PCOD9149817 Si02
#       7
#     4   4   4   4   4   4   4
#     4  10  20  35  56  81 112 146 181 220 262 318
#     4  11  21  33  53  82 115 144 175 220 272 325
#     4   8  16  32  53  78 108 143 180 216 259 317
#     4  10  21  39  58  76 101 139 189 232 267 316
#     4  11  22  36  56  77 102 141 184 226 267 316
#     4  10  21  35  50  74 109 142 171 213 268 322
#     4  11  22  34  54  81 110 143 178 223 273 320
#
# _framework density 17.239892999999999
#
# number of rings (size 3 to 8) (size 9 to 14) (size 15 to 20)
#    0.000    1.857    1.429    4.286    0.000    6.571 
#    0.000    0.000    0.000    0.857    0.000    6.000 
#    0.000    0.000    0.000    0.000    0.000    0.000 
#
# Total GULP energy -156324.734866 kJ/mol
# GULP energy per Si atom -5583.026245 kJ/mol
# Density = 1.720065 g / cm^3
# Si number density = 17.239893 Si / 1000 Ang^3
#
#
#
# Elastic Constant Matrix: (Units=GPa)
#
#
# Indices 1 2 3 4 5 6 
#
# 1 12.0041 12.7430 14.4796 0.0000 -12.0105 0.0000
# 2 12.7430 53.6649 38.1667 0.0000 -8.1408 0.0000
# 3 14.4796 38.1667 106.4623 0.0000 -18.0704 0.0000
# 4 0.0000 0.0000 0.0000 -185.2290 0.0000 26.4483
# 5 -12.0105 -8.1408 -18.0704 0.0000 28.2112 0.0000
# 6 0.0000 0.0000 0.0000 26.4483 0.0000 18.9331
#
#
#
# Elastic Compliance Matrix: (Units=1/GPa)
#
#
# Indices 1 2 3 4 5 6 
#
# 1 0.192149 -0.033351 -0.002161 0.000000 0.070797 0.000000
# 2 -0.033351 0.030869 -0.008335 0.000000 -0.010630 0.000000
# 3 -0.002161 -0.008335 0.013588 0.000000 0.005379 0.000000
# 4 0.000000 0.000000 0.000000 -0.004501 0.000000 0.006288
# 5 0.070797 -0.010630 0.005379 0.000000 0.065966 0.000000
# 6 0.000000 0.000000 0.000000 0.006288 0.000000 0.044034
#
#
# Mechanical properties :
#
#
# Convention : Reuss Voigt Hill
#
# Bulk Modulus (GPa) = 6.71531 33.65665 20.18598
# Shear Modulus (GPa) = 10.42897 -20.50081 -5.03592
#
# Velocity S-wave (km/s) = 2.46221 -3.45215 -1.71097
# Velocity P-wave (km/s) = 3.46222 1.91707 2.79840
#
# Compressibility (1/GPa) = 0.14891338
#
# Stress axis : x y z
#
# Youngs Moduli (GPa) = 5.20430 32.39528 73.59556
#
# Poissons Ratio (x) = 1.08040 0.15901
# Poissons Ratio (y) = 0.17357 0.61340
# Poissons Ratio (z) = 0.01124 0.27001
#
# Static dielectric constant tensor:
#      x y z
#    x 1.572010 0.000000 -0.015520 
#    y 0.000000 1.575010 0.000000 
#    z -0.015520 0.000000 1.578600 
# 
# From -- ./inp_files/68577.got.cif
#   From: 2010.05.17/outbox.cif.g08.bks.cpg/sg10_35_cif.got.tgz:68577.got - 2010.06.03 11:33:40.
