data_PCOD9149847
_publ_section_title
;
Structure prediction by ZEFSAII (Michael W. Deem and Ramdas Pophale) SiO2 
 PCOD9149847
Probable space group: P 2/M
;
_chemical_formula_sum "Si O2"
_cell_formula_units_Z 32
_cell_length_a 32.224760
_cell_length_b 8.114153
_cell_length_c 12.939305
_cell_angle_alpha 90.000000
_cell_angle_beta 26.706568
_cell_angle_gamma 90.000000
_cell_volume 1520.539084
_symmetry_space_group_name_H-M "P 2/M"
_symmetry_group_IT_number 10
_symmetry_cell_setting 'monoclinic'
loop_
_space_group_symop_operation_xyz
x,y,z
-x,y,-z
-x,-y,-z
x,-y,z
loop_
_atom_site_type_symbol
_atom_site_label
_atom_site_fract_x
_atom_site_fract_y
_atom_site_fract_z
Si Si1 0.917684 0.804244 0.369475
Si Si2 0.128079 0.689194 0.308907
Si Si3 0.180316 0.699743 0.973176
Si Si4 0.584187 0.695973 0.071577
Si Si5 0.884135 0.802247 0.108202
Si Si6 0.241991 0.800504 0.424617
Si Si7 0.328464 0.190264 0.909319
Si Si8 0.612316 0.300962 0.433873
O O1 0.919526 0.773547 0.487825
O O2 0.824558 0.742720 0.521699
O O3 0.916683 0.000000 0.355457
O O4 0.011453 0.738264 0.109715
O O5 0.097286 0.500000 0.376240
O O6 0.124319 0.756164 0.200153
O O7 0.237397 0.700606 0.092799
O O8 0.177418 0.500000 0.981084
O O9 0.143475 0.762095 0.946998
O O10 0.287577 0.751510 0.746984
O O11 0.585424 0.500000 0.082449
O O12 0.654588 0.740412 0.824153
O O13 0.625162 0.774301 0.084846
O O14 0.477257 0.747870 0.301071
O O15 0.809331 0.742672 0.357450
O O16 0.887561 0.000000 0.113086
O O17 0.245168 0.000000 0.416639
O O18 0.394956 0.228977 0.665356
O O19 0.298415 0.000000 0.973006
O O20 0.614121 0.500000 0.422508
#
# Coordination Sequence:
#
# PCOD9149847 Si02
#       8
#     4   4   4   4   4   4   4   4
#     4  10  20  36  59  85 113 145 182 228 285 341
#     4  10  20  35  56  83 116 150 184 227 278 330
#     4   9  20  39  58  78 110 150 190 229 272 326
#     4  11  21  34  55  82 112 146 185 228 276 331
#     4  10  22  39  59  82 109 147 190 233 282 333
#     4  10  21  38  58  82 114 147 184 231 282 333
#     4  11  20  31  51  82 117 149 181 222 276 333
#     4   9  20  37  55  78 111 150 187 226 274 328
#
# _framework density 21.045166999999999
#
# number of rings (size 3 to 8) (size 9 to 14) (size 15 to 20)
#    0.000    2.000    1.250    3.375    0.000    8.000 
#    0.000    3.125    0.000    6.000    0.000    0.000 
#    0.000    0.000    0.000    0.000    0.000    0.000 
#
# Total GULP energy -178680.551964 kJ/mol
# GULP energy per Si atom -5583.767249 kJ/mol
# Density = 2.099727 g / cm^3
# Si number density = 21.045167 Si / 1000 Ang^3
#
#
#
# Elastic Constant Matrix: (Units=GPa)
#
#
# Indices 1 2 3 4 5 6 
#
# 1 44.6266 -1.8626 16.8816 0.0000 13.5412 0.0000
# 2 -1.8626 13.9032 -2.6657 0.0000 -1.4471 0.0000
# 3 16.8816 -2.6657 124.3346 0.0000 12.2499 0.0000
# 4 0.0000 0.0000 0.0000 494.1331 0.0000 -106.9383
# 5 13.5412 -1.4471 12.2499 0.0000 23.2723 0.0000
# 6 0.0000 0.0000 0.0000 -106.9383 0.0000 53.1228
#
#
#
# Elastic Compliance Matrix: (Units=1/GPa)
#
#
# Indices 1 2 3 4 5 6 
#
# 1 0.027866 0.001745 -0.002277 0.000000 -0.014907 0.000000
# 2 0.001745 0.072665 0.001029 0.000000 0.002961 0.000000
# 3 -0.002277 0.001029 0.008688 0.000000 -0.003184 0.000000
# 4 0.000000 0.000000 0.000000 0.003586 0.000000 0.007219
# 5 -0.014907 0.002961 -0.003184 0.000000 0.053503 0.000000
# 6 0.000000 0.000000 0.000000 0.007219 0.000000 0.033356
#
#
# Mechanical properties :
#
#
# Convention : Reuss Voigt Hill
#
# Bulk Modulus (GPa) = 9.07340 23.06344 16.06842
# Shear Modulus (GPa) = 21.23973 125.47304 73.35639
#
# Velocity S-wave (km/s) = 3.18031 7.72983 5.91036
# Velocity P-wave (km/s) = 4.21978 9.52102 7.36398
#
# Compressibility (1/GPa) = 0.11021223
#
# Stress axis : x y z
#
# Youngs Moduli (GPa) = 35.88642 13.76173 115.10415
#
# Poissons Ratio (x) = -0.02401 0.26214
# Poissons Ratio (y) = -0.06262 -0.11847
# Poissons Ratio (z) = 0.08173 -0.01416
#
# Static dielectric constant tensor:
#      x y z
#    x 1.734960 0.000000 -0.005640 
#    y 0.000000 1.756010 0.000000 
#    z -0.005640 0.000000 1.805870 
# 
# From -- ./inp_files/58117.got.cif
#   From: 2010.05.17/outbox.cif.g08.bks.cpg/sg10_30_cif.got.tgz:58117.got - 2010.06.03 11:33:40.
