data_PCOD9149154
_publ_section_title
;
Structure prediction by ZEFSAII (Michael W. Deem and Ramdas Pophale) SiO2 
 PCOD9149154
Probable space group: P 2/M
;
_chemical_formula_sum "Si O2"
_cell_formula_units_Z 32
_cell_length_a 8.626727
_cell_length_b 14.043277
_cell_length_c 25.256860
_cell_angle_alpha 90.000000
_cell_angle_beta 32.341405
_cell_angle_gamma 90.000000
_cell_volume 1636.883055
_symmetry_space_group_name_H-M "P 2/M"
_symmetry_group_IT_number 10
_symmetry_cell_setting 'monoclinic'
loop_
_space_group_symop_operation_xyz
x,y,z
-x,y,-z
-x,-y,-z
x,-y,z
loop_
_atom_site_type_symbol
_atom_site_label
_atom_site_fract_x
_atom_site_fract_y
_atom_site_fract_z
Si Si1 0.549488 0.384772 0.610215
Si Si2 0.164039 0.884324 0.608907
Si Si3 0.850524 0.888844 0.200885
Si Si4 0.870326 0.615372 0.619773
Si Si5 0.193730 0.792637 0.190848
Si Si6 0.831618 0.114637 0.599956
Si Si7 0.955853 0.613693 0.719173
Si Si8 0.186564 0.888257 0.993946
O O1 0.543160 0.500000 0.614540
O O2 0.614169 0.352601 0.652669
O O3 0.831121 0.357277 0.495171
O O4 0.268220 0.360411 0.655950
O O5 0.500000 0.859650 0.500000
O O6 0.002735 0.838133 0.705421
O O7 0.983223 0.853527 0.609726
O O8 0.153603 0.000000 0.618092
O O9 0.509590 0.868986 0.300465
O O10 0.010316 0.814797 0.191954
O O11 0.891469 0.000000 0.207095
O O12 0.995595 0.881636 0.101726
O O13 0.856796 0.500000 0.623370
O O14 0.902004 0.639020 0.672838
O O15 0.248613 0.682582 0.188314
O O16 0.500240 0.842495 0.094573
O O17 0.000000 0.151381 0.500000
O O18 0.865999 0.000000 0.589588
O O19 0.918200 0.500000 0.735383
O O20 0.236207 0.000000 0.968983
O O21 0.000000 0.846780 0.000000
#
# Coordination Sequence:
#
# PCOD9149154 Si02
#       8
#     4   4   4   4   4   4   4   4
#     4   8  14  28  51  76 102 142 198 251 302 353
#     4  10  20  34  53  80 120 162 197 236 286 354
#     4  10  20  36  61  89 117 149 188 236 293 350
#     4   8  14  28  52  76 102 144 196 251 304 350
#     4  12  23  36  57  86 116 150 198 246 296 357
#     4   9  17  32  54  82 120 163 194 221 271 345
#     4  10  21  36  53  77 114 154 196 248 303 357
#     4  10  21  40  66  93 118 145 184 242 303 353
#
# _framework density 19.549351000000001
#
# number of rings (size 3 to 8) (size 9 to 14) (size 15 to 20)
#    0.000    2.375    0.000    4.125    0.000    7.500 
#    4.500    0.000    0.000    1.875    0.000    0.000 
#    0.000    0.000    0.000    0.000    0.000    0.000 
#
# Total GULP energy -178483.444143 kJ/mol
# GULP energy per Si atom -5577.607629 kJ/mol
# Density = 1.950486 g / cm^3
# Si number density = 19.549351 Si / 1000 Ang^3
#
#
#
# Elastic Constant Matrix: (Units=GPa)
#
#
# Indices 1 2 3 4 5 6 
#
# 1 125.6317 24.0397 17.2907 0.0000 3.8892 0.0000
# 2 24.0397 73.2853 23.5973 0.0000 7.1088 0.0000
# 3 17.2907 23.5973 63.6584 0.0000 -11.6251 0.0000
# 4 0.0000 0.0000 0.0000 -406.0339 0.0000 833.7618
# 5 3.8892 7.1088 -11.6251 0.0000 20.5163 0.0000
# 6 0.0000 0.0000 0.0000 833.7618 0.0000-1603.0835
#
#
#
# Elastic Compliance Matrix: (Units=1/GPa)
#
#
# Indices 1 2 3 4 5 6 
#
# 1 0.008682 -0.002003 -0.001996 0.000000 -0.002083 0.000000
# 2 -0.002003 0.017869 -0.007965 0.000000 -0.010325 0.000000
# 3 -0.001996 -0.007965 0.022059 0.000000 0.015638 0.000000
# 4 0.000000 0.000000 0.000000 0.036226 0.000000 0.018841
# 5 -0.002083 -0.010325 0.015638 0.000000 0.061575 0.000000
# 6 0.000000 0.000000 0.000000 0.018841 0.000000 0.009175
#
#
# Mechanical properties :
#
#
# Convention : Reuss Voigt Hill
#
# Bulk Modulus (GPa) = 40.51623 43.60343 42.05983
# Shear Modulus (GPa) = 26.63229 -384.54370 -178.95570
#
# Velocity S-wave (km/s) = 3.69495 -14.04034 -9.57806
# Velocity P-wave (km/s) = 6.24289 15.50770 10.03781
#
# Compressibility (1/GPa) = 0.02468146
#
# Stress axis : x y z
#
# Youngs Moduli (GPa) = 115.17690 55.96393 45.33259
#
# Poissons Ratio (x) = 0.11211 0.09048
# Poissons Ratio (y) = 0.23074 0.36108
# Poissons Ratio (z) = 0.22989 0.44575
#
# Static dielectric constant tensor:
#      x y z
#    x 1.700060 0.000000 0.056500 
#    y 0.000000 1.732120 0.000000 
#    z 0.056500 0.000000 1.551220 
# 
# From -- ./inp_files/88233.got.cif
#   From: 2010.05.17/outbox.cif.g08.bks.cpg/sg10_45_cif.got.tgz:88233.got - 2010.06.03 11:33:40.
