data_PCOD9149519
_publ_section_title
;
Structure prediction by ZEFSAII (Michael W. Deem and Ramdas Pophale) SiO2 
 PCOD9149519
Probable space group: P 2/M
;
_chemical_formula_sum "Si O2"
_cell_formula_units_Z 25
_cell_length_a 5.128053
_cell_length_b 7.550132
_cell_length_c 28.571759
_cell_angle_alpha 90.000000
_cell_angle_beta 99.823536
_cell_angle_gamma 90.000000
_cell_volume 1090.006817
_symmetry_space_group_name_H-M "P 2/M"
_symmetry_group_IT_number 10
_symmetry_cell_setting 'monoclinic'
loop_
_space_group_symop_operation_xyz
x,y,z
-x,y,-z
-x,-y,-z
x,-y,z
loop_
_atom_site_type_symbol
_atom_site_label
_atom_site_fract_x
_atom_site_fract_y
_atom_site_fract_z
Si Si1 0.681332 0.716044 0.827666
Si Si2 0.500000 0.500000 0.000000
Si Si3 0.214126 0.000000 0.966037
Si Si4 0.282209 0.500000 0.533494
Si Si5 0.134862 0.708851 0.777196
Si Si6 0.575801 0.300333 0.083800
Si Si7 0.843784 0.788149 0.672245
Si Si8 0.709788 0.785471 0.386176
O O1 0.697784 0.500000 0.828015
O O2 0.954202 0.781646 0.813913
O O3 0.585417 0.763619 0.876685
O O4 0.434929 0.776218 0.787454
O O5 0.394563 0.349003 0.033712
O O6 0.211373 0.832400 0.930512
O O7 0.500000 0.000000 0.000000
O O8 0.000000 0.000000 0.000000
O O9 0.500000 0.500000 0.500000
O O10 0.307673 0.672793 0.567268
O O11 0.000000 0.500000 0.500000
O O12 0.161600 0.500000 0.785943
O O13 0.977404 0.729836 0.724369
O O14 0.694284 0.500000 0.096557
O O15 0.542583 0.735413 0.653674
O O16 0.026832 0.734863 0.634161
O O17 0.848144 0.000000 0.673535
O O18 0.706253 0.000000 0.393536
#
# Coordination Sequence:
#
# PCOD9149519 Si02
#       8
#     4   1   2   2   4   4   4   4
#     4   9  19  36  54  81 117 147 190 235 296 364
#     4   8  16  38  70  78 108 152 190 238 306 336
#     4  12  24  40  60  88 114 142 196 246 292 356
#     4  12  26  42  66  97 128 168 214 256 308 369
#     4  10  20  34  58  86 115 156 192 243 295 353
#     4   9  19  40  62  85 114 153 191 242 298 359
#     4  10  21  39  60  89 124 161 205 252 299 354
#     4  10  23  41  64  92 127 165 207 259 304 349
#
# _framework density 22.935634
#
# number of rings (size 3 to 8) (size 9 to 14) (size 15 to 20)
#    0.480    1.600    0.800    1.920    2.240    2.240 
#    2.880    1.600    0.000    0.000    0.000    0.000 
#    0.000    0.000    0.000    0.000    0.000    0.000 
#
# Total GULP energy -139301.042728 kJ/mol
# GULP energy per Si atom -5572.041709 kJ/mol
# Density = 2.288343 g / cm^3
# Si number density = 22.935634 Si / 1000 Ang^3
#
#
#
# Elastic Constant Matrix: (Units=GPa)
#
#
# Indices 1 2 3 4 5 6 
#
# 1 82.0326 5.0716 -9.1900 0.0000 -5.4009 0.0000
# 2 5.0716 78.0199 11.0529 0.0000 -12.9546 0.0000
# 3 -9.1900 11.0529 79.7690 0.0000 -5.8881 0.0000
# 4 0.0000 0.0000 0.0000 -1.1106 0.0000 -15.1506
# 5 -5.4009 -12.9546 -5.8881 0.0000 42.0953 0.0000
# 6 0.0000 0.0000 0.0000 -15.1506 0.0000 4.7777
#
#
#
# Elastic Compliance Matrix: (Units=1/GPa)
#
#
# Indices 1 2 3 4 5 6 
#
# 1 0.012531 -0.000786 0.001671 0.000000 0.001600 0.000000
# 2 -0.000786 0.013757 -0.001709 0.000000 0.003894 0.000000
# 3 0.001671 -0.001709 0.013078 0.000000 0.001518 0.000000
# 4 0.000000 0.000000 0.000000 -0.020344 0.000000 -0.064513
# 5 0.001600 0.003894 0.001518 0.000000 0.025371 0.000000
# 6 0.000000 0.000000 0.000000 -0.064513 0.000000 0.004729
#
#
# Mechanical properties :
#
#
# Convention : Reuss Voigt Hill
#
# Bulk Modulus (GPa) = 26.51304 28.18782 27.35043
# Shear Modulus (GPa) = 78.93510 24.67829 51.80669
#
# Velocity S-wave (km/s) = 5.87287 3.28377 4.75782
# Velocity P-wave (km/s) = 7.58765 5.16664 6.49102
#
# Compressibility (1/GPa) = 0.03771729
#
# Stress axis : x y z
#
# Youngs Moduli (GPa) = 79.80001 72.69031 76.46705
#
# Poissons Ratio (x) = 0.05711 -0.12775
# Poissons Ratio (y) = 0.06269 0.13070
# Poissons Ratio (z) = -0.13332 0.12425
#
# Static dielectric constant tensor:
#      x y z
#    x 1.878610 0.000000 0.075770 
#    y 0.000000 1.923000 0.000000 
#    z 0.075770 0.000000 1.892270 
# 
# From -- ./inp_files/87350.got.cif
#   From: 2010.05.17/outbox.cif.g08.bks.cpg/sg10_44_cif.got.tgz:87350.got - 2010.06.03 11:33:40.
