data_PCOD9149018
_publ_section_title
;
Structure prediction by ZEFSAII (Michael W. Deem and Ramdas Pophale) SiO2 
 PCOD9149018
Probable space group: P 2/M
;
_chemical_formula_sum "Si O2"
_cell_formula_units_Z 32
_cell_length_a 17.514243
_cell_length_b 8.845337
_cell_length_c 28.552102
_cell_angle_alpha 90.000000
_cell_angle_beta 23.824594
_cell_angle_gamma 90.000000
_cell_volume 1786.728457
_symmetry_space_group_name_H-M "P 2/M"
_symmetry_group_IT_number 10
_symmetry_cell_setting 'monoclinic'
loop_
_space_group_symop_operation_xyz
x,y,z
-x,y,-z
-x,-y,-z
x,-y,z
loop_
_atom_site_type_symbol
_atom_site_label
_atom_site_fract_x
_atom_site_fract_y
_atom_site_fract_z
Si Si1 0.606065 0.818267 0.836687
Si Si2 0.807843 0.817936 0.467076
Si Si3 0.803256 0.327030 0.081010
Si Si4 0.008681 0.819965 0.882114
Si Si5 0.615101 0.818261 0.272545
Si Si6 0.202766 0.319502 0.081075
Si Si7 0.941729 0.816756 0.583701
Si Si8 0.137339 0.319055 0.225986
O O1 0.398323 0.750462 0.953091
O O2 0.738463 0.770196 0.718625
O O3 0.714349 0.760214 0.822337
O O4 0.597934 0.000000 0.842028
O O5 0.588057 0.777282 0.592669
O O6 0.905216 0.779111 0.462241
O O7 0.931717 0.735813 0.358378
O O8 0.824658 0.000000 0.451619
O O9 0.757912 0.500000 0.094627
O O10 0.652462 0.255725 0.201033
O O11 0.850142 0.232543 0.008472
O O12 0.000000 0.325869 0.000000
O O13 0.211159 0.776437 0.790842
O O14 0.003438 0.000000 0.880307
O O15 0.963156 0.742299 0.858691
O O16 0.620670 0.000000 0.263469
O O17 0.211294 0.500000 0.073123
O O18 0.175132 0.278168 0.150969
O O19 0.000000 0.758769 0.500000
O O20 0.936954 0.000000 0.583711
O O21 0.154630 0.500000 0.221187
#
# Coordination Sequence:
#
# PCOD9149018 Si02
#       8
#     4   4   4   4   4   4   4   4
#     4  10  20  34  56  82 104 134 174 211 254 312
#     4   9  18  33  54  77 102 136 177 219 260 307
#     4   9  17  30  49  73 103 138 172 209 255 306
#     4  10  20  34  52  75 104 137 176 222 266 310
#     4   9  18  33  53  77 104 138 180 220 260 309
#     4  11  23  37  53  75 104 136 171 217 272 321
#     4   8  15  29  49  76 108 135 161 198 245 298
#     4  10  21  37  55  75 102 136 172 214 265 319
#
# _framework density 17.909828999999998
#
# number of rings (size 3 to 8) (size 9 to 14) (size 15 to 20)
#    0.000    2.500    0.000    3.000    0.000    7.000 
#    0.000    3.125    0.000   13.125    0.000    0.000 
#    0.000    0.000    0.000    0.000    0.000    0.000 
#
# Total GULP energy -178522.427940 kJ/mol
# GULP energy per Si atom -5578.825873 kJ/mol
# Density = 1.786907 g / cm^3
# Si number density = 17.909829 Si / 1000 Ang^3
#
#
#
# Elastic Constant Matrix: (Units=GPa)
#
#
# Indices 1 2 3 4 5 6 
#
# 1 70.2474 25.1804 53.9792 0.0000 18.0674 0.0000
# 2 25.1804 34.8452 30.1853 0.0000 4.4801 0.0000
# 3 53.9792 30.1853 114.7913 0.0000 1.2403 0.0000
# 4 0.0000 0.0000 0.0000 31.9407 0.0000 11.4750
# 5 18.0674 4.4801 1.2403 0.0000 24.9760 0.0000
# 6 0.0000 0.0000 0.0000 11.4750 0.0000 31.9982
#
#
#
# Elastic Compliance Matrix: (Units=1/GPa)
#
#
# Indices 1 2 3 4 5 6 
#
# 1 0.033190 -0.010225 -0.012686 0.000000 -0.021545 0.000000
# 2 -0.010225 0.041294 -0.006054 0.000000 0.000290 0.000000
# 3 -0.012686 -0.006054 0.016166 0.000000 0.009460 0.000000
# 4 0.000000 0.000000 0.000000 0.035938 0.000000 -0.012888
# 5 -0.021545 0.000290 0.009460 0.000000 0.055102 0.000000
# 6 0.000000 0.000000 0.000000 -0.012888 0.000000 0.035874
#
#
# Mechanical properties :
#
#
# Convention : Reuss Voigt Hill
#
# Bulk Modulus (GPa) = 30.56057 48.73042 39.64549
# Shear Modulus (GPa) = 17.45815 25.15223 21.30519
#
# Velocity S-wave (km/s) = 3.12553 3.75157 3.45277
# Velocity P-wave (km/s) = 5.48871 6.78480 6.17088
#
# Compressibility (1/GPa) = 0.03272190
#
# Stress axis : x y z
#
# Youngs Moduli (GPa) = 30.12989 24.21660 61.85706
#
# Poissons Ratio (x) = 0.24761 0.78469
# Poissons Ratio (y) = 0.30808 0.37446
# Poissons Ratio (z) = 0.38221 0.14660
#
# Static dielectric constant tensor:
#      x y z
#    x 1.611390 0.000000 -0.005730 
#    y 0.000000 1.599620 0.000000 
#    z -0.005730 0.000000 1.608770 
# 
# From -- ./inp_files/89505.got.cif
#   From: 2010.05.17/outbox.cif.g08.bks.cpg/sg10_45_cif.got.tgz:89505.got - 2010.06.03 11:33:40.
