data_PCOD9149095
_publ_section_title
;
Structure prediction by ZEFSAII (Michael W. Deem and Ramdas Pophale) SiO2 
 PCOD9149095
Probable space group: P 2/M
;
_chemical_formula_sum "Si O2"
_cell_formula_units_Z 32
_cell_length_a 16.131877
_cell_length_b 8.420921
_cell_length_c 25.933041
_cell_angle_alpha 90.000000
_cell_angle_beta 30.640685
_cell_angle_gamma 90.000000
_cell_volume 1795.444941
_symmetry_space_group_name_H-M "P 2/M"
_symmetry_group_IT_number 10
_symmetry_cell_setting 'monoclinic'
loop_
_space_group_symop_operation_xyz
x,y,z
-x,y,-z
-x,-y,-z
x,-y,z
loop_
_atom_site_type_symbol
_atom_site_label
_atom_site_fract_x
_atom_site_fract_y
_atom_site_fract_z
Si Si1 0.088249 0.808173 0.807252
Si Si2 0.589660 0.190385 0.305789
Si Si3 0.336679 0.692004 0.058890
Si Si4 0.737640 0.691817 0.017544
Si Si5 0.985756 0.809957 0.269363
Si Si6 0.762589 0.690152 0.481096
Si Si7 0.519545 0.692126 0.229714
Si Si8 0.842159 0.306430 0.553890
O O1 0.251015 0.753507 0.748771
O O2 0.078406 0.756289 0.752701
O O3 0.087169 0.000000 0.808338
O O4 0.923076 0.749029 0.922268
O O5 0.422168 0.248030 0.421309
O O6 0.588026 0.250735 0.247866
O O7 0.589733 0.000000 0.305417
O O8 0.335826 0.500000 0.060050
O O9 0.171110 0.750287 0.174095
O O10 0.500000 0.746520 0.000000
O O11 0.327535 0.743622 0.003859
O O12 0.736760 0.500000 0.018334
O O13 0.625480 0.747670 0.124601
O O14 0.871948 0.748416 0.375689
O O15 0.985513 0.000000 0.270080
O O16 0.758052 0.500000 0.483549
O O17 0.835678 0.742257 0.497429
O O18 0.521571 0.500000 0.228939
O O19 0.330199 0.742034 0.329044
O O20 0.845878 0.500000 0.552600
O O21 0.000000 0.249308 0.500000
#
# Coordination Sequence:
#
# PCOD9149095 Si02
#       8
#     4   4   4   4   4   4   4   4
#     4   9  20  36  52  71  97 131 168 205 245 295
#     4  10  20  35  53  72  97 130 167 205 247 295
#     4   9  18  33  53  77 103 132 169 209 246 289
#     4   9  18  32  51  74 101 132 165 206 250 292
#     4  10  20  35  53  73 101 134 167 204 248 297
#     4  10  20  34  53  77 102 128 163 206 249 294
#     4   9  18  32  49  73 102 129 162 203 248 294
#     4   8  15  29  50  73  97 127 161 197 238 287
#
# _framework density 17.822879
#
# number of rings (size 3 to 8) (size 9 to 14) (size 15 to 20)
#    0.000    2.750    0.000    1.875    0.000    4.250 
#    0.000    8.750    0.000   12.375    0.000    0.000 
#    0.000    0.000    0.000    0.000    0.000    0.000 
#
# Total GULP energy -178452.011880 kJ/mol
# GULP energy per Si atom -5576.625371 kJ/mol
# Density = 1.778231 g / cm^3
# Si number density = 17.822879 Si / 1000 Ang^3
#
#
#
# Elastic Constant Matrix: (Units=GPa)
#
#
# Indices 1 2 3 4 5 6 
#
# 1 137.2887 19.9594 122.8280 0.0000 -30.1724 0.0000
# 2 19.9594 13.5636 24.0563 0.0000 -1.9825 0.0000
# 3 122.8280 24.0563 199.4384 0.0000 4.7014 0.0000
# 4 0.0000 0.0000 0.0000 -315.5814 0.0000 106.6242
# 5 -30.1724 -1.9825 4.7014 0.0000 31.7363 0.0000
# 6 0.0000 0.0000 0.0000 106.6242 0.0000 -14.2155
#
#
#
# Elastic Compliance Matrix: (Units=1/GPa)
#
#
# Indices 1 2 3 4 5 6 
#
# 1 0.037765 -0.008950 -0.023093 0.000000 0.038766 0.000000
# 2 -0.008950 0.097756 -0.006245 0.000000 -0.001477 0.000000
# 3 -0.023093 -0.006245 0.020588 0.000000 -0.025395 0.000000
# 4 0.000000 0.000000 0.000000 0.002065 0.000000 0.015492
# 5 0.038766 -0.001477 -0.025395 0.000000 0.072035 0.000000
# 6 0.000000 0.000000 0.000000 0.015492 0.000000 0.045852
#
#
# Mechanical properties :
#
#
# Convention : Reuss Voigt Hill
#
# Bulk Modulus (GPa) = 12.57307 75.99757 44.28532
# Shear Modulus (GPa) = 13.18748 -47.38232 -17.09742
#
# Velocity S-wave (km/s) = 2.72310 -5.16167 -3.10061
# Velocity P-wave (km/s) = 4.11786 2.68501 3.47606
#
# Compressibility (1/GPa) = 0.07953509
#
# Stress axis : x y z
#
# Youngs Moduli (GPa) = 26.47951 10.22955 48.57186
#
# Poissons Ratio (x) = 0.09155 1.12165
# Poissons Ratio (y) = 0.23698 0.30332
# Poissons Ratio (z) = 0.61148 0.06388
#
# Static dielectric constant tensor:
#      x y z
#    x 1.606190 0.000000 0.001070 
#    y 0.000000 1.614940 0.000000 
#    z 0.001070 0.000000 1.583710 
# 
# From -- ./inp_files/66587.got.cif
#   From: 2010.05.17/outbox.cif.g08.bks.cpg/sg10_34_cif.got.tgz:66587.got - 2010.06.03 11:33:40.
