data_PCOD9149981
_publ_section_title
;
Structure prediction by ZEFSAII (Michael W. Deem and Ramdas Pophale) SiO2 
 PCOD9149981
Probable space group: P 2/M
;
_chemical_formula_sum "Si O2"
_cell_formula_units_Z 28
_cell_length_a 13.914840
_cell_length_b 8.860959
_cell_length_c 12.273918
_cell_angle_alpha 90.000000
_cell_angle_beta 124.399887
_cell_angle_gamma 90.000000
_cell_volume 1248.695193
_symmetry_space_group_name_H-M "P 2/M"
_symmetry_group_IT_number 10
_symmetry_cell_setting 'monoclinic'
loop_
_space_group_symop_operation_xyz
x,y,z
-x,y,-z
-x,-y,-z
x,-y,z
loop_
_atom_site_type_symbol
_atom_site_label
_atom_site_fract_x
_atom_site_fract_y
_atom_site_fract_z
Si Si1 0.526076 0.330901 0.203843
Si Si2 0.294417 0.826061 0.993815
Si Si3 0.893868 0.825342 0.304702
Si Si4 0.167830 0.682527 0.115289
Si Si5 0.763772 0.180202 0.432028
Si Si6 0.591365 0.669859 0.635035
Si Si7 0.092364 0.679460 0.290494
O O1 0.550517 0.500000 0.178573
O O2 0.420190 0.253719 0.070572
O O3 0.644687 0.242768 0.304208
O O4 0.468382 0.342764 0.286541
O O5 0.203607 0.754330 0.023155
O O6 0.313167 0.000000 0.037605
O O7 0.229303 0.820748 0.837344
O O8 0.865633 0.782042 0.410181
O O9 0.981577 0.726766 0.290748
O O10 0.935144 0.000000 0.328224
O O11 0.163755 0.500000 0.096545
O O12 0.282026 0.729103 0.259311
O O13 0.073888 0.722322 0.149770
O O14 0.800701 0.249774 0.571521
O O15 0.756423 0.000000 0.435977
O O16 0.500000 0.753209 0.500000
O O17 0.610446 0.500000 0.601455
O O18 0.107128 0.500000 0.299339
#
# Coordination Sequence:
#
# PCOD9149981 Si02
#       7
#     4   4   4   4   4   4   4
#     4  10  20  35  57  86 119 151 189 240 293 344
#     4  10  21  39  61  86 117 155 199 238 283 347
#     4  10  24  43  60  81 116 160 199 242 291 341
#     4   9  19  35  55  83 118 151 185 234 294 347
#     4  11  23  40  61  85 117 156 197 240 291 349
#     4   8  13  25  47  73 105 143 177 216 273 335
#     4  11  23  39  62  90 118 150 193 245 296 346
#
# _framework density 22.423407000000001
#
# number of rings (size 3 to 8) (size 9 to 14) (size 15 to 20)
#    0.000    2.143    0.000    3.857    0.000    8.571 
#    0.000    5.714    0.000    4.714    0.000    0.000 
#    0.000    0.000    0.000    0.000    0.000    0.000 
#
# Total GULP energy -156183.146985 kJ/mol
# GULP energy per Si atom -5577.969535 kJ/mol
# Density = 2.237237 g / cm^3
# Si number density = 22.423407 Si / 1000 Ang^3
#
#
#
# Elastic Constant Matrix: (Units=GPa)
#
#
# Indices 1 2 3 4 5 6 
#
# 1 85.0734 36.6070 8.1310 0.0000 -10.8866 0.0000
# 2 36.6070 73.8423 27.6074 0.0000 -5.2520 0.0000
# 3 8.1310 27.6074 78.1674 0.0000 -11.2176 0.0000
# 4 0.0000 0.0000 0.0000 83.3239 0.0000 41.1740
# 5 -10.8866 -5.2520 -11.2176 0.0000 44.8761 0.0000
# 6 0.0000 0.0000 0.0000 41.1740 0.0000 50.2993
#
#
#
# Elastic Compliance Matrix: (Units=1/GPa)
#
#
# Indices 1 2 3 4 5 6 
#
# 1 0.015485 -0.008085 0.001709 0.000000 0.003238 0.000000
# 2 -0.008085 0.019834 -0.006340 0.000000 -0.001225 0.000000
# 3 0.001709 -0.006340 0.015358 0.000000 0.003512 0.000000
# 4 0.000000 0.000000 0.000000 0.020153 0.000000 -0.016497
# 5 0.003238 -0.001225 0.003512 0.000000 0.023803 0.000000
# 6 0.000000 0.000000 0.000000 -0.016497 0.000000 0.033385
#
#
# Mechanical properties :
#
#
# Convention : Reuss Voigt Hill
#
# Bulk Modulus (GPa) = 39.61087 42.41932 41.01510
# Shear Modulus (GPa) = 30.89002 46.68237 38.78619
#
# Velocity S-wave (km/s) = 3.71560 4.56769 4.16350
# Velocity P-wave (km/s) = 6.00924 6.83936 6.43769
#
# Compressibility (1/GPa) = 0.02524559
#
# Stress axis : x y z
#
# Youngs Moduli (GPa) = 64.58050 50.41924 65.11148
#
# Poissons Ratio (x) = 0.40765 -0.11131
# Poissons Ratio (y) = 0.52215 0.41279
# Poissons Ratio (z) = -0.11040 0.31964
#
# Static dielectric constant tensor:
#      x y z
#    x 1.919030 0.000000 0.043010 
#    y 0.000000 1.800830 0.000000 
#    z 0.043010 0.000000 1.890110 
# 
# From -- ./inp_files/49606.got.cif
#   From: 2010.05.17/outbox.cif.g08.bks.cpg/sg10_25_cif.got.tgz:49606.got - 2010.06.03 11:33:40.
