data_PCOD9149453
_publ_section_title
;
Structure prediction by ZEFSAII (Michael W. Deem and Ramdas Pophale) SiO2 
 PCOD9149453
Probable space group: P 2/M
;
_chemical_formula_sum "Si O2"
_cell_formula_units_Z 28
_cell_length_a 9.422337
_cell_length_b 8.851181
_cell_length_c 30.806180
_cell_angle_alpha 90.000000
_cell_angle_beta 28.880950
_cell_angle_gamma 90.000000
_cell_volume 1240.900591
_symmetry_space_group_name_H-M "P 2/M"
_symmetry_group_IT_number 10
_symmetry_cell_setting 'monoclinic'
loop_
_space_group_symop_operation_xyz
x,y,z
-x,y,-z
-x,-y,-z
x,-y,z
loop_
_atom_site_type_symbol
_atom_site_label
_atom_site_fract_x
_atom_site_fract_y
_atom_site_fract_z
Si Si1 0.807769 0.679585 0.323991
Si Si2 0.470448 0.330786 0.944870
Si Si3 0.826780 0.178195 0.501260
Si Si4 0.654361 0.831251 0.106130
Si Si5 0.967230 0.175214 0.190874
Si Si6 0.857433 0.321738 0.405949
Si Si7 0.787047 0.672330 0.155879
O O1 0.847533 0.500000 0.308297
O O2 0.463251 0.719846 0.418420
O O3 0.948106 0.725018 0.332856
O O4 0.912400 0.768670 0.254055
O O5 0.583868 0.500000 0.922602
O O6 0.469844 0.291340 0.893972
O O7 0.689957 0.213914 0.908126
O O8 0.135012 0.325038 0.050195
O O9 0.973800 0.230362 0.416339
O O10 0.000000 0.198444 0.500000
O O11 0.752863 0.000000 0.517599
O O12 0.638722 0.777245 0.159650
O O13 0.531991 0.000000 0.132129
O O14 0.000000 0.839082 0.000000
O O15 0.775055 0.266615 0.207691
O O16 0.907890 0.000000 0.201868
O O17 0.500000 0.305090 0.500000
O O18 0.918998 0.500000 0.395001
O O19 0.684545 0.500000 0.179754
#
# Coordination Sequence:
#
# PCOD9149453 Si02
#       7
#     4   4   4   4   4   4   4
#     4  10  21  38  57  78 107 142 182 222 265 321
#     4  10  20  35  55  78 105 141 186 229 272 329
#     4  10  20  34  56  87 117 142 172 212 258 312
#     4   9  17  31  52  77 103 131 169 220 272 319
#     4  12  24  36  53  78 109 143 181 229 282 328
#     4   8  16  32  55  80 104 135 173 210 250 303
#     4  10  20  35  55  78 106 143 185 228 276 329
#
# _framework density 22.564257999999999
#
# number of rings (size 3 to 8) (size 9 to 14) (size 15 to 20)
#    0.000    2.143    0.000    4.714    0.000    9.429 
#    0.000    1.429    0.000    3.429    0.000    0.000 
#    0.000    0.000    0.000    0.000    0.000    0.000 
#
# Total GULP energy -156460.679898 kJ/mol
# GULP energy per Si atom -5587.881425 kJ/mol
# Density = 2.251290 g / cm^3
# Si number density = 22.564258 Si / 1000 Ang^3
#
#
#
# Elastic Constant Matrix: (Units=GPa)
#
#
# Indices 1 2 3 4 5 6 
#
# 1 85.4861 18.9200 22.1491 0.0000 32.9499 0.0000
# 2 18.9200 85.7324 7.6783 0.0000 20.1597 0.0000
# 3 22.1491 7.6783 52.0131 0.0000 23.4401 0.0000
# 4 0.0000 0.0000 0.0000 17.1157 0.0000 5.5046
# 5 32.9499 20.1597 23.4401 0.0000 41.4314 0.0000
# 6 0.0000 0.0000 0.0000 5.5046 0.0000 31.3499
#
#
#
# Elastic Compliance Matrix: (Units=1/GPa)
#
#
# Indices 1 2 3 4 5 6 
#
# 1 0.016999 -0.000725 -0.001608 0.000000 -0.012256 0.000000
# 2 -0.000725 0.013265 0.001341 0.000000 -0.006636 0.000000
# 3 -0.001608 0.001341 0.026080 0.000000 -0.014128 0.000000
# 4 0.000000 0.000000 0.000000 0.061923 0.000000 -0.010873
# 5 -0.012256 -0.006636 -0.014128 0.000000 0.045106 0.000000
# 6 0.000000 0.000000 0.000000 -0.010873 0.000000 0.033807
#
#
# Mechanical properties :
#
#
# Convention : Reuss Voigt Hill
#
# Bulk Modulus (GPa) = 18.39617 35.63626 27.01622
# Shear Modulus (GPa) = 23.01133 29.61167 26.31150
#
# Velocity S-wave (km/s) = 3.19692 3.62653 3.41848
# Velocity P-wave (km/s) = 4.66878 5.77609 5.25170
#
# Compressibility (1/GPa) = 0.05435914
#
# Stress axis : x y z
#
# Youngs Moduli (GPa) = 58.82634 75.38824 38.34369
#
# Poissons Ratio (x) = 0.05469 0.06167
# Poissons Ratio (y) = 0.04267 -0.05144
# Poissons Ratio (z) = 0.09461 -0.10113
#
# Static dielectric constant tensor:
#      x y z
#    x 1.830380 0.000000 -0.013500 
#    y 0.000000 1.753890 0.000000 
#    z -0.013500 0.000000 1.963700 
# 
# From -- ./inp_files/91963.got.cif
#   From: 2010.05.17/outbox.cif.g08.bks.cpg/sg10_46_cif.got.tgz:91963.got - 2010.06.03 11:33:40.
