data_PCOD9149673
_publ_section_title
;
Structure prediction by ZEFSAII (Michael W. Deem and Ramdas Pophale) SiO2 
 PCOD9149673
Probable space group: P 2/M
;
_chemical_formula_sum "Si O2"
_cell_formula_units_Z 28
_cell_length_a 9.077940
_cell_length_b 7.557699
_cell_length_c 30.599538
_cell_angle_alpha 90.000000
_cell_angle_beta 39.417557
_cell_angle_gamma 90.000000
_cell_volume 1333.039777
_symmetry_space_group_name_H-M "P 2/M"
_symmetry_group_IT_number 10
_symmetry_cell_setting 'monoclinic'
loop_
_space_group_symop_operation_xyz
x,y,z
-x,y,-z
-x,-y,-z
x,-y,z
loop_
_atom_site_type_symbol
_atom_site_label
_atom_site_fract_x
_atom_site_fract_y
_atom_site_fract_z
Si Si1 0.076137 0.291352 0.435847
Si Si2 0.951551 0.712827 0.153290
Si Si3 0.023874 0.703583 0.710325
Si Si4 0.238659 0.282564 0.571147
Si Si5 0.690996 0.714351 0.994152
Si Si6 0.671785 0.715842 0.857968
Si Si7 0.608265 0.795410 0.301537
O O1 0.021187 0.500000 0.449810
O O2 0.348520 0.271545 0.365586
O O3 0.000000 0.215495 0.500000
O O4 0.929371 0.221363 0.428999
O O5 0.939969 0.500000 0.154084
O O6 0.711168 0.774969 0.229083
O O7 0.063550 0.776134 0.081956
O O8 0.141441 0.760170 0.146966
O O9 0.966291 0.500000 0.713029
O O10 0.137380 0.780372 0.640753
O O11 0.218765 0.703645 0.703707
O O12 0.790947 0.780992 0.786061
O O13 0.500000 0.227626 0.500000
O O14 0.242677 0.500000 0.571891
O O15 0.705029 0.500000 0.993729
O O16 0.500000 0.751419 0.000000
O O17 0.575740 0.776035 0.065957
O O18 0.664322 0.500000 0.857418
O O19 0.612792 0.000000 0.312282
#
# Coordination Sequence:
#
# PCOD9149673 Si02
#       7
#     4   4   4   4   4   4   4
#     4  10  20  35  55  74  93 120 153 189 229 275
#     4   8  13  23  40  60  85 119 156 191 228 270
#     4   9  16  29  49  70  94 124 157 193 233 278
#     4   9  17  30  51  77  96 113 147 192 232 273
#     4   7   9  15  31  57  85 112 146 187 229 271
#     4   7  10  17  34  61  88 114 146 186 232 274
#     4  11  21  31  45  68  99 129 157 190 227 271
#
# _framework density 21.004624
#
# number of rings (size 3 to 8) (size 9 to 14) (size 15 to 20)
#    0.000    3.286    0.000    4.714    0.000    2.571 
#    0.000    0.714    0.000   12.429    0.000    1.000 
#    0.000    8.000    0.000    0.000    0.000    0.000 
#
# Total GULP energy -155892.318118 kJ/mol
# GULP energy per Si atom -5567.582790 kJ/mol
# Density = 2.095682 g / cm^3
# Si number density = 21.004624 Si / 1000 Ang^3
#
#
#
# Elastic Constant Matrix: (Units=GPa)
#
#
# Indices 1 2 3 4 5 6 
#
# 1 34.8499 6.3141 92.7607 0.0000 2.3856 0.0000
# 2 6.3141 32.3450 -31.8045 0.0000 15.9836 0.0000
# 3 92.7607 -31.8045 208.5981 0.0000 45.9181 0.0000
# 4 0.0000 0.0000 0.0000 -313.7830 0.0000 99.8630
# 5 2.3856 15.9836 45.9181 0.0000 14.3765 0.0000
# 6 0.0000 0.0000 0.0000 99.8630 0.0000 -48.5101
#
#
#
# Elastic Compliance Matrix: (Units=1/GPa)
#
#
# Indices 1 2 3 4 5 6 
#
# 1 0.016399 0.020027 0.004248 0.000000 -0.038554 0.000000
# 2 0.020027 0.014069 -0.008709 0.000000 0.008853 0.000000
# 3 0.004248 -0.008709 -0.001344 0.000000 0.013272 0.000000
# 4 0.000000 0.000000 0.000000 -0.009242 0.000000 -0.019025
# 5 -0.038554 0.008853 0.013272 0.000000 0.023724 0.000000
# 6 0.000000 0.000000 0.000000 -0.019025 0.000000 -0.059779
#
#
# Mechanical properties :
#
#
# Convention : Reuss Voigt Hill
#
# Bulk Modulus (GPa) = 16.59642 45.59261 31.09452
# Shear Modulus (GPa) = -183.69823 -55.68183 -119.69003
#
# Velocity S-wave (km/s) = -9.36194 -5.15431 -7.55688
# Velocity P-wave (km/s) = 10.43757 3.69721 7.82982
#
# Compressibility (1/GPa) = 0.06025395
#
# Stress axis : x y z
#
# Youngs Moduli (GPa) = 60.97787 71.07965 -743.89420
#
# Poissons Ratio (x) = -1.42350 3.15973
# Poissons Ratio (y) = -1.22119 -6.47882
# Poissons Ratio (z) = -0.25901 0.61906
#
# Static dielectric constant tensor:
#      x y z
#    x 1.723500 0.000000 0.021440 
#    y 0.000000 1.774650 0.000000 
#    z 0.021440 0.000000 1.829890 
# 
# From -- ./inp_files/86534.got.cif
#   From: 2010.05.17/outbox.cif.g08.bks.cpg/sg10_44_cif.got.tgz:86534.got - 2010.06.03 11:33:40.
