data_PCOD9149528
_publ_section_title
;
Structure prediction by ZEFSAII (Michael W. Deem and Ramdas Pophale) SiO2 
 PCOD9149528
Probable space group: P 2/M
;
_chemical_formula_sum "Si O2"
_cell_formula_units_Z 22
_cell_length_a 8.536620
_cell_length_b 17.843241
_cell_length_c 13.340163
_cell_angle_alpha 90.000000
_cell_angle_beta 146.276660
_cell_angle_gamma 90.000000
_cell_volume 1128.124965
_symmetry_space_group_name_H-M "P 2/M"
_symmetry_group_IT_number 10
_symmetry_cell_setting 'monoclinic'
loop_
_space_group_symop_operation_xyz
x,y,z
-x,y,-z
-x,-y,-z
x,-y,z
loop_
_atom_site_type_symbol
_atom_site_label
_atom_site_fract_x
_atom_site_fract_y
_atom_site_fract_z
Si Si1 0.941220 0.772128 0.752039
Si Si2 0.722139 0.819281 0.416441
Si Si3 0.686712 0.310508 0.789731
Si Si4 0.500000 0.683184 0.000000
Si Si5 0.696329 0.083004 0.704408
Si Si6 0.689261 0.588881 0.294924
O O1 0.827906 0.792476 0.582067
O O2 0.741841 0.713556 0.704773
O O3 0.916129 0.849468 0.802476
O O4 0.244891 0.735288 0.901672
O O5 0.519028 0.752489 0.272034
O O6 0.519431 0.890470 0.324312
O O7 0.000000 0.832094 0.500000
O O8 0.533570 0.386798 0.738040
O O9 0.000000 0.308499 0.000000
O O10 0.391317 0.631783 0.850231
O O11 0.500000 0.080727 0.500000
O O12 0.813817 0.000000 0.782860
O O13 0.685031 0.500000 0.276110
O O14 0.000000 0.610825 0.500000
#
# Coordination Sequence:
#
# PCOD9149528 Si02
#       6
#     4   4   4   2   4   4
#     4  10  21  35  60  88 116 158 205 247 301 361
#     4  10  20  34  58  88 119 156 203 251 303 361
#     4  11  20  37  58  86 114 155 198 249 295 357
#     4  12  21  40  63  92 124 162 204 256 305 368
#     4   8  16  33  55  83 120 158 200 249 302 357
#     4  11  25  43  63  90 126 163 200 251 311 369
#
# _framework density 19.501384999999999
#
# number of rings (size 3 to 8) (size 9 to 14) (size 15 to 20)
#    0.000    1.818    1.818    4.636    0.000    0.727 
#    0.000    0.455    0.000   13.091    0.000    0.000 
#    0.000    0.727    0.000    0.000    0.000    0.000 
#
# Total GULP energy -122748.375110 kJ/mol
# GULP energy per Si atom -5579.471596 kJ/mol
# Density = 1.945700 g / cm^3
# Si number density = 19.501385 Si / 1000 Ang^3
#
#
#
# Elastic Constant Matrix: (Units=GPa)
#
#
# Indices 1 2 3 4 5 6 
#
# 1 134.9708 58.2121 48.9438 0.0000 19.4535 0.0000
# 2 58.2121 108.0022 68.9538 0.0000 19.6156 0.0000
# 3 48.9438 68.9538 103.6086 0.0000 12.7336 0.0000
# 4 0.0000 0.0000 0.0000 -3.3839 0.0000 -0.8210
# 5 19.4535 19.6156 12.7336 0.0000 37.7558 0.0000
# 6 0.0000 0.0000 0.0000 -0.8210 0.0000 18.5217
#
#
#
# Elastic Compliance Matrix: (Units=1/GPa)
#
#
# Indices 1 2 3 4 5 6 
#
# 1 0.010103 -0.003702 -0.001988 0.000000 -0.002612 0.000000
# 2 -0.003702 0.018397 -0.009968 0.000000 -0.004289 0.000000
# 3 -0.001988 -0.009968 0.017174 0.000000 0.000411 0.000000
# 4 0.000000 0.000000 0.000000 -0.292375 0.000000 -0.012959
# 5 -0.002612 -0.004289 0.000411 0.000000 0.029921 0.000000
# 6 0.000000 0.000000 0.000000 -0.012959 0.000000 0.053416
#
#
# Mechanical properties :
#
#
# Convention : Reuss Voigt Hill
#
# Bulk Modulus (GPa) = 69.64273 77.64456 73.64364
# Shear Modulus (GPa) = -39.28933 21.94351 -8.67291
#
# Velocity S-wave (km/s) = -4.49340 3.35808 -2.11116
# Velocity P-wave (km/s) = 2.97797 7.41195 5.64824
#
# Compressibility (1/GPa) = 0.01435900
#
# Stress axis : x y z
#
# Youngs Moduli (GPa) = 98.98164 54.35569 58.22690
#
# Poissons Ratio (x) = 0.20122 0.11575
# Poissons Ratio (y) = 0.36642 0.58041
# Poissons Ratio (z) = 0.19676 0.54182
#
# Static dielectric constant tensor:
#      x y z
#    x 1.706820 0.000000 -0.034400 
#    y 0.000000 1.692160 0.000000 
#    z -0.034400 0.000000 1.712630 
# 
# From -- ./inp_files/62260.got.cif
#   From: 2010.05.17/outbox.cif.g08.bks.cpg/sg10_32_cif.got.tgz:62260.got - 2010.06.03 11:33:40.
