data_PCOD9149998
_publ_section_title
;
Structure prediction by ZEFSAII (Michael W. Deem and Ramdas Pophale) SiO2 
 PCOD9149998
Probable space group: P 2/M
;
_chemical_formula_sum "Si O2"
_cell_formula_units_Z 28
_cell_length_a 9.979487
_cell_length_b 14.364252
_cell_length_c 21.760344
_cell_angle_alpha 90.000000
_cell_angle_beta 28.877399
_cell_angle_gamma 90.000000
_cell_volume 1506.424868
_symmetry_space_group_name_H-M "P 2/M"
_symmetry_group_IT_number 10
_symmetry_cell_setting 'monoclinic'
loop_
_space_group_symop_operation_xyz
x,y,z
-x,y,-z
-x,-y,-z
x,-y,z
loop_
_atom_site_type_symbol
_atom_site_label
_atom_site_fract_x
_atom_site_fract_y
_atom_site_fract_z
Si Si1 0.265878 0.109949 0.276545
Si Si2 0.306976 0.267056 0.359349
Si Si3 0.135399 0.106870 0.012871
Si Si4 0.819542 0.893899 0.352436
Si Si5 0.819610 0.236682 0.235381
Si Si6 0.321997 0.611075 0.881127
Si Si7 0.267920 0.610740 0.043627
O O1 0.267572 0.171761 0.336712
O O2 0.006262 0.128443 0.336703
O O3 0.273678 0.000000 0.288732
O O4 0.543136 0.130748 0.126050
O O5 0.505066 0.250619 0.338493
O O6 0.476532 0.334886 0.245559
O O7 0.000000 0.301473 0.500000
O O8 0.973910 0.174502 0.122295
O O9 0.114158 0.000000 0.043067
O O10 0.000000 0.111755 0.000000
O O11 0.500000 0.895303 0.500000
O O12 0.849431 0.819319 0.286560
O O13 0.896672 0.000000 0.301580
O O14 0.987337 0.333079 0.168899
O O15 0.342222 0.500000 0.862394
O O16 0.375721 0.630153 0.931345
O O17 0.000000 0.638484 0.000000
O O18 0.217718 0.500000 0.067439
O O19 0.500000 0.636928 0.000000
#
# Coordination Sequence:
#
# PCOD9149998 Si02
#       7
#     4   4   4   4   4   4   4
#     4  10  22  39  59  84 123 164 203 252 300 354
#     4  12  25  38  60  94 126 160 205 248 298 362
#     4  10  20  35  57  88 121 152 198 255 302 349
#     4  10  23  42  59  81 120 167 209 246 295 361
#     4  12  23  36  63  89 118 161 200 252 302 361
#     4  10  21  42  68  90 120 157 197 250 306 360
#     4  10  23  41  64  93 119 153 199 248 305 367
#
# _framework density 18.587053000000001
#
# number of rings (size 3 to 8) (size 9 to 14) (size 15 to 20)
#    0.000    1.429    2.857    2.143    4.000    1.143 
#    0.000    2.143    0.000    0.429    0.000    0.000 
#    0.000    0.000    0.000    0.000    0.000    0.000 
#
# Total GULP energy -156487.164284 kJ/mol
# GULP energy per Si atom -5588.827296 kJ/mol
# Density = 1.854475 g / cm^3
# Si number density = 18.587053 Si / 1000 Ang^3
#
#
#
# Elastic Constant Matrix: (Units=GPa)
#
#
# Indices 1 2 3 4 5 6 
#
# 1 86.8923 31.7210 27.6208 0.0000 -20.5340 0.0000
# 2 31.7210 62.1409 34.0761 0.0000 -1.6639 0.0000
# 3 27.6208 34.0761 92.5115 0.0000 -19.8972 0.0000
# 4 0.0000 0.0000 0.0000 21.4062 0.0000 -2.0898
# 5 -20.5340 -1.6639 -19.8972 0.0000 34.6207 0.0000
# 6 0.0000 0.0000 0.0000 -2.0898 0.0000 27.5604
#
#
#
# Elastic Compliance Matrix: (Units=1/GPa)
#
#
# Indices 1 2 3 4 5 6 
#
# 1 0.016810 -0.008407 0.000154 0.000000 0.009655 0.000000
# 2 -0.008407 0.024810 -0.008494 0.000000 -0.008676 0.000000
# 3 0.000154 -0.008494 0.015774 0.000000 0.008749 0.000000
# 4 0.000000 0.000000 0.000000 0.047064 0.000000 0.003569
# 5 0.009655 -0.008676 0.008749 0.000000 0.039222 0.000000
# 6 0.000000 0.000000 0.000000 0.003569 0.000000 0.036555
#
#
# Mechanical properties :
#
#
# Convention : Reuss Voigt Hill
#
# Bulk Modulus (GPa) = 41.84200 47.59780 44.71990
# Shear Modulus (GPa) = 22.55343 26.59257 24.57300
#
# Velocity S-wave (km/s) = 3.48716 3.78657 3.63994
# Velocity P-wave (km/s) = 6.22687 6.69187 6.46355
#
# Compressibility (1/GPa) = 0.02389943
#
# Stress axis : x y z
#
# Youngs Moduli (GPa) = 59.48765 40.30656 63.39557
#
# Poissons Ratio (x) = 0.33887 -0.00979
# Poissons Ratio (y) = 0.50012 0.53851
# Poissons Ratio (z) = -0.00918 0.34238
#
# Static dielectric constant tensor:
#      x y z
#    x 1.650530 0.000000 -0.021180 
#    y 0.000000 1.656330 0.000000 
#    z -0.021180 0.000000 1.625840 
# 
# From -- ./inp_files/35236.got.cif
#   From: 2010.05.17/outbox.cif.g08.bks.cpg/sg10_18_cif.got.tgz:35236.got - 2010.06.03 11:33:40.
