data_PCOD9149517
_publ_section_title
;
Structure prediction by ZEFSAII (Michael W. Deem and Ramdas Pophale) SiO2 
 PCOD9149517
Probable space group: P 2/M
;
_chemical_formula_sum "Si O2"
_cell_formula_units_Z 21
_cell_length_a 5.117457
_cell_length_b 11.195043
_cell_length_c 20.922334
_cell_angle_alpha 90.000000
_cell_angle_beta 62.860661
_cell_angle_gamma 90.000000
_cell_volume 1066.672793
_symmetry_space_group_name_H-M "P 2/M"
_symmetry_group_IT_number 10
_symmetry_cell_setting 'monoclinic'
loop_
_space_group_symop_operation_xyz
x,y,z
-x,y,-z
-x,-y,-z
x,-y,z
loop_
_atom_site_type_symbol
_atom_site_label
_atom_site_fract_x
_atom_site_fract_y
_atom_site_fract_z
Si Si1 0.649335 0.130701 0.913036
Si Si2 0.037529 0.500000 0.728907
Si Si3 0.375619 0.296435 0.615101
Si Si4 0.148251 0.730533 0.913789
Si Si5 0.500000 0.500000 0.500000
Si Si6 0.635963 0.500000 0.177354
Si Si7 0.081623 0.140539 0.415457
O O1 0.389007 0.166361 0.895304
O O2 0.900916 0.228447 0.891772
O O3 0.770091 0.000000 0.885356
O O4 0.500000 0.126568 0.000000
O O5 0.689640 0.500000 0.757786
O O6 0.176955 0.381072 0.682031
O O7 0.126320 0.500000 0.792843
O O8 0.528706 0.393905 0.551648
O O9 0.619313 0.217153 0.623650
O O10 0.169951 0.207218 0.597030
O O11 0.311691 0.614391 0.872078
O O12 0.000000 0.711802 0.000000
O O13 0.000000 0.144542 0.500000
O O14 0.110115 0.000000 0.394962
#
# Coordination Sequence:
#
# PCOD9149517 Si02
#       7
#     4   2   4   4   1   2   4
#     4   9  17  31  53  85 118 143 174 224 291 352
#     4  11  26  41  61  80 111 164 196 234 287 340
#     4  11  22  39  59  88 119 151 196 232 284 337
#     4  10  20  34  59  87 112 146 187 243 300 343
#     4  10  20  34  58  86 114 146 182 244 266 306
#     4  12  23  42  58  81 116 152 196 242 284 351
#     4  11  21  36  61  93 123 150 182 238 298 341
#
# _framework density 19.687387000000001
#
# number of rings (size 3 to 8) (size 9 to 14) (size 15 to 20)
#    0.000    1.524    1.905    3.714    0.000    6.857 
#    0.000    3.810    0.000   22.857    0.000    0.000 
#    0.000    0.000    0.000    0.000    0.000    0.000 
#
# Total GULP energy -116965.245805 kJ/mol
# GULP energy per Si atom -5569.773610 kJ/mol
# Density = 1.964258 g / cm^3
# Si number density = 19.687387 Si / 1000 Ang^3
#
#
#
# Elastic Constant Matrix: (Units=GPa)
#
#
# Indices 1 2 3 4 5 6 
#
# 1 63.0429 17.9117 -12.3799 0.0000 -0.1815 0.0000
# 2 17.9117 140.2721 14.4208 0.0000 -11.1789 0.0000
# 3 -12.3799 14.4208 14.2413 0.0000 -2.1143 0.0000
# 4 0.0000 0.0000 0.0000 30.3972 0.0000 -15.6767
# 5 -0.1815 -11.1789 -2.1143 0.0000 25.2062 0.0000
# 6 0.0000 0.0000 0.0000 -15.6767 0.0000 31.3876
#
#
#
# Elastic Compliance Matrix: (Units=1/GPa)
#
#
# Indices 1 2 3 4 5 6 
#
# 1 0.022270 -0.005407 0.024811 0.000000 -0.000156 0.000000
# 2 -0.005407 0.009483 -0.013857 0.000000 0.003005 0.000000
# 3 0.024811 -0.013857 0.106255 0.000000 0.002946 0.000000
# 4 0.000000 0.000000 0.000000 0.044312 0.000000 0.022132
# 5 -0.000156 0.003005 0.002946 0.000000 0.041251 0.000000
# 6 0.000000 0.000000 0.000000 0.022132 0.000000 0.042913
#
#
# Mechanical properties :
#
#
# Convention : Reuss Voigt Hill
#
# Bulk Modulus (GPa) = 6.70675 28.60682 17.65678
# Shear Modulus (GPa) = 16.38847 30.57179 23.48013
#
# Velocity S-wave (km/s) = 2.88833 3.94491 3.45722
# Velocity P-wave (km/s) = 3.81277 5.94238 4.99245
#
# Compressibility (1/GPa) = 0.14910361
#
# Stress axis : x y z
#
# Youngs Moduli (GPa) = 44.90294 105.44656 9.41128
#
# Poissons Ratio (x) = 0.57015 -0.23351
# Poissons Ratio (y) = 0.24279 0.13041
# Poissons Ratio (z) = -1.11410 1.46119
#
# Static dielectric constant tensor:
#      x y z
#    x 1.677110 0.000000 -0.016000 
#    y 0.000000 1.658080 0.000000 
#    z -0.016000 0.000000 1.700100 
# 
# From -- ./inp_files/80911.got.cif
#   From: 2010.05.17/outbox.cif.g08.bks.cpg/sg10_41_cif.got.tgz:80911.got - 2010.06.03 11:33:40.
