data_PCOD9149804
_publ_section_title
;
Structure prediction by ZEFSAII (Michael W. Deem and Ramdas Pophale) SiO2 
 PCOD9149804
Probable space group: P 2/M
;
_chemical_formula_sum "Si O2"
_cell_formula_units_Z 28
_cell_length_a 22.022054
_cell_length_b 9.267744
_cell_length_c 24.620387
_cell_angle_alpha 90.000000
_cell_angle_beta 162.100500
_cell_angle_gamma 90.000000
_cell_volume 1544.392066
_symmetry_space_group_name_H-M "P 2/M"
_symmetry_group_IT_number 10
_symmetry_cell_setting 'monoclinic'
loop_
_space_group_symop_operation_xyz
x,y,z
-x,y,-z
-x,-y,-z
x,-y,z
loop_
_atom_site_type_symbol
_atom_site_label
_atom_site_fract_x
_atom_site_fract_y
_atom_site_fract_z
Si Si1 0.472471 0.671537 0.538596
Si Si2 0.866877 0.670313 0.667610
Si Si3 0.198964 0.169093 0.003281
Si Si4 0.830936 0.172853 0.898271
Si Si5 0.329867 0.829324 0.601310
Si Si6 0.148154 0.674676 0.550829
Si Si7 0.297993 0.325313 0.797726
O O1 0.500000 0.721002 0.500000
O O2 0.510800 0.500000 0.572396
O O3 0.261600 0.695696 0.387036
O O4 0.630846 0.752308 0.709898
O O5 0.868434 0.500000 0.657939
O O6 0.764461 0.754136 0.531432
O O7 0.082784 0.732417 0.862443
O O8 0.152979 0.000000 0.954737
O O9 0.130816 0.206905 0.006458
O O10 0.433591 0.187708 0.199799
O O11 0.809571 0.000000 0.876288
O O12 0.000000 0.218595 0.000000
O O13 0.244655 0.753185 0.582149
O O14 0.286529 0.000000 0.564417
O O15 0.158586 0.500000 0.554492
O O16 0.263795 0.714435 0.705169
O O17 0.914265 0.713527 0.356145
O O18 0.306569 0.500000 0.806091
O O19 0.500000 0.274209 0.000000
#
# Coordination Sequence:
#
# PCOD9149804 Si02
#       7
#     4   4   4   4   4   4   4
#     4  10  21  36  54  80 112 142 179 235 301 355
#     4  11  23  38  59  84 110 147 194 241 292 353
#     4  10  22  39  57  80 112 150 190 237 293 347
#     4  10  20  35  56  81 107 142 189 235 284 348
#     4  11  23  40  59  81 119 161 195 238 292 346
#     4   9  18  33  56  86 115 148 194 238 276 330
#     4   8  15  31  56  85 118 151 185 232 283 326
#
# _framework density 18.130110999999999
#
# number of rings (size 3 to 8) (size 9 to 14) (size 15 to 20)
#    0.000    2.143    1.429    2.571    0.000    4.000 
#    0.000    2.857    0.000    0.857    0.000    0.000 
#    0.000    0.000    0.000    0.000    0.000    0.000 
#
# Total GULP energy -156191.660002 kJ/mol
# GULP energy per Si atom -5578.273571 kJ/mol
# Density = 1.808885 g / cm^3
# Si number density = 18.130111 Si / 1000 Ang^3
#
#
#
# Elastic Constant Matrix: (Units=GPa)
#
#
# Indices 1 2 3 4 5 6 
#
# 1 119.9485 55.3018 50.0756 0.0000 2.4529 0.0000
# 2 55.3018 50.1725 58.9255 0.0000 -5.8623 0.0000
# 3 50.0756 58.9255 121.3490 0.0000 -16.6341 0.0000
# 4 0.0000 0.0000 0.0000 27.2134 0.0000 -4.1456
# 5 2.4529 -5.8623 -16.6341 0.0000 19.0431 0.0000
# 6 0.0000 0.0000 0.0000 -4.1456 0.0000 25.8824
#
#
#
# Elastic Compliance Matrix: (Units=1/GPa)
#
#
# Indices 1 2 3 4 5 6 
#
# 1 0.019057 -0.026663 0.004114 0.000000 -0.007069 0.000000
# 2 -0.026663 0.084328 -0.029442 0.000000 0.003677 0.000000
# 3 0.004114 -0.029442 0.022180 0.000000 0.009781 0.000000
# 4 0.000000 0.000000 0.000000 0.037666 0.000000 0.006033
# 5 -0.007069 0.003677 0.009781 0.000000 0.063099 0.000000
# 6 0.000000 0.000000 0.000000 0.006033 0.000000 0.039603
#
#
# Mechanical properties :
#
#
# Convention : Reuss Voigt Hill
#
# Bulk Modulus (GPa) = 46.33098 68.89731 57.61414
# Shear Modulus (GPa) = 13.25880 22.90558 18.08219
#
# Velocity S-wave (km/s) = 2.70721 3.55829 3.16152
# Velocity P-wave (km/s) = 5.94829 7.41391 6.72117
#
# Compressibility (1/GPa) = 0.02158383
#
# Stress axis : x y z
#
# Youngs Moduli (GPa) = 52.47485 11.85842 45.08516
#
# Poissons Ratio (x) = 0.31618 -0.18550
# Poissons Ratio (y) = 1.39914 1.32740
# Poissons Ratio (z) = -0.21590 0.34914
#
# Static dielectric constant tensor:
#      x y z
#    x 1.631320 0.000000 0.009000 
#    y 0.000000 1.595270 0.000000 
#    z 0.009000 0.000000 1.614250 
# 
# From -- ./inp_files/90402.got.cif
#   From: 2010.05.17/outbox.cif.g08.bks.cpg/sg10_46_cif.got.tgz:90402.got - 2010.06.03 11:33:40.
