data_PCOD9149684
_publ_section_title
;
Structure prediction by ZEFSAII (Michael W. Deem and Ramdas Pophale) SiO2 
 PCOD9149684
Probable space group: P 2/M
;
_chemical_formula_sum "Si O2"
_cell_formula_units_Z 28
_cell_length_a 29.435490
_cell_length_b 7.838786
_cell_length_c 8.578009
_cell_angle_alpha 90.000000
_cell_angle_beta 140.447568
_cell_angle_gamma 90.000000
_cell_volume 1260.372069
_symmetry_space_group_name_H-M "P 2/M"
_symmetry_group_IT_number 10
_symmetry_cell_setting 'monoclinic'
loop_
_space_group_symop_operation_xyz
x,y,z
-x,y,-z
-x,-y,-z
x,-y,z
loop_
_atom_site_type_symbol
_atom_site_label
_atom_site_fract_x
_atom_site_fract_y
_atom_site_fract_z
Si Si1 0.915850 0.205967 0.267842
Si Si2 0.559793 0.190917 0.028764
Si Si3 0.152604 0.199689 0.589290
Si Si4 0.291871 0.700785 0.106652
Si Si5 0.712752 0.701284 0.549534
Si Si6 0.853437 0.198657 0.773710
Si Si7 0.451877 0.192277 0.521099
O O1 0.880931 0.271583 0.337723
O O2 0.000000 0.235141 0.500000
O O3 0.902847 0.000000 0.231593
O O4 0.887424 0.271886 0.024487
O O5 0.509910 0.292058 0.777563
O O6 0.579047 0.000000 0.018613
O O7 0.500000 0.169684 0.000000
O O8 0.631783 0.270735 0.281816
O O9 0.132985 0.270935 0.365123
O O10 0.132471 0.000000 0.531810
O O11 0.237444 0.213873 0.843181
O O12 0.276842 0.500000 0.063824
O O13 0.278955 0.764364 0.250068
O O14 0.375161 0.727479 0.292956
O O15 0.727761 0.500000 0.587667
O O16 0.769147 0.789476 0.585808
O O17 0.875497 0.000000 0.826009
O O18 0.500000 0.169449 0.500000
O O19 0.436475 0.000000 0.545263
#
# Coordination Sequence:
#
# PCOD9149684 Si02
#       7
#     4   4   4   4   4   4   4
#     4   9  18  35  61  93 125 152 184 236 293 342
#     4  10  20  35  55  77 102 140 188 237 291 346
#     4  10  21  37  60  88 118 156 198 238 286 347
#     4  11  23  38  57  81 113 156 199 243 295 348
#     4  11  23  37  56  81 112 150 193 242 293 346
#     4  10  21  37  60  88 117 154 195 233 284 347
#     4  10  22  38  55  78 110 148 193 244 297 353
#
# _framework density 22.215662999999999
#
# number of rings (size 3 to 8) (size 9 to 14) (size 15 to 20)
#    0.000    1.857    2.857    0.857    2.000    3.429 
#    0.000    2.857    0.000    1.714    0.000    2.000 
#    0.000    0.000    0.000    0.000    0.000    0.000 
#
# Total GULP energy -155980.153340 kJ/mol
# GULP energy per Si atom -5570.719762 kJ/mol
# Density = 2.216510 g / cm^3
# Si number density = 22.215663 Si / 1000 Ang^3
#
#
#
# Elastic Constant Matrix: (Units=GPa)
#
#
# Indices 1 2 3 4 5 6 
#
# 1 112.9702 2.2629 73.7723 0.0000 -32.0611 0.0000
# 2 2.2629 39.4534 0.4763 0.0000 -6.1385 0.0000
# 3 73.7723 0.4763 132.6700 0.0000 -22.9122 0.0000
# 4 0.0000 0.0000 0.0000 -33.8098 0.0000 -19.3320
# 5 -32.0611 -6.1385 -22.9122 0.0000 28.4938 0.0000
# 6 0.0000 0.0000 0.0000 -19.3320 0.0000 -6.0482
#
#
#
# Elastic Compliance Matrix: (Units=1/GPa)
#
#
# Indices 1 2 3 4 5 6 
#
# 1 0.017689 0.001291 -0.007380 0.000000 0.014247 0.000000
# 2 0.001291 0.026440 0.000490 0.000000 0.007543 0.000000
# 3 -0.007380 0.000490 0.011872 0.000000 0.001348 0.000000
# 4 0.000000 0.000000 0.000000 0.035737 0.000000 -0.114229
# 5 0.014247 0.007543 0.001348 0.000000 0.053835 0.000000
# 6 0.000000 0.000000 0.000000 -0.114229 0.000000 0.199774
#
#
# Mechanical properties :
#
#
# Convention : Reuss Voigt Hill
#
# Bulk Modulus (GPa) = 22.32014 48.67963 35.49989
# Shear Modulus (GPa) = 13.45966 11.63264 12.54615
#
# Velocity S-wave (km/s) = 2.46410 2.29076 2.37901
# Velocity P-wave (km/s) = 4.26199 5.38114 4.85393
#
# Compressibility (1/GPa) = 0.04480259
#
# Stress axis : x y z
#
# Youngs Moduli (GPa) = 56.53306 37.82156 84.22925
#
# Poissons Ratio (x) = -0.04883 0.62163
# Poissons Ratio (y) = -0.07300 -0.04125
# Poissons Ratio (z) = 0.41722 -0.01852
#
# Static dielectric constant tensor:
#      x y z
#    x 1.780970 0.000000 0.031800 
#    y 0.000000 1.829480 0.000000 
#    z 0.031800 0.000000 1.713500 
# 
# From -- ./inp_files/38051.got.cif
#   From: 2010.05.17/outbox.cif.g08.bks.cpg/sg10_20_cif.got.tgz:38051.got - 2010.06.03 11:33:40.
