data_PCOD9149613
_publ_section_title
;
Structure prediction by ZEFSAII (Michael W. Deem and Ramdas Pophale) SiO2 
 PCOD9149613
Probable space group: P 2/M
;
_chemical_formula_sum "Si O2"
_cell_formula_units_Z 32
_cell_length_a 21.515960
_cell_length_b 9.179389
_cell_length_c 29.406018
_cell_angle_alpha 90.000000
_cell_angle_beta 18.979459
_cell_angle_gamma 90.000000
_cell_volume 1888.861852
_symmetry_space_group_name_H-M "P 2/M"
_symmetry_group_IT_number 10
_symmetry_cell_setting 'monoclinic'
loop_
_space_group_symop_operation_xyz
x,y,z
-x,y,-z
-x,-y,-z
x,-y,z
loop_
_atom_site_type_symbol
_atom_site_label
_atom_site_fract_x
_atom_site_fract_y
_atom_site_fract_z
Si Si1 0.365515 0.667047 0.211530
Si Si2 0.170314 0.176167 0.915559
Si Si3 0.768703 0.822551 0.926394
Si Si4 0.363586 0.249381 0.315215
Si Si5 0.443595 0.336868 0.360578
Si Si6 0.016665 0.675820 0.676522
Si Si7 0.207639 0.164054 0.989371
Si Si8 0.052392 0.833072 0.370676
O O1 0.379404 0.500000 0.186166
O O2 0.345881 0.667871 0.279841
O O3 0.187061 0.748458 0.312549
O O4 0.556187 0.757493 0.067572
O O5 0.376399 0.233018 0.756994
O O6 0.141529 0.232193 0.987447
O O7 0.176478 0.000000 0.913057
O O8 0.000000 0.219949 0.000000
O O9 0.903817 0.753035 0.795096
O O10 0.765336 0.000000 0.927042
O O11 0.834007 0.773297 0.932090
O O12 0.396092 0.337284 0.339340
O O13 0.560716 0.160310 0.174077
O O14 0.165429 0.166938 0.460460
O O15 0.494635 0.500000 0.339390
O O16 0.244356 0.293433 0.521682
O O17 0.991912 0.500000 0.693419
O O18 0.947303 0.745830 0.677026
O O19 0.131862 0.000000 0.042470
O O20 0.115251 0.000000 0.321003
#
# Coordination Sequence:
#
# PCOD9149613 Si02
#       8
#     4   4   4   4   4   4   4   4
#     4  11  22  34  49  70  99 132 165 206 258 307
#     4   9  17  30  51  80 111 137 159 189 234 287
#     4  10  20  35  54  73  94 125 169 213 252 295
#     4   9  18  31  50  72  98 128 163 203 247 299
#     4   9  18  32  51  75 101 129 162 200 240 288
#     4  10  21  37  54  72  96 127 167 211 254 298
#     4   8  15  29  49  74 101 127 158 198 240 285
#     4  11  22  34  50  72  98 129 167 210 256 303
#
# _framework density 16.941419
#
# number of rings (size 3 to 8) (size 9 to 14) (size 15 to 20)
#    0.000    2.375    0.000    2.625    0.000    8.250 
#    0.000    3.125    0.000    0.750    0.000    5.250 
#    0.000    0.000    0.000    0.000    0.000    0.000 
#
# Total GULP energy -178221.879220 kJ/mol
# GULP energy per Si atom -5569.433726 kJ/mol
# Density = 1.690286 g / cm^3
# Si number density = 16.941419 Si / 1000 Ang^3
#
#
#
# Elastic Constant Matrix: (Units=GPa)
#
#
# Indices 1 2 3 4 5 6 
#
# 1 104.9036 34.4977 65.5426 0.0000 -6.9622 0.0000
# 2 34.4977 81.0911 35.6859 0.0000 -4.0251 0.0000
# 3 65.5426 35.6859 91.2924 0.0000 8.4713 0.0000
# 4 0.0000 0.0000 0.0000 20.7088 0.0000 -1.9742
# 5 -6.9622 -4.0251 8.4713 0.0000 32.8186 0.0000
# 6 0.0000 0.0000 0.0000 -1.9742 0.0000 9.7328
#
#
#
# Elastic Compliance Matrix: (Units=1/GPa)
#
#
# Indices 1 2 3 4 5 6 
#
# 1 0.019229 -0.001730 -0.013819 0.000000 0.007434 0.000000
# 2 -0.001730 0.015432 -0.005053 0.000000 0.002830 0.000000
# 3 -0.013819 -0.005053 0.023748 0.000000 -0.009681 0.000000
# 4 0.000000 0.000000 0.000000 0.049241 0.000000 0.009988
# 5 0.007434 0.002830 -0.009681 0.000000 0.034894 0.000000
# 6 0.000000 0.000000 0.000000 0.009988 0.000000 0.104771
#
#
# Mechanical properties :
#
#
# Convention : Reuss Voigt Hill
#
# Bulk Modulus (GPa) = 58.11969 60.97105 59.54537
# Shear Modulus (GPa) = 16.99221 22.08944 19.54082
#
# Velocity S-wave (km/s) = 3.17045 3.61483 3.39991
# Velocity P-wave (km/s) = 6.91253 7.31370 7.11594
#
# Compressibility (1/GPa) = 0.01720587
#
# Stress axis : x y z
#
# Youngs Moduli (GPa) = 52.00604 64.80095 42.10846
#
# Poissons Ratio (x) = 0.11211 0.58188
# Poissons Ratio (y) = 0.08997 0.21277
# Poissons Ratio (z) = 0.71865 0.32743
#
# Static dielectric constant tensor:
#      x y z
#    x 1.584510 0.000000 0.009640 
#    y 0.000000 1.589720 0.000000 
#    z 0.009640 0.000000 1.555000 
# 
# From -- ./inp_files/95657.got.cif
#   From: 2010.05.17/outbox.cif.g08.bks.cpg/sg10_48_cif.got.tgz:95657.got - 2010.06.03 11:33:40.
