data_PCOD9149616
_publ_section_title
;
Structure prediction by ZEFSAII (Michael W. Deem and Ramdas Pophale) SiO2 
 PCOD9149616
Probable space group: P 2/M
;
_chemical_formula_sum "Si O2"
_cell_formula_units_Z 28
_cell_length_a 9.745636
_cell_length_b 15.127686
_cell_length_c 14.678947
_cell_angle_alpha 90.000000
_cell_angle_beta 131.796939
_cell_angle_gamma 90.000000
_cell_volume 1613.362656
_symmetry_space_group_name_H-M "P 2/M"
_symmetry_group_IT_number 10
_symmetry_cell_setting 'monoclinic'
loop_
_space_group_symop_operation_xyz
x,y,z
-x,y,-z
-x,-y,-z
x,-y,z
loop_
_atom_site_type_symbol
_atom_site_label
_atom_site_fract_x
_atom_site_fract_y
_atom_site_fract_z
Si Si1 0.974441 0.897578 0.777051
Si Si2 0.559936 0.219756 0.255373
Si Si3 0.551697 0.102967 0.628665
Si Si4 0.896198 0.105097 0.361482
Si Si5 0.626394 0.399863 0.198657
Si Si6 0.848518 0.773750 0.008693
Si Si7 0.218207 0.401010 0.927984
O O1 0.977923 0.878901 0.670992
O O2 0.771836 0.884700 0.728688
O O3 0.022038 0.000000 0.809501
O O4 0.120781 0.838966 0.893961
O O5 0.541422 0.174159 0.346288
O O6 0.708022 0.159033 0.269250
O O7 0.627645 0.321118 0.272524
O O8 0.356468 0.217582 0.121463
O O9 0.500000 0.112715 0.500000
O O10 0.507747 0.000000 0.635264
O O11 0.000000 0.131404 0.500000
O O12 0.859302 0.000000 0.350628
O O13 0.663452 0.500000 0.248463
O O14 0.756446 0.381718 0.168453
O O15 0.422309 0.401425 0.063230
O O16 0.884395 0.675705 0.063962
O O17 0.000000 0.794574 0.000000
O O18 0.141930 0.500000 0.904212
#
# Coordination Sequence:
#
# PCOD9149616 Si02
#       7
#     4   4   4   4   4   4   4
#     4  10  21  35  50  72 108 143 167 213 269 313
#     4  11  20  33  56  80 103 142 175 214 268 320
#     4  10  20  35  54  74  99 138 186 223 256 305
#     4  10  21  37  56  79 103 131 182 236 264 294
#     4   8  15  29  50  77 104 134 172 213 261 314
#     4  11  21  33  48  78 115 142 173 211 260 329
#     4   8  15  29  49  72 104 141 174 211 254 305
#
# _framework density 17.355056000000001
#
# number of rings (size 3 to 8) (size 9 to 14) (size 15 to 20)
#    0.000    2.286    1.429    3.000    0.000    5.714 
#    0.000    1.429    0.000    0.857    0.000    2.000 
#    0.000    0.000    0.000    0.000    0.000    0.000 
#
# Total GULP energy -156019.425636 kJ/mol
# GULP energy per Si atom -5572.122344 kJ/mol
# Density = 1.731556 g / cm^3
# Si number density = 17.355056 Si / 1000 Ang^3
#
#
#
# Elastic Constant Matrix: (Units=GPa)
#
#
# Indices 1 2 3 4 5 6 
#
# 1 51.9842 41.9846 10.9624 0.0000 -14.2158 0.0000
# 2 41.9846 80.0583 36.1452 0.0000 -19.9182 0.0000
# 3 10.9624 36.1452 42.0587 0.0000 -8.7732 0.0000
# 4 0.0000 0.0000 0.0000 -30.9019 0.0000 -39.4728
# 5 -14.2158 -19.9182 -8.7732 0.0000 25.2920 0.0000
# 6 0.0000 0.0000 0.0000 -39.4728 0.0000 9.0886
#
#
#
# Elastic Compliance Matrix: (Units=1/GPa)
#
#
# Indices 1 2 3 4 5 6 
#
# 1 0.037299 -0.023074 0.011525 0.000000 0.006791 0.000000
# 2 -0.023074 0.037824 -0.024776 0.000000 0.008224 0.000000
# 3 0.011525 -0.024776 0.042415 0.000000 0.001679 0.000000
# 4 0.000000 0.000000 0.000000 -0.004942 0.000000 -0.021465
# 5 0.006791 0.008224 0.001679 0.000000 0.050414 0.000000
# 6 0.000000 0.000000 0.000000 -0.021465 0.000000 0.016804
#
#
# Mechanical properties :
#
#
# Convention : Reuss Voigt Hill
#
# Bulk Modulus (GPa) = 22.27839 39.14286 30.71062
# Shear Modulus (GPa) = 18.69670 6.36303 12.52987
#
# Velocity S-wave (km/s) = 3.28579 1.91686 2.68987
# Velocity P-wave (km/s) = 5.22111 5.24426 5.23270
#
# Compressibility (1/GPa) = 0.04488655
#
# Stress axis : x y z
#
# Youngs Moduli (GPa) = 26.81033 26.43839 23.57650
#
# Poissons Ratio (x) = 0.61005 -0.27171
# Poissons Ratio (y) = 0.61863 0.58413
# Poissons Ratio (z) = -0.30898 0.65504
#
# Static dielectric constant tensor:
#      x y z
#    x 1.599090 0.000000 -0.003920 
#    y 0.000000 1.600780 0.000000 
#    z -0.003920 0.000000 1.584040 
# 
# From -- ./inp_files/51406.got.cif
#   From: 2010.05.17/outbox.cif.g08.bks.cpg/sg10_26_cif.got.tgz:51406.got - 2010.06.03 11:33:40.
