data_PCOD9149367
_publ_section_title
;
Structure prediction by ZEFSAII (Michael W. Deem and Ramdas Pophale) SiO2 
 PCOD9149367
Probable space group: P 2/M
;
_chemical_formula_sum "Si O2"
_cell_formula_units_Z 24
_cell_length_a 11.173998
_cell_length_b 7.623784
_cell_length_c 22.133186
_cell_angle_alpha 90.000000
_cell_angle_beta 32.658453
_cell_angle_gamma 90.000000
_cell_volume 1017.464275
_symmetry_space_group_name_H-M "P 2/M"
_symmetry_group_IT_number 10
_symmetry_cell_setting 'monoclinic'
loop_
_space_group_symop_operation_xyz
x,y,z
-x,y,-z
-x,-y,-z
x,-y,z
loop_
_atom_site_type_symbol
_atom_site_label
_atom_site_fract_x
_atom_site_fract_y
_atom_site_fract_z
Si Si1 0.886080 0.294957 0.174965
Si Si2 0.671118 0.297527 0.149723
Si Si3 0.187194 0.787521 0.373246
Si Si4 0.306102 0.706604 0.624069
Si Si5 0.627667 0.801437 0.031612
Si Si6 0.145399 0.787357 0.251094
O O1 0.831370 0.500000 0.192209
O O2 0.841041 0.223833 0.127027
O O3 0.733169 0.216823 0.292489
O O4 0.141988 0.283141 0.085596
O O5 0.725705 0.500000 0.110592
O O6 0.429756 0.288069 0.283447
O O7 0.643463 0.199967 0.098202
O O8 0.132576 0.737397 0.327269
O O9 0.000000 0.731757 0.500000
O O10 0.202187 0.000000 0.369043
O O11 0.500000 0.783108 0.500000
O O12 0.355832 0.500000 0.611019
O O13 0.071347 0.722925 0.690402
O O14 0.383155 0.725438 0.123442
O O15 0.633955 0.000000 0.006377
O O16 0.150409 0.000000 0.246194
#
# Coordination Sequence:
#
# PCOD9149367 Si02
#       6
#     4   4   4   4   4   4
#     4  10  22  38  56  83 117 151 189 234 282 332
#     4  10  20  34  55  85 118 148 184 233 283 336
#     4   9  19  35  55  81 114 150 188 233 282 333
#     4  10  23  41  59  80 112 152 191 233 279 331
#     4  10  21  38  60  86 116 147 185 233 286 342
#     4   9  20  38  57  81 112 144 185 236 281 328
#
# _framework density 23.588052999999999
#
# number of rings (size 3 to 8) (size 9 to 14) (size 15 to 20)
#    0.000    2.333    0.000    2.500    2.333    8.667 
#    0.000    3.333    0.000    0.000    0.000    0.000 
#    0.000    0.000    0.000    0.000    0.000    0.000 
#
# Total GULP energy -134104.007553 kJ/mol
# GULP energy per Si atom -5587.666981 kJ/mol
# Density = 2.353437 g / cm^3
# Si number density = 23.588053 Si / 1000 Ang^3
#
#
#
# Elastic Constant Matrix: (Units=GPa)
#
#
# Indices 1 2 3 4 5 6 
#
# 1 82.3715 -2.6612 24.6119 0.0000 -4.6691 0.0000
# 2 -2.6612 52.4308 -7.5889 0.0000 4.5865 0.0000
# 3 24.6119 -7.5889 123.7460 0.0000 -1.0414 0.0000
# 4 0.0000 0.0000 0.0000 23.2963 0.0000 -9.6822
# 5 -4.6691 4.5865 -1.0414 0.0000 30.7277 0.0000
# 6 0.0000 0.0000 0.0000 -9.6822 0.0000 11.2920
#
#
#
# Elastic Compliance Matrix: (Units=1/GPa)
#
#
# Indices 1 2 3 4 5 6 
#
# 1 0.013017 0.000126 -0.002565 0.000000 0.001872 0.000000
# 2 0.000126 0.019495 0.001147 0.000000 -0.002852 0.000000
# 3 -0.002565 0.001147 0.008659 0.000000 -0.000267 0.000000
# 4 0.000000 0.000000 0.000000 0.066691 0.000000 0.057183
# 5 0.001872 -0.002852 -0.000267 0.000000 0.033245 0.000000
# 6 0.000000 0.000000 0.000000 0.057183 0.000000 0.137589
#
#
# Mechanical properties :
#
#
# Convention : Reuss Voigt Hill
#
# Bulk Modulus (GPa) = 25.91739 31.91909 28.91824
# Shear Modulus (GPa) = 16.99849 29.34231 23.17040
#
# Velocity S-wave (km/s) = 2.68739 3.53079 3.13756
# Velocity P-wave (km/s) = 4.54321 5.49393 5.04103
#
# Compressibility (1/GPa) = 0.03858414
#
# Stress axis : x y z
#
# Youngs Moduli (GPa) = 76.82352 51.29637 115.48175
#
# Poissons Ratio (x) = -0.00644 0.29626
# Poissons Ratio (y) = -0.00965 -0.13241
# Poissons Ratio (z) = 0.19709 -0.05881
#
# Static dielectric constant tensor:
#      x y z
#    x 1.908870 0.000000 0.032300 
#    y 0.000000 1.862570 0.000000 
#    z 0.032300 0.000000 1.916500 
# 
# From -- ./inp_files/45163.got.cif
#   From: 2010.05.17/outbox.cif.g08.bks.cpg/sg10_23_cif.got.tgz:45163.got - 2010.06.03 11:33:40.
