data_PCOD9149890
_publ_section_title
;
Structure prediction by ZEFSAII (Michael W. Deem and Ramdas Pophale) SiO2 
 PCOD9149890
Probable space group: P 2/M
;
_chemical_formula_sum "Si O2"
_cell_formula_units_Z 20
_cell_length_a 19.929537
_cell_length_b 7.306915
_cell_length_c 10.951016
_cell_angle_alpha 90.000000
_cell_angle_beta 135.936457
_cell_angle_gamma 90.000000
_cell_volume 1109.060299
_symmetry_space_group_name_H-M "P 2/M"
_symmetry_group_IT_number 10
_symmetry_cell_setting 'monoclinic'
loop_
_space_group_symop_operation_xyz
x,y,z
-x,y,-z
-x,-y,-z
x,-y,z
loop_
_atom_site_type_symbol
_atom_site_label
_atom_site_fract_x
_atom_site_fract_y
_atom_site_fract_z
Si Si1 0.703004 0.779236 0.434718
Si Si2 0.049356 0.500000 0.870684
Si Si3 0.490972 0.779675 0.132346
Si Si4 0.718091 0.777875 0.167647
Si Si5 0.085494 0.781116 0.707503
Si Si6 0.844499 0.500000 0.736695
O O1 0.592671 0.721703 0.322218
O O2 0.720318 0.729073 0.314313
O O3 0.779966 0.674855 0.616792
O O4 0.710537 0.000000 0.453952
O O5 0.066073 0.674442 0.806217
O O6 0.941283 0.500000 0.782090
O O7 0.121455 0.500000 0.079349
O O8 0.490544 0.000000 0.143210
O O9 0.500000 0.738933 0.000000
O O10 0.383505 0.715595 0.024396
O O11 0.813329 0.721776 0.220671
O O12 0.716893 0.000000 0.165133
O O13 0.000000 0.741577 0.500000
O O14 0.087630 0.000000 0.729460
#
# Coordination Sequence:
#
# PCOD9149890 Si02
#       6
#     4   2   4   4   4   2
#     4   9  17  32  54  78 105 134 166 206 249 296
#     4  11  25  40  51  71 103 134 169 213 253 292
#     4   7  11  23  46  76 107 133 157 197 253 300
#     4   8  14  27  51  82 109 131 160 204 258 306
#     4  10  20  35  57  81 103 130 165 205 254 308
#     4  11  24  38  52  71  97 135 179 211 242 295
#
# _framework density 18.033283999999998
#
# number of rings (size 3 to 8) (size 9 to 14) (size 15 to 20)
#    0.000    3.000    0.000    3.900    0.000    4.000 
#    0.000    7.500    0.000    2.400    0.000    5.600 
#    0.000    0.000    0.000    0.000    0.000    0.000 
#
# Total GULP energy -111478.326031 kJ/mol
# GULP energy per Si atom -5573.916302 kJ/mol
# Density = 1.799224 g / cm^3
# Si number density = 18.033284 Si / 1000 Ang^3
#
#
#
# Elastic Constant Matrix: (Units=GPa)
#
#
# Indices 1 2 3 4 5 6 
#
# 1 129.0075 38.1211 89.0812 0.0000 25.2612 0.0000
# 2 38.1211 90.0724 53.7080 0.0000 6.1575 0.0000
# 3 89.0812 53.7080 154.3028 0.0000 26.8853 0.0000
# 4 0.0000 0.0000 0.0000 -72.0857 0.0000 -42.5494
# 5 25.2612 6.1575 26.8853 0.0000 30.4844 0.0000
# 6 0.0000 0.0000 0.0000 -42.5494 0.0000 3.8366
#
#
#
# Elastic Compliance Matrix: (Units=1/GPa)
#
#
# Indices 1 2 3 4 5 6 
#
# 1 0.013712 -0.001608 -0.006420 0.000000 -0.005376 0.000000
# 2 -0.001608 0.014277 -0.004455 0.000000 0.002378 0.000000
# 3 -0.006420 -0.004455 0.012589 0.000000 -0.004882 0.000000
# 4 0.000000 0.000000 0.000000 -0.001838 0.000000 -0.020388
# 5 -0.005376 0.002378 -0.004882 0.000000 0.041084 0.000000
# 6 0.000000 0.000000 0.000000 -0.020388 0.000000 0.034540
#
#
# Mechanical properties :
#
#
# Convention : Reuss Voigt Hill
#
# Bulk Modulus (GPa) = 64.05632 81.68927 72.87280
# Shear Modulus (GPa) = 34.59393 5.27854 19.93624
#
# Velocity S-wave (km/s) = 4.38464 1.71274 3.32855
# Velocity P-wave (km/s) = 7.82507 7.02202 7.43439
#
# Compressibility (1/GPa) = 0.01561126
#
# Stress axis : x y z
#
# Youngs Moduli (GPa) = 72.92673 70.04398 79.43696
#
# Poissons Ratio (x) = 0.11262 0.50999
# Poissons Ratio (y) = 0.11725 0.35392
# Poissons Ratio (z) = 0.46819 0.31207
#
# Static dielectric constant tensor:
#      x y z
#    x 1.621160 0.000000 0.047080 
#    y 0.000000 1.667390 0.000000 
#    z 0.047080 0.000000 1.591230 
# 
# From -- ./inp_files/31707.got.cif
#   From: 2010.05.17/outbox.cif.g08.bks.cpg/sg10_16_cif.got.tgz:31707.got - 2010.06.03 11:33:40.
