data_PCOD9149082
_publ_section_title
;
Structure prediction by ZEFSAII (Michael W. Deem and Ramdas Pophale) SiO2 
 PCOD9149082
Probable space group: P 2/M
;
_chemical_formula_sum "Si O2"
_cell_formula_units_Z 28
_cell_length_a 9.381230
_cell_length_b 7.525327
_cell_length_c 30.256423
_cell_angle_alpha 90.000000
_cell_angle_beta 38.461117
_cell_angle_gamma 90.000000
_cell_volume 1328.561087
_symmetry_space_group_name_H-M "P 2/M"
_symmetry_group_IT_number 10
_symmetry_cell_setting 'monoclinic'
loop_
_space_group_symop_operation_xyz
x,y,z
-x,y,-z
-x,-y,-z
x,-y,z
loop_
_atom_site_type_symbol
_atom_site_label
_atom_site_fract_x
_atom_site_fract_y
_atom_site_fract_z
Si Si1 0.414650 0.785026 0.568983
Si Si2 0.648527 0.717464 0.005608
Si Si3 0.171210 0.717546 0.867709
Si Si4 0.745076 0.710270 0.570489
Si Si5 0.523404 0.285458 0.857883
Si Si6 0.894488 0.792174 0.698916
Si Si7 0.465855 0.705287 0.288513
O O1 0.500000 0.726677 0.500000
O O2 0.584640 0.729565 0.566770
O O3 0.152973 0.723228 0.638985
O O4 0.413967 0.000000 0.569511
O O5 0.651194 0.500000 0.005926
O O6 0.910787 0.774974 0.936072
O O7 0.500000 0.773082 0.000000
O O8 0.534486 0.776549 0.079073
O O9 0.172060 0.500000 0.866487
O O10 0.321362 0.770446 0.873615
O O11 0.311563 0.781115 0.790601
O O12 0.775965 0.500000 0.571789
O O13 0.623301 0.785540 0.644040
O O14 0.000000 0.783972 0.500000
O O15 0.525959 0.500000 0.857745
O O16 0.759093 0.228283 0.777755
O O17 0.737787 0.708848 0.698446
O O18 0.906176 0.000000 0.684866
O O19 0.524247 0.500000 0.283588
#
# Coordination Sequence:
#
# PCOD9149082 Si02
#       7
#     4   4   4   4   4   4   4
#     4  10  22  38  54  74 101 136 175 209 244 292
#     4   9  16  25  42  70  97 122 160 207 247 287
#     4   8  14  26  44  66  93 125 160 197 238 289
#     4  10  21  35  53  80 109 134 164 206 255 302
#     4   9  17  30  49  70  95 128 161 199 251 301
#     4  10  20  34  53  76 101 130 168 211 250 295
#     4   9  18  33  53  76 102 132 166 206 253 302
#
# _framework density 21.075434000000001
#
# number of rings (size 3 to 8) (size 9 to 14) (size 15 to 20)
#    0.000    2.714    0.000    2.571    0.000    5.143 
#    0.000    2.857    0.000    7.286    0.000    0.000 
#    0.000    0.000    0.000    0.000    0.000    0.000 
#
# Total GULP energy -156304.653602 kJ/mol
# GULP energy per Si atom -5582.309057 kJ/mol
# Density = 2.102747 g / cm^3
# Si number density = 21.075434 Si / 1000 Ang^3
#
#
#
# Elastic Constant Matrix: (Units=GPa)
#
#
# Indices 1 2 3 4 5 6 
#
# 1 99.2031 -15.3574 109.3787 0.0000 5.0549 0.0000
# 2 -15.3574 50.7021 -6.6934 0.0000 3.0223 0.0000
# 3 109.3787 -6.6934 212.4752 0.0000 10.6074 0.0000
# 4 0.0000 0.0000 0.0000 34.8290 0.0000 -11.5451
# 5 5.0549 3.0223 10.6074 0.0000 43.0500 0.0000
# 6 0.0000 0.0000 0.0000 -11.5451 0.0000 28.5108
#
#
#
# Elastic Compliance Matrix: (Units=1/GPa)
#
#
# Indices 1 2 3 4 5 6 
#
# 1 0.024948 0.005901 -0.012646 0.000000 -0.000228 0.000000
# 2 0.005901 0.021306 -0.002285 0.000000 -0.001626 0.000000
# 3 -0.012646 -0.002285 0.011200 0.000000 -0.001114 0.000000
# 4 0.000000 0.000000 0.000000 0.033163 0.000000 0.013429
# 5 -0.000228 -0.001626 -0.001114 0.000000 0.023644 0.000000
# 6 0.000000 0.000000 0.000000 0.013429 0.000000 0.040512
#
#
# Mechanical properties :
#
#
# Convention : Reuss Voigt Hill
#
# Bulk Modulus (GPa) = 25.38503 59.67069 42.52786
# Shear Modulus (GPa) = 26.88681 39.61479 33.25080
#
# Velocity S-wave (km/s) = 3.57563 4.34022 3.97634
# Velocity P-wave (km/s) = 5.39609 7.31375 6.42685
#
# Compressibility (1/GPa) = 0.03939329
#
# Stress axis : x y z
#
# Youngs Moduli (GPa) = 40.08312 46.93610 89.28708
#
# Poissons Ratio (x) = -0.27696 1.12909
# Poissons Ratio (y) = -0.23652 0.20405
# Poissons Ratio (z) = 0.50688 0.10726
#
# Static dielectric constant tensor:
#      x y z
#    x 1.692190 0.000000 0.001030 
#    y 0.000000 1.804430 0.000000 
#    z 0.001030 0.000000 1.764830 
# 
# From -- ./inp_files/37926.got.cif
#   From: 2010.05.17/outbox.cif.g08.bks.cpg/sg10_19_cif.got.tgz:37926.got - 2010.06.03 11:33:40.
