data_PCOD9149968
_publ_section_title
;
Structure prediction by ZEFSAII (Michael W. Deem and Ramdas Pophale) SiO2 
 PCOD9149968
Probable space group: P 2/M
;
_chemical_formula_sum "Si O2"
_cell_formula_units_Z 28
_cell_length_a 12.916615
_cell_length_b 7.516718
_cell_length_c 16.481189
_cell_angle_alpha 90.000000
_cell_angle_beta 45.885251
_cell_angle_gamma 90.000000
_cell_volume 1148.835845
_symmetry_space_group_name_H-M "P 2/M"
_symmetry_group_IT_number 10
_symmetry_cell_setting 'monoclinic'
loop_
_space_group_symop_operation_xyz
x,y,z
-x,y,-z
-x,-y,-z
x,-y,z
loop_
_atom_site_type_symbol
_atom_site_label
_atom_site_fract_x
_atom_site_fract_y
_atom_site_fract_z
Si Si1 0.647601 0.794158 0.878251
Si Si2 0.641827 0.715990 0.207454
Si Si3 0.416699 0.205063 0.465417
Si Si4 0.107915 0.201196 0.372383
Si Si5 0.768038 0.285017 0.981026
Si Si6 0.895077 0.701625 0.354413
Si Si7 0.084862 0.284072 0.840124
O O1 0.742323 0.723048 0.749477
O O2 0.751093 0.787630 0.900618
O O3 0.615479 0.000000 0.875989
O O4 0.500000 0.715224 0.000000
O O5 0.638429 0.500000 0.211512
O O6 0.516870 0.783655 0.332667
O O7 0.790238 0.777412 0.169068
O O8 0.644347 0.768994 0.111914
O O9 0.500000 0.277685 0.500000
O O10 0.267933 0.299394 0.526111
O O11 0.382385 0.000000 0.502165
O O12 0.000000 0.284146 0.500000
O O13 0.000525 0.193950 0.354522
O O14 0.142345 0.000000 0.382318
O O15 0.767658 0.500000 0.974964
O O16 0.919298 0.231553 0.939295
O O17 0.952836 0.500000 0.319237
O O18 0.880273 0.767570 0.270849
O O19 0.087105 0.500000 0.845104
#
# Coordination Sequence:
#
# PCOD9149968 Si02
#       7
#     4   4   4   4   4   4   4
#     4  10  22  40  61  84 114 155 199 243 299 362
#     4  10  20  35  57  85 119 157 196 237 286 348
#     4  11  23  37  54  80 118 159 199 242 288 342
#     4  10  22  41  63  87 117 155 198 248 305 361
#     4  10  20  36  59  88 117 149 193 241 291 345
#     4  11  21  36  62  88 113 151 196 241 292 348
#     4   9  17  32  56  84 115 150 187 232 283 339
#
# _framework density 24.372498
#
# number of rings (size 3 to 8) (size 9 to 14) (size 15 to 20)
#    0.000    1.857    2.857    1.286    0.000    4.571 
#    0.000    2.143    0.000    1.714    0.000    0.000 
#    0.000    0.000    0.000    0.000    0.000    0.000 
#
# Total GULP energy -156275.264539 kJ/mol
# GULP energy per Si atom -5581.259448 kJ/mol
# Density = 2.431703 g / cm^3
# Si number density = 24.372498 Si / 1000 Ang^3
#
#
#
# Elastic Constant Matrix: (Units=GPa)
#
#
# Indices 1 2 3 4 5 6 
#
# 1 21.5421 -1.6442 25.5000 0.0000 -4.8784 0.0000
# 2 -1.6442 72.0677 0.6986 0.0000 1.5825 0.0000
# 3 25.5000 0.6986 222.4995 0.0000 0.5437 0.0000
# 4 0.0000 0.0000 0.0000 -7.2770 0.0000 -3.6278
# 5 -4.8784 1.5825 0.5437 0.0000 38.5147 0.0000
# 6 0.0000 0.0000 0.0000 -3.6278 0.0000 -4.6707
#
#
#
# Elastic Compliance Matrix: (Units=1/GPa)
#
#
# Indices 1 2 3 4 5 6 
#
# 1 0.055699 0.001177 -0.006405 0.000000 0.007097 0.000000
# 2 0.001177 0.013914 -0.000178 0.000000 -0.000420 0.000000
# 3 -0.006405 -0.000178 0.005231 0.000000 -0.000878 0.000000
# 4 0.000000 0.000000 0.000000 -0.224249 0.000000 0.174175
# 5 0.007097 -0.000420 -0.000878 0.000000 0.026893 0.000000
# 6 0.000000 0.000000 0.000000 0.174175 0.000000 -0.349382
#
#
# Mechanical properties :
#
#
# Convention : Reuss Voigt Hill
#
# Bulk Modulus (GPa) = 15.61678 40.57976 28.09827
# Shear Modulus (GPa) = -11.37037 24.75038 6.69000
#
# Velocity S-wave (km/s) = -2.16226 3.19016 1.65857
# Velocity P-wave (km/s) = 0.43315 5.50049 3.90148
#
# Compressibility (1/GPa) = 0.06403369
#
# Stress axis : x y z
#
# Youngs Moduli (GPa) = 17.95361 71.87187 191.16441
#
# Poissons Ratio (x) = -0.08459 1.22432
# Poissons Ratio (y) = -0.02113 0.03394
# Poissons Ratio (z) = 0.11498 0.01276
#
# Static dielectric constant tensor:
#      x y z
#    x 1.898740 0.000000 -0.023030 
#    y 0.000000 1.961500 0.000000 
#    z -0.023030 0.000000 2.037170 
# 
# From -- ./inp_files/49154.got.cif
#   From: 2010.05.17/outbox.cif.g08.bks.cpg/sg10_25_cif.got.tgz:49154.got - 2010.06.03 11:33:40.
