data_PCOD9149839
_publ_section_title
;
Structure prediction by ZEFSAII (Michael W. Deem and Ramdas Pophale) SiO2 
 PCOD9149839
Probable space group: P 2/M
;
_chemical_formula_sum "Si O2"
_cell_formula_units_Z 32
_cell_length_a 14.912294
_cell_length_b 7.559617
_cell_length_c 12.803878
_cell_angle_alpha 90.000000
_cell_angle_beta 85.370002
_cell_angle_gamma 90.000000
_cell_volume 1438.686770
_symmetry_space_group_name_H-M "P 2/M"
_symmetry_group_IT_number 10
_symmetry_cell_setting 'monoclinic'
loop_
_space_group_symop_operation_xyz
x,y,z
-x,y,-z
-x,-y,-z
x,-y,z
loop_
_atom_site_type_symbol
_atom_site_label
_atom_site_fract_x
_atom_site_fract_y
_atom_site_fract_z
Si Si1 0.266056 0.213792 0.369641
Si Si2 0.951649 0.794927 0.903082
Si Si3 0.246780 0.782993 0.135981
Si Si4 0.403886 0.787075 0.966161
Si Si5 0.881311 0.703722 0.241864
Si Si6 0.596659 0.292322 0.461678
Si Si7 0.685510 0.711280 0.240797
Si Si8 0.900672 0.214190 0.478274
O O1 0.273977 0.273543 0.249962
O O2 0.340815 0.276963 0.443246
O O3 0.170684 0.267702 0.427748
O O4 0.269197 0.000000 0.369428
O O5 0.854428 0.721348 0.881142
O O6 0.026510 0.790509 0.805481
O O7 0.933074 0.000000 0.930711
O O8 0.000000 0.714449 0.000000
O O9 0.246075 0.000000 0.136961
O O10 0.320767 0.724779 0.045359
O O11 0.381158 0.742719 0.848835
O O12 0.405648 0.000000 0.973478
O O13 0.500000 0.722118 0.000000
O O14 0.888960 0.500000 0.208634
O O15 0.786739 0.780480 0.208545
O O16 0.874375 0.715758 0.367356
O O17 0.500000 0.213804 0.500000
O O18 0.582405 0.500000 0.439395
O O19 0.645436 0.218122 0.353728
O O20 0.697619 0.500000 0.251771
O O21 0.000000 0.272066 0.500000
O O22 0.900133 0.000000 0.471612
#
# Coordination Sequence:
#
# PCOD9149839 Si02
#       8
#     4   4   4   4   4   4   4   4
#     4  10  20  35  58  85 116 151 188 238 286 335
#     4  10  20  36  60  84 111 155 200 237 284 344
#     4   9  19  37  57  84 121 151 185 236 291 341
#     4  10  22  39  62  90 116 147 190 241 291 341
#     4  11  22  36  56  83 117 151 186 238 290 336
#     4  10  22  40  60  82 113 153 193 236 286 344
#     4  10  22  40  59  83 117 153 190 236 288 344
#     4  10  20  35  56  83 113 151 194 231 278 343
#
# _framework density 22.242508000000001
#
# number of rings (size 3 to 8) (size 9 to 14) (size 15 to 20)
#    0.000    2.000    1.250    1.875    1.750    5.500 
#    0.000    3.125    0.000    0.000    0.000    0.000 
#    0.000    0.000    0.000    0.000    0.000    0.000 
#
# Total GULP energy -178823.511906 kJ/mol
# GULP energy per Si atom -5588.234747 kJ/mol
# Density = 2.219188 g / cm^3
# Si number density = 22.242508 Si / 1000 Ang^3
#
#
#
# Elastic Constant Matrix: (Units=GPa)
#
#
# Indices 1 2 3 4 5 6 
#
# 1 174.8909 4.3659 57.7013 0.0000 6.3353 0.0000
# 2 4.3659 47.9976 -4.9679 0.0000 -5.6980 0.0000
# 3 57.7013 -4.9679 130.5363 0.0000 5.5903 0.0000
# 4 0.0000 0.0000 0.0000 21.5738 0.0000 9.1516
# 5 6.3353 -5.6980 5.5903 0.0000 36.0457 0.0000
# 6 0.0000 0.0000 0.0000 9.1516 0.0000 -0.6758
#
#
#
# Elastic Compliance Matrix: (Units=1/GPa)
#
#
# Indices 1 2 3 4 5 6 
#
# 1 0.006762 -0.001030 -0.002990 0.000000 -0.000888 0.000000
# 2 -0.001030 0.021448 0.001126 0.000000 0.003397 0.000000
# 3 -0.002990 0.001126 0.009055 0.000000 -0.000701 0.000000
# 4 0.000000 0.000000 0.000000 0.006873 0.000000 0.093069
# 5 -0.000888 0.003397 -0.000701 0.000000 0.028544 0.000000
# 6 0.000000 0.000000 0.000000 0.093069 0.000000 -0.219398
#
#
# Mechanical properties :
#
#
# Convention : Reuss Voigt Hill
#
# Bulk Modulus (GPa) = 31.76917 51.95815 41.86366
# Shear Modulus (GPa) = -38.33347 31.14376 -3.59485
#
# Velocity S-wave (km/s) = -4.15593 3.74597 -1.27268
# Velocity P-wave (km/s) = 2.95210 6.49002 4.08689
#
# Compressibility (1/GPa) = 0.03147706
#
# Stress axis : x y z
#
# Youngs Moduli (GPa) = 147.87839 46.62468 110.43129
#
# Poissons Ratio (x) = 0.04802 0.33023
# Poissons Ratio (y) = 0.15231 -0.12435
# Poissons Ratio (z) = 0.44221 -0.05250
#
# Static dielectric constant tensor:
#      x y z
#    x 1.810360 0.000000 -0.011050 
#    y 0.000000 1.852330 0.000000 
#    z -0.011050 0.000000 1.783730 
# 
# From -- ./inp_files/49926.got.cif
#   From: 2010.05.17/outbox.cif.g08.bks.cpg/sg10_25_cif.got.tgz:49926.got - 2010.06.03 11:33:40.
