data_PCOD9149080
_publ_section_title
;
Structure prediction by ZEFSAII (Michael W. Deem and Ramdas Pophale) SiO2 
 PCOD9149080
Probable space group: P 2/M
;
_chemical_formula_sum "Si O2"
_cell_formula_units_Z 28
_cell_length_a 9.277468
_cell_length_b 7.470918
_cell_length_c 29.732898
_cell_angle_alpha 90.000000
_cell_angle_beta 141.266554
_cell_angle_gamma 90.000000
_cell_volume 1289.453027
_symmetry_space_group_name_H-M "P 2/M"
_symmetry_group_IT_number 10
_symmetry_cell_setting 'monoclinic'
loop_
_space_group_symop_operation_xyz
x,y,z
-x,y,-z
-x,-y,-z
x,-y,z
loop_
_atom_site_type_symbol
_atom_site_label
_atom_site_fract_x
_atom_site_fract_y
_atom_site_fract_z
Si Si1 0.237226 0.218592 0.928411
Si Si2 0.621499 0.780953 0.215072
Si Si3 0.474808 0.212761 0.355107
Si Si4 0.663130 0.287238 0.499996
Si Si5 0.800744 0.212767 0.355112
Si Si6 0.953859 0.780953 0.215072
Si Si7 0.904828 0.218592 0.928411
O O1 0.140679 0.274546 0.856522
O O2 0.071162 0.275907 0.928465
O O3 0.237333 0.000000 0.928600
O O4 0.500000 0.275701 0.000000
O O5 0.718207 0.718514 0.286618
O O6 0.358071 0.725453 0.143479
O O7 0.785921 0.724041 0.214369
O O8 0.623296 0.000000 0.215519
O O9 0.571952 0.237243 0.428663
O O10 0.649238 0.284616 0.359695
O O11 0.214878 0.281488 0.286617
O O12 0.459231 0.000000 0.344105
O O13 0.500000 0.213465 0.500000
O O14 0.652664 0.500000 0.499986
O O15 0.928628 0.237276 0.571334
O O16 0.761351 0.000000 0.344120
O O17 0.954298 0.000000 0.215519
O O18 0.905666 0.000000 0.928599
O O19 0.000000 0.275701 0.000000
#
# Coordination Sequence:
#
# PCOD9149080 Si02
#       7
#     4   4   4   4   4   4   4
#     4   9  15  22  33  52  82 120 159 197 238 285
#     4   9  16  26  41  62  89 122 159 198 240 286
#     4  10  20  34  53  76 100 128 164 204 246 294
#     4  11  24  39  54  74 100 129 162 201 246 296
#     4  10  20  34  53  76 100 128 164 204 246 294
#     4   9  16  26  41  62  89 122 159 198 240 286
#     4   9  15  22  33  52  82 120 159 197 238 285
#
# _framework density 21.714635000000001
#
# number of rings (size 3 to 8) (size 9 to 14) (size 15 to 20)
#    0.000    2.429    0.000    3.429    0.000   11.429 
#    0.000    0.000    0.000    0.000    0.000    0.000 
#    0.000    1.143    0.000    4.286    0.000    9.429 
#
# Total GULP energy -156515.035492 kJ/mol
# GULP energy per Si atom -5589.822696 kJ/mol
# Density = 2.166521 g / cm^3
# Si number density = 21.714635 Si / 1000 Ang^3
#
#
#
# Elastic Constant Matrix: (Units=GPa)
#
#
# Indices 1 2 3 4 5 6 
#
# 1 284.7065 6.9242 173.3839 0.0000 -0.6708 0.0000
# 2 6.9242 62.2922 -1.9513 0.0000 -0.4577 0.0000
# 3 173.3839 -1.9513 264.4020 0.0000 -0.3766 0.0000
# 4 0.0000 0.0000 0.0000 -45.9731 0.0000 -1.8367
# 5 -0.6708 -0.4577 -0.3766 0.0000 49.1721 0.0000
# 6 0.0000 0.0000 0.0000 -1.8367 0.0000 -10.2701
#
#
#
# Elastic Compliance Matrix: (Units=1/GPa)
#
#
# Indices 1 2 3 4 5 6 
#
# 1 0.005885 -0.000775 -0.003865 0.000000 0.000043 0.000000
# 2 -0.000775 0.016160 0.000628 0.000000 0.000145 0.000000
# 3 -0.003865 0.000628 0.006321 0.000000 0.000002 0.000000
# 4 0.000000 0.000000 0.000000 -0.021908 0.000000 0.003918
# 5 0.000043 0.000145 0.000002 0.000000 0.020339 0.000000
# 6 0.000000 0.000000 0.000000 0.003918 0.000000 -0.098071
#
#
# Mechanical properties :
#
#
# Convention : Reuss Voigt Hill
#
# Bulk Modulus (GPa) = 49.15893 107.56828 78.36360
# Shear Modulus (GPa) = -88.54387 27.45536 -30.54425
#
# Velocity S-wave (km/s) = -6.39255 3.55966 -3.75456
# Velocity P-wave (km/s) = 5.63901 8.15718 4.16781
#
# Compressibility (1/GPa) = 0.02034218
#
# Stress axis : x y z
#
# Youngs Moduli (GPa) = 169.92513 61.88033 158.20022
#
# Poissons Ratio (x) = 0.04795 0.61141
# Poissons Ratio (y) = 0.13167 -0.09929
# Poissons Ratio (z) = 0.65672 -0.03884
#
# Static dielectric constant tensor:
#      x y z
#    x 1.756780 0.000000 -0.000780 
#    y 0.000000 1.819680 0.000000 
#    z -0.000780 0.000000 1.741640 
# 
# From -- ./inp_files/38012.got.cif
#   From: 2010.05.17/outbox.cif.g08.bks.cpg/sg10_20_cif.got.tgz:38012.got - 2010.06.03 11:33:40.
