data_PCOD9149087
_publ_section_title
;
Structure prediction by ZEFSAII (Michael W. Deem and Ramdas Pophale) SiO2 
 PCOD9149087
Probable space group: P 2/M
;
_chemical_formula_sum "Si O2"
_cell_formula_units_Z 24
_cell_length_a 29.426330
_cell_length_b 7.959681
_cell_length_c 7.893763
_cell_angle_alpha 90.000000
_cell_angle_beta 34.653015
_cell_angle_gamma 90.000000
_cell_volume 1051.299910
_symmetry_space_group_name_H-M "P 2/M"
_symmetry_group_IT_number 10
_symmetry_cell_setting 'monoclinic'
loop_
_space_group_symop_operation_xyz
x,y,z
-x,y,-z
-x,-y,-z
x,-y,z
loop_
_atom_site_type_symbol
_atom_site_label
_atom_site_fract_x
_atom_site_fract_y
_atom_site_fract_z
Si Si1 0.032591 0.693920 0.711789
Si Si2 0.639563 0.800768 0.520145
Si Si3 0.421878 0.794206 0.632998
Si Si4 0.304746 0.799259 0.281162
Si Si5 0.181221 0.809863 0.095154
Si Si6 0.131422 0.309955 0.900206
O O1 0.045690 0.500000 0.619998
O O2 0.116922 0.785762 0.437982
O O3 0.000000 0.697400 0.000000
O O4 0.956835 0.768366 0.842842
O O5 0.580049 0.734545 0.557094
O O6 0.655509 0.734768 0.662489
O O7 0.622066 0.000000 0.595649
O O8 0.725501 0.783779 0.161866
O O9 0.500000 0.748627 0.500000
O O10 0.419357 0.000000 0.631212
O O11 0.348921 0.737308 0.977353
O O12 0.209958 0.766089 0.572753
O O13 0.315228 0.000000 0.253204
O O14 0.175355 0.000000 0.046144
O O15 0.153473 0.692038 0.029084
O O16 0.123623 0.500000 0.858796
#
# Coordination Sequence:
#
# PCOD9149087 Si02
#       6
#     4   4   4   4   4   4
#     4  10  22  36  49  72 105 138 175 215 255 305
#     4   8  16  30  46  72 105 132 167 210 254 306
#     4   9  17  29  49  77 106 135 165 206 263 316
#     4   9  18  32  52  76 104 135 170 216 260 305
#     4  10  20  34  53  76 102 134 173 217 261 304
#     4  10  20  35  54  73  99 137 175 213 257 306
#
# _framework density 22.828879000000001
#
# number of rings (size 3 to 8) (size 9 to 14) (size 15 to 20)
#    0.000    2.667    0.000    2.500    2.333    4.333 
#    0.000    3.333    0.000    0.500    0.000    4.667 
#    0.000    0.000    0.000    0.000    0.000    0.000 
#
# Total GULP energy -133737.191080 kJ/mol
# GULP energy per Si atom -5572.382962 kJ/mol
# Density = 2.277692 g / cm^3
# Si number density = 22.828879 Si / 1000 Ang^3
#
#
#
# Elastic Constant Matrix: (Units=GPa)
#
#
# Indices 1 2 3 4 5 6 
#
# 1 74.1928 11.5428 -30.6324 0.0000 1.7702 0.0000
# 2 11.5428 16.4542 1.8140 0.0000 -3.2261 0.0000
# 3 -30.6324 1.8140 3.4257 0.0000 22.4632 0.0000
# 4 0.0000 0.0000 0.0000 59.9444 0.0000 6.1962
# 5 1.7702 -3.2261 22.4632 0.0000 19.8836 0.0000
# 6 0.0000 0.0000 0.0000 6.1962 0.0000 3.3573
#
#
#
# Elastic Compliance Matrix: (Units=1/GPa)
#
#
# Indices 1 2 3 4 5 6 
#
# 1 0.008214 -0.001765 -0.012649 0.000000 0.013273 0.000000
# 2 -0.001765 0.058223 0.017102 0.000000 -0.009717 0.000000
# 3 -0.012649 0.017102 -0.022498 0.000000 0.029318 0.000000
# 4 0.000000 0.000000 0.000000 0.020615 0.000000 -0.038047
# 5 0.013273 -0.009717 0.029318 0.000000 0.014413 0.000000
# 6 0.000000 0.000000 0.000000 -0.038047 0.000000 0.368083
#
#
# Mechanical properties :
#
#
# Convention : Reuss Voigt Hill
#
# Bulk Modulus (GPa) = 20.27845 6.61351 13.44598
# Shear Modulus (GPa) = 10.91437 24.06026 17.48732
#
# Velocity S-wave (km/s) = 2.18891 3.24997 2.77070
# Velocity P-wave (km/s) = 3.91031 4.12145 4.01727
#
# Compressibility (1/GPa) = 0.04931343
#
# Stress axis : x y z
#
# Youngs Moduli (GPa) = 121.74566 17.17547 -44.44806
#
# Poissons Ratio (x) = 0.03032 -0.56223
# Poissons Ratio (y) = 0.21492 0.76016
# Poissons Ratio (z) = 1.53998 -0.29374
#
# Static dielectric constant tensor:
#      x y z
#    x 1.917070 0.000000 -0.028150 
#    y 0.000000 1.836980 0.000000 
#    z -0.028150 0.000000 1.900580 
# 
# From -- ./inp_files/33508.got.cif
#   From: 2010.05.17/outbox.cif.g08.bks.cpg/sg10_17_cif.got.tgz:33508.got - 2010.06.03 11:33:40.
