data_PCOD9149880
_publ_section_title
;
Structure prediction by ZEFSAII (Michael W. Deem and Ramdas Pophale) SiO2 
 PCOD9149880
Probable space group: P 2/M
;
_chemical_formula_sum "Si O2"
_cell_formula_units_Z 32
_cell_length_a 25.201459
_cell_length_b 10.643987
_cell_length_c 7.593633
_cell_angle_alpha 90.000000
_cell_angle_beta 52.073047
_cell_angle_gamma 90.000000
_cell_volume 1606.733272
_symmetry_space_group_name_H-M "P 2/M"
_symmetry_group_IT_number 10
_symmetry_cell_setting 'monoclinic'
loop_
_space_group_symop_operation_xyz
x,y,z
-x,y,-z
-x,-y,-z
x,-y,z
loop_
_atom_site_type_symbol
_atom_site_label
_atom_site_fract_x
_atom_site_fract_y
_atom_site_fract_z
Si Si1 0.219755 0.856978 0.092622
Si Si2 0.439313 0.359023 0.352056
Si Si3 0.466365 0.135079 0.760668
Si Si4 0.780894 0.856498 0.489691
Si Si5 0.679458 0.638760 0.683542
Si Si6 0.071582 0.857573 0.895208
Si Si7 0.927512 0.142772 0.689872
Si Si8 0.348289 0.281011 0.869457
O O1 0.230020 0.866687 0.280179
O O2 0.144583 0.803733 0.218788
O O3 0.222173 0.000000 0.013753
O O4 0.281062 0.768747 0.910871
O O5 0.468342 0.500000 0.293604
O O6 0.495959 0.252164 0.228789
O O7 0.388496 0.347444 0.291641
O O8 0.396619 0.341068 0.621915
O O9 0.500000 0.126948 0.500000
O O10 0.389467 0.165419 0.872548
O O11 0.473907 0.000000 0.835077
O O12 0.727848 0.754127 0.533282
O O13 0.856971 0.806426 0.310966
O O14 0.776316 0.000000 0.425639
O O15 0.707172 0.500000 0.582910
O O16 0.668075 0.642134 0.919102
O O17 0.068740 0.000000 0.823917
O O18 0.075443 0.866352 0.095636
O O19 0.000000 0.795144 0.000000
O O20 0.000000 0.202513 0.500000
O O21 0.929234 0.000000 0.609242
#
# Coordination Sequence:
#
# PCOD9149880 Si02
#       8
#     4   4   4   4   4   4   4   4
#     4   9  17  29  46  71 103 137 172 217 267 316
#     4  10  22  38  57  80 107 142 183 225 268 322
#     4   9  19  36  57  83 112 144 179 223 275 323
#     4   9  18  32  50  74 104 136 175 220 270 318
#     4  10  22  38  55  79 109 141 181 225 269 318
#     4   9  16  26  43  69 102 137 171 212 262 316
#     4   9  16  25  40  66 101 139 174 209 257 313
#     4  10  20  35  57  78 105 140 181 222 270 321
#
# _framework density 19.916187000000001
#
# number of rings (size 3 to 8) (size 9 to 14) (size 15 to 20)
#    0.000    2.625    0.000    1.500    1.750    7.750 
#    0.000    1.875    0.000    0.375    0.000    0.000 
#    0.000    5.750    0.000    0.000    0.000    0.000 
#
# Total GULP energy -178238.586090 kJ/mol
# GULP energy per Si atom -5569.955815 kJ/mol
# Density = 1.987086 g / cm^3
# Si number density = 19.916187 Si / 1000 Ang^3
#
#
#
# Elastic Constant Matrix: (Units=GPa)
#
#
# Indices 1 2 3 4 5 6 
#
# 1 100.8116 51.0008 21.2113 0.0000 -18.0260 0.0000
# 2 51.0008 106.1668 19.3930 0.0000 -21.6370 0.0000
# 3 21.2113 19.3930 62.7373 0.0000 -11.0067 0.0000
# 4 0.0000 0.0000 0.0000 -3.3487 0.0000 1.7748
# 5 -18.0260 -21.6370 -11.0067 0.0000 39.1811 0.0000
# 6 0.0000 0.0000 0.0000 1.7748 0.0000 14.1412
#
#
#
# Elastic Compliance Matrix: (Units=1/GPa)
#
#
# Indices 1 2 3 4 5 6 
#
# 1 0.013739 -0.005638 -0.002461 0.000000 0.002516 0.000000
# 2 -0.005638 0.013273 -0.001437 0.000000 0.004332 0.000000
# 3 -0.002461 -0.001437 0.017753 0.000000 0.003061 0.000000
# 4 0.000000 0.000000 0.000000 -0.279998 0.000000 0.035141
# 5 0.002516 0.004332 0.003061 0.000000 0.029933 0.000000
# 6 0.000000 0.000000 0.000000 0.035141 0.000000 0.066305
#
#
# Mechanical properties :
#
#
# Convention : Reuss Voigt Hill
#
# Bulk Modulus (GPa) = 38.91961 50.32512 44.62237
# Shear Modulus (GPa) = -44.89964 21.86875 -11.51544
#
# Velocity S-wave (km/s) = -4.75323 3.31726 -2.40718
# Velocity P-wave (km/s) = 3.24657 6.32421 3.83767
#
# Compressibility (1/GPa) = 0.02569399
#
# Stress axis : x y z
#
# Youngs Moduli (GPa) = 72.78316 75.34196 56.32928
#
# Poissons Ratio (x) = 0.42476 0.13863
# Poissons Ratio (y) = 0.41034 0.08092
# Poissons Ratio (z) = 0.17912 0.10824
#
# Static dielectric constant tensor:
#      x y z
#    x 1.737140 0.000000 -0.021760 
#    y 0.000000 1.724560 0.000000 
#    z -0.021760 0.000000 1.752770 
# 
# From -- ./inp_files/36014.got.cif
#   From: 2010.05.17/outbox.cif.g08.bks.cpg/sg10_19_cif.got.tgz:36014.got - 2010.06.03 11:33:40.
