data_PCOD9149213
_publ_section_title
;
Structure prediction by ZEFSAII (Michael W. Deem and Ramdas Pophale) SiO2 
 PCOD9149213
Probable space group: P 2/M
;
_chemical_formula_sum "Si O2"
_cell_formula_units_Z 32
_cell_length_a 5.187230
_cell_length_b 33.308119
_cell_length_c 9.210806
_cell_angle_alpha 90.000000
_cell_angle_beta 80.731509
_cell_angle_gamma 90.000000
_cell_volume 1570.637463
_symmetry_space_group_name_H-M "P 2/M"
_symmetry_group_IT_number 10
_symmetry_cell_setting 'monoclinic'
loop_
_space_group_symop_operation_xyz
x,y,z
-x,y,-z
-x,-y,-z
x,-y,z
loop_
_atom_site_type_symbol
_atom_site_label
_atom_site_fract_x
_atom_site_fract_y
_atom_site_fract_z
Si Si1 0.553931 0.616211 0.322346
Si Si2 0.281120 0.783340 0.907171
Si Si3 0.054241 0.665263 0.321414
Si Si4 0.726472 0.546544 0.099974
Si Si5 0.280362 0.043151 0.897686
Si Si6 0.726745 0.868729 0.218370
Si Si7 0.805650 0.839552 0.654110
Si Si8 0.022805 0.754941 0.322342
O O1 0.500000 0.610906 0.500000
O O2 0.292976 0.635001 0.277151
O O3 0.645033 0.575497 0.237993
O O4 0.787497 0.648106 0.280806
O O5 0.294568 0.832137 0.894824
O O6 0.239524 0.766111 0.745657
O O7 0.500000 0.768735 0.000000
O O8 0.000000 0.772673 0.000000
O O9 0.000000 0.666243 0.500000
O O10 0.112427 0.710733 0.268766
O O11 0.752297 0.500000 0.144667
O O12 0.500000 0.548670 0.000000
O O13 0.000000 0.558417 0.000000
O O14 0.316512 0.085258 0.815569
O O15 0.295086 0.000000 0.814713
O O16 0.500000 0.042075 0.000000
O O17 0.000000 0.044652 0.000000
O O18 0.481580 0.856302 0.341736
O O19 0.021608 0.865121 0.249783
O O20 0.000000 0.838574 0.500000
O O21 0.795884 0.794051 0.715441
O O22 0.000000 0.752846 0.500000
#
# Coordination Sequence:
#
# PCOD9149213 Si02
#       8
#     4   4   4   4   4   4   4   4
#     4  10  20  36  59  86 114 149 193 241 290 339
#     4  11  22  36  55  84 118 149 187 240 300 349
#     4   9  19  35  57  83 113 149 194 243 286 335
#     4  10  21  38  60  86 117 152 189 232 286 348
#     4  10  20  34  54  80 105 133 175 218 263 336
#     4  11  20  35  56  77 109 146 174 222 291 343
#     4  10  21  35  56  82 105 139 191 237 270 324
#     4   9  20  39  60  83 114 158 204 243 288 345
#
# _framework density 20.373894
#
# number of rings (size 3 to 8) (size 9 to 14) (size 15 to 20)
#    0.000    2.000    0.000    4.125    0.000    3.250 
#    0.000   11.875    0.000    8.250    0.000    0.000 
#    0.000    0.000    0.000    0.000    0.000    0.000 
#
# Total GULP energy -178376.991506 kJ/mol
# GULP energy per Si atom -5574.280985 kJ/mol
# Density = 2.032752 g / cm^3
# Si number density = 20.373894 Si / 1000 Ang^3
#
#
#
# Elastic Constant Matrix: (Units=GPa)
#
#
# Indices 1 2 3 4 5 6 
#
# 1 130.7120 28.6749 32.7149 0.0000 -3.1950 0.0000
# 2 28.6749 144.3428 36.8410 0.0000 -14.2147 0.0000
# 3 32.7149 36.8410 62.8544 0.0000 5.9028 0.0000
# 4 0.0000 0.0000 0.0000 19.4284 0.0000 -5.9807
# 5 -3.1950 -14.2147 5.9028 0.0000 27.7040 0.0000
# 6 0.0000 0.0000 0.0000 -5.9807 0.0000 19.2597
#
#
#
# Elastic Compliance Matrix: (Units=1/GPa)
#
#
# Indices 1 2 3 4 5 6 
#
# 1 0.008931 -0.000435 -0.004560 0.000000 0.001778 0.000000
# 2 -0.000435 0.009011 -0.005596 0.000000 0.005765 0.000000
# 3 -0.004560 -0.005596 0.022329 0.000000 -0.008155 0.000000
# 4 0.000000 0.000000 0.000000 0.056911 0.000000 0.017673
# 5 0.001778 0.005765 -0.008155 0.000000 0.040997 0.000000
# 6 0.000000 0.000000 0.000000 0.017673 0.000000 0.057410
#
#
# Mechanical properties :
#
#
# Convention : Reuss Voigt Hill
#
# Bulk Modulus (GPa) = 52.39121 59.37452 55.88287
# Shear Modulus (GPa) = 22.40802 29.25697 25.83250
#
# Velocity S-wave (km/s) = 3.31998 3.79357 3.56465
# Velocity P-wave (km/s) = 6.36137 6.95658 6.66562
#
# Compressibility (1/GPa) = 0.01908717
#
# Stress axis : x y z
#
# Youngs Moduli (GPa) = 111.97350 110.98130 44.78398
#
# Poissons Ratio (x) = 0.04829 0.20423
# Poissons Ratio (y) = 0.04872 0.25063
# Poissons Ratio (z) = 0.51063 0.62109
#
# Static dielectric constant tensor:
#      x y z
#    x 1.735320 0.000000 -0.017090 
#    y 0.000000 1.723680 0.000000 
#    z -0.017090 0.000000 1.816070 
# 
# From -- ./inp_files/15899.got.cif
#   From: 2010.05.17/outbox.cif.g08.bks.cpg/sg10_8_cif.got.tgz:15899.got - 2010.06.03 11:33:40.
