data_PCOD9149334
_publ_section_title
;
Structure prediction by ZEFSAII (Michael W. Deem and Ramdas Pophale) SiO2 
 PCOD9149334
Probable space group: P 2/M
;
_chemical_formula_sum "Si O2"
_cell_formula_units_Z 28
_cell_length_a 9.997301
_cell_length_b 9.875924
_cell_length_c 17.373613
_cell_angle_alpha 90.000000
_cell_angle_beta 117.453460
_cell_angle_gamma 90.000000
_cell_volume 1522.169555
_symmetry_space_group_name_H-M "P 2/M"
_symmetry_group_IT_number 10
_symmetry_cell_setting 'monoclinic'
loop_
_space_group_symop_operation_xyz
x,y,z
-x,y,-z
-x,-y,-z
x,-y,z
loop_
_atom_site_type_symbol
_atom_site_label
_atom_site_fract_x
_atom_site_fract_y
_atom_site_fract_z
Si Si1 0.737032 0.344025 0.065547
Si Si2 0.873015 0.847492 0.720732
Si Si3 0.610797 0.337926 0.310166
Si Si4 0.630537 0.659503 0.879800
Si Si5 0.051910 0.242104 0.093385
Si Si6 0.140727 0.661895 0.743536
Si Si7 0.524582 0.840187 0.596940
O O1 0.691266 0.500000 0.060713
O O2 0.751711 0.290923 0.156299
O O3 0.909690 0.334310 0.080237
O O4 0.638823 0.282962 0.969418
O O5 0.911679 0.844458 0.821873
O O6 0.698929 0.809892 0.663262
O O7 0.986450 0.743126 0.710857
O O8 0.894837 0.000000 0.696903
O O9 0.589905 0.500000 0.316897
O O10 0.489813 0.289362 0.213545
O O11 0.772042 0.317501 0.312785
O O12 0.579994 0.253755 0.378390
O O13 0.599344 0.500000 0.879674
O O14 0.796048 0.678622 0.887275
O O15 0.000000 0.171827 0.000000
O O16 0.117191 0.500000 0.747494
O O17 0.500000 0.817903 0.500000
O O18 0.498689 0.000000 0.606204
#
# Coordination Sequence:
#
# PCOD9149334 Si02
#       7
#     4   4   4   4   4   4   4
#     4   8  14  24  41  69 106 145 182 213 248 302
#     4  10  20  35  55  79 105 139 180 220 265 317
#     4  10  20  34  55  83 111 139 176 221 271 319
#     4   9  15  24  43  73 107 142 178 218 259 304
#     4   9  15  25  44  73 104 140 174 217 260 311
#     4   9  19  34  52  78 112 148 180 213 258 315
#     4  10  22  41  62  82 104 134 177 226 273 322
#
# _framework density 18.394797000000001
#
# number of rings (size 3 to 8) (size 9 to 14) (size 15 to 20)
#    0.000    2.714    1.429    0.429    0.000    4.571 
#    0.000    3.571    0.000    4.286    0.000    4.000 
#    0.000    0.000    0.000    0.000    0.000    0.000 
#
# Total GULP energy -155913.038138 kJ/mol
# GULP energy per Si atom -5568.322791 kJ/mol
# Density = 1.835293 g / cm^3
# Si number density = 18.394797 Si / 1000 Ang^3
#
#
#
# Elastic Constant Matrix: (Units=GPa)
#
#
# Indices 1 2 3 4 5 6 
#
# 1 91.0310 45.3346 44.7246 0.0000 -25.7287 0.0000
# 2 45.3346 47.1947 31.1522 0.0000 -15.9682 0.0000
# 3 44.7246 31.1522 57.9070 0.0000 -14.5082 0.0000
# 4 0.0000 0.0000 0.0000 14.0295 0.0000 8.2611
# 5 -25.7287 -15.9682 -14.5082 0.0000 23.8469 0.0000
# 6 0.0000 0.0000 0.0000 8.2611 0.0000 6.7765
#
#
#
# Elastic Compliance Matrix: (Units=1/GPa)
#
#
# Indices 1 2 3 4 5 6 
#
# 1 0.026807 -0.015220 -0.009231 0.000000 0.013115 0.000000
# 2 -0.015220 0.045489 -0.010853 0.000000 0.007436 0.000000
# 3 -0.009231 -0.010853 0.030583 0.000000 0.001380 0.000000
# 4 0.000000 0.000000 0.000000 0.252616 0.000000 -0.307960
# 5 0.013115 0.007436 0.001380 0.000000 0.061902 0.000000
# 6 0.000000 0.000000 0.000000 -0.307960 0.000000 0.522999
#
#
# Mechanical properties :
#
#
# Convention : Reuss Voigt Hill
#
# Bulk Modulus (GPa) = 30.98807 48.72840 39.85823
# Shear Modulus (GPa) = 4.89351 13.92533 9.40942
#
# Velocity S-wave (km/s) = 1.63280 2.75439 2.26415
# Velocity P-wave (km/s) = 4.52077 6.05503 5.34326
#
# Compressibility (1/GPa) = 0.03227049
#
# Stress axis : x y z
#
# Youngs Moduli (GPa) = 37.30373 21.98334 32.69809
#
# Poissons Ratio (x) = 0.33459 0.30182
# Poissons Ratio (y) = 0.56777 0.35489
# Poissons Ratio (z) = 0.34434 0.23859
#
# Static dielectric constant tensor:
#      x y z
#    x 1.646260 0.000000 -0.002460 
#    y 0.000000 1.608810 0.000000 
#    z -0.002460 0.000000 1.670840 
# 
# From -- ./inp_files/28197.got.cif
#   From: 2010.05.17/outbox.cif.g08.bks.cpg/sg10_15_cif.got.tgz:28197.got - 2010.06.03 11:33:40.
