data_PCOD9149832
_publ_section_title
;
Structure prediction by ZEFSAII (Michael W. Deem and Ramdas Pophale) SiO2 
 PCOD9149832
Probable space group: P 2/M
;
_chemical_formula_sum "Si O2"
_cell_formula_units_Z 32
_cell_length_a 15.300236
_cell_length_b 7.671006
_cell_length_c 24.532876
_cell_angle_alpha 90.000000
_cell_angle_beta 150.776496
_cell_angle_gamma 90.000000
_cell_volume 1405.764090
_symmetry_space_group_name_H-M "P 2/M"
_symmetry_group_IT_number 10
_symmetry_cell_setting 'monoclinic'
loop_
_space_group_symop_operation_xyz
x,y,z
-x,y,-z
-x,-y,-z
x,-y,z
loop_
_atom_site_type_symbol
_atom_site_label
_atom_site_fract_x
_atom_site_fract_y
_atom_site_fract_z
Si Si1 0.036138 0.206270 0.256116
Si Si2 0.621318 0.795076 0.618776
Si Si3 0.014993 0.213677 0.368294
Si Si4 0.661345 0.209647 0.236659
Si Si5 0.583129 0.697871 0.708505
Si Si6 0.254787 0.292927 0.984769
Si Si7 0.015147 0.287710 0.070302
Si Si8 0.735077 0.801851 0.397451
O O1 0.049458 0.273946 0.325202
O O2 0.185232 0.278237 0.295149
O O3 0.075577 0.000000 0.280675
O O4 0.841343 0.226934 0.122513
O O5 0.500000 0.781958 0.500000
O O6 0.514473 0.704708 0.609660
O O7 0.634419 0.000000 0.640106
O O8 0.814112 0.260486 0.277110
O O9 0.143495 0.275766 0.487802
O O10 0.030067 0.000000 0.375482
O O11 0.462308 0.256226 0.109022
O O12 0.717538 0.277576 0.327611
O O13 0.663905 0.000000 0.242336
O O14 0.592264 0.500000 0.734242
O O15 0.463325 0.801399 0.685050
O O16 0.783081 0.763278 0.806096
O O17 0.234269 0.500000 0.972252
O O18 0.135459 0.222976 0.970488
O O19 0.005301 0.500000 0.065629
O O20 0.000000 0.230299 0.000000
O O21 0.800980 0.000000 0.426019
#
# Coordination Sequence:
#
# PCOD9149832 Si02
#       8
#     4   4   4   4   4   4   4   4
#     4  10  20  36  59  84 115 153 196 241 284 342
#     4  10  20  35  56  82 114 150 188 235 286 335
#     4   9  19  38  63  87 113 151 194 240 297 351
#     4  10  21  38  62  89 114 147 196 247 293 347
#     4  11  21  34  54  82 115 152 189 224 274 339
#     4  11  22  38  58  81 118 158 194 240 290 345
#     4   9  18  33  52  74 105 147 187 222 270 332
#     4  10  20  37  61  89 119 149 189 242 296 350
#
# _framework density 22.76342
#
# number of rings (size 3 to 8) (size 9 to 14) (size 15 to 20)
#    0.000    2.000    1.250    2.625    0.000    5.750 
#    0.000    5.625    0.000    4.500    0.000    0.000 
#    0.000    0.000    0.000    0.000    0.000    0.000 
#
# Total GULP energy -178616.471078 kJ/mol
# GULP energy per Si atom -5581.764721 kJ/mol
# Density = 2.271161 g / cm^3
# Si number density = 22.763420 Si / 1000 Ang^3
#
#
#
# Elastic Constant Matrix: (Units=GPa)
#
#
# Indices 1 2 3 4 5 6 
#
# 1 108.0886 1.1808 25.9081 0.0000 -3.8114 0.0000
# 2 1.1808 35.9144 -1.3216 0.0000 -0.2505 0.0000
# 3 25.9081 -1.3216 86.9678 0.0000 -3.8136 0.0000
# 4 0.0000 0.0000 0.0000 -100.5100 0.0000 190.8317
# 5 -3.8114 -0.2505 -3.8136 0.0000 38.3250 0.0000
# 6 0.0000 0.0000 0.0000 190.8317 0.0000 -463.9378
#
#
#
# Elastic Compliance Matrix: (Units=1/GPa)
#
#
# Indices 1 2 3 4 5 6 
#
# 1 0.009988 -0.000432 -0.002952 0.000000 0.000697 0.000000
# 2 -0.000432 0.027880 0.000561 0.000000 0.000195 0.000000
# 3 -0.002952 0.000561 0.012428 0.000000 0.000947 0.000000
# 4 0.000000 0.000000 0.000000 -0.045423 0.000000 -0.018684
# 5 0.000697 0.000195 0.000947 0.000000 0.026257 0.000000
# 6 0.000000 0.000000 0.000000 -0.018684 0.000000 -0.009841
#
#
# Mechanical properties :
#
#
# Convention : Reuss Voigt Hill
#
# Bulk Modulus (GPa) = 22.39597 31.38949 26.89273
# Shear Modulus (GPa) = 119.56262 -91.54435 14.00914
#
# Velocity S-wave (km/s) = 7.25521 -6.34845 2.48346
# Velocity P-wave (km/s) = 8.94673 6.31805 4.47919
#
# Compressibility (1/GPa) = 0.04465088
#
# Stress axis : x y z
#
# Youngs Moduli (GPa) = 100.11569 35.86776 80.46447
#
# Poissons Ratio (x) = 0.01550 0.23750
# Poissons Ratio (y) = 0.04327 -0.04514
# Poissons Ratio (z) = 0.29550 -0.02012
#
# Static dielectric constant tensor:
#      x y z
#    x 1.913900 0.000000 -0.106140 
#    y 0.000000 1.886380 0.000000 
#    z -0.106140 0.000000 2.025510 
# 
# From -- ./inp_files/71527.got.cif
#   From: 2010.05.17/outbox.cif.g08.bks.cpg/sg10_36_cif.got.tgz:71527.got - 2010.06.03 11:33:40.
