data_PCOD9149202
_publ_section_title
;
Structure prediction by ZEFSAII (Michael W. Deem and Ramdas Pophale) SiO2 
 PCOD9149202
Probable space group: P 2/M
;
_chemical_formula_sum "Si O2"
_cell_formula_units_Z 32
_cell_length_a 26.832758
_cell_length_b 7.542027
_cell_length_c 25.856030
_cell_angle_alpha 90.000000
_cell_angle_beta 15.923690
_cell_angle_gamma 90.000000
_cell_volume 1435.592034
_symmetry_space_group_name_H-M "P 2/M"
_symmetry_group_IT_number 10
_symmetry_cell_setting 'monoclinic'
loop_
_space_group_symop_operation_xyz
x,y,z
-x,y,-z
-x,-y,-z
x,-y,z
loop_
_atom_site_type_symbol
_atom_site_label
_atom_site_fract_x
_atom_site_fract_y
_atom_site_fract_z
Si Si1 0.227357 0.282485 0.874829
Si Si2 0.641316 0.283449 0.478429
Si Si3 0.953675 0.283396 0.237378
Si Si4 0.719730 0.293745 0.289815
Si Si5 0.700968 0.290350 0.687255
Si Si6 0.721618 0.795070 0.891837
Si Si7 0.988463 0.706273 0.318044
Si Si8 0.711190 0.786505 0.790696
O O1 0.222869 0.500000 0.877256
O O2 0.432253 0.229477 0.685406
O O3 0.193983 0.220850 0.848993
O O4 0.092077 0.224870 0.054582
O O5 0.641443 0.500000 0.475793
O O6 0.754460 0.232966 0.415719
O O7 0.739845 0.219786 0.327341
O O8 0.964462 0.500000 0.226690
O O9 0.994864 0.218667 0.253918
O O10 0.500000 0.290796 0.500000
O O11 0.775520 0.500000 0.237067
O O12 0.680082 0.500000 0.701536
O O13 0.834945 0.218069 0.509636
O O14 0.783560 0.261936 0.662216
O O15 0.497165 0.214454 0.887863
O O16 0.780765 0.719490 0.776591
O O17 0.822760 0.712189 0.839373
O O18 0.775001 0.000000 0.839648
O O19 0.940096 0.500000 0.359795
O O20 0.716629 0.000000 0.787909
O O21 0.500000 0.730200 0.000000
#
# Coordination Sequence:
#
# PCOD9149202 Si02
#       8
#     4   4   4   4   4   4   4   4
#     4   8  13  21  34  51  74 109 150 192 235 279
#     4   8  13  21  33  50  75 108 148 194 237 278
#     4   9  17  27  38  55  81 118 163 198 229 279
#     4   7  10  17  29  48  73 101 141 190 234 278
#     4  10  20  34  54  79 107 136 164 202 252 301
#     4  10  21  37  57  78 101 132 168 208 253 299
#     4  10  22  36  49  72 104 136 173 212 248 293
#     4   8  16  32  53  78 104 129 162 202 247 302
#
# _framework density 22.290455000000001
#
# number of rings (size 3 to 8) (size 9 to 14) (size 15 to 20)
#    0.000    3.250    0.000    3.000    0.000    5.750 
#    0.000    8.750    0.000    0.000    0.000    0.000 
#    0.000    0.000    0.000    2.250    0.000   18.000 
#
# Total GULP energy -178453.736443 kJ/mol
# GULP energy per Si atom -5576.679264 kJ/mol
# Density = 2.223972 g / cm^3
# Si number density = 22.290455 Si / 1000 Ang^3
#
#
#
# Elastic Constant Matrix: (Units=GPa)
#
#
# Indices 1 2 3 4 5 6 
#
# 1 172.2289 2.1804 41.5578 0.0000 3.7956 0.0000
# 2 2.1804 53.2127 -7.6224 0.0000 5.2053 0.0000
# 3 41.5578 -7.6224 77.3347 0.0000 6.4214 0.0000
# 4 0.0000 0.0000 0.0000 13.9956 0.0000 12.6723
# 5 3.7956 5.2053 6.4214 0.0000 30.1729 0.0000
# 6 0.0000 0.0000 0.0000 12.6723 0.0000 -19.9833
#
#
#
# Elastic Compliance Matrix: (Units=1/GPa)
#
#
# Indices 1 2 3 4 5 6 
#
# 1 0.006705 -0.000811 -0.003690 0.000000 0.000082 0.000000
# 2 -0.000811 0.019587 0.002686 0.000000 -0.003849 0.000000
# 3 -0.003690 0.002686 0.015451 0.000000 -0.003288 0.000000
# 4 0.000000 0.000000 0.000000 0.045389 0.000000 0.028783
# 5 0.000082 -0.003849 -0.003288 0.000000 0.034496 0.000000
# 6 0.000000 0.000000 0.000000 0.028783 0.000000 -0.031789
#
#
# Mechanical properties :
#
#
# Convention : Reuss Voigt Hill
#
# Bulk Modulus (GPa) = 26.23755 41.66755 33.95255
# Shear Modulus (GPa) = 47.09258 22.61442 34.85350
#
# Velocity S-wave (km/s) = 4.60138 3.18863 3.95854
# Velocity P-wave (km/s) = 6.32665 5.68243 6.01318
#
# Compressibility (1/GPa) = 0.03811331
#
# Stress axis : x y z
#
# Youngs Moduli (GPa) = 149.14147 51.05428 64.71905
#
# Poissons Ratio (x) = 0.04142 0.23881
# Poissons Ratio (y) = 0.12100 -0.17384
# Poissons Ratio (z) = 0.55032 -0.13714
#
# Static dielectric constant tensor:
#      x y z
#    x 1.833310 0.000000 0.009890 
#    y 0.000000 2.388780 0.000000 
#    z 0.009890 0.000000 1.825550 
# 
# From -- ./inp_files/90566.got.cif
#   From: 2010.05.17/outbox.cif.g08.bks.cpg/sg10_46_cif.got.tgz:90566.got - 2010.06.03 11:33:40.
