data_PCOD9149210
_publ_section_title
;
Structure prediction by ZEFSAII (Michael W. Deem and Ramdas Pophale) SiO2 
 PCOD9149210
Probable space group: P 2/M
;
_chemical_formula_sum "Si O2"
_cell_formula_units_Z 24
_cell_length_a 12.178528
_cell_length_b 16.522091
_cell_length_c 17.299283
_cell_angle_alpha 90.000000
_cell_angle_beta 20.857557
_cell_angle_gamma 90.000000
_cell_volume 1239.349699
_symmetry_space_group_name_H-M "P 2/M"
_symmetry_group_IT_number 10
_symmetry_cell_setting 'monoclinic'
loop_
_space_group_symop_operation_xyz
x,y,z
-x,y,-z
-x,-y,-z
x,-y,z
loop_
_atom_site_type_symbol
_atom_site_label
_atom_site_fract_x
_atom_site_fract_y
_atom_site_fract_z
Si Si1 0.775841 0.407903 0.756263
Si Si2 0.742135 0.149830 0.898936
Si Si3 0.153427 0.087639 0.761540
Si Si4 0.551591 0.287058 0.136284
Si Si5 0.236388 0.727146 0.506489
Si Si6 0.854622 0.266837 0.176140
O O1 0.868362 0.500000 0.679685
O O2 0.640144 0.362007 0.770537
O O3 0.042548 0.353456 0.618006
O O4 0.500000 0.408308 0.000000
O O5 0.915301 0.094925 0.847100
O O6 0.008014 0.200393 0.679641
O O7 0.500000 0.110156 0.000000
O O8 0.548038 0.216963 0.074657
O O9 0.500000 0.091196 0.500000
O O10 0.110593 0.169582 0.837966
O O11 0.114466 0.000000 0.825950
O O12 0.410422 0.257023 0.310378
O O13 0.916505 0.303669 0.910370
O O14 0.492461 0.717113 0.405280
O O15 0.000000 0.294994 0.000000
#
# Coordination Sequence:
#
# PCOD9149210 Si02
#       6
#     4   4   4   4   4   4
#     4  11  22  37  56  82 113 144 179 220 271 323
#     4  11  20  34  54  81 108 144 180 226 266 314
#     4  10  20  34  54  79 108 145 182 219 273 326
#     4  10  20  34  55  82 105 139 185 220 267 321
#     4  11  19  35  56  80 109 140 179 228 263 317
#     4   9  20  35  56  83 105 139 184 227 267 317
#
# _framework density 19.364993999999999
#
# number of rings (size 3 to 8) (size 9 to 14) (size 15 to 20)
#    0.000    1.667    5.000    0.500    0.000    2.000 
#    0.000    0.833    0.000    5.000    0.000    4.667 
#    0.000    0.000    0.000    0.000    0.000    0.000 
#
# Total GULP energy -133850.790538 kJ/mol
# GULP energy per Si atom -5577.116272 kJ/mol
# Density = 1.932092 g / cm^3
# Si number density = 19.364994 Si / 1000 Ang^3
#
#
#
# Elastic Constant Matrix: (Units=GPa)
#
#
# Indices 1 2 3 4 5 6 
#
# 1 76.2942 15.4433 20.9507 0.0000 -28.3849 0.0000
# 2 15.4433 76.7149 17.4239 0.0000 -21.5228 0.0000
# 3 20.9507 17.4239 79.6703 0.0000 -17.5325 0.0000
# 4 0.0000 0.0000 0.0000 16.8514 0.0000 -6.7090
# 5 -28.3849 -21.5228 -17.5325 0.0000 53.3500 0.0000
# 6 0.0000 0.0000 0.0000 -6.7090 0.0000 19.6760
#
#
#
# Elastic Compliance Matrix: (Units=1/GPa)
#
#
# Indices 1 2 3 4 5 6 
#
# 1 0.016869 -0.000599 -0.002569 0.000000 0.007889 0.000000
# 2 -0.000599 0.015040 -0.002012 0.000000 0.005088 0.000000
# 3 -0.002569 -0.002012 0.014216 0.000000 0.002493 0.000000
# 4 0.000000 0.000000 0.000000 0.068663 0.000000 0.023412
# 5 0.007889 0.005088 0.002493 0.000000 0.025814 0.000000
# 6 0.000000 0.000000 0.000000 0.023412 0.000000 0.058806
#
#
# Mechanical properties :
#
#
# Convention : Reuss Voigt Hill
#
# Bulk Modulus (GPa) = 27.96016 37.81279 32.88647
# Shear Modulus (GPa) = 22.55402 29.89958 26.22680
#
# Velocity S-wave (km/s) = 3.41644 3.93364 3.68413
# Velocity P-wave (km/s) = 5.48020 6.34036 5.92591
#
# Compressibility (1/GPa) = 0.03576518
#
# Stress axis : x y z
#
# Youngs Moduli (GPa) = 59.28037 66.48818 70.34324
#
# Poissons Ratio (x) = 0.03983 0.18070
# Poissons Ratio (y) = 0.03551 0.14154
# Poissons Ratio (z) = 0.15228 0.13379
#
# Static dielectric constant tensor:
#      x y z
#    x 1.711770 0.000000 -0.008870 
#    y 0.000000 1.641690 0.000000 
#    z -0.008870 0.000000 1.721850 
# 
# From -- ./inp_files/19312.got.cif
#   From: 2010.05.17/outbox.cif.g08.bks.cpg/sg10_10_cif.got.tgz:19312.got - 2010.06.03 11:33:40.
