data_PCOD9149678
_publ_section_title
;
Structure prediction by ZEFSAII (Michael W. Deem and Ramdas Pophale) SiO2 
 PCOD9149678
Probable space group: P 2/M
;
_chemical_formula_sum "Si O2"
_cell_formula_units_Z 32
_cell_length_a 16.561292
_cell_length_b 9.019505
_cell_length_c 23.327455
_cell_angle_alpha 90.000000
_cell_angle_beta 31.854080
_cell_angle_gamma 90.000000
_cell_volume 1838.988019
_symmetry_space_group_name_H-M "P 2/M"
_symmetry_group_IT_number 10
_symmetry_cell_setting 'monoclinic'
loop_
_space_group_symop_operation_xyz
x,y,z
-x,y,-z
-x,-y,-z
x,-y,z
loop_
_atom_site_type_symbol
_atom_site_label
_atom_site_fract_x
_atom_site_fract_y
_atom_site_fract_z
Si Si1 0.814281 0.325707 0.176988
Si Si2 0.143613 0.168967 0.369454
Si Si3 0.948700 0.323579 0.395153
Si Si4 0.873403 0.323953 0.940962
Si Si5 0.032229 0.175215 0.740053
Si Si6 0.658980 0.825746 0.373584
Si Si7 0.676955 0.823372 0.151240
Si Si8 0.324091 0.821512 0.368482
O O1 0.801783 0.500000 0.172095
O O2 0.692996 0.273410 0.297924
O O3 0.782874 0.234855 0.138729
O O4 0.978834 0.298268 0.106884
O O5 0.280548 0.216388 0.328784
O O6 0.000000 0.165298 0.500000
O O7 0.089553 0.271846 0.350555
O O8 0.168735 0.000000 0.334058
O O9 0.939464 0.500000 0.398385
O O10 0.968503 0.254583 0.320527
O O11 0.794881 0.258271 0.517620
O O12 0.856625 0.500000 0.943772
O O13 0.914535 0.246805 0.856197
O O14 0.731649 0.253534 0.059877
O O15 0.200110 0.193463 0.667581
O O16 0.004116 0.000000 0.750696
O O17 0.500000 0.790276 0.500000
O O18 0.655934 0.000000 0.358302
O O19 0.500922 0.786835 0.272360
O O20 0.689605 0.000000 0.137967
O O21 0.301572 0.000000 0.387837
#
# Coordination Sequence:
#
# PCOD9149678 Si02
#       8
#     4   4   4   4   4   4   4   4
#     4  10  21  35  51  74 103 138 176 216 263 311
#     4   8  15  32  54  74 102 139 173 206 253 310
#     4  11  21  32  52  82 112 138 170 211 257 311
#     4  10  21  38  55  74 104 138 177 222 267 308
#     4  10  20  35  55  76 102 138 179 215 255 308
#     4   9  19  34  51  72 100 136 174 216 258 302
#     4  11  22  35  55  79 104 136 178 222 261 307
#     4   9  20  36  53  77 108 140 173 212 259 311
#
# _framework density 17.400876
#
# number of rings (size 3 to 8) (size 9 to 14) (size 15 to 20)
#    0.000    2.250    0.000    3.750    1.750    7.000 
#    0.000    0.000    0.000    0.750    0.000    5.250 
#    0.000    0.000    0.000    0.000    0.000    0.000 
#
# Total GULP energy -178578.383697 kJ/mol
# GULP energy per Si atom -5580.574491 kJ/mol
# Density = 1.736127 g / cm^3
# Si number density = 17.400876 Si / 1000 Ang^3
#
#
#
# Elastic Constant Matrix: (Units=GPa)
#
#
# Indices 1 2 3 4 5 6 
#
# 1 69.8154 58.7882 39.2030 0.0000 24.9825 0.0000
# 2 58.7882 86.7176 44.7734 0.0000 19.4807 0.0000
# 3 39.2030 44.7734 60.3025 0.0000 22.9547 0.0000
# 4 0.0000 0.0000 0.0000 51.6073 0.0000 19.5857
# 5 24.9825 19.4807 22.9547 0.0000 21.1222 0.0000
# 6 0.0000 0.0000 0.0000 19.5857 0.0000 28.8903
#
#
#
# Elastic Compliance Matrix: (Units=1/GPa)
#
#
# Indices 1 2 3 4 5 6 
#
# 1 0.046129 -0.024112 0.000371 0.000000 -0.032724 0.000000
# 2 -0.024112 0.031474 -0.012791 0.000000 0.013392 0.000000
# 3 0.000371 -0.012791 0.036696 0.000000 -0.028521 0.000000
# 4 0.000000 0.000000 0.000000 0.026090 0.000000 -0.017687
# 5 -0.032724 0.013392 -0.028521 0.000000 0.104693 0.000000
# 6 0.000000 0.000000 0.000000 -0.017687 0.000000 0.046604
#
#
# Mechanical properties :
#
#
# Convention : Reuss Voigt Hill
#
# Bulk Modulus (GPa) = 24.25175 55.81830 40.03503
# Shear Modulus (GPa) = 13.21026 25.26202 19.23614
#
# Velocity S-wave (km/s) = 2.75830 3.81434 3.32847
# Velocity P-wave (km/s) = 4.91036 7.17958 6.15053
#
# Compressibility (1/GPa) = 0.04123413
#
# Stress axis : x y z
#
# Youngs Moduli (GPa) = 21.67843 31.77262 27.25122
#
# Poissons Ratio (x) = 0.76611 -0.01011
# Poissons Ratio (y) = 0.52271 0.34856
# Poissons Ratio (z) = -0.00804 0.40640
#
# Static dielectric constant tensor:
#      x y z
#    x 1.598810 0.000000 -0.010880 
#    y 0.000000 1.577650 0.000000 
#    z -0.010880 0.000000 1.575580 
# 
# From -- ./inp_files/89935.got.cif
#   From: 2010.05.17/outbox.cif.g08.bks.cpg/sg10_45_cif.got.tgz:89935.got - 2010.06.03 11:33:40.
