data_PCOD9149195
_publ_section_title
;
Structure prediction by ZEFSAII (Michael W. Deem and Ramdas Pophale) SiO2 
 PCOD9149195
Probable space group: P 2/M
;
_chemical_formula_sum "Si O2"
_cell_formula_units_Z 28
_cell_length_a 24.629217
_cell_length_b 7.678525
_cell_length_c 26.511452
_cell_angle_alpha 90.000000
_cell_angle_beta 16.199783
_cell_angle_gamma 90.000000
_cell_volume 1398.770998
_symmetry_space_group_name_H-M "P 2/M"
_symmetry_group_IT_number 10
_symmetry_cell_setting 'monoclinic'
loop_
_space_group_symop_operation_xyz
x,y,z
-x,y,-z
-x,-y,-z
x,-y,z
loop_
_atom_site_type_symbol
_atom_site_label
_atom_site_fract_x
_atom_site_fract_y
_atom_site_fract_z
Si Si1 0.340244 0.286393 0.393089
Si Si2 0.620265 0.204369 0.440947
Si Si3 0.925533 0.295670 0.727779
Si Si4 0.505433 0.710620 0.137755
Si Si5 0.917169 0.794292 0.521225
Si Si6 0.437234 0.298079 0.707521
Si Si7 0.971244 0.288554 0.967810
O O1 0.332578 0.500000 0.400684
O O2 0.460091 0.237210 0.235994
O O3 0.446021 0.223698 0.349239
O O4 0.117421 0.224202 0.584975
O O5 0.500000 0.274322 0.500000
O O6 0.561097 0.290544 0.545921
O O7 0.844414 0.230718 0.228444
O O8 0.574193 0.000000 0.486714
O O9 0.916869 0.500000 0.748313
O O10 0.977930 0.281268 0.621902
O O11 0.713544 0.223979 0.931783
O O12 0.506735 0.500000 0.135148
O O13 0.314470 0.766195 0.277067
O O14 0.000000 0.724287 0.500000
O O15 0.955242 0.000000 0.485620
O O16 0.401147 0.500000 0.752836
O O17 0.228205 0.222233 0.878734
O O18 0.965300 0.500000 0.974410
O O19 0.000000 0.229584 0.000000
#
# Coordination Sequence:
#
# PCOD9149195 Si02
#       7
#     4   4   4   4   4   4   4
#     4   8  16  32  54  80 105 131 169 217 266 311
#     4  11  23  36  52  74 103 139 171 206 258 316
#     4   9  18  34  57  81 105 137 176 220 264 308
#     4   9  18  34  56  79 104 135 175 220 264 309
#     4  10  21  35  51  76 111 147 180 214 255 306
#     4  10  20  35  57  80 103 134 172 217 262 309
#     4  10  20  34  54  79 103 130 169 214 258 308
#
# _framework density 20.017574
#
# number of rings (size 3 to 8) (size 9 to 14) (size 15 to 20)
#    0.000    2.429    1.429    1.714    0.000    4.857 
#    0.000   10.000    0.000    3.429    0.000    0.000 
#    0.000    0.000    0.000    0.000    0.000    0.000 
#
# Total GULP energy -156228.399538 kJ/mol
# GULP energy per Si atom -5579.585698 kJ/mol
# Density = 1.997201 g / cm^3
# Si number density = 20.017574 Si / 1000 Ang^3
#
#
#
# Elastic Constant Matrix: (Units=GPa)
#
#
# Indices 1 2 3 4 5 6 
#
# 1 162.8517 -5.9386 83.2670 0.0000 -33.1859 0.0000
# 2 -5.9386 32.6803 -10.6527 0.0000 -4.5654 0.0000
# 3 83.2670 -10.6527 178.0700 0.0000 -8.6789 0.0000
# 4 0.0000 0.0000 0.0000 4.3668 0.0000 12.3885
# 5 -33.1859 -4.5654 -8.6789 0.0000 19.0556 0.0000
# 6 0.0000 0.0000 0.0000 12.3885 0.0000 69.8094
#
#
#
# Elastic Compliance Matrix: (Units=1/GPa)
#
#
# Indices 1 2 3 4 5 6 
#
# 1 0.013194 0.003833 -0.004884 0.000000 0.021671 0.000000
# 2 0.003833 0.033734 0.000966 0.000000 0.015197 0.000000
# 3 -0.004884 0.000966 0.007726 0.000000 -0.004755 0.000000
# 4 0.000000 0.000000 0.000000 0.461196 0.000000 -0.081845
# 5 0.021671 0.015197 -0.004755 0.000000 0.091694 0.000000
# 6 0.000000 0.000000 0.000000 -0.081845 0.000000 0.028849
#
#
# Mechanical properties :
#
#
# Convention : Reuss Voigt Hill
#
# Bulk Modulus (GPa) = 18.35395 56.32816 37.34106
# Shear Modulus (GPa) = 7.63682 39.10811 23.37247
#
# Velocity S-wave (km/s) = 1.95534 4.42485 3.42072
# Velocity P-wave (km/s) = 3.77976 7.36927 5.85631
#
# Compressibility (1/GPa) = 0.05448419
#
# Stress axis : x y z
#
# Youngs Moduli (GPa) = 75.79421 29.64360 129.43998
#
# Poissons Ratio (x) = -0.11362 0.63218
# Poissons Ratio (y) = -0.29051 -0.12510
# Poissons Ratio (z) = 0.37017 -0.02865
#
# Static dielectric constant tensor:
#      x y z
#    x 1.691280 0.000000 -0.025710 
#    y 0.000000 1.736990 0.000000 
#    z -0.025710 0.000000 1.686770 
# 
# From -- ./inp_files/90376.got.cif
#   From: 2010.05.17/outbox.cif.g08.bks.cpg/sg10_46_cif.got.tgz:90376.got - 2010.06.03 11:33:40.
