data_PCOD9149092
_publ_section_title
;
Structure prediction by ZEFSAII (Michael W. Deem and Ramdas Pophale) SiO2 
 PCOD9149092
Probable space group: P 2/M
;
_chemical_formula_sum "Si O2"
_cell_formula_units_Z 20
_cell_length_a 9.708997
_cell_length_b 9.138871
_cell_length_c 26.683646
_cell_angle_alpha 90.000000
_cell_angle_beta 150.827501
_cell_angle_gamma 90.000000
_cell_volume 1154.074374
_symmetry_space_group_name_H-M "P 2/M"
_symmetry_group_IT_number 10
_symmetry_cell_setting 'monoclinic'
loop_
_space_group_symop_operation_xyz
x,y,z
-x,y,-z
-x,-y,-z
x,-y,z
loop_
_atom_site_type_symbol
_atom_site_label
_atom_site_fract_x
_atom_site_fract_y
_atom_site_fract_z
Si Si1 0.950805 0.325775 0.705613
Si Si2 0.387883 0.826750 0.559449
Si Si3 0.152954 0.326585 0.657991
Si Si4 0.195412 0.824702 0.880309
Si Si5 0.611871 0.172055 0.743309
O O1 0.916110 0.500000 0.700690
O O2 0.644302 0.249478 0.611188
O O3 0.095918 0.297514 0.698406
O O4 0.130080 0.259609 0.808323
O O5 0.458925 0.806761 0.640822
O O6 0.093838 0.754809 0.450951
O O7 0.383946 0.000000 0.548132
O O8 0.132519 0.500000 0.643164
O O9 0.450252 0.266382 0.732837
O O10 0.938770 0.790356 0.836847
O O11 0.178181 0.000000 0.865161
O O12 0.500000 0.791324 0.000000
O O13 0.591880 0.000000 0.749481
#
# Coordination Sequence:
#
# PCOD9149092 Si02
#       5
#     4   4   4   4   4
#     4  10  21  35  51  76 107 137 172 210 251 304
#     4  10  20  34  53  76 103 139 179 213 249 298
#     4  11  22  33  48  75 110 142 171 207 251 301
#     4   9  19  38  61  80  98 126 169 217 261 307
#     4   9  19  34  52  76 103 132 170 212 254 304
#
# _framework density 17.329905
#
# number of rings (size 3 to 8) (size 9 to 14) (size 15 to 20)
#    0.000    2.200    0.000    4.200    0.000   12.400 
#    0.000    1.000    0.000    6.000    0.000    0.000 
#    0.000    0.000    0.000    0.000    0.000    0.000 
#
# Total GULP energy -111671.907958 kJ/mol
# GULP energy per Si atom -5583.595398 kJ/mol
# Density = 1.729046 g / cm^3
# Si number density = 17.329905 Si / 1000 Ang^3
#
#
#
# Elastic Constant Matrix: (Units=GPa)
#
#
# Indices 1 2 3 4 5 6 
#
# 1 100.8512 60.2674 38.3844 0.0000 29.7078 0.0000
# 2 60.2674 58.4046 31.3540 0.0000 15.0403 0.0000
# 3 38.3844 31.3540 89.0110 0.0000 23.5344 0.0000
# 4 0.0000 0.0000 0.0000 43.4173 0.0000 -1.0226
# 5 29.7078 15.0403 23.5344 0.0000 13.5608 0.0000
# 6 0.0000 0.0000 0.0000 -1.0226 0.0000 34.0532
#
#
#
# Elastic Compliance Matrix: (Units=1/GPa)
#
#
# Indices 1 2 3 4 5 6 
#
# 1 0.082816 -0.057869 0.028958 0.000000 -0.167499 0.000000
# 2 -0.057869 0.064738 -0.022884 0.000000 0.094689 0.000000
# 3 0.028958 -0.022884 0.031175 0.000000 -0.092161 0.000000
# 4 0.000000 0.000000 0.000000 0.023049 0.000000 0.000692
# 5 -0.167499 0.094689 -0.092161 0.000000 0.495606 0.000000
# 6 0.000000 0.000000 0.000000 0.000692 0.000000 0.029387
#
#
# Mechanical properties :
#
#
# Convention : Reuss Voigt Hill
#
# Bulk Modulus (GPa) = 13.30891 56.47537 34.89214
# Shear Modulus (GPa) = 5.84517 26.09033 15.96775
#
# Velocity S-wave (km/s) = 1.83853 3.88430 3.03875
# Velocity P-wave (km/s) = 3.49333 7.26472 5.69998
#
# Compressibility (1/GPa) = 0.07513765
#
# Stress axis : x y z
#
# Youngs Moduli (GPa) = 12.07494 15.44690 32.07680
#
# Poissons Ratio (x) = 0.89390 -0.92887
# Poissons Ratio (y) = 0.69877 0.73406
# Poissons Ratio (z) = -0.34966 0.35349
#
# Static dielectric constant tensor:
#      x y z
#    x 1.583830 0.000000 0.009940 
#    y 0.000000 1.576890 0.000000 
#    z 0.009940 0.000000 1.567060 
# 
# From -- ./inp_files/22148.got.cif
#   From: 2010.05.17/outbox.cif.g08.bks.cpg/sg10_12_cif.got.tgz:22148.got - 2010.06.03 11:33:40.
