data_PCOD9149244
_publ_section_title
;
Structure prediction by ZEFSAII (Michael W. Deem and Ramdas Pophale) SiO2 
 PCOD9149244
Probable space group: P 2/M
;
_chemical_formula_sum "Si O2"
_cell_formula_units_Z 32
_cell_length_a 12.674028
_cell_length_b 14.090812
_cell_length_c 16.359890
_cell_angle_alpha 90.000000
_cell_angle_beta 152.730883
_cell_angle_gamma 90.000000
_cell_volume 1338.622741
_symmetry_space_group_name_H-M "P 2/M"
_symmetry_group_IT_number 10
_symmetry_cell_setting 'monoclinic'
loop_
_space_group_symop_operation_xyz
x,y,z
-x,y,-z
-x,-y,-z
x,-y,z
loop_
_atom_site_type_symbol
_atom_site_label
_atom_site_fract_x
_atom_site_fract_y
_atom_site_fract_z
Si Si1 0.878154 0.607367 0.045219
Si Si2 0.626335 0.704697 0.013499
Si Si3 0.830012 0.896635 0.148964
Si Si4 0.394812 0.890683 0.188241
Si Si5 0.263592 0.731680 0.232432
Si Si6 0.598791 0.389820 0.389980
Si Si7 0.766753 0.758871 0.387118
Si Si8 0.772284 0.900653 0.679498
O O1 0.940255 0.500000 0.104709
O O2 0.077066 0.652094 0.127504
O O3 0.821121 0.656301 0.092353
O O4 0.640199 0.609392 0.828455
O O5 0.423839 0.727450 0.810342
O O6 0.500000 0.650250 0.000000
O O7 0.733637 0.802472 0.123260
O O8 0.103945 0.894495 0.322246
O O9 0.767152 0.000000 0.140483
O O10 0.729426 0.891623 0.986249
O O11 0.285413 0.807570 0.170684
O O12 0.651608 0.851532 0.348313
O O13 0.390929 0.000000 0.216928
O O14 0.509258 0.677193 0.402195
O O15 0.183219 0.805360 0.244644
O O16 0.658367 0.500000 0.447300
O O17 0.777481 0.327780 0.459988
O O18 0.000000 0.776739 0.500000
O O19 0.500000 0.906239 0.500000
O O20 0.860687 0.000000 0.777639
#
# Coordination Sequence:
#
# PCOD9149244 Si02
#       8
#     4   4   4   4   4   4   4   4
#     4  10  20  34  54  82 112 142 176 225 282 333
#     4  10  20  37  58  78 105 140 192 236 276 322
#     4   9  18  35  55  78 108 141 176 221 274 326
#     4   9  19  33  54  84 114 140 175 222 276 330
#     4  11  19  31  56  81 112 137 179 219 267 328
#     4   9  19  33  53  82 114 142 174 220 279 340
#     4   9  19  36  56  80 110 144 184 230 284 330
#     4  10  21  35  51  74 109 149 182 214 262 325
#
# _framework density 23.905166999999999
#
# number of rings (size 3 to 8) (size 9 to 14) (size 15 to 20)
#    0.000    2.375    1.250    1.875    1.750    2.000 
#    4.500    1.875    0.000    3.000    0.000    0.000 
#    0.000    0.000    0.000    0.000    0.000    0.000 
#
# Total GULP energy -178376.624633 kJ/mol
# GULP energy per Si atom -5574.269520 kJ/mol
# Density = 2.385076 g / cm^3
# Si number density = 23.905167 Si / 1000 Ang^3
#
#
#
# Elastic Constant Matrix: (Units=GPa)
#
#
# Indices 1 2 3 4 5 6 
#
# 1 123.0087 48.1209 29.6774 0.0000 35.6366 0.0000
# 2 48.1209 145.6652 27.1296 0.0000 16.9444 0.0000
# 3 29.6774 27.1296 47.7828 0.0000 33.3464 0.0000
# 4 0.0000 0.0000 0.0000 14.7827 0.0000 11.6970
# 5 35.6366 16.9444 33.3464 0.0000 43.0728 0.0000
# 6 0.0000 0.0000 0.0000 11.6970 0.0000 9.4599
#
#
#
# Elastic Compliance Matrix: (Units=1/GPa)
#
#
# Indices 1 2 3 4 5 6 
#
# 1 0.011755 -0.002962 0.000772 0.000000 -0.009158 0.000000
# 2 -0.002962 0.008435 -0.005099 0.000000 0.003080 0.000000
# 3 0.000772 -0.005099 0.048703 0.000000 -0.036338 0.000000
# 4 0.000000 0.000000 0.000000 3.127480 0.000000 -3.867046
# 5 -0.009158 0.003080 -0.036338 0.000000 0.057714 0.000000
# 6 0.000000 0.000000 0.000000 -3.867046 0.000000 4.887208
#
#
# Mechanical properties :
#
#
# Convention : Reuss Voigt Hill
#
# Bulk Modulus (GPa) = 18.41096 58.47917 38.44506
# Shear Modulus (GPa) = 0.61170 27.56501 14.08835
#
# Velocity S-wave (km/s) = 0.50640 3.39941 2.43027
# Velocity P-wave (km/s) = 2.83907 6.31855 4.89818
#
# Compressibility (1/GPa) = 0.05431548
#
# Stress axis : x y z
#
# Youngs Moduli (GPa) = 85.06948 118.55547 20.53269
#
# Poissons Ratio (x) = 0.35113 -0.01585
# Poissons Ratio (y) = 0.25196 0.10469
# Poissons Ratio (z) = -0.06566 0.60448
#
# Static dielectric constant tensor:
#      x y z
#    x 1.907940 0.000000 -0.081820 
#    y 0.000000 1.956110 0.000000 
#    z -0.081820 0.000000 2.066710 
# 
# From -- ./inp_files/77050.got.cif
#   From: 2010.05.17/outbox.cif.g08.bks.cpg/sg10_39_cif.got.tgz:77050.got - 2010.06.03 11:33:40.
