data_PCOD9149309
_publ_section_title
;
Structure prediction by ZEFSAII (Michael W. Deem and Ramdas Pophale) SiO2 
 PCOD9149309
Probable space group: P 2/M
;
_chemical_formula_sum "Si O2"
_cell_formula_units_Z 28
_cell_length_a 26.332326
_cell_length_b 9.494669
_cell_length_c 5.375959
_cell_angle_alpha 90.000000
_cell_angle_beta 72.349268
_cell_angle_gamma 90.000000
_cell_volume 1280.803809
_symmetry_space_group_name_H-M "P 2/M"
_symmetry_group_IT_number 10
_symmetry_cell_setting 'monoclinic'
loop_
_space_group_symop_operation_xyz
x,y,z
-x,y,-z
-x,-y,-z
x,-y,z
loop_
_atom_site_type_symbol
_atom_site_label
_atom_site_fract_x
_atom_site_fract_y
_atom_site_fract_z
Si Si1 0.472706 0.169049 0.290624
Si Si2 0.040561 0.157284 0.738224
Si Si3 0.846214 0.847166 0.152504
Si Si4 0.898055 0.347045 0.680620
Si Si5 0.307527 0.667409 0.995229
Si Si6 0.207422 0.349482 0.454560
Si Si7 0.654238 0.829434 0.557972
O O1 0.500000 0.226136 0.500000
O O2 0.409462 0.187379 0.381300
O O3 0.482229 0.000000 0.276557
O O4 0.500000 0.226011 0.000000
O O5 0.099340 0.139250 0.769939
O O6 0.054230 0.249907 0.480275
O O7 0.020456 0.000000 0.714854
O O8 0.000000 0.221348 0.000000
O O9 0.795132 0.790252 0.377147
O O10 0.835600 0.000000 0.053638
O O11 0.863441 0.730190 0.935296
O O12 0.916622 0.500000 0.733903
O O13 0.854334 0.362982 0.528298
O O14 0.323525 0.500000 0.960197
O O15 0.244897 0.666901 0.160898
O O16 0.331147 0.750784 0.202926
O O17 0.320237 0.749667 0.720332
O O18 0.223538 0.500000 0.551741
O O19 0.665565 0.000000 0.548064
#
# Coordination Sequence:
#
# PCOD9149309 Si02
#       7
#     4   4   4   4   4   4   4
#     4   9  17  32  58  89 121 161 207 257 312 368
#     4   9  19  36  54  74 104 140 177 221 279 342
#     4  10  20  34  55  81 106 135 178 233 284 335
#     4  10  20  35  55  78 105 139 183 229 276 343
#     4  11  24  42  63  88 127 174 211 253 321 390
#     4   9  21  39  57  76 104 149 194 229 279 354
#     4  11  23  40  64  97 129 161 214 272 314 364
#
# _framework density 21.861273000000001
#
# number of rings (size 3 to 8) (size 9 to 14) (size 15 to 20)
#    0.000    2.143    0.000    2.571    2.000    5.429 
#    0.000    2.857    0.000    8.571    0.000    0.000 
#    0.000    0.000    0.000    0.000    0.000    0.000 
#
# Total GULP energy -156062.716889 kJ/mol
# GULP energy per Si atom -5573.668460 kJ/mol
# Density = 2.181152 g / cm^3
# Si number density = 21.861273 Si / 1000 Ang^3
#
#
#
# Elastic Constant Matrix: (Units=GPa)
#
#
# Indices 1 2 3 4 5 6 
#
# 1 73.8552 11.4131 22.7065 0.0000 6.2431 0.0000
# 2 11.4131 116.9379 53.3983 0.0000 -3.2153 0.0000
# 3 22.7065 53.3983 124.1848 0.0000 -9.7492 0.0000
# 4 0.0000 0.0000 0.0000 27.7827 0.0000 -3.4226
# 5 6.2431 -3.2153 -9.7492 0.0000 35.0213 0.0000
# 6 0.0000 0.0000 0.0000 -3.4226 0.0000 21.3938
#
#
#
# Elastic Compliance Matrix: (Units=1/GPa)
#
#
# Indices 1 2 3 4 5 6 
#
# 1 0.014749 -0.000223 -0.002872 0.000000 -0.003449 0.000000
# 2 -0.000223 0.010647 -0.004557 0.000000 -0.000251 0.000000
# 3 -0.002872 -0.004557 0.010780 0.000000 0.003094 0.000000
# 4 0.000000 0.000000 0.000000 0.036717 0.000000 0.005874
# 5 -0.003449 -0.000251 0.003094 0.000000 0.030007 0.000000
# 6 0.000000 0.000000 0.000000 0.005874 0.000000 0.047682
#
#
# Mechanical properties :
#
#
# Convention : Reuss Voigt Hill
#
# Bulk Modulus (GPa) = 47.90971 54.44596 51.17784
# Shear Modulus (GPa) = 28.92775 32.00356 30.46566
#
# Velocity S-wave (km/s) = 3.64159 3.83030 3.73713
# Velocity P-wave (km/s) = 6.29638 6.67239 6.48711
#
# Compressibility (1/GPa) = 0.02087260
#
# Stress axis : x y z
#
# Youngs Moduli (GPa) = 67.80169 93.91958 92.76375
#
# Poissons Ratio (x) = 0.02095 0.26638
# Poissons Ratio (y) = 0.01512 0.42275
# Poissons Ratio (z) = 0.19470 0.42801
#
# Static dielectric constant tensor:
#      x y z
#    x 1.848490 0.000000 0.078990 
#    y 0.000000 1.892960 0.000000 
#    z 0.078990 0.000000 1.823880 
# 
# From -- ./inp_files/13584.got.cif
#   From: 2010.05.17/outbox.cif.g08.bks.cpg/sg10_7_cif.got.tgz:13584.got - 2010.06.03 11:33:40.
