data_PCOD9149649
_publ_section_title
;
Structure prediction by ZEFSAII (Michael W. Deem and Ramdas Pophale) SiO2 
 PCOD9149649
Probable space group: P 2/M
;
_chemical_formula_sum "Si O2"
_cell_formula_units_Z 32
_cell_length_a 22.926637
_cell_length_b 13.217115
_cell_length_c 17.371149
_cell_angle_alpha 90.000000
_cell_angle_beta 17.805305
_cell_angle_gamma 90.000000
_cell_volume 1609.605921
_symmetry_space_group_name_H-M "P 2/M"
_symmetry_group_IT_number 10
_symmetry_cell_setting 'monoclinic'
loop_
_space_group_symop_operation_xyz
x,y,z
-x,y,-z
-x,-y,-z
x,-y,z
loop_
_atom_site_type_symbol
_atom_site_label
_atom_site_fract_x
_atom_site_fract_y
_atom_site_fract_z
Si Si1 0.887051 0.379013 0.811714
Si Si2 0.637736 0.116023 0.401771
Si Si3 0.816885 0.786407 0.781656
Si Si4 0.524968 0.117151 0.876885
Si Si5 0.950009 0.710938 0.980362
Si Si6 0.267771 0.881329 0.950103
Si Si7 0.651866 0.384193 0.251249
Si Si8 0.902659 0.226516 0.351152
O O1 0.910563 0.500000 0.778756
O O2 0.846798 0.325003 0.781208
O O3 0.062373 0.321303 0.634549
O O4 0.708786 0.353969 0.093356
O O5 0.500000 0.113249 0.500000
O O6 0.703922 0.000000 0.331870
O O7 0.486118 0.148404 0.658010
O O8 0.810620 0.193957 0.174653
O O9 0.797121 0.855332 0.882406
O O10 0.000000 0.811530 0.500000
O O11 0.629619 0.809174 0.967633
O O12 0.734277 0.156179 0.591829
O O13 0.496773 0.000000 0.887229
O O14 0.500000 0.120082 0.000000
O O15 0.119906 0.744971 0.710139
O O16 0.841499 0.630690 0.062941
O O17 0.000000 0.666876 0.000000
O O18 0.106917 0.830959 0.098640
O O19 0.261282 0.000000 0.944139
O O20 0.500000 0.333827 0.500000
O O21 0.593750 0.500000 0.315394
#
# Coordination Sequence:
#
# PCOD9149649 Si02
#       8
#     4   4   4   4   4   4   4   4
#     4   9  20  40  64  89 117 153 198 251 301 347
#     4  10  20  35  54  78 111 155 201 234 275 341
#     4  11  24  40  62  90 116 148 200 251 296 356
#     4  11  24  41  61  87 123 158 191 240 299 358
#     4  11  23  33  52  81 121 158 185 234 288 342
#     4  10  20  36  59  82 109 152 200 248 290 340
#     4   9  19  36  61  87 111 148 197 242 288 346
#     4  10  21  37  58  85 117 157 197 241 293 355
#
# _framework density 19.880642000000002
#
# number of rings (size 3 to 8) (size 9 to 14) (size 15 to 20)
#    0.000    1.875    1.250    2.625    5.250    3.250 
#    0.000    0.625    0.000    1.500    0.000    0.000 
#    0.000    0.000    0.000    0.000    0.000    0.000 
#
# Total GULP energy -178336.214955 kJ/mol
# GULP energy per Si atom -5573.006717 kJ/mol
# Density = 1.983539 g / cm^3
# Si number density = 19.880642 Si / 1000 Ang^3
#
#
#
# Elastic Constant Matrix: (Units=GPa)
#
#
# Indices 1 2 3 4 5 6 
#
# 1 74.8258 11.1860 11.7274 0.0000 14.9177 0.0000
# 2 11.1860 81.2585 13.4560 0.0000 -2.6222 0.0000
# 3 11.7274 13.4560 89.1447 0.0000 20.6744 0.0000
# 4 0.0000 0.0000 0.0000 17.9698 0.0000 5.0525
# 5 14.9177 -2.6222 20.6744 0.0000 29.0921 0.0000
# 6 0.0000 0.0000 0.0000 5.0525 0.0000 22.5197
#
#
#
# Elastic Compliance Matrix: (Units=1/GPa)
#
#
# Indices 1 2 3 4 5 6 
#
# 1 0.015333 -0.002422 0.000266 0.000000 -0.008270 0.000000
# 2 -0.002422 0.013224 -0.002684 0.000000 0.004342 0.000000
# 3 0.000266 -0.002684 0.013980 0.000000 -0.010313 0.000000
# 4 0.000000 0.000000 0.000000 0.059396 0.000000 -0.013326
# 5 -0.008270 0.004342 -0.010313 0.000000 0.046335 0.000000
# 6 0.000000 0.000000 0.000000 -0.013326 0.000000 0.047395
#
#
# Mechanical properties :
#
#
# Convention : Reuss Voigt Hill
#
# Bulk Modulus (GPa) = 30.43406 35.32977 32.88191
# Shear Modulus (GPa) = 23.11646 27.84029 25.47838
#
# Velocity S-wave (km/s) = 3.41363 3.74621 3.58378
# Velocity P-wave (km/s) = 5.55687 6.04332 5.80519
#
# Compressibility (1/GPa) = 0.03285793
#
# Stress axis : x y z
#
# Youngs Moduli (GPa) = 65.21689 75.61773 71.53205
#
# Poissons Ratio (x) = 0.18313 -0.01906
# Poissons Ratio (y) = 0.15794 0.19202
# Poissons Ratio (z) = -0.01737 0.20299
#
# Static dielectric constant tensor:
#      x y z
#    x 1.729530 0.000000 0.018620 
#    y 0.000000 1.723640 0.000000 
#    z 0.018620 0.000000 1.730340 
# 
# From -- ./inp_files/70759.got.cif
#   From: 2010.05.17/outbox.cif.g08.bks.cpg/sg10_36_cif.got.tgz:70759.got - 2010.06.03 11:33:40.
