data_PCOD9149779
_publ_section_title
;
Structure prediction by ZEFSAII (Michael W. Deem and Ramdas Pophale) SiO2 
 PCOD9149779
Probable space group: P 2/M
;
_chemical_formula_sum "Si O2"
_cell_formula_units_Z 32
_cell_length_a 7.137235
_cell_length_b 8.976027
_cell_length_c 28.768488
_cell_angle_alpha 90.000000
_cell_angle_beta 92.341838
_cell_angle_gamma 90.000000
_cell_volume 1841.485570
_symmetry_space_group_name_H-M "P 2/M"
_symmetry_group_IT_number 10
_symmetry_cell_setting 'monoclinic'
loop_
_space_group_symop_operation_xyz
x,y,z
-x,y,-z
-x,-y,-z
x,-y,z
loop_
_atom_site_type_symbol
_atom_site_label
_atom_site_fract_x
_atom_site_fract_y
_atom_site_fract_z
Si Si1 0.499626 0.322353 0.300656
Si Si2 0.488459 0.178184 0.054050
Si Si3 0.483810 0.178040 0.799860
Si Si4 0.228001 0.322803 0.126117
Si Si5 0.825370 0.176622 0.126780
Si Si6 0.781295 0.177336 0.631908
Si Si7 0.462984 0.177960 0.552599
Si Si8 0.182722 0.677132 0.619365
O O1 0.478680 0.500000 0.295996
O O2 0.525530 0.247990 0.251026
O O3 0.320879 0.254017 0.325479
O O4 0.678002 0.292369 0.335826
O O5 0.327040 0.263840 0.080167
O O6 0.683618 0.208445 0.082732
O O7 0.453939 0.000000 0.058042
O O8 0.500000 0.215927 0.000000
O O9 0.654040 0.248553 0.830851
O O10 0.296251 0.207351 0.828141
O O11 0.508079 0.000000 0.797729
O O12 0.241532 0.500000 0.129119
O O13 0.014426 0.269102 0.126117
O O14 0.869472 0.000000 0.126255
O O15 0.645662 0.205710 0.586323
O O16 0.985285 0.243628 0.625035
O O17 0.791001 0.000000 0.639135
O O18 0.500000 0.223232 0.500000
O O19 0.290755 0.260869 0.575343
O O20 0.426592 0.000000 0.553006
O O21 0.157519 0.500000 0.615511
#
# Coordination Sequence:
#
# PCOD9149779 Si02
#       8
#     4   4   4   4   4   4   4   4
#     4  10  21  37  56  79 108 139 173 217 267 316
#     4   9  19  37  59  80 105 141 183 224 264 310
#     4  10  21  38  59  80 104 138 180 222 262 310
#     4  11  22  35  54  80 112 144 174 217 269 319
#     4   9  19  36  56  78 106 140 180 222 261 311
#     4  10  20  35  56  79 106 141 179 219 262 313
#     4   9  19  36  56  78 105 139 181 225 266 312
#     4  10  21  36  54  78 110 143 175 217 267 319
#
# _framework density 17.377274
#
# number of rings (size 3 to 8) (size 9 to 14) (size 15 to 20)
#    0.000    2.250    0.000    3.375    0.000    7.000 
#    0.000    7.500    0.000    0.000    0.000    0.000 
#    0.000    0.000    0.000    0.000    0.000    0.000 
#
# Total GULP energy -178663.810904 kJ/mol
# GULP energy per Si atom -5583.244091 kJ/mol
# Density = 1.733772 g / cm^3
# Si number density = 17.377274 Si / 1000 Ang^3
#
#
#
# Elastic Constant Matrix: (Units=GPa)
#
#
# Indices 1 2 3 4 5 6 
#
# 1 135.4275 83.2235 60.5805 0.0000 -16.0881 0.0000
# 2 83.2235 89.5186 73.1455 0.0000 -10.6378 0.0000
# 3 60.5805 73.1455 149.1075 0.0000 -15.5503 0.0000
# 4 0.0000 0.0000 0.0000 18.3057 0.0000 3.9288
# 5 -16.0881 -10.6378 -15.5503 0.0000 7.0958 0.0000
# 6 0.0000 0.0000 0.0000 3.9288 0.0000 15.7182
#
#
#
# Elastic Compliance Matrix: (Units=1/GPa)
#
#
# Indices 1 2 3 4 5 6 
#
# 1 0.020490 -0.018973 0.003709 0.000000 0.026140 0.000000
# 2 -0.018973 0.036806 -0.011768 0.000000 -0.013629 0.000000
# 3 0.003709 -0.011768 0.012975 0.000000 0.019201 0.000000
# 4 0.000000 0.000000 0.000000 0.057724 0.000000 -0.014428
# 5 0.026140 -0.013629 0.019201 0.000000 0.221844 0.000000
# 6 0.000000 0.000000 0.000000 -0.014428 0.000000 0.067227
#
#
# Mechanical properties :
#
#
# Convention : Reuss Voigt Hill
#
# Bulk Modulus (GPa) = 61.70592 89.77251 75.73921
# Shear Modulus (GPa) = 10.49248 18.69753 14.59501
#
# Velocity S-wave (km/s) = 2.45991 3.28377 2.90123
# Velocity P-wave (km/s) = 6.60718 8.13330 7.40963
#
# Compressibility (1/GPa) = 0.01620590
#
# Stress axis : x y z
#
# Youngs Moduli (GPa) = 48.80533 27.16975 77.07021
#
# Poissons Ratio (x) = 0.51549 -0.28583
# Poissons Ratio (y) = 0.92597 0.90697
# Poissons Ratio (z) = -0.18100 0.31974
#
# Static dielectric constant tensor:
#      x y z
#    x 1.558670 0.000000 0.006430 
#    y 0.000000 1.576220 0.000000 
#    z 0.006430 0.000000 1.572670 
# 
# From -- ./inp_files/94331.got.cif
#   From: 2010.05.17/outbox.cif.g08.bks.cpg/sg10_48_cif.got.tgz:94331.got - 2010.06.03 11:33:40.
