data_PCOD9149849
_publ_section_title
;
Structure prediction by ZEFSAII (Michael W. Deem and Ramdas Pophale) SiO2 
 PCOD9149849
Probable space group: P 2/M
;
_chemical_formula_sum "Si O2"
_cell_formula_units_Z 28
_cell_length_a 15.315665
_cell_length_b 8.854830
_cell_length_c 18.288360
_cell_angle_alpha 90.000000
_cell_angle_beta 141.595198
_cell_angle_gamma 90.000000
_cell_volume 1540.748329
_symmetry_space_group_name_H-M "P 2/M"
_symmetry_group_IT_number 10
_symmetry_cell_setting 'monoclinic'
loop_
_space_group_symop_operation_xyz
x,y,z
-x,y,-z
-x,-y,-z
x,-y,z
loop_
_atom_site_type_symbol
_atom_site_label
_atom_site_fract_x
_atom_site_fract_y
_atom_site_fract_z
Si Si1 0.893569 0.823050 0.862548
Si Si2 0.906370 0.680151 0.719107
Si Si3 0.167733 0.820155 0.817125
Si Si4 0.388663 0.179010 0.093573
Si Si5 0.379967 0.679986 0.245865
Si Si6 0.612046 0.674019 0.140515
Si Si7 0.598623 0.180808 0.494315
O O1 0.950430 0.741150 0.828053
O O2 0.749124 0.746324 0.792222
O O3 0.869744 0.000000 0.830281
O O4 0.000000 0.812690 0.000000
O O5 0.903668 0.500000 0.716549
O O6 0.751294 0.746552 0.604132
O O7 0.019300 0.743406 0.735957
O O8 0.249606 0.750969 0.801733
O O9 0.153381 0.000000 0.799984
O O10 0.267958 0.792218 0.953765
O O11 0.361801 0.266602 0.150714
O O12 0.534644 0.234531 0.153573
O O13 0.391430 0.000000 0.109581
O O14 0.382515 0.500000 0.252532
O O15 0.519836 0.750774 0.372654
O O16 0.636281 0.500000 0.177317
O O17 0.500000 0.674435 0.000000
O O18 0.500000 0.214608 0.500000
O O19 0.610381 0.000000 0.496259
#
# Coordination Sequence:
#
# PCOD9149849 Si02
#       7
#     4   4   4   4   4   4   4
#     4  11  23  38  55  78 111 149 185 223 274 335
#     4  12  24  37  57  83 112 144 185 235 282 328
#     4  10  20  35  56  83 116 153 190 227 275 336
#     4  10  20  35  56  83 116 153 190 227 275 336
#     4  12  24  37  57  83 112 144 185 235 282 328
#     4   9  17  31  53  82 115 148 185 231 280 329
#     4  11  23  41  63  80 104 145 192 234 278 333
#
# _framework density 18.172988
#
# number of rings (size 3 to 8) (size 9 to 14) (size 15 to 20)
#    0.000    1.286    1.429    5.571    0.000    8.571 
#    0.000    0.000    0.000    0.857    0.000    6.000 
#    0.000    0.000    0.000    0.000    0.000    0.000 
#
# Total GULP energy -156524.983136 kJ/mol
# GULP energy per Si atom -5590.177969 kJ/mol
# Density = 1.813163 g / cm^3
# Si number density = 18.172988 Si / 1000 Ang^3
#
#
#
# Elastic Constant Matrix: (Units=GPa)
#
#
# Indices 1 2 3 4 5 6 
#
# 1 83.7577 29.2859 6.8395 0.0000 34.2447 0.0000
# 2 29.2859 109.8240 33.8047 0.0000 23.8156 0.0000
# 3 6.8395 33.8047 37.0652 0.0000 15.3525 0.0000
# 4 0.0000 0.0000 0.0000 39.1264 0.0000 -51.1298
# 5 34.2447 23.8156 15.3525 0.0000 25.0873 0.0000
# 6 0.0000 0.0000 0.0000 -51.1298 0.0000 147.9086
#
#
#
# Elastic Compliance Matrix: (Units=1/GPa)
#
#
# Indices 1 2 3 4 5 6 
#
# 1 0.034220 -0.003053 0.019580 0.000000 -0.055795 0.000000
# 2 -0.003053 0.013813 -0.011158 0.000000 -0.002118 0.000000
# 3 0.019580 -0.011158 0.053884 0.000000 -0.049111 0.000000
# 4 0.000000 0.000000 0.000000 0.046617 0.000000 0.016115
# 5 -0.055795 -0.002118 -0.049111 0.000000 0.148087 0.000000
# 6 0.000000 0.000000 0.000000 0.016115 0.000000 0.012332
#
#
# Mechanical properties :
#
#
# Convention : Reuss Voigt Hill
#
# Bulk Modulus (GPa) = 8.87649 41.16748 25.02199
# Shear Modulus (GPa) = 14.89138 53.13891 34.01514
#
# Velocity S-wave (km/s) = 2.86566 5.41332 4.33106
# Velocity P-wave (km/s) = 3.98050 7.85967 6.22972
#
# Compressibility (1/GPa) = 0.11265708
#
# Stress axis : x y z
#
# Youngs Moduli (GPa) = 29.22281 72.39460 18.55828
#
# Poissons Ratio (x) = 0.22101 -0.36338
# Poissons Ratio (y) = 0.08921 0.20707
# Poissons Ratio (z) = -0.57219 0.80775
#
# Static dielectric constant tensor:
#      x y z
#    x 1.612790 0.000000 0.000680 
#    y 0.000000 1.599900 0.000000 
#    z 0.000680 0.000000 1.624620 
# 
# From -- ./inp_files/77810.got.cif
#   From: 2010.05.17/outbox.cif.g08.bks.cpg/sg10_39_cif.got.tgz:77810.got - 2010.06.03 11:33:40.
