data_PCOD9149426
_publ_section_title
;
Structure prediction by ZEFSAII (Michael W. Deem and Ramdas Pophale) SiO2 
 PCOD9149426
Probable space group: P 2/M
;
_chemical_formula_sum "Si O2"
_cell_formula_units_Z 30
_cell_length_a 11.086428
_cell_length_b 9.727139
_cell_length_c 16.320676
_cell_angle_alpha 90.000000
_cell_angle_beta 113.382722
_cell_angle_gamma 90.000000
_cell_volume 1615.467176
_symmetry_space_group_name_H-M "P 2/M"
_symmetry_group_IT_number 10
_symmetry_cell_setting 'monoclinic'
loop_
_space_group_symop_operation_xyz
x,y,z
-x,y,-z
-x,-y,-z
x,-y,z
loop_
_atom_site_type_symbol
_atom_site_label
_atom_site_fract_x
_atom_site_fract_y
_atom_site_fract_z
Si Si1 0.733579 0.665388 0.768795
Si Si2 0.352117 0.666658 0.435180
Si Si3 0.157658 0.664773 0.532093
Si Si4 0.235276 0.656662 0.853292
Si Si5 0.989717 0.333484 0.088987
Si Si6 0.425622 0.848685 0.153899
Si Si7 0.500000 0.255315 0.000000
Si Si8 0.272183 0.158836 0.710042
O O1 0.721019 0.500000 0.769414
O O2 0.680768 0.712117 0.666180
O O3 0.885547 0.702855 0.822376
O O4 0.657393 0.731999 0.824097
O O5 0.500000 0.713304 0.500000
O O6 0.356728 0.500000 0.434980
O O7 0.233891 0.699759 0.467252
O O8 0.176128 0.500000 0.549821
O O9 0.230730 0.754513 0.620142
O O10 0.000000 0.689963 0.500000
O O11 0.200991 0.500000 0.820083
O O12 0.217283 0.759623 0.773536
O O13 0.143406 0.704342 0.902316
O O14 0.383474 0.660350 0.926415
O O15 0.989461 0.500000 0.083362
O O16 0.000000 0.278448 0.000000
O O17 0.441095 0.829163 0.060508
O O18 0.571154 0.841571 0.232448
O O19 0.370019 0.000000 0.155832
O O20 0.229111 0.000000 0.693871
#
# Coordination Sequence:
#
# PCOD9149426 Si02
#       8
#     4   4   4   4   4   4   2   4
#     4  10  20  34  57  81 109 146 184 231 288 340
#     4   9  18  33  54  83 114 144 183 234 289 341
#     4  10  21  36  60  88 112 143 192 243 287 342
#     4  10  20  34  57  83 111 143 186 234 278 333
#     4   9  18  32  51  79 111 142 178 226 281 334
#     4  10  21  37  56  79 111 150 191 233 279 335
#     4  10  20  34  56  84 112 146 188 236 288 330
#     4  10  22  38  55  79 113 150 184 226 283 339
#
# _framework density 18.570478999999999
#
# number of rings (size 3 to 8) (size 9 to 14) (size 15 to 20)
#    0.000    2.267    0.000    2.400    1.867    6.133 
#    0.000    1.333    0.000    4.000    0.000    0.000 
#    0.000    0.000    0.000    0.000    0.000    0.000 
#
# Total GULP energy -167202.460527 kJ/mol
# GULP energy per Si atom -5573.415351 kJ/mol
# Density = 1.852821 g / cm^3
# Si number density = 18.570479 Si / 1000 Ang^3
#
#
#
# Elastic Constant Matrix: (Units=GPa)
#
#
# Indices 1 2 3 4 5 6 
#
# 1 84.1871 16.6448 28.5140 0.0000 -17.2733 0.0000
# 2 16.6448 50.6136 24.1574 0.0000 -5.2825 0.0000
# 3 28.5140 24.1574 103.0082 0.0000 -10.9503 0.0000
# 4 0.0000 0.0000 0.0000 -5.3215 0.0000 7.7637
# 5 -17.2733 -5.2825 -10.9503 0.0000 25.1258 0.0000
# 6 0.0000 0.0000 0.0000 7.7637 0.0000 -8.3904
#
#
#
# Elastic Compliance Matrix: (Units=1/GPa)
#
#
# Indices 1 2 3 4 5 6 
#
# 1 0.015090 -0.002821 -0.002596 0.000000 0.008650 0.000000
# 2 -0.002821 0.022928 -0.004498 0.000000 0.000921 0.000000
# 3 -0.002596 -0.004498 0.011735 0.000000 0.002384 0.000000
# 4 0.000000 0.000000 0.000000 0.537002 0.000000 0.496889
# 5 0.008650 0.000921 0.002384 0.000000 0.046979 0.000000
# 6 0.000000 0.000000 0.000000 0.496889 0.000000 0.340589
#
#
# Mechanical properties :
#
#
# Convention : Reuss Voigt Hill
#
# Bulk Modulus (GPa) = 33.41930 41.82684 37.62307
# Shear Modulus (GPa) = 4.97945 13.51560 9.24753
#
# Velocity S-wave (km/s) = 1.63927 2.70070 2.23394
# Velocity P-wave (km/s) = 4.64951 5.68307 5.19207
#
# Compressibility (1/GPa) = 0.02992283
#
# Stress axis : x y z
#
# Youngs Moduli (GPa) = 66.26921 43.61418 85.21522
#
# Poissons Ratio (x) = 0.12302 0.22123
# Poissons Ratio (y) = 0.18692 0.38334
# Poissons Ratio (z) = 0.17204 0.19620
#
# Static dielectric constant tensor:
#      x y z
#    x 1.656230 0.000000 -0.000420 
#    y 0.000000 1.622050 0.000000 
#    z -0.000420 0.000000 1.634610 
# 
# From -- ./inp_files/63868.got.cif
#   From: 2010.05.17/outbox.cif.g08.bks.cpg/sg10_32_cif.got.tgz:63868.got - 2010.06.03 11:33:40.
