data_PCOD9149489
_publ_section_title
;
Structure prediction by ZEFSAII (Michael W. Deem and Ramdas Pophale) SiO2 
 PCOD9149489
Probable space group: P 2/M
;
_chemical_formula_sum "Si O2"
_cell_formula_units_Z 24
_cell_length_a 23.507731
_cell_length_b 9.995831
_cell_length_c 5.284045
_cell_angle_alpha 90.000000
_cell_angle_beta 83.628977
_cell_angle_gamma 90.000000
_cell_volume 1233.973059
_symmetry_space_group_name_H-M "P 2/M"
_symmetry_group_IT_number 10
_symmetry_cell_setting 'monoclinic'
loop_
_space_group_symop_operation_xyz
x,y,z
-x,y,-z
-x,-y,-z
x,-y,z
loop_
_atom_site_type_symbol
_atom_site_label
_atom_site_fract_x
_atom_site_fract_y
_atom_site_fract_z
Si Si1 0.035667 0.661208 0.733094
Si Si2 0.728357 0.349711 0.576147
Si Si3 0.220109 0.143117 0.123551
Si Si4 0.836893 0.769652 0.356671
Si Si5 0.634803 0.838893 0.391653
Si Si6 0.564436 0.161229 0.930538
O O1 0.042616 0.500000 0.732591
O O2 0.098170 0.725693 0.698102
O O3 0.000000 0.696423 0.500000
O O4 0.000000 0.699065 0.000000
O O5 0.706478 0.500000 0.615433
O O6 0.738752 0.267789 0.832364
O O7 0.791722 0.351073 0.421455
O O8 0.689768 0.250207 0.429155
O O9 0.176264 0.147794 0.382081
O O10 0.251303 0.000000 0.110977
O O11 0.185543 0.159049 0.883641
O O12 0.590971 0.809641 0.643939
O O13 0.646865 0.000000 0.387890
O O14 0.605701 0.800186 0.141291
O O15 0.561162 0.000000 0.947689
O O16 0.500000 0.213544 0.000000
#
# Coordination Sequence:
#
# PCOD9149489 Si02
#       6
#     4   4   4   4   4   4
#     4  10  20  35  58  86 117 152 196 246 292 343
#     4  10  24  39  59  89 123 156 193 242 296 353
#     4  10  22  39  62  85 114 156 197 236 290 355
#     4  10  22  38  61  86 119 150 197 241 298 347
#     4  10  20  34  57  87 115 150 192 239 289 343
#     4   9  18  34  57  84 113 148 195 245 285 328
#
# _framework density 19.449369999999998
#
# number of rings (size 3 to 8) (size 9 to 14) (size 15 to 20)
#    1.000    1.167    0.000    3.000    2.333    3.333 
#    0.000    0.000    0.000   13.000    0.000    0.000 
#    0.000    0.000    0.000    0.000    0.000    0.000 
#
# Total GULP energy -133744.738042 kJ/mol
# GULP energy per Si atom -5572.697418 kJ/mol
# Density = 1.940510 g / cm^3
# Si number density = 19.449370 Si / 1000 Ang^3
#
#
#
# Elastic Constant Matrix: (Units=GPa)
#
#
# Indices 1 2 3 4 5 6 
#
# 1 98.6183 23.6072 24.3149 0.0000 -5.6953 0.0000
# 2 23.6072 84.1122 15.3324 0.0000 4.4237 0.0000
# 3 24.3149 15.3324 127.3223 0.0000 1.1117 0.0000
# 4 0.0000 0.0000 0.0000 -7.5676 0.0000 -7.9313
# 5 -5.6953 4.4237 1.1117 0.0000 27.8782 0.0000
# 6 0.0000 0.0000 0.0000 -7.9313 0.0000 34.4043
#
#
#
# Elastic Compliance Matrix: (Units=1/GPa)
#
#
# Indices 1 2 3 4 5 6 
#
# 1 0.011493 -0.003040 -0.001854 0.000000 0.002904 0.000000
# 2 -0.003040 0.013058 -0.000969 0.000000 -0.002655 0.000000
# 3 -0.001854 -0.000969 0.008330 0.000000 -0.000557 0.000000
# 4 0.000000 0.000000 0.000000 -0.106428 0.000000 -0.024535
# 5 0.002904 -0.002655 -0.000557 0.000000 0.036907 0.000000
# 6 0.000000 0.000000 0.000000 -0.024535 0.000000 0.023410
#
#
# Mechanical properties :
#
#
# Convention : Reuss Voigt Hill
#
# Bulk Modulus (GPa) = 47.27102 48.50685 47.88894
# Shear Modulus (GPa) = 901.28443 27.39619 464.34031
#
# Velocity S-wave (km/s) = 21.55009 3.75719 15.46808
# Velocity P-wave (km/s) = 25.36860 6.61938 18.53891
#
# Compressibility (1/GPa) = 0.02115461
#
# Stress axis : x y z
#
# Youngs Moduli (GPa) = 87.01129 76.57902 120.05279
#
# Poissons Ratio (x) = 0.23283 0.22258
# Poissons Ratio (y) = 0.26455 0.11630
# Poissons Ratio (z) = 0.16132 0.07418
#
# Static dielectric constant tensor:
#      x y z
#    x 1.679130 0.000000 -0.023010 
#    y 0.000000 1.682330 0.000000 
#    z -0.023010 0.000000 1.701200 
# 
# From -- ./inp_files/13012.got.cif
#   From: 2010.05.17/outbox.cif.g08.bks.cpg/sg10_7_cif.got.tgz:13012.got - 2010.06.03 11:33:40.
