data_PCOD9149488
_publ_section_title
;
Structure prediction by ZEFSAII (Michael W. Deem and Ramdas Pophale) SiO2 
 PCOD9149488
Probable space group: P 2/M
;
_chemical_formula_sum "Si O2"
_cell_formula_units_Z 24
_cell_length_a 22.146743
_cell_length_b 8.001958
_cell_length_c 11.275538
_cell_angle_alpha 90.000000
_cell_angle_beta 32.632973
_cell_angle_gamma 90.000000
_cell_volume 1077.551419
_symmetry_space_group_name_H-M "P 2/M"
_symmetry_group_IT_number 10
_symmetry_cell_setting 'monoclinic'
loop_
_space_group_symop_operation_xyz
x,y,z
-x,y,-z
-x,-y,-z
x,-y,z
loop_
_atom_site_type_symbol
_atom_site_label
_atom_site_fract_x
_atom_site_fract_y
_atom_site_fract_z
Si Si1 0.742021 0.301204 0.347611
Si Si2 0.627712 0.804048 0.295658
Si Si3 0.152903 0.694055 0.172453
Si Si4 0.371953 0.704713 0.218383
Si Si5 0.827398 0.697361 0.601719
Si Si6 0.963570 0.808522 0.872069
O O1 0.727431 0.500000 0.359833
O O2 0.675742 0.217459 0.348739
O O3 0.688520 0.246297 0.559532
O O4 0.873855 0.264231 0.112537
O O5 0.500000 0.745302 0.500000
O O6 0.630979 0.000000 0.257955
O O7 0.713867 0.705920 0.069575
O O8 0.115988 0.500000 0.222344
O O9 0.130817 0.762834 0.340333
O O10 0.098212 0.791084 0.153755
O O11 0.372358 0.500000 0.214801
O O12 0.291806 0.763886 0.244734
O O13 0.500000 0.760550 0.000000
O O14 0.814771 0.500000 0.643249
O O15 0.918336 0.721704 0.348052
O O16 0.983708 0.000000 0.867505
#
# Coordination Sequence:
#
# PCOD9149488 Si02
#       6
#     4   4   4   4   4   4
#     4  10  20  36  61  85 111 145 189 239 281 331
#     4  10  21  35  53  79 115 154 188 228 280 336
#     4  10  20  34  57  87 115 145 186 237 284 333
#     4   9  20  38  60  86 114 146 186 236 288 332
#     4  10  21  37  59  86 116 148 188 236 283 335
#     4  11  22  37  58  83 118 153 187 232 284 342
#
# _framework density 22.27272
#
# number of rings (size 3 to 8) (size 9 to 14) (size 15 to 20)
#    0.000    2.000    0.000    5.500    2.333    5.333 
#    0.000    5.000    0.000    2.500    0.000    0.000 
#    0.000    0.000    0.000    0.000    0.000    0.000 
#
# Total GULP energy -134114.704258 kJ/mol
# GULP energy per Si atom -5588.112677 kJ/mol
# Density = 2.222203 g / cm^3
# Si number density = 22.272720 Si / 1000 Ang^3
#
#
#
# Elastic Constant Matrix: (Units=GPa)
#
#
# Indices 1 2 3 4 5 6 
#
# 1 54.9861 -7.0281 26.9887 0.0000 2.9500 0.0000
# 2 -7.0281 29.3402 -11.4389 0.0000 6.8591 0.0000
# 3 26.9887 -11.4389 109.8574 0.0000 3.9214 0.0000
# 4 0.0000 0.0000 0.0000 -2.3287 0.0000 -1.0504
# 5 2.9500 6.8591 3.9214 0.0000 39.0167 0.0000
# 6 0.0000 0.0000 0.0000 -1.0504 0.0000 20.8311
#
#
#
# Elastic Compliance Matrix: (Units=1/GPa)
#
#
# Indices 1 2 3 4 5 6 
#
# 1 0.021067 0.003609 -0.004737 0.000000 -0.001751 0.000000
# 2 0.003609 0.037945 0.003324 0.000000 -0.007278 0.000000
# 3 -0.004737 0.003324 0.010659 0.000000 -0.001297 0.000000
# 4 0.000000 0.000000 0.000000 -0.419877 0.000000 -0.021172
# 5 -0.001751 -0.007278 -0.001297 0.000000 0.027172 0.000000
# 6 0.000000 0.000000 0.000000 -0.021172 0.000000 0.046938
#
#
# Mechanical properties :
#
#
# Convention : Reuss Voigt Hill
#
# Bulk Modulus (GPa) = 13.50222 23.46969 18.48596
# Shear Modulus (GPa) = -19.54647 23.88129 2.16741
#
# Velocity S-wave (km/s) = -2.96564 3.27803 0.98754
# Velocity P-wave (km/s) = 2.37725 4.98875 3.10131
#
# Compressibility (1/GPa) = 0.07406188
#
# Stress axis : x y z
#
# Youngs Moduli (GPa) = 47.46806 26.35416 93.81788
#
# Poissons Ratio (x) = -0.09511 0.44444
# Poissons Ratio (y) = -0.17130 -0.31187
# Poissons Ratio (z) = 0.22487 -0.08761
#
# Static dielectric constant tensor:
#      x y z
#    x 1.850310 0.000000 -0.001420 
#    y 0.000000 1.768280 0.000000 
#    z -0.001420 0.000000 1.828690 
# 
# From -- ./inp_files/56542.got.cif
#   From: 2010.05.17/outbox.cif.g08.bks.cpg/sg10_29_cif.got.tgz:56542.got - 2010.06.03 11:33:40.
