data_PCOD9149136
_publ_section_title
;
Structure prediction by ZEFSAII (Michael W. Deem and Ramdas Pophale) SiO2 
 PCOD9149136
Probable space group: P 2/M
;
_chemical_formula_sum "Si O2"
_cell_formula_units_Z 32
_cell_length_a 14.497338
_cell_length_b 8.812442
_cell_length_c 19.869223
_cell_angle_alpha 90.000000
_cell_angle_beta 133.256964
_cell_angle_gamma 90.000000
_cell_volume 1848.708278
_symmetry_space_group_name_H-M "P 2/M"
_symmetry_group_IT_number 10
_symmetry_cell_setting 'monoclinic'
loop_
_space_group_symop_operation_xyz
x,y,z
-x,y,-z
-x,-y,-z
x,-y,z
loop_
_atom_site_type_symbol
_atom_site_label
_atom_site_fract_x
_atom_site_fract_y
_atom_site_fract_z
Si Si1 0.625442 0.681522 0.519319
Si Si2 0.374558 0.681522 0.893878
Si Si3 0.857763 0.180909 0.140270
Si Si4 0.515987 0.180103 0.181213
Si Si5 0.235585 0.681352 0.194324
Si Si6 0.857763 0.180909 0.717493
Si Si7 0.235585 0.681352 0.041261
Si Si8 0.515987 0.819897 0.334773
O O1 0.500000 0.722097 0.500000
O O2 0.629229 0.500000 0.515539
O O3 0.748879 0.740654 0.619369
O O4 0.607835 0.756153 0.437609
O O5 0.370771 0.500000 0.886310
O O6 0.251121 0.740654 0.870489
O O7 0.392165 0.756153 0.829773
O O8 0.500000 0.722097 0.000000
O O9 0.000000 0.217549 0.234811
O O10 0.840525 0.000000 0.133898
O O11 0.841827 0.237529 0.055743
O O12 0.381015 0.264201 0.106642
O O13 0.560206 0.205133 0.280103
O O14 0.496426 0.000000 0.162149
O O15 0.229557 0.500000 0.200004
O O16 0.158173 0.762471 0.213916
O O17 0.195373 0.717922 0.097686
O O18 0.381015 0.735799 0.274373
O O19 0.840524 0.000000 0.706627
O O20 0.229557 0.500000 0.029553
O O21 0.496426 0.000000 0.334277
#
# Coordination Sequence:
#
# PCOD9149136 Si02
#       8
#     4   4   4   4   4   4   4   4
#     4  11  22  36  58  86 112 146 187 229 279 330
#     4  11  22  36  58  86 112 146 187 229 279 330
#     4  11  24  39  56  80 111 149 190 232 279 330
#     4  10  20  34  56  85 114 145 182 228 279 327
#     4  10  20  34  53  79 112 149 188 228 272 326
#     4  11  24  39  56  80 111 149 190 232 279 330
#     4  10  20  34  53  79 112 149 188 228 272 326
#     4  10  20  34  56  85 114 145 182 228 279 327
#
# _framework density 17.309383
#
# number of rings (size 3 to 8) (size 9 to 14) (size 15 to 20)
#    0.000    1.500    2.500    3.000    0.000    6.500 
#    0.000    2.500    0.000    0.750    0.000    5.250 
#    0.000    0.000    0.000    0.000    0.000    0.000 
#
# Total GULP energy -178783.722772 kJ/mol
# GULP energy per Si atom -5586.991337 kJ/mol
# Density = 1.726999 g / cm^3
# Si number density = 17.309383 Si / 1000 Ang^3
#
#
#
# Elastic Constant Matrix: (Units=GPa)
#
#
# Indices 1 2 3 4 5 6 
#
# 1 83.9373 29.2600 42.8533 0.0000 0.0238 0.0000
# 2 29.2600 44.6034 29.2341 0.0000 -0.1653 0.0000
# 3 42.8533 29.2341 83.9692 0.0000 0.1739 0.0000
# 4 0.0000 0.0000 0.0000 89.1248 0.0000 51.0782
# 5 0.0238 -0.1653 0.1739 0.0000 21.4881 0.0000
# 6 0.0000 0.0000 0.0000 51.0782 0.0000 81.0017
#
#
#
# Elastic Compliance Matrix: (Units=1/GPa)
#
#
# Indices 1 2 3 4 5 6 
#
# 1 0.017827 -0.007426 -0.006513 0.000000 -0.000024 0.000000
# 2 -0.007426 0.032144 -0.007402 0.000000 0.000315 0.000000
# 3 -0.006513 -0.007402 0.017810 0.000000 -0.000194 0.000000
# 4 0.000000 0.000000 0.000000 0.017570 0.000000 -0.011079
# 5 -0.000024 0.000315 -0.000194 0.000000 0.046541 0.000000
# 6 0.000000 0.000000 0.000000 -0.011079 0.000000 0.019332
#
#
# Mechanical properties :
#
#
# Convention : Reuss Voigt Hill
#
# Bulk Modulus (GPa) = 39.84030 46.13385 42.98708
# Shear Modulus (GPa) = 24.71919 45.73377 35.22648
#
# Velocity S-wave (km/s) = 3.78309 5.14575 4.51611
# Velocity P-wave (km/s) = 6.49222 7.87498 7.21680
#
# Compressibility (1/GPa) = 0.02510021
#
# Stress axis : x y z
#
# Youngs Moduli (GPa) = 56.09353 31.11012 56.14815
#
# Poissons Ratio (x) = 0.23104 0.36567
# Poissons Ratio (y) = 0.41658 0.41558
# Poissons Ratio (z) = 0.36531 0.23026
#
# Static dielectric constant tensor:
#      x y z
#    x 1.582270 0.000000 -0.011270 
#    y 0.000000 1.573790 0.000000 
#    z -0.011270 0.000000 1.580470 
# 
# From -- ./inp_files/84760.got.cif
#   From: 2010.05.17/outbox.cif.g08.bks.cpg/sg10_43_cif.got.tgz:84760.got - 2010.06.03 11:33:40.
