data_PCOD9149288
_publ_section_title
;
Structure prediction by ZEFSAII (Michael W. Deem and Ramdas Pophale) SiO2 
 PCOD9149288
Probable space group: P 2/M
;
_chemical_formula_sum "Si O2"
_cell_formula_units_Z 32
_cell_length_a 19.048701
_cell_length_b 7.567094
_cell_length_c 10.921137
_cell_angle_alpha 90.000000
_cell_angle_beta 118.541926
_cell_angle_gamma 90.000000
_cell_volume 1382.891654
_symmetry_space_group_name_H-M "P 2/M"
_symmetry_group_IT_number 10
_symmetry_cell_setting 'monoclinic'
loop_
_space_group_symop_operation_xyz
x,y,z
-x,y,-z
-x,-y,-z
x,-y,z
loop_
_atom_site_type_symbol
_atom_site_label
_atom_site_fract_x
_atom_site_fract_y
_atom_site_fract_z
Si Si1 0.120994 0.787341 0.174206
Si Si2 0.454798 0.216490 0.586374
Si Si3 0.134058 0.700978 0.916348
Si Si4 0.975147 0.213270 0.666331
Si Si5 0.542903 0.216085 0.908894
Si Si6 0.721439 0.799429 0.092743
Si Si7 0.174124 0.785307 0.598687
Si Si8 0.727316 0.786324 0.566138
O O1 0.066903 0.725737 0.242071
O O2 0.211501 0.726340 0.277851
O O3 0.118754 0.000000 0.178092
O O4 0.097089 0.736676 0.018417
O O5 0.500000 0.269890 0.500000
O O6 0.497904 0.273889 0.747859
O O7 0.362967 0.277725 0.506096
O O8 0.454511 0.000000 0.587692
O O9 0.157648 0.500000 0.929127
O O10 0.215788 0.806251 0.965686
O O11 0.067372 0.739353 0.758419
O O12 0.915783 0.275822 0.509405
O O13 0.973279 0.000000 0.660475
O O14 0.541519 0.000000 0.903732
O O15 0.500000 0.268201 0.000000
O O16 0.635231 0.276522 0.989762
O O17 0.774941 0.715793 0.244986
O O18 0.703805 0.000000 0.119584
O O19 0.227835 0.748665 0.523815
O O20 0.167876 0.000000 0.607648
O O21 0.723489 0.000000 0.571464
#
# Coordination Sequence:
#
# PCOD9149288 Si02
#       8
#     4   4   4   4   4   4   4   4
#     4   9  18  33  56  79 101 135 176 215 257 314
#     4   9  16  23  37  69 111 142 162 200 261 317
#     4  12  25  36  48  72 108 142 174 216 264 310
#     4   9  18  35  57  79 101 130 173 218 263 315
#     4   9  17  29  48  77 110 139 171 215 265 315
#     4  10  20  34  55  78 105 139 175 213 258 311
#     4   8  15  30  52  76  98 129 171 215 257 304
#     4   8  14  26  47  75 107 133 162 208 261 312
#
# _framework density 23.139917000000001
#
# number of rings (size 3 to 8) (size 9 to 14) (size 15 to 20)
#    0.000    2.750    0.000    3.750    1.750    5.500 
#    0.000    3.125    0.000    1.125    0.000    1.750 
#    0.000    0.000    0.000    0.000    0.000    0.000 
#
# Total GULP energy -178649.812719 kJ/mol
# GULP energy per Si atom -5582.806647 kJ/mol
# Density = 2.308725 g / cm^3
# Si number density = 23.139917 Si / 1000 Ang^3
#
#
#
# Elastic Constant Matrix: (Units=GPa)
#
#
# Indices 1 2 3 4 5 6 
#
# 1 107.7004 -1.8052 64.1019 0.0000 30.3120 0.0000
# 2 -1.8052 54.6002 4.2431 0.0000 3.7417 0.0000
# 3 64.1019 4.2431 160.5807 0.0000 16.1630 0.0000
# 4 0.0000 0.0000 0.0000 -65.3701 0.0000 28.3154
# 5 30.3120 3.7417 16.1630 0.0000 48.3118 0.0000
# 6 0.0000 0.0000 0.0000 28.3154 0.0000 -114.3398
#
#
#
# Elastic Compliance Matrix: (Units=1/GPa)
#
#
# Indices 1 2 3 4 5 6 
#
# 1 0.014405 0.001379 -0.005036 0.000000 -0.007460 0.000000
# 2 0.001379 0.018564 -0.000837 0.000000 -0.002023 0.000000
# 3 -0.005036 -0.000837 0.008212 0.000000 0.000477 0.000000
# 4 0.000000 0.000000 0.000000 -0.017136 0.000000 -0.004244
# 5 -0.007460 -0.002023 0.000477 0.000000 0.025377 0.000000
# 6 0.000000 0.000000 0.000000 -0.004244 0.000000 -0.009797
#
#
# Mechanical properties :
#
#
# Convention : Reuss Voigt Hill
#
# Bulk Modulus (GPa) = 31.06335 50.66232 40.86283
# Shear Modulus (GPa) = 84.25348 -9.19019 37.53164
#
# Velocity S-wave (km/s) = 6.04065 -1.99504 4.03171
# Velocity P-wave (km/s) = 7.88073 4.07854 6.27457
#
# Compressibility (1/GPa) = 0.03219227
#
# Stress axis : x y z
#
# Youngs Moduli (GPa) = 69.42017 53.86701 121.77673
#
# Poissons Ratio (x) = -0.07427 0.61325
# Poissons Ratio (y) = -0.09572 0.10197
# Poissons Ratio (z) = 0.34959 0.04511
#
# Static dielectric constant tensor:
#      x y z
#    x 1.864050 0.000000 -0.004420 
#    y 0.000000 1.883860 0.000000 
#    z -0.004420 0.000000 1.860350 
# 
# From -- ./inp_files/55357.got.cif
#   From: 2010.05.17/outbox.cif.g08.bks.cpg/sg10_28_cif.got.tgz:55357.got - 2010.06.03 11:33:40.
