data_PCOD9149158
_publ_section_title
;
Structure prediction by ZEFSAII (Michael W. Deem and Ramdas Pophale) SiO2 
 PCOD9149158
Probable space group: P 2/M
;
_chemical_formula_sum "Si O2"
_cell_formula_units_Z 32
_cell_length_a 15.730368
_cell_length_b 7.585486
_cell_length_c 25.383117
_cell_angle_alpha 90.000000
_cell_angle_beta 152.475791
_cell_angle_gamma 90.000000
_cell_volume 1399.668426
_symmetry_space_group_name_H-M "P 2/M"
_symmetry_group_IT_number 10
_symmetry_cell_setting 'monoclinic'
loop_
_space_group_symop_operation_xyz
x,y,z
-x,y,-z
-x,-y,-z
x,-y,z
loop_
_atom_site_type_symbol
_atom_site_label
_atom_site_fract_x
_atom_site_fract_y
_atom_site_fract_z
Si Si1 0.869009 0.294930 0.472338
Si Si2 0.883005 0.793689 0.888058
Si Si3 0.647154 0.286491 0.124911
Si Si4 0.056200 0.206830 0.370083
Si Si5 0.700599 0.784115 0.589706
Si Si6 0.002309 0.213214 0.840106
Si Si7 0.590645 0.708004 0.910941
Si Si8 0.541656 0.714018 0.765170
O O1 0.844532 0.500000 0.444203
O O2 0.663992 0.221731 0.358210
O O3 0.000000 0.214850 0.500000
O O4 0.949328 0.287688 0.574965
O O5 0.929664 0.720445 0.856753
O O6 0.675439 0.779231 0.793097
O O7 0.933301 0.000000 0.912332
O O8 0.000000 0.712323 0.000000
O O9 0.645607 0.500000 0.123838
O O10 0.858042 0.231145 0.233448
O O11 0.569527 0.222947 0.138937
O O12 0.500000 0.228140 0.000000
O O13 0.224038 0.273695 0.425983
O O14 0.085169 0.000000 0.393573
O O15 0.500000 0.727126 0.500000
O O16 0.860408 0.727662 0.717821
O O17 0.696521 0.000000 0.586683
O O18 0.998788 0.000000 0.836943
O O19 0.214388 0.267467 0.953055
O O20 0.556185 0.500000 0.886622
O O21 0.599855 0.775940 0.856007
O O22 0.551761 0.500000 0.769392
#
# Coordination Sequence:
#
# PCOD9149158 Si02
#       8
#     4   4   4   4   4   4   4   4
#     4  10  22  42  64  84 116 159 196 236 293 358
#     4  10  20  34  53  82 114 146 185 233 289 342
#     4  10  21  38  61  85 114 154 194 234 290 352
#     4  11  23  38  61  91 119 151 196 249 294 341
#     4   9  20  38  58  81 113 156 197 232 285 349
#     4  10  20  35  57  81 111 151 190 232 284 339
#     4  10  20  35  56  83 112 145 183 228 283 343
#     4  10  21  35  55  81 109 146 189 230 281 342
#
# _framework density 22.862556999999999
#
# number of rings (size 3 to 8) (size 9 to 14) (size 15 to 20)
#    0.000    2.000    1.250    1.875    1.750    4.250 
#    0.000    1.875    0.000    1.875    0.000    0.000 
#    0.000    0.000    0.000    0.000    0.000    0.000 
#
# Total GULP energy -178807.280439 kJ/mol
# GULP energy per Si atom -5587.727514 kJ/mol
# Density = 2.281052 g / cm^3
# Si number density = 22.862557 Si / 1000 Ang^3
#
#
#
# Elastic Constant Matrix: (Units=GPa)
#
#
# Indices 1 2 3 4 5 6 
#
# 1 127.6595 -6.7252 20.4095 0.0000 21.1673 0.0000
# 2 -6.7252 46.6135 -18.6701 0.0000 -4.1843 0.0000
# 3 20.4095 -18.6701 85.3324 0.0000 17.1543 0.0000
# 4 0.0000 0.0000 0.0000 1.4978 0.0000 6.4964
# 5 21.1673 -4.1843 17.1543 0.0000 41.5443 0.0000
# 6 0.0000 0.0000 0.0000 6.4964 0.0000 0.2731
#
#
#
# Elastic Compliance Matrix: (Units=1/GPa)
#
#
# Indices 1 2 3 4 5 6 
#
# 1 0.008693 0.000422 -0.001205 0.000000 -0.003889 0.000000
# 2 0.000422 0.023537 0.005033 0.000000 0.000077 0.000000
# 3 -0.001205 0.005033 0.014049 0.000000 -0.004680 0.000000
# 4 0.000000 0.000000 0.000000 -0.006534 0.000000 0.155438
# 5 -0.003889 0.000077 -0.004680 0.000000 0.027993 0.000000
# 6 0.000000 0.000000 0.000000 0.155438 0.000000 -0.035837
#
#
# Mechanical properties :
#
#
# Convention : Reuss Voigt Hill
#
# Bulk Modulus (GPa) = 18.25467 27.73708 22.99587
# Shear Modulus (GPa) = 120.01899 26.30244 73.16071
#
# Velocity S-wave (km/s) = 7.25326 3.39552 5.66301
# Velocity P-wave (km/s) = 8.84015 5.24702 7.26910
#
# Compressibility (1/GPa) = 0.05478052
#
# Stress axis : x y z
#
# Youngs Moduli (GPa) = 115.03394 42.48660 71.17866
#
# Poissons Ratio (x) = -0.01795 0.08576
# Poissons Ratio (y) = -0.04860 -0.35825
# Poissons Ratio (z) = 0.13861 -0.21384
#
# Static dielectric constant tensor:
#      x y z
#    x 1.876930 0.000000 0.008800 
#    y 0.000000 1.864650 0.000000 
#    z 0.008800 0.000000 1.839090 
# 
# From -- ./inp_files/71496.got.cif
#   From: 2010.05.17/outbox.cif.g08.bks.cpg/sg10_36_cif.got.tgz:71496.got - 2010.06.03 11:33:40.
