data_PCOD9149553
_publ_section_title
;
Structure prediction by ZEFSAII (Michael W. Deem and Ramdas Pophale) SiO2 
 PCOD9149553
Probable space group: P 2/M
;
_chemical_formula_sum "Si O2"
_cell_formula_units_Z 32
_cell_length_a 5.798981
_cell_length_b 13.693235
_cell_length_c 20.445909
_cell_angle_alpha 90.000000
_cell_angle_beta 84.543232
_cell_angle_gamma 90.000000
_cell_volume 1616.186880
_symmetry_space_group_name_H-M "P 2/M"
_symmetry_group_IT_number 10
_symmetry_cell_setting 'monoclinic'
loop_
_space_group_symop_operation_xyz
x,y,z
-x,y,-z
-x,-y,-z
x,-y,z
loop_
_atom_site_type_symbol
_atom_site_label
_atom_site_fract_x
_atom_site_fract_y
_atom_site_fract_z
Si Si1 0.795363 0.894482 0.823119
Si Si2 0.860336 0.242937 0.256741
Si Si3 0.527587 0.610036 0.201033
Si Si4 0.775470 0.312487 0.672285
Si Si5 0.307649 0.606526 0.062650
Si Si6 0.769262 0.179989 0.966233
Si Si7 0.259727 0.616456 0.472203
Si Si8 0.529734 0.110436 0.704366
O O1 0.751956 0.879450 0.899688
O O2 0.574456 0.893375 0.781527
O O3 0.943522 0.806212 0.791661
O O4 0.911111 0.000000 0.809008
O O5 0.715556 0.308330 0.211079
O O6 0.723634 0.154798 0.294599
O O7 0.958845 0.308982 0.312434
O O8 0.619025 0.500000 0.204813
O O9 0.347653 0.631773 0.264392
O O10 0.421112 0.618307 0.131504
O O11 0.723950 0.361109 0.605189
O O12 0.691082 0.198470 0.673382
O O13 0.185271 0.500000 0.065596
O O14 0.175497 0.706459 0.052303
O O15 0.500000 0.602076 0.000000
O O16 0.500000 0.176962 0.000000
O O17 0.000000 0.145835 0.000000
O O18 0.500000 0.653319 0.500000
O O19 0.255772 0.500000 0.483948
O O20 0.000000 0.653476 0.500000
O O21 0.564306 0.000000 0.678600
#
# Coordination Sequence:
#
# PCOD9149553 Si02
#       8
#     4   4   4   4   4   4   4   4
#     4  10  22  39  58  83 115 151 198 256 318 378
#     4  10  20  34  61  90 116 157 200 253 312 367
#     4  10  21  36  57  87 123 158 204 256 312 371
#     4  10  21  37  60  89 126 162 205 258 309 365
#     4   9  19  37  57  82 115 160 207 252 310 374
#     4  11  25  40  60  83 114 154 201 257 314 380
#     4  10  23  41  65  96 132 173 213 250 302 372
#     4   9  19  36  60  87 117 154 202 256 311 368
#
# _framework density 19.799692
#
# number of rings (size 3 to 8) (size 9 to 14) (size 15 to 20)
#    0.000    2.125    0.000    3.000    8.750    2.250 
#    0.000    0.625    0.000    0.750    0.000    0.000 
#    0.000    0.000    0.000    0.000    0.000    0.000 
#
# Total GULP energy -178141.871827 kJ/mol
# GULP energy per Si atom -5566.933495 kJ/mol
# Density = 1.975463 g / cm^3
# Si number density = 19.799692 Si / 1000 Ang^3
#
#
#
# Elastic Constant Matrix: (Units=GPa)
#
#
# Indices 1 2 3 4 5 6 
#
# 1 70.8263 -2.6004 29.5442 0.0000 7.5446 0.0000
# 2 -2.6004 40.6040 -16.8036 0.0000 -2.6932 0.0000
# 3 29.5442 -16.8036 77.7927 0.0000 6.8929 0.0000
# 4 0.0000 0.0000 0.0000 27.3138 0.0000 -1.4283
# 5 7.5446 -2.6932 6.8929 0.0000 15.7117 0.0000
# 6 0.0000 0.0000 0.0000 -1.4283 0.0000 1.4719
#
#
#
# Elastic Compliance Matrix: (Units=1/GPa)
#
#
# Indices 1 2 3 4 5 6 
#
# 1 0.017383 -0.001968 -0.006510 0.000000 -0.005828 0.000000
# 2 -0.001968 0.027339 0.006403 0.000000 0.002822 0.000000
# 3 -0.006510 0.006403 0.016997 0.000000 -0.003233 0.000000
# 4 0.000000 0.000000 0.000000 0.038569 0.000000 0.037427
# 5 -0.005828 0.002822 -0.003233 0.000000 0.068348 0.000000
# 6 0.000000 0.000000 0.000000 0.037427 0.000000 0.715725
#
#
# Mechanical properties :
#
#
# Convention : Reuss Voigt Hill
#
# Bulk Modulus (GPa) = 17.37078 23.27814 20.32446
# Shear Modulus (GPa) = 5.50842 20.83832 13.17337
#
# Velocity S-wave (km/s) = 1.66976 3.24768 2.58220
# Velocity P-wave (km/s) = 3.53692 5.08385 4.37923
#
# Compressibility (1/GPa) = 0.05756795
#
# Stress axis : x y z
#
# Youngs Moduli (GPa) = 57.52613 36.57784 58.83502
#
# Poissons Ratio (x) = 0.07197 0.38304
# Poissons Ratio (y) = 0.11319 -0.37669
# Poissons Ratio (z) = 0.37452 -0.23419
#
# Static dielectric constant tensor:
#      x y z
#    x 1.827040 0.000000 -0.004040 
#    y 0.000000 1.729960 0.000000 
#    z -0.004040 0.000000 1.679970 
# 
# From -- ./inp_files/11414.got.cif
#   From: 2010.05.17/outbox.cif.g08.bks.cpg/sg10_6_cif.got.tgz:11414.got - 2010.06.03 11:33:40.
