data_PCOD9149672
_publ_section_title
;
Structure prediction by ZEFSAII (Michael W. Deem and Ramdas Pophale) SiO2 
 PCOD9149672
Probable space group: P 2/M
;
_chemical_formula_sum "Si O2"
_cell_formula_units_Z 32
_cell_length_a 11.696028
_cell_length_b 14.541143
_cell_length_c 11.204247
_cell_angle_alpha 90.000000
_cell_angle_beta 106.259153
_cell_angle_gamma 90.000000
_cell_volume 1829.334720
_symmetry_space_group_name_H-M "P 2/M"
_symmetry_group_IT_number 10
_symmetry_cell_setting 'monoclinic'
loop_
_space_group_symop_operation_xyz
x,y,z
-x,y,-z
-x,-y,-z
x,-y,z
loop_
_atom_site_type_symbol
_atom_site_label
_atom_site_fract_x
_atom_site_fract_y
_atom_site_fract_z
Si Si1 0.420896 0.395511 0.598043
Si Si2 0.834842 0.605782 0.066872
Si Si3 0.139881 0.105522 0.520076
Si Si4 0.446294 0.767579 0.264800
Si Si5 0.635578 0.247136 0.015830
Si Si6 0.105810 0.606145 0.197349
Si Si7 0.260992 0.263769 0.409498
Si Si8 0.345604 0.892327 0.767045
O O1 0.500000 0.401563 0.500000
O O2 0.393602 0.500000 0.627069
O O3 0.496267 0.334918 0.713198
O O4 0.310353 0.332133 0.526420
O O5 0.803347 0.500000 0.084580
O O6 0.732926 0.676213 0.073081
O O7 0.964460 0.625041 0.161095
O O8 0.855155 0.612432 0.929698
O O9 0.188678 0.180097 0.442846
O O10 0.219836 0.116347 0.662523
O O11 0.000000 0.118826 0.500000
O O12 0.157961 0.000000 0.484264
O O13 0.371410 0.774764 0.363987
O O14 0.552978 0.840290 0.280877
O O15 0.363633 0.776504 0.124285
O O16 0.655266 0.159852 0.106948
O O17 0.500000 0.279120 0.000000
O O18 0.126216 0.500000 0.240353
O O19 0.181529 0.674806 0.298477
O O20 0.373589 0.000000 0.788038
#
# Coordination Sequence:
#
# PCOD9149672 Si02
#       8
#     4   4   4   4   4   4   4   4
#     4   9  18  31  51  82 118 148 177 217 272 328
#     4   9  18  34  53  81 116 149 188 228 272 325
#     4  10  23  41  60  83 109 145 186 225 283 343
#     4  10  20  35  54  90 111 138 189 230 277 325
#     4  10  21  35  56  80 115 147 190 223 277 335
#     4   9  18  32  56  84 112 149 187 226 275 327
#     4  11  19  34  62  85 112 144 183 237 272 322
#     4  10  22  41  60  77 109 149 186 230 281 336
#
# _framework density 17.492699000000002
#
# number of rings (size 3 to 8) (size 9 to 14) (size 15 to 20)
#    0.000    2.250    2.500    1.125    1.750    4.000 
#    0.000    3.125    0.000    1.500    0.000    4.375 
#    0.000    0.000    0.000    0.000    0.000    0.000 
#
# Total GULP energy -178451.558976 kJ/mol
# GULP energy per Si atom -5576.611218 kJ/mol
# Density = 1.745289 g / cm^3
# Si number density = 17.492699 Si / 1000 Ang^3
#
#
#
# Elastic Constant Matrix: (Units=GPa)
#
#
# Indices 1 2 3 4 5 6 
#
# 1 73.8820 73.1401 23.6000 0.0000 11.4286 0.0000
# 2 73.1401 137.3730 52.4009 0.0000 7.0034 0.0000
# 3 23.6000 52.4009 71.0180 0.0000 10.3731 0.0000
# 4 0.0000 0.0000 0.0000 32.7181 0.0000 2.0618
# 5 11.4286 7.0034 10.3731 0.0000 18.5506 0.0000
# 6 0.0000 0.0000 0.0000 2.0618 0.0000 29.4730
#
#
#
# Elastic Compliance Matrix: (Units=1/GPa)
#
#
# Indices 1 2 3 4 5 6 
#
# 1 0.032802 -0.018625 0.005190 0.000000 -0.016080 0.000000
# 2 -0.018625 0.020708 -0.010480 0.000000 0.009517 0.000000
# 3 0.005190 -0.010480 0.021755 0.000000 -0.011406 0.000000
# 4 0.000000 0.000000 0.000000 0.030699 0.000000 -0.002148
# 5 -0.016080 0.009517 -0.011406 0.000000 0.066598 0.000000
# 6 0.000000 0.000000 0.000000 -0.002148 0.000000 0.034080
#
#
# Mechanical properties :
#
#
# Convention : Reuss Voigt Hill
#
# Bulk Modulus (GPa) = 36.44839 64.50611 50.47725
# Shear Modulus (GPa) = 18.96688 25.02379 21.99533
#
# Velocity S-wave (km/s) = 3.29640 3.78633 3.54983
# Velocity P-wave (km/s) = 5.94726 7.48807 6.76170
#
# Compressibility (1/GPa) = 0.02743606
#
# Stress axis : x y z
#
# Youngs Moduli (GPa) = 30.48591 48.29016 45.96602
#
# Poissons Ratio (x) = 0.89938 -0.23858
# Poissons Ratio (y) = 0.56779 0.48175
# Poissons Ratio (z) = -0.15823 0.50610
#
# Static dielectric constant tensor:
#      x y z
#    x 1.595340 0.000000 0.003290 
#    y 0.000000 1.574430 0.000000 
#    z 0.003290 0.000000 1.610320 
# 
# From -- ./inp_files/47014.got.cif
#   From: 2010.05.17/outbox.cif.g08.bks.cpg/sg10_24_cif.got.tgz:47014.got - 2010.06.03 11:33:40.
