data_PCOD9149128
_publ_section_title
;
Structure prediction by ZEFSAII (Michael W. Deem and Ramdas Pophale) SiO2 
 PCOD9149128
Probable space group: P 2/M
;
_chemical_formula_sum "Si O2"
_cell_formula_units_Z 32
_cell_length_a 16.637850
_cell_length_b 8.661780
_cell_length_c 25.043655
_cell_angle_alpha 90.000000
_cell_angle_beta 26.913797
_cell_angle_gamma 90.000000
_cell_volume 1633.668958
_symmetry_space_group_name_H-M "P 2/M"
_symmetry_group_IT_number 10
_symmetry_cell_setting 'monoclinic'
loop_
_space_group_symop_operation_xyz
x,y,z
-x,y,-z
-x,-y,-z
x,-y,z
loop_
_atom_site_type_symbol
_atom_site_label
_atom_site_fract_x
_atom_site_fract_y
_atom_site_fract_z
Si Si1 0.932020 0.683664 0.864762
Si Si2 0.607262 0.185233 0.882588
Si Si3 0.560969 0.313596 0.125056
Si Si4 0.295203 0.825542 0.689508
Si Si5 0.796154 0.827358 0.131358
Si Si6 0.050493 0.814075 0.259927
Si Si7 0.346617 0.186136 0.476399
Si Si8 0.539413 0.322336 0.703413
O O1 0.934626 0.500000 0.866357
O O2 0.130364 0.742880 0.759428
O O3 0.886360 0.738761 0.832328
O O4 0.768108 0.740177 0.999168
O O5 0.531388 0.264581 0.875093
O O6 0.812139 0.223073 0.774336
O O7 0.590059 0.000000 0.886262
O O8 0.500000 0.227052 0.000000
O O9 0.564734 0.500000 0.126500
O O10 0.449164 0.259030 0.243018
O O11 0.237048 0.833045 0.785884
O O12 0.494842 0.758086 0.577870
O O13 0.306993 0.000000 0.660242
O O14 0.671239 0.696707 0.181886
O O15 0.749015 0.000000 0.138355
O O16 0.000000 0.798690 0.000000
O O17 0.848939 0.764990 0.390469
O O18 0.053071 0.000000 0.251715
O O19 0.378535 0.235998 0.396150
O O20 0.357475 0.000000 0.471668
O O21 0.595688 0.500000 0.668112
#
# Coordination Sequence:
#
# PCOD9149128 Si02
#       8
#     4   4   4   4   4   4   4   4
#     4  11  22  34  52  81 113 145 183 222 269 325
#     4  10  20  36  60  88 109 133 177 227 276 326
#     4  10  22  37  54  81 116 148 176 215 274 333
#     4   9  18  32  50  74 105 143 184 223 265 313
#     4   9  17  30  49  74 104 142 187 228 271 322
#     4  10  21  39  60  81 108 140 178 228 279 327
#     4   9  20  39  59  78 106 147 188 223 269 325
#     4  10  20  34  53  78 109 145 184 225 268 317
#
# _framework density 19.587812
#
# number of rings (size 3 to 8) (size 9 to 14) (size 15 to 20)
#    0.000    2.250    1.250    2.250    0.000    5.500 
#    0.000    3.125    0.000    3.750    0.000    0.000 
#    0.000    0.000    0.000    0.000    0.000    0.000 
#
# Total GULP energy -178388.174517 kJ/mol
# GULP energy per Si atom -5574.630454 kJ/mol
# Density = 1.954323 g / cm^3
# Si number density = 19.587812 Si / 1000 Ang^3
#
#
#
# Elastic Constant Matrix: (Units=GPa)
#
#
# Indices 1 2 3 4 5 6 
#
# 1 78.9341 10.9176 6.0905 0.0000 -5.1041 0.0000
# 2 10.9176 5.2537 6.3321 0.0000 -2.8341 0.0000
# 3 6.0905 6.3321 58.1674 0.0000 -12.1793 0.0000
# 4 0.0000 0.0000 0.0000 53.6890 0.0000 -32.7662
# 5 -5.1041 -2.8341 -12.1793 0.0000 30.2861 0.0000
# 6 0.0000 0.0000 0.0000 -32.7662 0.0000 57.2331
#
#
#
# Elastic Compliance Matrix: (Units=1/GPa)
#
#
# Indices 1 2 3 4 5 6 
#
# 1 0.018099 -0.040566 0.002582 0.000000 0.000293 0.000000
# 2 -0.040566 0.314017 -0.027534 0.000000 0.011476 0.000000
# 3 0.002582 -0.027534 0.021261 0.000000 0.006408 0.000000
# 4 0.000000 0.000000 0.000000 0.028628 0.000000 0.016390
# 5 0.000293 0.011476 0.006408 0.000000 0.036719 0.000000
# 6 0.000000 0.000000 0.000000 0.016390 0.000000 0.026856
#
#
# Mechanical properties :
#
#
# Convention : Reuss Voigt Hill
#
# Bulk Modulus (GPa) = 4.49758 21.00395 12.75077
# Shear Modulus (GPa) = 7.68369 36.17598 21.92983
#
# Velocity S-wave (km/s) = 1.98273 4.30218 3.34962
# Velocity P-wave (km/s) = 2.74640 5.95185 4.63504
#
# Compressibility (1/GPa) = 0.22234161
#
# Stress axis : x y z
#
# Youngs Moduli (GPa) = 55.25067 3.18454 47.03549
#
# Poissons Ratio (x) = 0.12918 -0.12146
# Poissons Ratio (y) = 2.24131 1.29506
# Poissons Ratio (z) = -0.14267 0.08768
#
# Static dielectric constant tensor:
#      x y z
#    x 1.698500 0.000000 -0.004010 
#    y 0.000000 1.690080 0.000000 
#    z -0.004010 0.000000 1.726740 
# 
# From -- ./inp_files/89580.got.cif
#   From: 2010.05.17/outbox.cif.g08.bks.cpg/sg10_45_cif.got.tgz:89580.got - 2010.06.03 11:33:40.
