data_PCOD9149020
_publ_section_title
;
Structure prediction by ZEFSAII (Michael W. Deem and Ramdas Pophale) SiO2 
 PCOD9149020
Probable space group: P 2/M
;
_chemical_formula_sum "Si O2"
_cell_formula_units_Z 32
_cell_length_a 8.500264
_cell_length_b 14.174244
_cell_length_c 16.362476
_cell_angle_alpha 90.000000
_cell_angle_beta 59.696896
_cell_angle_gamma 90.000000
_cell_volume 1702.069926
_symmetry_space_group_name_H-M "P 2/M"
_symmetry_group_IT_number 10
_symmetry_cell_setting 'monoclinic'
loop_
_space_group_symop_operation_xyz
x,y,z
-x,y,-z
-x,-y,-z
x,-y,z
loop_
_atom_site_type_symbol
_atom_site_label
_atom_site_fract_x
_atom_site_fract_y
_atom_site_fract_z
Si Si1 0.874979 0.111357 0.113330
Si Si2 0.216166 0.389332 0.425907
Si Si3 0.163882 0.387358 0.899485
Si Si4 0.471926 0.225697 0.415163
Si Si5 0.530250 0.392811 0.895958
Si Si6 0.130673 0.266548 0.752767
Si Si7 0.447843 0.889251 0.259513
Si Si8 0.795508 0.276295 0.737070
O O1 0.926871 0.176585 0.176592
O O2 0.653317 0.127440 0.168931
O O3 0.898908 0.000000 0.123766
O O4 0.000000 0.131796 0.000000
O O5 0.272538 0.500000 0.418233
O O6 0.329327 0.313154 0.449564
O O7 0.241299 0.346793 0.328561
O O8 0.000000 0.385124 0.500000
O O9 0.165069 0.500000 0.900281
O O10 0.356214 0.357744 0.889233
O O11 0.127105 0.351268 0.818582
O O12 0.000000 0.354232 0.000000
O O13 0.500000 0.191192 0.500000
O O14 0.663902 0.262626 0.331591
O O15 0.431205 0.144782 0.358627
O O16 0.569758 0.500000 0.858294
O O17 0.697034 0.324595 0.838496
O O18 0.500000 0.396210 0.000000
O O19 0.003918 0.270825 0.707190
O O20 0.300876 0.822901 0.254271
O O21 0.411741 0.000000 0.261812
#
# Coordination Sequence:
#
# PCOD9149020 Si02
#       8
#     4   4   4   4   4   4   4   4
#     4   9  18  35  57  79 106 140 179 225 276 328
#     4  10  21  38  59  82 111 145 179 220 272 327
#     4  10  20  34  52  75 105 141 182 225 266 314
#     4  10  21  38  59  83 110 139 179 226 273 326
#     4  10  20  34  52  76 108 145 184 224 268 320
#     4  11  22  34  54  80 108 144 181 223 269 321
#     4   9  20  38  59  82 108 143 183 226 278 331
#     4  11  22  35  54  78 110 145 181 225 270 323
#
# _framework density 18.800639
#
# number of rings (size 3 to 8) (size 9 to 14) (size 15 to 20)
#    0.000    2.000    0.000    4.500    0.000    5.500 
#    0.000    0.000    0.000   15.375    0.000    0.000 
#    0.000    0.000    0.000    0.000    0.000    0.000 
#
# Total GULP energy -178355.826148 kJ/mol
# GULP energy per Si atom -5573.619567 kJ/mol
# Density = 1.875785 g / cm^3
# Si number density = 18.800639 Si / 1000 Ang^3
#
#
#
# Elastic Constant Matrix: (Units=GPa)
#
#
# Indices 1 2 3 4 5 6 
#
# 1 58.7872 19.9474 -2.6170 0.0000 2.7440 0.0000
# 2 19.9474 89.3678 16.2589 0.0000 -7.8863 0.0000
# 3 -2.6170 16.2589 66.6830 0.0000 -3.3171 0.0000
# 4 0.0000 0.0000 0.0000 19.2222 0.0000 -23.6821
# 5 2.7440 -7.8863 -3.3171 0.0000 24.5094 0.0000
# 6 0.0000 0.0000 0.0000 -23.6821 0.0000 33.4785
#
#
#
# Elastic Compliance Matrix: (Units=1/GPa)
#
#
# Indices 1 2 3 4 5 6 
#
# 1 0.018890 -0.004838 0.001750 0.000000 -0.003435 0.000000
# 2 -0.004838 0.013237 -0.003200 0.000000 0.004368 0.000000
# 3 0.001750 -0.003200 0.015891 0.000000 0.000925 0.000000
# 4 0.000000 0.000000 0.000000 0.404874 0.000000 0.286401
# 5 -0.003435 0.004368 0.000925 0.000000 0.042716 0.000000
# 6 0.000000 0.000000 0.000000 0.286401 0.000000 0.232465
#
#
# Mechanical properties :
#
#
# Convention : Reuss Voigt Hill
#
# Bulk Modulus (GPa) = 28.21439 31.33518 29.77478
# Shear Modulus (GPa) = 6.64484 27.52529 17.08507
#
# Velocity S-wave (km/s) = 1.88203 3.83046 3.01782
# Velocity P-wave (km/s) = 4.44550 6.02216 5.29287
#
# Compressibility (1/GPa) = 0.03544291
#
# Stress axis : x y z
#
# Youngs Moduli (GPa) = 52.93713 75.54457 62.92753
#
# Poissons Ratio (x) = 0.36548 -0.11013
# Poissons Ratio (y) = 0.25611 0.20138
# Poissons Ratio (z) = -0.09265 0.24175
#
# Static dielectric constant tensor:
#      x y z
#    x 1.780820 0.000000 0.051500 
#    y 0.000000 1.642330 0.000000 
#    z 0.051500 0.000000 1.676610 
# 
# From -- ./inp_files/61840.got.cif
#   From: 2010.05.17/outbox.cif.g08.bks.cpg/sg10_31_cif.got.tgz:61840.got - 2010.06.03 11:33:40.
