data_PCOD9149808
_publ_section_title
;
Structure prediction by ZEFSAII (Michael W. Deem and Ramdas Pophale) SiO2 
 PCOD9149808
Probable space group: P 2/M
;
_chemical_formula_sum "Si O2"
_cell_formula_units_Z 28
_cell_length_a 16.967902
_cell_length_b 9.158718
_cell_length_c 11.219008
_cell_angle_alpha 90.000000
_cell_angle_beta 120.496426
_cell_angle_gamma 90.000000
_cell_volume 1502.289518
_symmetry_space_group_name_H-M "P 2/M"
_symmetry_group_IT_number 10
_symmetry_cell_setting 'monoclinic'
loop_
_space_group_symop_operation_xyz
x,y,z
-x,y,-z
-x,-y,-z
x,-y,z
loop_
_atom_site_type_symbol
_atom_site_label
_atom_site_fract_x
_atom_site_fract_y
_atom_site_fract_z
Si Si1 0.485146 0.325674 0.626762
Si Si2 0.343832 0.171566 0.126512
Si Si3 0.758862 0.825770 0.196459
Si Si4 0.929802 0.326314 0.220538
Si Si5 0.111911 0.826001 0.319765
Si Si6 0.854412 0.828067 0.929363
Si Si7 0.695023 0.825563 0.411794
O O1 0.500000 0.284418 0.500000
O O2 0.481295 0.500000 0.631921
O O3 0.570943 0.265157 0.766672
O O4 0.391617 0.257079 0.602751
O O5 0.255077 0.191559 0.142967
O O6 0.368327 0.000000 0.147876
O O7 0.306941 0.207393 0.965979
O O8 0.853223 0.740603 0.248820
O O9 0.711817 0.792999 0.285561
O O10 0.778123 0.000000 0.206508
O O11 0.929669 0.500000 0.225170
O O12 0.030158 0.261037 0.318348
O O13 0.900189 0.268915 0.066293
O O14 0.112852 0.796732 0.178590
O O15 0.211137 0.788694 0.447892
O O16 0.097931 0.000000 0.325350
O O17 0.873161 0.000000 0.970148
O O18 0.680702 0.000000 0.413192
#
# Coordination Sequence:
#
# PCOD9149808 Si02
#       7
#     4   4   4   4   4   4   4
#     4  11  24  39  56  83 118 149 175 214 273 332
#     4   9  18  35  60  84 108 142 184 229 271 317
#     4   9  20  40  61  82 108 140 184 232 273 316
#     4  11  22  34  53  81 113 149 184 222 273 331
#     4  10  20  35  56  81 109 144 186 231 277 321
#     4   9  18  34  56  82 111 143 183 231 276 319
#     4  10  22  40  62  83 105 141 188 232 270 317
#
# _framework density 18.638217999999998
#
# number of rings (size 3 to 8) (size 9 to 14) (size 15 to 20)
#    0.000    2.143    0.000    3.857    0.000    9.143 
#    0.000    5.714    0.000    0.000    0.000    0.000 
#    0.000    0.000    0.000    0.000    0.000    0.000 
#
# Total GULP energy -156434.632208 kJ/mol
# GULP energy per Si atom -5586.951150 kJ/mol
# Density = 1.859580 g / cm^3
# Si number density = 18.638218 Si / 1000 Ang^3
#
#
#
# Elastic Constant Matrix: (Units=GPa)
#
#
# Indices 1 2 3 4 5 6 
#
# 1 156.7095 76.0516 63.5458 0.0000 9.1429 0.0000
# 2 76.0516 57.4875 34.3707 0.0000 7.3020 0.0000
# 3 63.5458 34.3707 35.6288 0.0000 8.2624 0.0000
# 4 0.0000 0.0000 0.0000 -29.1671 0.0000 -26.6439
# 5 9.1429 7.3020 8.2624 0.0000 28.1766 0.0000
# 6 0.0000 0.0000 0.0000 -26.6439 0.0000 2.5290
#
#
#
# Elastic Compliance Matrix: (Units=1/GPa)
#
#
# Indices 1 2 3 4 5 6 
#
# 1 0.029936 -0.017985 -0.037414 0.000000 0.005918 0.000000
# 2 -0.017985 0.051935 -0.017442 0.000000 -0.002508 0.000000
# 3 -0.037414 -0.017442 0.115623 0.000000 -0.017244 0.000000
# 4 0.000000 0.000000 0.000000 -0.003227 0.000000 -0.033999
# 5 0.005918 -0.002508 -0.017244 0.000000 0.039277 0.000000
# 6 0.000000 0.000000 0.000000 -0.033999 0.000000 0.037219
#
#
# Mechanical properties :
#
#
# Convention : Reuss Voigt Hill
#
# Bulk Modulus (GPa) = 19.30109 66.41802 42.85955
# Shear Modulus (GPa) = 11.52832 5.36487 8.44659
#
# Velocity S-wave (km/s) = 2.48973 1.69843 2.13113
# Velocity P-wave (km/s) = 4.31777 6.28959 5.39454
#
# Compressibility (1/GPa) = 0.05181055
#
# Stress axis : x y z
#
# Youngs Moduli (GPa) = 33.40486 19.25496 8.64882
#
# Poissons Ratio (x) = 0.34630 0.32359
# Poissons Ratio (y) = 0.60079 0.15085
# Poissons Ratio (z) = 1.24983 0.33584
#
# Static dielectric constant tensor:
#      x y z
#    x 1.625120 0.000000 -0.005630 
#    y 0.000000 1.616710 0.000000 
#    z -0.005630 0.000000 1.641560 
# 
# From -- ./inp_files/49609.got.cif
#   From: 2010.05.17/outbox.cif.g08.bks.cpg/sg10_25_cif.got.tgz:49609.got - 2010.06.03 11:33:40.
