data_PCOD9149811
_publ_section_title
;
Structure prediction by ZEFSAII (Michael W. Deem and Ramdas Pophale) SiO2 
 PCOD9149811
Probable space group: P 2/M
;
_chemical_formula_sum "Si O2"
_cell_formula_units_Z 24
_cell_length_a 15.300239
_cell_length_b 18.789853
_cell_length_c 9.071588
_cell_angle_alpha 90.000000
_cell_angle_beta 152.633784
_cell_angle_gamma 90.000000
_cell_volume 1198.828184
_symmetry_space_group_name_H-M "P 2/M"
_symmetry_group_IT_number 10
_symmetry_cell_setting 'monoclinic'
loop_
_space_group_symop_operation_xyz
x,y,z
-x,y,-z
-x,-y,-z
x,-y,z
loop_
_atom_site_type_symbol
_atom_site_label
_atom_site_fract_x
_atom_site_fract_y
_atom_site_fract_z
Si Si1 0.818642 0.803897 0.623991
Si Si2 0.670132 0.419215 0.140430
Si Si3 0.556620 0.840765 0.749198
Si Si4 0.202748 0.302271 0.888606
Si Si5 0.038308 0.350115 0.223158
Si Si6 0.290354 0.078778 0.761041
O O1 0.630442 0.819563 0.436829
O O2 0.833370 0.722090 0.592565
O O3 0.819192 0.858500 0.488196
O O4 0.000000 0.815087 0.000000
O O5 0.658807 0.500000 0.068323
O O6 0.681511 0.361620 0.028201
O O7 0.858241 0.407347 0.520550
O O8 0.500000 0.406508 0.000000
O O9 0.500000 0.862677 0.500000
O O10 0.686520 0.770934 0.938144
O O11 0.670490 0.899685 0.012302
O O12 0.000000 0.293864 0.500000
O O13 0.152018 0.327325 0.977050
O O14 0.000000 0.373482 0.000000
O O15 0.205830 0.000000 0.618746
O O16 0.500000 0.076998 0.000000
#
# Coordination Sequence:
#
# PCOD9149811 Si02
#       6
#     4   4   4   4   4   4
#     4  10  20  36  58  82 110 145 187 230 276 332
#     4  10  21  37  56  79 110 147 184 222 271 330
#     4  11  21  34  57  83 111 144 183 234 281 328
#     4  10  21  36  58  82 109 144 187 231 275 331
#     4  10  20  35  56  81 110 140 180 230 275 325
#     4   9  19  35  54  78 110 148 185 224 276 334
#
# _framework density 20.019549000000001
#
# number of rings (size 3 to 8) (size 9 to 14) (size 15 to 20)
#    0.000    2.000    0.000    5.000    0.000    5.333 
#    0.000    0.000    0.000   14.000    0.000    0.000 
#    0.000    0.000    0.000    0.000    0.000    0.000 
#
# Total GULP energy -134061.112715 kJ/mol
# GULP energy per Si atom -5585.879696 kJ/mol
# Density = 1.997398 g / cm^3
# Si number density = 20.019549 Si / 1000 Ang^3
#
#
#
# Elastic Constant Matrix: (Units=GPa)
#
#
# Indices 1 2 3 4 5 6 
#
# 1 82.8226 4.7157 2.3590 0.0000 -18.0718 0.0000
# 2 4.7157 34.7324 6.7513 0.0000 -7.3458 0.0000
# 3 2.3590 6.7513 37.0910 0.0000 -8.2219 0.0000
# 4 0.0000 0.0000 0.0000 15.5694 0.0000 5.7624
# 5 -18.0718 -7.3458 -8.2219 0.0000 36.6620 0.0000
# 6 0.0000 0.0000 0.0000 5.7624 0.0000 -4.2921
#
#
#
# Elastic Compliance Matrix: (Units=1/GPa)
#
#
# Indices 1 2 3 4 5 6 
#
# 1 0.013554 -0.000558 0.000732 0.000000 0.006734 0.000000
# 2 -0.000558 0.030772 -0.004483 0.000000 0.004885 0.000000
# 3 0.000732 -0.004483 0.029055 0.000000 0.005979 0.000000
# 4 0.000000 0.000000 0.000000 0.042908 0.000000 0.057606
# 5 0.006734 0.004885 0.005979 0.000000 0.032915 0.000000
# 6 0.000000 0.000000 0.000000 0.057606 0.000000 -0.155646
#
#
# Mechanical properties :
#
#
# Convention : Reuss Voigt Hill
#
# Bulk Modulus (GPa) = 15.44079 20.25534 17.84806
# Shear Modulus (GPa) = 210.39817 18.97585 114.68701
#
# Velocity S-wave (km/s) = 10.26277 3.08208 7.57706
# Velocity P-wave (km/s) = 12.17219 4.77550 9.24575
#
# Compressibility (1/GPa) = 0.06476354
#
# Stress axis : x y z
#
# Youngs Moduli (GPa) = 73.77786 32.49719 34.41695
#
# Poissons Ratio (x) = 0.01815 -0.02520
# Poissons Ratio (y) = 0.04120 0.15428
# Poissons Ratio (z) = -0.05402 0.14568
#
# Static dielectric constant tensor:
#      x y z
#    x 1.730260 0.000000 0.011480 
#    y 0.000000 1.689540 0.000000 
#    z 0.011480 0.000000 1.713050 
# 
# From -- ./inp_files/30235.got.cif
#   From: 2010.05.17/outbox.cif.g08.bks.cpg/sg10_16_cif.got.tgz:30235.got - 2010.06.03 11:33:40.
