data_PCOD9149826
_publ_section_title
;
Structure prediction by ZEFSAII (Michael W. Deem and Ramdas Pophale) SiO2 
 PCOD9149826
Probable space group: P 2/M
;
_chemical_formula_sum "Si O2"
_cell_formula_units_Z 20
_cell_length_a 11.668787
_cell_length_b 8.629425
_cell_length_c 13.784793
_cell_angle_alpha 90.000000
_cell_angle_beta 125.999214
_cell_angle_gamma 90.000000
_cell_volume 1122.974237
_symmetry_space_group_name_H-M "P 2/M"
_symmetry_group_IT_number 10
_symmetry_cell_setting 'monoclinic'
loop_
_space_group_symop_operation_xyz
x,y,z
-x,y,-z
-x,-y,-z
x,-y,z
loop_
_atom_site_type_symbol
_atom_site_label
_atom_site_fract_x
_atom_site_fract_y
_atom_site_fract_z
Si Si1 0.204376 0.184160 0.053124
Si Si2 0.205031 0.686007 0.649981
Si Si3 0.924792 0.185099 0.607046
Si Si4 0.508939 0.686287 0.890803
Si Si5 0.075498 0.314952 0.181673
O O1 0.358146 0.231699 0.092301
O O2 0.174269 0.245070 0.146606
O O3 0.184880 0.000000 0.040383
O O4 0.083512 0.262551 0.926380
O O5 0.188255 0.500000 0.644227
O O6 0.175133 0.746516 0.526891
O O7 0.360506 0.725529 0.765863
O O8 0.082892 0.760014 0.656042
O O9 0.889548 0.250265 0.695141
O O10 0.918696 0.000000 0.602958
O O11 0.528872 0.500000 0.893696
O O12 0.500000 0.726211 0.000000
O O13 0.083548 0.500000 0.184221
#
# Coordination Sequence:
#
# PCOD9149826 Si02
#       5
#     4   4   4   4   4
#     4  11  22  36  56  84 114 141 178 225 274 324
#     4  10  20  35  56  82 112 147 187 223 265 326
#     4  11  21  35  56  82 112 143 182 230 277 319
#     4  10  21  37  57  81 111 147 183 220 266 322
#     4  11  21  37  59  80 108 145 185 224 268 324
#
# _framework density 17.809847000000001
#
# number of rings (size 3 to 8) (size 9 to 14) (size 15 to 20)
#    0.000    1.400    0.000    9.600    0.000    3.600 
#    0.000    1.000    0.000    6.000    0.000    0.000 
#    0.000    0.000    0.000    0.000    0.000    0.000 
#
# Total GULP energy -111810.970271 kJ/mol
# GULP energy per Si atom -5590.548514 kJ/mol
# Density = 1.776931 g / cm^3
# Si number density = 17.809847 Si / 1000 Ang^3
#
#
#
# Elastic Constant Matrix: (Units=GPa)
#
#
# Indices 1 2 3 4 5 6 
#
# 1 88.9370 33.2517 71.9534 0.0000 2.8349 0.0000
# 2 33.2517 94.0358 32.4604 0.0000 5.1461 0.0000
# 3 71.9534 32.4604 93.1495 0.0000 -7.1022 0.0000
# 4 0.0000 0.0000 0.0000 8.0032 0.0000 3.0132
# 5 2.8349 5.1461 -7.1022 0.0000 28.9274 0.0000
# 6 0.0000 0.0000 0.0000 3.0132 0.0000 45.4853
#
#
#
# Elastic Compliance Matrix: (Units=1/GPa)
#
#
# Indices 1 2 3 4 5 6 
#
# 1 0.032809 -0.002417 -0.025185 0.000000 -0.008969 0.000000
# 2 -0.002417 0.012573 -0.002718 0.000000 -0.002667 0.000000
# 3 -0.025185 -0.002718 0.031960 0.000000 0.010798 0.000000
# 4 0.000000 0.000000 0.000000 0.128146 0.000000 -0.008489
# 5 -0.008969 -0.002667 0.010798 0.000000 0.038574 0.000000
# 6 0.000000 0.000000 0.000000 -0.008489 0.000000 0.022547
#
#
# Mechanical properties :
#
#
# Convention : Reuss Voigt Hill
#
# Bulk Modulus (GPa) = 59.87073 61.27260 60.57166
# Shear Modulus (GPa) = 15.02329 25.71363 20.36846
#
# Velocity S-wave (km/s) = 2.90752 3.80384 3.38548
# Velocity P-wave (km/s) = 6.70531 7.33285 7.02609
#
# Compressibility (1/GPa) = 0.01670265
#
# Stress axis : x y z
#
# Youngs Moduli (GPa) = 30.47939 79.53544 31.28918
#
# Poissons Ratio (x) = 0.19224 0.78802
# Poissons Ratio (y) = 0.07367 0.08503
# Poissons Ratio (z) = 0.76762 0.21615
#
# Static dielectric constant tensor:
#      x y z
#    x 1.580220 0.000000 -0.006450 
#    y 0.000000 1.593760 0.000000 
#    z -0.006450 0.000000 1.593820 
# 
# From -- ./inp_files/48598.got.cif
#   From: 2010.05.17/outbox.cif.g08.bks.cpg/sg10_25_cif.got.tgz:48598.got - 2010.06.03 11:33:40.
