data_PCOD9149924
_publ_section_title
;
Structure prediction by ZEFSAII (Michael W. Deem and Ramdas Pophale) SiO2 
 PCOD9149924
Probable space group: P 2/M
;
_chemical_formula_sum "Si O2"
_cell_formula_units_Z 32
_cell_length_a 29.357922
_cell_length_b 7.836854
_cell_length_c 22.741267
_cell_angle_alpha 90.000000
_cell_angle_beta 17.663861
_cell_angle_gamma 90.000000
_cell_volume 1587.607964
_symmetry_space_group_name_H-M "P 2/M"
_symmetry_group_IT_number 10
_symmetry_cell_setting 'monoclinic'
loop_
_space_group_symop_operation_xyz
x,y,z
-x,y,-z
-x,-y,-z
x,-y,z
loop_
_atom_site_type_symbol
_atom_site_label
_atom_site_fract_x
_atom_site_fract_y
_atom_site_fract_z
Si Si1 0.833911 0.706130 0.221058
Si Si2 0.586825 0.202196 0.106042
Si Si3 0.035983 0.706443 0.702468
Si Si4 0.395619 0.703742 0.045161
Si Si5 0.695863 0.204392 0.096745
Si Si6 0.461108 0.205058 0.482873
Si Si7 0.755419 0.294191 0.448288
Si Si8 0.277839 0.708701 0.311791
O O1 0.838249 0.500000 0.217923
O O2 0.707249 0.755681 0.330274
O O3 0.785787 0.769004 0.344976
O O4 0.000000 0.766701 0.000000
O O5 0.648635 0.258030 0.966871
O O6 0.663774 0.273005 0.070563
O O7 0.411080 0.247887 0.326231
O O8 0.600761 0.000000 0.090302
O O9 0.038863 0.500000 0.699238
O O10 0.121372 0.765766 0.656284
O O11 0.135343 0.765929 0.524567
O O12 0.864774 0.761034 0.908647
O O13 0.401339 0.500000 0.043539
O O14 0.566306 0.763384 0.848633
O O15 0.291796 0.764776 0.226761
O O16 0.575452 0.271484 0.292227
O O17 0.675008 0.000000 0.120019
O O18 0.500000 0.270874 0.500000
O O19 0.477701 0.000000 0.464055
O O20 0.763132 0.500000 0.437658
O O21 0.275529 0.500000 0.315680
#
# Coordination Sequence:
#
# PCOD9149924 Si02
#       8
#     4   4   4   4   4   4   4   4
#     4  10  22  38  58  87 118 142 175 228 282 325
#     4  11  21  35  55  80 110 145 185 227 269 320
#     4  10  20  35  57  84 109 139 185 229 272 327
#     4   9  16  31  56  80 108 142 178 224 277 323
#     4  10  23  40  54  76 112 148 184 226 271 320
#     4  10  22  41  60  79 109 151 192 224 263 325
#     4  10  20  36  58  82 110 143 182 227 273 325
#     4   8  15  30  53  81 109 139 176 226 275 321
#
# _framework density 20.156108
#
# number of rings (size 3 to 8) (size 9 to 14) (size 15 to 20)
#    0.000    2.250    2.500    1.125    1.750    2.500 
#    0.000    2.500    0.000    3.750    0.000    0.000 
#    0.000    0.000    0.000    0.000    0.000    0.000 
#
# Total GULP energy -178612.799144 kJ/mol
# GULP energy per Si atom -5581.649973 kJ/mol
# Density = 2.011023 g / cm^3
# Si number density = 20.156108 Si / 1000 Ang^3
#
#
#
# Elastic Constant Matrix: (Units=GPa)
#
#
# Indices 1 2 3 4 5 6 
#
# 1 277.5201 27.2717 130.9739 0.0000 -24.0823 0.0000
# 2 27.2717 21.5105 12.9061 0.0000 1.1485 0.0000
# 3 130.9739 12.9061 135.6872 0.0000 -23.2087 0.0000
# 4 0.0000 0.0000 0.0000 17.2325 0.0000 -6.2892
# 5 -24.0823 1.1485 -23.2087 0.0000 41.4600 0.0000
# 6 0.0000 0.0000 0.0000 -6.2892 0.0000 19.6928
#
#
#
# Elastic Compliance Matrix: (Units=1/GPa)
#
#
# Indices 1 2 3 4 5 6 
#
# 1 0.007152 -0.005356 -0.006258 0.000000 0.000800 0.000000
# 2 -0.005356 0.054055 -0.000840 0.000000 -0.005079 0.000000
# 3 -0.006258 -0.000840 0.014235 0.000000 0.004357 0.000000
# 4 0.000000 0.000000 0.000000 0.065686 0.000000 0.020978
# 5 0.000800 -0.005079 0.004357 0.000000 0.027164 0.000000
# 6 0.000000 0.000000 0.000000 0.020978 0.000000 0.057479
#
#
# Mechanical properties :
#
#
# Convention : Reuss Voigt Hill
#
# Bulk Modulus (GPa) = 19.78832 86.33566 53.06199
# Shear Modulus (GPa) = 18.68984 33.24814 25.96899
#
# Velocity S-wave (km/s) = 3.04839 4.06585 3.59331
# Velocity P-wave (km/s) = 4.71477 8.06027 6.60292
#
# Compressibility (1/GPa) = 0.05053486
#
# Stress axis : x y z
#
# Youngs Moduli (GPa) = 139.81424 18.49969 70.24773
#
# Poissons Ratio (x) = 0.09909 0.43958
# Poissons Ratio (y) = 0.74887 0.05902
# Poissons Ratio (z) = 0.87490 0.01554
#
# Static dielectric constant tensor:
#      x y z
#    x 1.684250 0.000000 0.008060 
#    y 0.000000 1.750250 0.000000 
#    z 0.008060 0.000000 1.666020 
# 
# From -- ./inp_files/86864.got.cif
#   From: 2010.05.17/outbox.cif.g08.bks.cpg/sg10_44_cif.got.tgz:86864.got - 2010.06.03 11:33:40.
