data_PCOD9149051
_publ_section_title
;
Structure prediction by ZEFSAII (Michael W. Deem and Ramdas Pophale) SiO2 
 PCOD9149051
Probable space group: P 2/M
;
_chemical_formula_sum "Si O2"
_cell_formula_units_Z 24
_cell_length_a 11.926072
_cell_length_b 21.701781
_cell_length_c 14.026909
_cell_angle_alpha 90.000000
_cell_angle_beta 20.083922
_cell_angle_gamma 90.000000
_cell_volume 1246.666286
_symmetry_space_group_name_H-M "P 2/M"
_symmetry_group_IT_number 10
_symmetry_cell_setting 'monoclinic'
loop_
_space_group_symop_operation_xyz
x,y,z
-x,y,-z
-x,-y,-z
x,-y,z
loop_
_atom_site_type_symbol
_atom_site_label
_atom_site_fract_x
_atom_site_fract_y
_atom_site_fract_z
Si Si1 0.352855 0.864609 0.771676
Si Si2 0.037667 0.659277 0.084190
Si Si3 0.108131 0.500000 0.304386
Si Si4 0.245701 0.382111 0.501566
Si Si5 0.998714 0.204421 0.207674
Si Si6 0.611983 0.000000 0.302256
Si Si7 0.124345 0.732696 0.296378
O O1 0.630114 0.822185 0.502091
O O2 0.480269 0.934732 0.669632
O O3 0.000000 0.861489 0.000000
O O4 0.256106 0.840492 0.952585
O O5 0.786386 0.627335 0.358409
O O6 0.035801 0.730529 0.121616
O O7 0.378225 0.623473 0.828913
O O8 0.000000 0.659176 0.000000
O O9 0.000000 0.500000 0.500000
O O10 0.950573 0.441282 0.377271
O O11 0.500000 0.500000 0.000000
O O12 0.080268 0.323961 0.581956
O O13 0.084234 0.215022 0.249351
O O14 0.500000 0.000000 0.500000
O O15 0.000000 0.000000 0.000000
O O16 0.000000 0.749329 0.500000
O O17 0.500000 0.713724 0.000000
#
# Coordination Sequence:
#
# PCOD9149051 Si02
#       7
#     4   4   2   4   4   2   4
#     4  11  21  35  55  85 121 153 188 232 279 341
#     4  11  23  40  58  84 122 157 186 231 281 343
#     4  12  24  42  67  92 115 148 196 252 292 336
#     4  11  23  40  61  88 115 149 193 232 291 351
#     4  11  22  35  57  86 112 153 198 231 283 347
#     4  10  20  34  52  80 118 158 188 226 282 336
#     4  11  21  37  56  80 112 144 181 241 297 337
#
# _framework density 19.251342999999999
#
# number of rings (size 3 to 8) (size 9 to 14) (size 15 to 20)
#    0.000    1.000    0.000   10.500    0.000    2.667 
#    0.000    2.500    0.000    0.000    0.000   11.667 
#    0.000    0.000    0.000    0.000    0.000    0.000 
#
# Total GULP energy -134012.536400 kJ/mol
# GULP energy per Si atom -5583.855683 kJ/mol
# Density = 1.920753 g / cm^3
# Si number density = 19.251343 Si / 1000 Ang^3
#
#
#
# Elastic Constant Matrix: (Units=GPa)
#
#
# Indices 1 2 3 4 5 6 
#
# 1 127.9553 44.3999 18.8728 0.0000 34.6414 0.0000
# 2 44.3999 95.2131 19.5856 0.0000 22.9743 0.0000
# 3 18.8728 19.5856 110.2203 0.0000 23.5464 0.0000
# 4 0.0000 0.0000 0.0000 28.6244 0.0000 -9.1169
# 5 34.6414 22.9743 23.5464 0.0000 40.4738 0.0000
# 6 0.0000 0.0000 0.0000 -9.1169 0.0000 53.3313
#
#
#
# Elastic Compliance Matrix: (Units=1/GPa)
#
#
# Indices 1 2 3 4 5 6 
#
# 1 0.011019 -0.003344 0.000362 0.000000 -0.007743 0.000000
# 2 -0.003344 0.013244 -0.000898 0.000000 -0.004133 0.000000
# 3 0.000362 -0.000898 0.010423 0.000000 -0.005864 0.000000
# 4 0.000000 0.000000 0.000000 0.036947 0.000000 0.006316
# 5 -0.007743 -0.004133 -0.005864 0.000000 0.037092 0.000000
# 6 0.000000 0.000000 0.000000 0.006316 0.000000 0.019830
#
#
# Mechanical properties :
#
#
# Convention : Reuss Voigt Hill
#
# Bulk Modulus (GPa) = 37.14023 55.45615 46.29819
# Shear Modulus (GPa) = 34.41371 41.18794 37.80082
#
# Velocity S-wave (km/s) = 4.23259 4.63047 4.43599
# Velocity P-wave (km/s) = 6.57424 7.58006 7.09499
#
# Compressibility (1/GPa) = 0.02692498
#
# Stress axis : x y z
#
# Youngs Moduli (GPa) = 90.75593 75.50434 95.94155
#
# Poissons Ratio (x) = 0.25251 -0.03470
# Poissons Ratio (y) = 0.30351 0.08614
# Poissons Ratio (z) = -0.03282 0.06779
#
# Static dielectric constant tensor:
#      x y z
#    x 1.684900 0.000000 -0.006170 
#    y 0.000000 1.694300 0.000000 
#    z -0.006170 0.000000 1.657270 
# 
# From -- ./inp_files/65474.got.cif
#   From: 2010.05.17/outbox.cif.g08.bks.cpg/sg10_33_cif.got.tgz:65474.got - 2010.06.03 11:33:40.
