data_PCOD9149609
_publ_section_title
;
Structure prediction by ZEFSAII (Michael W. Deem and Ramdas Pophale) SiO2 
 PCOD9149609
Probable space group: P 2/M
;
_chemical_formula_sum "Si O2"
_cell_formula_units_Z 28
_cell_length_a 14.833279
_cell_length_b 8.505311
_cell_length_c 22.340289
_cell_angle_alpha 90.000000
_cell_angle_beta 30.984310
_cell_angle_gamma 90.000000
_cell_volume 1450.966868
_symmetry_space_group_name_H-M "P 2/M"
_symmetry_group_IT_number 10
_symmetry_cell_setting 'monoclinic'
loop_
_space_group_symop_operation_xyz
x,y,z
-x,y,-z
-x,-y,-z
x,-y,z
loop_
_atom_site_type_symbol
_atom_site_label
_atom_site_fract_x
_atom_site_fract_y
_atom_site_fract_z
Si Si1 0.904966 0.187656 0.490275
Si Si2 0.765079 0.811807 0.773177
Si Si3 0.439234 0.310054 0.883125
Si Si4 0.514580 0.313273 0.707745
Si Si5 0.232611 0.686487 0.633695
Si Si6 0.548974 0.816195 0.382829
Si Si7 0.829545 0.689813 0.864235
O O1 0.721794 0.276059 0.591516
O O2 0.000000 0.212395 0.500000
O O3 0.044378 0.237263 0.360479
O O4 0.871435 0.000000 0.503529
O O5 0.616009 0.747281 0.814385
O O6 0.741704 0.751027 0.853585
O O7 0.758982 0.000000 0.775374
O O8 0.441642 0.500000 0.881330
O O9 0.436944 0.258208 0.815524
O O10 0.277738 0.257623 0.016411
O O11 0.489351 0.500000 0.716282
O O12 0.434827 0.230124 0.695262
O O13 0.239239 0.500000 0.617858
O O14 0.352722 0.773567 0.516688
O O15 0.323197 0.721081 0.645935
O O16 0.032033 0.740047 0.748848
O O17 0.579166 0.000000 0.374960
O O18 0.826704 0.500000 0.864886
#
# Coordination Sequence:
#
# PCOD9149609 Si02
#       7
#     4   4   4   4   4   4   4
#     4  10  20  35  53  77 113 147 178 224 279 329
#     4  11  22  35  55  82 111 147 188 229 276 328
#     4  10  22  39  56  77 110 150 189 230 273 322
#     4  11  22  36  57  83 111 147 191 230 271 327
#     4  10  20  38  63  88 112 140 183 231 272 326
#     4  11  22  37  60  87 117 146 174 221 285 338
#     4  10  22  39  58  80 109 146 186 230 278 323
#
# _framework density 19.297478000000002
#
# number of rings (size 3 to 8) (size 9 to 14) (size 15 to 20)
#    0.000    1.571    1.429    4.714    0.000    7.714 
#    0.000    0.714    0.000    4.286    0.000    0.000 
#    0.000    0.000    0.000    0.000    0.000    0.000 
#
# Total GULP energy -156516.436041 kJ/mol
# GULP energy per Si atom -5589.872716 kJ/mol
# Density = 1.925356 g / cm^3
# Si number density = 19.297478 Si / 1000 Ang^3
#
#
#
# Elastic Constant Matrix: (Units=GPa)
#
#
# Indices 1 2 3 4 5 6 
#
# 1 69.7210 -1.8360 34.3377 0.0000 30.1062 0.0000
# 2 -1.8360 11.4641 2.1643 0.0000 2.2557 0.0000
# 3 34.3377 2.1643 83.1425 0.0000 28.3739 0.0000
# 4 0.0000 0.0000 0.0000 5.2356 0.0000 2.1669
# 5 30.1062 2.2557 28.3739 0.0000 30.9968 0.0000
# 6 0.0000 0.0000 0.0000 2.1669 0.0000 -60.5377
#
#
#
# Elastic Compliance Matrix: (Units=1/GPa)
#
#
# Indices 1 2 3 4 5 6 
#
# 1 0.026156 0.009349 -0.003118 0.000000 -0.023231 0.000000
# 2 0.009349 0.091838 -0.001268 0.000000 -0.014602 0.000000
# 3 -0.003118 -0.001268 0.017864 0.000000 -0.013232 0.000000
# 4 0.000000 0.000000 0.000000 0.188210 0.000000 0.006737
# 5 -0.023231 -0.014602 -0.013232 0.000000 0.067999 0.000000
# 6 0.000000 0.000000 0.000000 0.006737 0.000000 -0.016277
#
#
# Mechanical properties :
#
#
# Convention : Reuss Voigt Hill
#
# Bulk Modulus (GPa) = 6.85951 25.96218 16.41085
# Shear Modulus (GPa) = 12.06390 3.78305 7.92348
#
# Velocity S-wave (km/s) = 2.50302 1.40166 2.02852
# Velocity P-wave (km/s) = 3.45193 4.01278 3.74287
#
# Compressibility (1/GPa) = 0.14578296
#
# Stress axis : x y z
#
# Youngs Moduli (GPa) = 38.23245 10.88868 55.97933
#
# Poissons Ratio (x) = -0.10179 0.17453
# Poissons Ratio (y) = -0.35742 0.07100
# Poissons Ratio (z) = 0.11920 0.01381
#
# Static dielectric constant tensor:
#      x y z
#    x 1.655080 0.000000 0.014790 
#    y 0.000000 1.648800 0.000000 
#    z 0.014790 0.000000 1.681410 
# 
# From -- ./inp_files/84909.got.cif
#   From: 2010.05.17/outbox.cif.g08.bks.cpg/sg10_43_cif.got.tgz:84909.got - 2010.06.03 11:33:40.
