data_PCOD9149633
_publ_section_title
;
Structure prediction by ZEFSAII (Michael W. Deem and Ramdas Pophale) SiO2 
 PCOD9149633
Probable space group: P 2/M
;
_chemical_formula_sum "Si O2"
_cell_formula_units_Z 28
_cell_length_a 10.134775
_cell_length_b 8.774902
_cell_length_c 31.110614
_cell_angle_alpha 90.000000
_cell_angle_beta 144.141097
_cell_angle_gamma 90.000000
_cell_volume 1620.719278
_symmetry_space_group_name_H-M "P 2/M"
_symmetry_group_IT_number 10
_symmetry_cell_setting 'monoclinic'
loop_
_space_group_symop_operation_xyz
x,y,z
-x,y,-z
-x,-y,-z
x,-y,z
loop_
_atom_site_type_symbol
_atom_site_label
_atom_site_fract_x
_atom_site_fract_y
_atom_site_fract_z
Si Si1 0.035821 0.683179 0.271544
Si Si2 0.458779 0.683443 0.440671
Si Si3 0.856154 0.825547 0.006336
Si Si4 0.253658 0.816620 0.559006
Si Si5 0.254151 0.319217 0.158632
Si Si6 0.672818 0.816969 0.728138
Si Si7 0.456635 0.183772 0.843389
O O1 0.020980 0.500000 0.265228
O O2 0.215632 0.724170 0.356459
O O3 0.142950 0.747826 0.255866
O O4 0.793455 0.753713 0.217209
O O5 0.500000 0.736647 0.500000
O O6 0.473629 0.500000 0.443990
O O7 0.643638 0.749598 0.457304
O O8 0.000987 0.725032 0.076901
O O9 0.844335 0.000000 0.019186
O O10 0.611683 0.773189 0.925612
O O11 0.000000 0.828571 0.000000
O O12 0.429412 0.776889 0.643267
O O13 0.000000 0.763268 0.500000
O O14 0.251387 0.000000 0.555179
O O15 0.280442 0.500000 0.166375
O O16 0.302086 0.248701 0.217739
O O17 0.421859 0.249450 0.166984
O O18 0.693848 0.000000 0.734332
O O19 0.459394 0.000000 0.841570
#
# Coordination Sequence:
#
# PCOD9149633 Si02
#       7
#     4   4   4   4   4   4   4
#     4  10  20  35  54  77 106 137 173 216 258 304
#     4   9  19  35  53  75 104 137 170 206 254 308
#     4   8  16  32  52  74 102 135 170 209 256 308
#     4   9  19  35  54  77 102 131 171 215 255 298
#     4  11  21  33  53  80 107 135 172 217 258 300
#     4  10  20  36  55  74 104 142 174 209 259 314
#     4  10  20  35  55  78 105 138 174 211 256 310
#
# _framework density 17.276278999999999
#
# number of rings (size 3 to 8) (size 9 to 14) (size 15 to 20)
#    0.000    2.429    0.000    3.429    0.000    6.000 
#    0.000    3.571    0.000    4.286    0.000    0.000 
#    0.000    0.000    0.000    0.000    0.000    0.000 
#
# Total GULP energy -156176.878202 kJ/mol
# GULP energy per Si atom -5577.745650 kJ/mol
# Density = 1.723696 g / cm^3
# Si number density = 17.276279 Si / 1000 Ang^3
#
#
#
# Elastic Constant Matrix: (Units=GPa)
#
#
# Indices 1 2 3 4 5 6 
#
# 1 110.0811 50.4716 114.5017 0.0000 1.3240 0.0000
# 2 50.4716 65.0145 59.4511 0.0000 -2.8494 0.0000
# 3 114.5017 59.4511 154.5480 0.0000 5.4501 0.0000
# 4 0.0000 0.0000 0.0000 25.4159 0.0000 1.6896
# 5 1.3240 -2.8494 5.4501 0.0000 34.1431 0.0000
# 6 0.0000 0.0000 0.0000 1.6896 0.0000 32.3884
#
#
#
# Elastic Compliance Matrix: (Units=1/GPa)
#
#
# Indices 1 2 3 4 5 6 
#
# 1 0.041401 -0.006027 -0.028441 0.000000 0.002432 0.000000
# 2 -0.006027 0.025018 -0.005270 0.000000 0.003163 0.000000
# 3 -0.028441 -0.005270 0.029713 0.000000 -0.004080 0.000000
# 4 0.000000 0.000000 0.000000 0.039482 0.000000 -0.002060
# 5 0.002432 0.003163 -0.004080 0.000000 0.030109 0.000000
# 6 0.000000 0.000000 0.000000 -0.002060 0.000000 0.030983
#
#
# Mechanical properties :
#
#
# Convention : Reuss Voigt Hill
#
# Bulk Modulus (GPa) = 60.03692 86.49915 73.26803
# Shear Modulus (GPa) = 17.74734 25.40409 21.57571
#
# Velocity S-wave (km/s) = 3.20858 3.83882 3.53776
# Velocity P-wave (km/s) = 6.96801 8.35617 7.69346
#
# Compressibility (1/GPa) = 0.01665642
#
# Stress axis : x y z
#
# Youngs Moduli (GPa) = 24.15415 39.97192 33.65556
#
# Poissons Ratio (x) = 0.24089 0.95718
# Poissons Ratio (y) = 0.14557 0.17737
# Poissons Ratio (z) = 0.68696 0.21066
#
# Static dielectric constant tensor:
#      x y z
#    x 1.545130 0.000000 0.004350 
#    y 0.000000 1.577220 0.000000 
#    z 0.004350 0.000000 1.601220 
# 
# From -- ./inp_files/37122.got.cif
#   From: 2010.05.17/outbox.cif.g08.bks.cpg/sg10_19_cif.got.tgz:37122.got - 2010.06.03 11:33:40.
