data_PCOD9149695
_publ_section_title
;
Structure prediction by ZEFSAII (Michael W. Deem and Ramdas Pophale) SiO2 
 PCOD9149695
Probable space group: P 2/M
;
_chemical_formula_sum "Si O2"
_cell_formula_units_Z 28
_cell_length_a 25.832606
_cell_length_b 9.107176
_cell_length_c 9.525958
_cell_angle_alpha 90.000000
_cell_angle_beta 138.945175
_cell_angle_gamma 90.000000
_cell_volume 1471.909545
_symmetry_space_group_name_H-M "P 2/M"
_symmetry_group_IT_number 10
_symmetry_cell_setting 'monoclinic'
loop_
_space_group_symop_operation_xyz
x,y,z
-x,y,-z
-x,-y,-z
x,-y,z
loop_
_atom_site_type_symbol
_atom_site_label
_atom_site_fract_x
_atom_site_fract_y
_atom_site_fract_z
Si Si1 0.232024 0.675223 0.855634
Si Si2 0.489100 0.671227 0.644698
Si Si3 0.330355 0.829672 0.289748
Si Si4 0.423792 0.175067 0.939974
Si Si5 0.260475 0.673935 0.586592
Si Si6 0.177192 0.169431 0.176757
Si Si7 0.910256 0.824050 0.274374
O O1 0.237162 0.500000 0.887572
O O2 0.240118 0.705710 0.707273
O O3 0.150546 0.737855 0.751408
O O4 0.300000 0.753514 0.085475
O O5 0.500000 0.682989 0.500000
O O6 0.491077 0.500000 0.687746
O O7 0.404789 0.743981 0.502418
O O8 0.555074 0.757284 0.865767
O O9 0.256736 0.824268 0.245290
O O10 0.351020 0.000000 0.308635
O O11 0.415294 0.000000 0.928326
O O12 0.500000 0.209464 0.000000
O O13 0.342873 0.245760 0.722188
O O14 0.270391 0.500000 0.590774
O O15 0.193578 0.732439 0.345040
O O16 0.164700 0.000000 0.193128
O O17 0.109517 0.214413 0.928057
O O18 0.000000 0.796431 0.500000
O O19 0.894466 0.000000 0.255001
#
# Coordination Sequence:
#
# PCOD9149695 Si02
#       7
#     4   4   4   4   4   4   4
#     4  10  21  36  55  82 113 145 182 223 270 324
#     4  11  23  36  51  75 106 139 179 228 279 329
#     4  10  20  35  55  78 103 137 184 230 272 323
#     4  11  24  39  55  77 106 143 188 235 281 328
#     4  11  23  37  54  79 111 146 185 226 270 325
#     4   9  19  35  56  81 107 137 175 218 264 318
#     4   9  19  38  63  89 114 141 178 221 265 320
#
# _framework density 19.022908999999999
#
# number of rings (size 3 to 8) (size 9 to 14) (size 15 to 20)
#    0.000    1.857    0.000    4.714    0.000   14.571 
#    0.000    0.714    0.000    4.286    0.000    0.000 
#    0.000    0.000    0.000    0.000    0.000    0.000 
#
# Total GULP energy -156474.169786 kJ/mol
# GULP energy per Si atom -5588.363207 kJ/mol
# Density = 1.897961 g / cm^3
# Si number density = 19.022909 Si / 1000 Ang^3
#
#
#
# Elastic Constant Matrix: (Units=GPa)
#
#
# Indices 1 2 3 4 5 6 
#
# 1 39.2304 31.4179 24.6580 0.0000 -10.2920 0.0000
# 2 31.4179 54.1026 32.4308 0.0000 -19.1205 0.0000
# 3 24.6580 32.4308 121.1950 0.0000 -10.1466 0.0000
# 4 0.0000 0.0000 0.0000 74.8546 0.0000 10.5530
# 5 -10.2920 -19.1205 -10.1466 0.0000 28.1330 0.0000
# 6 0.0000 0.0000 0.0000 10.5530 0.0000 13.2135
#
#
#
# Elastic Compliance Matrix: (Units=1/GPa)
#
#
# Indices 1 2 3 4 5 6 
#
# 1 0.048480 -0.027093 -0.002754 0.000000 -0.001671 0.000000
# 2 -0.027093 0.043262 -0.004571 0.000000 0.017843 0.000000
# 3 -0.002754 -0.004571 0.009992 0.000000 -0.000510 0.000000
# 4 0.000000 0.000000 0.000000 0.015054 0.000000 -0.012023
# 5 -0.001671 0.017843 -0.000510 0.000000 0.046877 0.000000
# 6 0.000000 0.000000 0.000000 -0.012023 0.000000 0.085282
#
#
# Mechanical properties :
#
#
# Convention : Reuss Voigt Hill
#
# Bulk Modulus (GPa) = 30.39513 43.50461 36.94987
# Shear Modulus (GPa) = 15.20915 31.64165 23.42540
#
# Velocity S-wave (km/s) = 2.83064 4.08284 3.51298
# Velocity P-wave (km/s) = 5.16684 6.71903 5.99339
#
# Compressibility (1/GPa) = 0.03290000
#
# Stress axis : x y z
#
# Youngs Moduli (GPa) = 20.62689 23.11478 100.08244
#
# Poissons Ratio (x) = 0.62625 0.27560
# Poissons Ratio (y) = 0.55884 0.45743
# Poissons Ratio (z) = 0.05680 0.10565
#
# Static dielectric constant tensor:
#      x y z
#    x 1.661680 0.000000 -0.013410 
#    y 0.000000 1.636770 0.000000 
#    z -0.013410 0.000000 1.672680 
# 
# From -- ./inp_files/37098.got.cif
#   From: 2010.05.17/outbox.cif.g08.bks.cpg/sg10_19_cif.got.tgz:37098.got - 2010.06.03 11:33:40.
