data_PCOD9149442
_publ_section_title
;
Structure prediction by ZEFSAII (Michael W. Deem and Ramdas Pophale) SiO2 
 PCOD9149442
Probable space group: P 2/M
;
_chemical_formula_sum "Si O2"
_cell_formula_units_Z 22
_cell_length_a 10.749861
_cell_length_b 13.723149
_cell_length_c 13.946568
_cell_angle_alpha 90.000000
_cell_angle_beta 147.360662
_cell_angle_gamma 90.000000
_cell_volume 1109.670161
_symmetry_space_group_name_H-M "P 2/M"
_symmetry_group_IT_number 10
_symmetry_cell_setting 'monoclinic'
loop_
_space_group_symop_operation_xyz
x,y,z
-x,y,-z
-x,-y,-z
x,-y,z
loop_
_atom_site_type_symbol
_atom_site_label
_atom_site_fract_x
_atom_site_fract_y
_atom_site_fract_z
Si Si1 0.271985 0.888423 0.194319
Si Si2 0.844406 0.712327 0.564138
Si Si3 0.484711 0.231520 0.812284
Si Si4 0.875921 0.889211 0.315182
Si Si5 0.500000 0.243552 0.500000
Si Si6 0.727979 0.391920 0.082762
O O1 0.403825 0.845255 0.188133
O O2 0.343446 0.823717 0.330742
O O3 0.341705 0.000000 0.254640
O O4 0.000000 0.883950 0.000000
O O5 0.708034 0.710671 0.375111
O O6 0.664838 0.699036 0.534077
O O7 0.959361 0.821011 0.642070
O O8 0.052542 0.637791 0.711478
O O9 0.354837 0.171885 0.811459
O O10 0.675094 0.306700 0.972939
O O11 0.000000 0.895508 0.500000
O O12 0.840710 0.000000 0.257664
O O13 0.759345 0.500000 0.061425
O O14 0.500000 0.393388 0.000000
#
# Coordination Sequence:
#
# PCOD9149442 Si02
#       6
#     4   4   4   4   2   4
#     4  10  20  34  56  85 120 159 196 231 271 333
#     4  10  21  38  58  84 117 152 189 233 283 342
#     4  10  20  37  58  82 118 151 187 233 290 341
#     4   9  17  31  53  81 113 149 183 222 273 332
#     4  10  21  36  59  82 120 160 193 230 275 334
#     4  11  23  39  61  86 112 142 188 248 300 347
#
# _framework density 19.825711999999999
#
# number of rings (size 3 to 8) (size 9 to 14) (size 15 to 20)
#    0.000    2.000    1.818    1.909    0.000    5.818 
#    0.000    5.000    0.000   10.364    0.000    0.000 
#    0.000    0.000    0.000    0.000    0.000    0.000 
#
# Total GULP energy -122841.229874 kJ/mol
# GULP energy per Si atom -5583.692267 kJ/mol
# Density = 1.978059 g / cm^3
# Si number density = 19.825712 Si / 1000 Ang^3
#
#
#
# Elastic Constant Matrix: (Units=GPa)
#
#
# Indices 1 2 3 4 5 6 
#
# 1 58.7791 -13.1716 4.3835 0.0000 8.6407 0.0000
# 2 -13.1716 44.7104 11.0162 0.0000 7.2962 0.0000
# 3 4.3835 11.0162 77.0974 0.0000 6.8808 0.0000
# 4 0.0000 0.0000 0.0000 23.0238 0.0000 15.0496
# 5 8.6407 7.2962 6.8808 0.0000 18.4788 0.0000
# 6 0.0000 0.0000 0.0000 15.0496 0.0000 17.8095
#
#
#
# Elastic Compliance Matrix: (Units=1/GPa)
#
#
# Indices 1 2 3 4 5 6 
#
# 1 0.020880 0.008531 -0.001277 0.000000 -0.012657 0.000000
# 2 0.008531 0.027932 -0.003244 0.000000 -0.013810 0.000000
# 3 -0.001277 -0.003244 0.013798 0.000000 -0.003260 0.000000
# 4 0.000000 0.000000 0.000000 0.097028 0.000000 -0.081992
# 5 -0.012657 -0.013810 -0.003260 0.000000 0.066701 0.000000
# 6 0.000000 0.000000 0.000000 -0.081992 0.000000 0.125435
#
#
# Mechanical properties :
#
#
# Convention : Reuss Voigt Hill
#
# Bulk Modulus (GPa) = 14.15780 20.56033 17.35907
# Shear Modulus (GPa) = 13.61297 23.75300 18.68299
#
# Velocity S-wave (km/s) = 2.62321 3.46510 3.07312
# Velocity P-wave (km/s) = 4.04124 5.13831 4.62244
#
# Compressibility (1/GPa) = 0.07063245
#
# Stress axis : x y z
#
# Youngs Moduli (GPa) = 47.89185 35.80077 72.47631
#
# Poissons Ratio (x) = -0.30543 0.09252
# Poissons Ratio (y) = -0.40858 0.23509
# Poissons Ratio (z) = 0.06114 0.11613
#
# Static dielectric constant tensor:
#      x y z
#    x 1.699190 0.000000 0.007490 
#    y 0.000000 1.689990 0.000000 
#    z 0.007490 0.000000 1.724420 
# 
# From -- ./inp_files/64972.got.cif
#   From: 2010.05.17/outbox.cif.g08.bks.cpg/sg10_33_cif.got.tgz:64972.got - 2010.06.03 11:33:40.
