data_PCOD9149537
_publ_section_title
;
Structure prediction by ZEFSAII (Michael W. Deem and Ramdas Pophale) SiO2 
 PCOD9149537
Probable space group: P 2/M
;
_chemical_formula_sum "Si O2"
_cell_formula_units_Z 28
_cell_length_a 12.554211
_cell_length_b 12.708899
_cell_length_c 9.011247
_cell_angle_alpha 90.000000
_cell_angle_beta 66.797468
_cell_angle_gamma 90.000000
_cell_volume 1321.458363
_symmetry_space_group_name_H-M "P 2/M"
_symmetry_group_IT_number 10
_symmetry_cell_setting 'monoclinic'
loop_
_space_group_symop_operation_xyz
x,y,z
-x,y,-z
-x,-y,-z
x,-y,z
loop_
_atom_site_type_symbol
_atom_site_label
_atom_site_fract_x
_atom_site_fract_y
_atom_site_fract_z
Si Si1 0.884018 0.616423 0.387047
Si Si2 0.313121 0.500000 0.174679
Si Si3 0.455408 0.500000 0.787948
Si Si4 0.117059 0.815076 0.394999
Si Si5 0.711499 0.324284 0.228089
Si Si6 0.362334 0.877876 0.201649
Si Si7 0.607659 0.127255 0.156421
Si Si8 0.136055 0.661266 0.146516
O O1 0.871378 0.500000 0.460635
O O2 0.889951 0.710225 0.501070
O O3 0.776632 0.641794 0.340219
O O4 0.006471 0.616225 0.231280
O O5 0.406378 0.500000 0.257182
O O6 0.228731 0.600125 0.200457
O O7 0.392766 0.500000 0.983155
O O8 0.400882 0.397497 0.738422
O O9 0.241121 0.865695 0.348911
O O10 0.118932 0.777605 0.223121
O O11 0.000000 0.875543 0.500000
O O12 0.677001 0.201971 0.229709
O O13 0.805958 0.344814 0.045435
O O14 0.472033 0.840361 0.235076
O O15 0.387282 0.000000 0.166414
O O16 0.360845 0.838881 0.031514
O O17 0.623586 0.000000 0.167548
#
# Coordination Sequence:
#
# PCOD9149537 Si02
#       8
#     4   2   2   4   4   4   4   4
#     4  11  23  38  53  80 122 164 202 233 287 354
#     4   9  18  29  49  82 108 141 193 243 284 330
#     4   9  20  29  48  88 115 147 180 236 308 341
#     4  10  22  36  55  86 115 155 198 240 291 339
#     4  11  20  36  58  85 124 150 194 245 297 358
#     4   9  18  37  63  90 114 145 196 251 299 344
#     4   9  19  35  64  94 114 146 194 255 300 339
#     4  10  20  34  59  80 109 156 203 248 282 340
#
# _framework density 21.18871
#
# number of rings (size 3 to 8) (size 9 to 14) (size 15 to 20)
#    0.000    2.143    2.857    1.286    3.000    2.857 
#    0.000    1.429    0.000    6.000    0.000    0.000 
#    0.000    0.000    0.000    0.000    0.000    0.000 
#
# Total GULP energy -156084.340129 kJ/mol
# GULP energy per Si atom -5574.440719 kJ/mol
# Density = 2.114048 g / cm^3
# Si number density = 21.188710 Si / 1000 Ang^3
#
#
#
# Elastic Constant Matrix: (Units=GPa)
#
#
# Indices 1 2 3 4 5 6 
#
# 1 138.2024 28.4692 18.9190 0.0000 -15.1726 0.0000
# 2 28.4692 70.7634 1.7795 0.0000 -0.9214 0.0000
# 3 18.9190 1.7795 24.9052 0.0000 -11.4816 0.0000
# 4 0.0000 0.0000 0.0000 14.6340 0.0000 10.1871
# 5 -15.1726 -0.9214 -11.4816 0.0000 37.9831 0.0000
# 6 0.0000 0.0000 0.0000 10.1871 0.0000 116.2444
#
#
#
# Elastic Compliance Matrix: (Units=1/GPa)
#
#
# Indices 1 2 3 4 5 6 
#
# 1 0.008916 -0.003420 -0.005722 0.000000 0.001749 0.000000
# 2 -0.003420 0.015469 0.001204 0.000000 -0.000627 0.000000
# 3 -0.005722 0.001204 0.050396 0.000000 0.012977 0.000000
# 4 0.000000 0.000000 0.000000 0.072774 0.000000 -0.006378
# 5 0.001749 -0.000627 0.012977 0.000000 0.030934 0.000000
# 6 0.000000 0.000000 0.000000 -0.006378 0.000000 0.009161
#
#
# Mechanical properties :
#
#
# Convention : Reuss Voigt Hill
#
# Bulk Modulus (GPa) = 16.97701 36.91185 26.94443
# Shear Modulus (GPa) = 22.40539 46.08584 34.24561
#
# Velocity S-wave (km/s) = 3.25533 4.66877 4.02458
# Velocity P-wave (km/s) = 4.70736 6.82067 5.86007
#
# Compressibility (1/GPa) = 0.05890318
#
# Stress axis : x y z
#
# Youngs Moduli (GPa) = 112.16263 64.64471 19.84302
#
# Poissons Ratio (x) = 0.22110 0.11354
# Poissons Ratio (y) = 0.38362 -0.02389
# Poissons Ratio (z) = 0.64181 -0.07782
#
# Static dielectric constant tensor:
#      x y z
#    x 1.818330 0.000000 -0.020280 
#    y 0.000000 1.787450 0.000000 
#    z -0.020280 0.000000 1.789960 
# 
# From -- ./inp_files/24974.got.cif
#   From: 2010.05.17/outbox.cif.g08.bks.cpg/sg10_13_cif.got.tgz:24974.got - 2010.06.03 11:33:40.
