data_PCOD9149502
_publ_section_title
;
Structure prediction by ZEFSAII (Michael W. Deem and Ramdas Pophale) SiO2 
 PCOD9149502
Probable space group: P 2/M
;
_chemical_formula_sum "Si O2"
_cell_formula_units_Z 28
_cell_length_a 22.972007
_cell_length_b 11.031925
_cell_length_c 29.163214
_cell_angle_alpha 90.000000
_cell_angle_beta 11.266813
_cell_angle_gamma 90.000000
_cell_volume 1443.981223
_symmetry_space_group_name_H-M "P 2/M"
_symmetry_group_IT_number 10
_symmetry_cell_setting 'monoclinic'
loop_
_space_group_symop_operation_xyz
x,y,z
-x,y,-z
-x,-y,-z
x,-y,z
loop_
_atom_site_type_symbol
_atom_site_label
_atom_site_fract_x
_atom_site_fract_y
_atom_site_fract_z
Si Si1 0.100839 0.133115 0.974787
Si Si2 0.855706 0.130627 0.718141
Si Si3 0.819304 0.363962 0.687232
Si Si4 0.722429 0.213563 0.531304
Si Si5 0.847263 0.366195 0.221667
Si Si6 0.223662 0.643306 0.094690
Si Si7 0.621148 0.361181 0.124340
O O1 0.454808 0.148704 0.710889
O O2 0.015065 0.000000 0.060404
O O3 0.000000 0.133413 0.000000
O O4 0.947323 0.250055 0.115756
O O5 0.924653 0.252472 0.636540
O O6 0.040147 0.136243 0.622917
O O7 0.928817 0.000000 0.639088
O O8 0.500000 0.132694 0.000000
O O9 0.846720 0.500000 0.686482
O O10 0.000000 0.365187 0.500000
O O11 0.473815 0.344320 0.940722
O O12 0.560031 0.292734 0.696350
O O13 0.921766 0.292907 0.343023
O O14 0.500000 0.360713 0.500000
O O15 0.914767 0.500000 0.148364
O O16 0.039957 0.362011 0.119217
O O17 0.171175 0.500000 0.128733
O O18 0.364949 0.690053 0.937786
O O19 0.512808 0.500000 0.205594
#
# Coordination Sequence:
#
# PCOD9149502 Si02
#       7
#     4   4   4   4   4   4   4
#     4  10  23  41  61  88 121 156 200 251 303 359
#     4  11  23  39  58  83 118 159 199 244 296 353
#     4  10  21  38  60  89 122 155 200 254 300 355
#     4  11  21  38  62  83 116 161 202 249 301 358
#     4   9  19  36  60  89 121 155 195 247 306 362
#     4  10  20  34  57  89 121 159 199 245 304 358
#     4   9  19  35  55  86 123 152 195 250 298 359
#
# _framework density 19.390834999999999
#
# number of rings (size 3 to 8) (size 9 to 14) (size 15 to 20)
#    0.000    2.000    1.429    1.714    2.000    4.000 
#    0.000    0.000    0.000    2.571    0.000    0.000 
#    0.000    0.000    0.000    0.000    0.000    0.000 
#
# Total GULP energy -156098.118801 kJ/mol
# GULP energy per Si atom -5574.932814 kJ/mol
# Density = 1.934670 g / cm^3
# Si number density = 19.390835 Si / 1000 Ang^3
#
#
#
# Elastic Constant Matrix: (Units=GPa)
#
#
# Indices 1 2 3 4 5 6 
#
# 1 85.0610 46.5606 29.3947 0.0000 -14.4099 0.0000
# 2 46.5606 140.8112 30.4126 0.0000 1.4876 0.0000
# 3 29.3947 30.4126 91.4088 0.0000 -18.9109 0.0000
# 4 0.0000 0.0000 0.0000 -48.8747 0.0000 38.3549
# 5 -14.4099 1.4876 -18.9109 0.0000 33.6868 0.0000
# 6 0.0000 0.0000 0.0000 38.3549 0.0000 -18.1571
#
#
#
# Elastic Compliance Matrix: (Units=1/GPa)
#
#
# Indices 1 2 3 4 5 6 
#
# 1 0.016265 -0.004925 -0.002384 0.000000 0.005836 0.000000
# 2 -0.004925 0.009264 -0.002284 0.000000 -0.003798 0.000000
# 3 -0.002384 -0.002284 0.013890 0.000000 0.006878 0.000000
# 4 0.000000 0.000000 0.000000 0.031108 0.000000 0.065713
# 5 0.005836 -0.003798 0.006878 0.000000 0.036211 0.000000
# 6 0.000000 0.000000 0.000000 0.065713 0.000000 0.083736
#
#
# Mechanical properties :
#
#
# Convention : Reuss Voigt Hill
#
# Bulk Modulus (GPa) = 49.42834 58.89075 54.15954
# Shear Modulus (GPa) = 23.10508 7.39187 15.24848
#
# Velocity S-wave (km/s) = 3.45562 1.95456 2.80728
# Velocity P-wave (km/s) = 6.43954 5.96071 6.20475
#
# Compressibility (1/GPa) = 0.02023131
#
# Stress axis : x y z
#
# Youngs Moduli (GPa) = 61.48303 107.94971 71.99667
#
# Poissons Ratio (x) = 0.53162 0.17166
# Poissons Ratio (y) = 0.30279 0.16445
# Poissons Ratio (z) = 0.14660 0.24657
#
# Static dielectric constant tensor:
#      x y z
#    x 1.693960 0.000000 -0.027180 
#    y 0.000000 1.711450 0.000000 
#    z -0.027180 0.000000 1.683210 
# 
# From -- ./inp_files/91440.got.cif
#   From: 2010.05.17/outbox.cif.g08.bks.cpg/sg10_46_cif.got.tgz:91440.got - 2010.06.03 11:33:40.
