data_PCOD9149980
_publ_section_title
;
Structure prediction by ZEFSAII (Michael W. Deem and Ramdas Pophale) SiO2 
 PCOD9149980
Probable space group: P 2/M
;
_chemical_formula_sum "Si O2"
_cell_formula_units_Z 32
_cell_length_a 8.250432
_cell_length_b 15.057386
_cell_length_c 21.766046
_cell_angle_alpha 90.000000
_cell_angle_beta 146.864411
_cell_angle_gamma 90.000000
_cell_volume 1478.063464
_symmetry_space_group_name_H-M "P 2/M"
_symmetry_group_IT_number 10
_symmetry_cell_setting 'monoclinic'
loop_
_space_group_symop_operation_xyz
x,y,z
-x,y,-z
-x,-y,-z
x,-y,z
loop_
_atom_site_type_symbol
_atom_site_label
_atom_site_fract_x
_atom_site_fract_y
_atom_site_fract_z
Si Si1 0.611563 0.400752 0.270463
Si Si2 0.271826 0.214849 0.370876
Si Si3 0.681561 0.101079 0.172830
Si Si4 0.155301 0.404430 0.374619
Si Si5 0.724698 0.597735 0.958904
Si Si6 0.564660 0.899177 0.766172
Si Si7 0.127353 0.786067 0.969391
Si Si8 0.669869 0.750565 0.379308
O O1 0.502258 0.500000 0.251225
O O2 0.524963 0.381826 0.171844
O O3 0.524298 0.324617 0.289479
O O4 0.966028 0.402505 0.377041
O O5 0.500000 0.197258 0.500000
O O6 0.114256 0.310462 0.329505
O O7 0.476409 0.227811 0.376808
O O8 0.008270 0.143873 0.279758
O O9 0.540471 0.097938 0.196689
O O10 0.436057 0.161390 0.061397
O O11 0.693145 0.000000 0.153120
O O12 0.500000 0.406187 0.500000
O O13 0.082347 0.500000 0.320718
O O14 0.673049 0.500000 0.970836
O O15 0.801108 0.683336 0.023909
O O16 0.000000 0.588599 0.000000
O O17 0.315728 0.842314 0.653352
O O18 0.603061 0.000000 0.756846
O O19 0.867787 0.842447 0.854698
O O20 0.000000 0.782822 0.000000
O O21 0.000000 0.721520 0.500000
#
# Coordination Sequence:
#
# PCOD9149980 Si02
#       8
#     4   4   4   4   4   4   4   4
#     4  10  20  35  57  86 118 151 190 235 280 331
#     4  11  23  38  56  79 112 152 192 237 292 350
#     4  10  20  36  59  84 110 144 188 236 287 345
#     4   9  17  32  54  78 107 142 180 224 274 330
#     4   9  16  27  50  85 121 151 180 220 268 323
#     4  10  21  38  60  86 114 146 189 243 296 343
#     4   9  16  31  58  87 117 146 186 232 278 336
#     4  12  24  38  58  81 112 152 195 243 290 344
#
# _framework density 21.64995
#
# number of rings (size 3 to 8) (size 9 to 14) (size 15 to 20)
#    0.000    2.000    0.000    6.375    0.000    3.250 
#    0.000    0.625    0.000    1.500    0.000    0.000 
#    0.000   30.000    0.000    0.000    0.000    0.000 
#
# Total GULP energy -178382.208717 kJ/mol
# GULP energy per Si atom -5574.444022 kJ/mol
# Density = 2.160067 g / cm^3
# Si number density = 21.649950 Si / 1000 Ang^3
#
#
#
# Elastic Constant Matrix: (Units=GPa)
#
#
# Indices 1 2 3 4 5 6 
#
# 1 32.8374 13.4623 10.7142 0.0000 15.0870 0.0000
# 2 13.4623 160.6018 26.8100 0.0000 9.3075 0.0000
# 3 10.7142 26.8100 62.4467 0.0000 29.3461 0.0000
# 4 0.0000 0.0000 0.0000 24.5187 0.0000 7.5403
# 5 15.0870 9.3075 29.3461 0.0000 25.6139 0.0000
# 6 0.0000 0.0000 0.0000 7.5403 0.0000 24.5897
#
#
#
# Elastic Compliance Matrix: (Units=1/GPa)
#
#
# Indices 1 2 3 4 5 6 
#
# 1 0.046435 -0.003654 0.012633 0.000000 -0.040497 0.000000
# 2 -0.003654 0.007036 -0.004775 0.000000 0.005066 0.000000
# 3 0.012633 -0.004775 0.040247 0.000000 -0.051817 0.000000
# 4 0.000000 0.000000 0.000000 0.045032 0.000000 -0.013809
# 5 -0.040497 0.005066 -0.051817 0.000000 0.120421 0.000000
# 6 0.000000 0.000000 0.000000 -0.013809 0.000000 0.044902
#
#
# Mechanical properties :
#
#
# Convention : Reuss Voigt Hill
#
# Bulk Modulus (GPa) = 9.79178 39.76209 24.77694
# Shear Modulus (GPa) = 15.16495 28.60444 21.88469
#
# Velocity S-wave (km/s) = 2.64949 3.63881 3.18282
# Velocity P-wave (km/s) = 3.72724 6.00503 4.99763
#
# Compressibility (1/GPa) = 0.10212645
#
# Stress axis : x y z
#
# Youngs Moduli (GPa) = 21.53533 142.11908 24.84657
#
# Poissons Ratio (x) = 0.51935 -0.31388
# Poissons Ratio (y) = 0.07870 0.11863
# Poissons Ratio (z) = -0.27205 0.67855
#
# Static dielectric constant tensor:
#      x y z
#    x 1.843900 0.000000 0.056490 
#    y 0.000000 1.838890 0.000000 
#    z 0.056490 0.000000 1.975060 
# 
# From -- ./inp_files/88294.got.cif
#   From: 2010.05.17/outbox.cif.g08.bks.cpg/sg10_45_cif.got.tgz:88294.got - 2010.06.03 11:33:40.
