data_PCOD9149794
_publ_section_title
;
Structure prediction by ZEFSAII (Michael W. Deem and Ramdas Pophale) SiO2 
 PCOD9149794
Probable space group: P 2/M
;
_chemical_formula_sum "Si O2"
_cell_formula_units_Z 28
_cell_length_a 28.620920
_cell_length_b 8.896330
_cell_length_c 9.953913
_cell_angle_alpha 90.000000
_cell_angle_beta 38.443588
_cell_angle_gamma 90.000000
_cell_volume 1575.795213
_symmetry_space_group_name_H-M "P 2/M"
_symmetry_group_IT_number 10
_symmetry_cell_setting 'monoclinic'
loop_
_space_group_symop_operation_xyz
x,y,z
-x,y,-z
-x,-y,-z
x,-y,z
loop_
_atom_site_type_symbol
_atom_site_label
_atom_site_fract_x
_atom_site_fract_y
_atom_site_fract_z
Si Si1 0.999660 0.819532 0.658408
Si Si2 0.297984 0.318256 0.176566
Si Si3 0.549896 0.821444 0.761528
Si Si4 0.128356 0.682061 0.553954
Si Si5 0.301864 0.319564 0.477452
Si Si6 0.871305 0.681094 0.131319
Si Si7 0.457502 0.675814 0.735391
O O1 0.070245 0.754496 0.582305
O O2 0.000000 0.773974 0.500000
O O3 0.000940 0.000000 0.660372
O O4 0.927331 0.758801 0.901980
O O5 0.293074 0.500000 0.186338
O O6 0.214034 0.267718 0.329701
O O7 0.314294 0.273591 0.293917
O O8 0.370262 0.274868 0.927100
O O9 0.632686 0.751346 0.582263
O O10 0.503876 0.771959 0.736061
O O11 0.556609 0.000000 0.754451
O O12 0.500000 0.767026 0.000000
O O13 0.123651 0.500000 0.554883
O O14 0.113440 0.719264 0.745438
O O15 0.307531 0.500000 0.471474
O O16 0.215617 0.279895 0.703598
O O17 0.879080 0.500000 0.103859
O O18 0.500000 0.684505 0.500000
O O19 0.457632 0.500000 0.778818
#
# Coordination Sequence:
#
# PCOD9149794 Si02
#       7
#     4   4   4   4   4   4   4
#     4  11  24  39  53  76 114 151 180 209 258 327
#     4   8  15  31  55  81 107 135 172 226 275 311
#     4  11  22  34  52  80 113 148 185 221 266 321
#     4   9  18  35  60  84 105 134 179 229 274 318
#     4   9  17  33  58  83 106 137 179 227 276 317
#     4   9  19  36  60  87 107 131 178 231 273 319
#     4  10  20  35  56  80 108 144 187 229 271 318
#
# _framework density 17.768806000000001
#
# number of rings (size 3 to 8) (size 9 to 14) (size 15 to 20)
#    0.000    2.429    1.429    3.000    0.000    4.857 
#    2.571    2.857    0.000    0.000    0.000    0.000 
#    0.000    0.000    0.000    0.000    0.000    0.000 
#
# Total GULP energy -156120.794322 kJ/mol
# GULP energy per Si atom -5575.742654 kJ/mol
# Density = 1.772836 g / cm^3
# Si number density = 17.768806 Si / 1000 Ang^3
#
#
#
# Elastic Constant Matrix: (Units=GPa)
#
#
# Indices 1 2 3 4 5 6 
#
# 1 106.5233 36.5944 73.4754 0.0000 -17.5645 0.0000
# 2 36.5944 22.9698 37.9720 0.0000 -4.7413 0.0000
# 3 73.4754 37.9720 139.2930 0.0000 -21.5816 0.0000
# 4 0.0000 0.0000 0.0000 -3.0764 0.0000 30.8047
# 5 -17.5645 -4.7413 -21.5816 0.0000 19.9215 0.0000
# 6 0.0000 0.0000 0.0000 30.8047 0.0000 -14.3049
#
#
#
# Elastic Compliance Matrix: (Units=1/GPa)
#
#
# Indices 1 2 3 4 5 6 
#
# 1 0.023562 -0.031925 -0.002024 0.000000 0.010983 0.000000
# 2 -0.031925 0.123001 -0.019848 0.000000 -0.020375 0.000000
# 3 -0.002024 -0.019848 0.015200 0.000000 0.009959 0.000000
# 4 0.000000 0.000000 0.000000 0.015808 0.000000 0.034041
# 5 0.010983 -0.020375 0.009959 0.000000 0.065820 0.000000
# 6 0.000000 0.000000 0.000000 0.034041 0.000000 0.003400
#
#
# Mechanical properties :
#
#
# Convention : Reuss Voigt Hill
#
# Bulk Modulus (GPa) = 18.46015 62.76332 40.61174
# Shear Modulus (GPa) = 13.42493 8.55768 10.99130
#
# Velocity S-wave (km/s) = 2.75168 2.19695 2.48981
# Velocity P-wave (km/s) = 4.52850 6.46795 5.58308
#
# Compressibility (1/GPa) = 0.05417074
#
# Stress axis : x y z
#
# Youngs Moduli (GPa) = 42.44123 8.12998 65.78761
#
# Poissons Ratio (x) = 0.25955 0.13316
# Poissons Ratio (y) = 1.35492 1.30575
# Poissons Ratio (z) = 0.08591 0.16136
#
# Static dielectric constant tensor:
#      x y z
#    x 1.587710 0.000000 -0.004720 
#    y 0.000000 1.595610 0.000000 
#    z -0.004720 0.000000 1.698740 
# 
# From -- ./inp_files/36941.got.cif
#   From: 2010.05.17/outbox.cif.g08.bks.cpg/sg10_19_cif.got.tgz:36941.got - 2010.06.03 11:33:40.
