data_PCOD9149098
_publ_section_title
;
Structure prediction by ZEFSAII (Michael W. Deem and Ramdas Pophale) SiO2 
 PCOD9149098
Probable space group: P 2/M
;
_chemical_formula_sum "Si O2"
_cell_formula_units_Z 28
_cell_length_a 9.742172
_cell_length_b 9.207526
_cell_length_c 26.910027
_cell_angle_alpha 90.000000
_cell_angle_beta 142.480620
_cell_angle_gamma 90.000000
_cell_volume 1470.115248
_symmetry_space_group_name_H-M "P 2/M"
_symmetry_group_IT_number 10
_symmetry_cell_setting 'monoclinic'
loop_
_space_group_symop_operation_xyz
x,y,z
-x,y,-z
-x,-y,-z
x,-y,z
loop_
_atom_site_type_symbol
_atom_site_label
_atom_site_fract_x
_atom_site_fract_y
_atom_site_fract_z
Si Si1 0.977285 0.168107 0.867562
Si Si2 0.729585 0.836144 0.414507
Si Si3 0.321297 0.665790 0.902820
Si Si4 0.667262 0.832881 0.939356
Si Si5 0.691382 0.824780 0.514969
Si Si6 0.831296 0.670768 0.346549
Si Si7 0.629598 0.329286 0.830448
O O1 0.095305 0.263161 0.859052
O O2 0.750489 0.240383 0.821714
O O3 0.951739 0.000000 0.845899
O O4 0.148067 0.172755 0.963921
O O5 0.633114 0.788819 0.440436
O O6 0.716281 0.728825 0.364394
O O7 0.000000 0.846160 0.500000
O O8 0.648681 0.000000 0.379423
O O9 0.292885 0.500000 0.877113
O O10 0.437577 0.770573 0.896586
O O11 0.500000 0.660974 0.000000
O O12 0.721848 0.732382 0.908548
O O13 0.647787 0.000000 0.917554
O O14 0.500000 0.783428 0.500000
O O15 0.934700 0.753751 0.595437
O O16 0.715986 0.000000 0.523435
O O17 0.877833 0.500000 0.364728
O O18 0.639316 0.692668 0.250039
O O19 0.676859 0.500000 0.838861
#
# Coordination Sequence:
#
# PCOD9149098 Si02
#       7
#     4   4   4   4   4   4   4
#     4  10  20  34  53  77 102 132 177 226 267 313
#     4   8  15  30  53  77 100 130 165 199 240 295
#     4   9  17  31  52  75  99 129 164 206 259 315
#     4  10  20  34  53  77 103 134 176 224 270 314
#     4   9  18  34  57  83 107 132 166 207 250 302
#     4  10  21  35  51  75 106 139 173 209 253 304
#     4  11  23  36  50  72 104 141 179 219 266 317
#
# _framework density 19.046126000000001
#
# number of rings (size 3 to 8) (size 9 to 14) (size 15 to 20)
#    0.000    2.429    0.000    3.429    0.000   10.286 
#    0.000    1.429    0.000    6.857    0.000    0.000 
#    0.000    0.000    0.000    0.000    0.000    0.000 
#
# Total GULP energy -156144.441101 kJ/mol
# GULP energy per Si atom -5576.587182 kJ/mol
# Density = 1.900278 g / cm^3
# Si number density = 19.046126 Si / 1000 Ang^3
#
#
#
# Elastic Constant Matrix: (Units=GPa)
#
#
# Indices 1 2 3 4 5 6 
#
# 1 97.0299 13.4751 15.5791 0.0000 18.8318 0.0000
# 2 13.4751 74.2331 29.9116 0.0000 12.6129 0.0000
# 3 15.5791 29.9116 36.9492 0.0000 8.2821 0.0000
# 4 0.0000 0.0000 0.0000 -46.8427 0.0000 27.6485
# 5 18.8318 12.6129 8.2821 0.0000 19.5906 0.0000
# 6 0.0000 0.0000 0.0000 27.6485 0.0000 14.4924
#
#
#
# Elastic Compliance Matrix: (Units=1/GPa)
#
#
# Indices 1 2 3 4 5 6 
#
# 1 0.013018 0.001151 -0.003810 0.000000 -0.011644 0.000000
# 2 0.001151 0.020913 -0.015630 0.000000 -0.007963 0.000000
# 3 -0.003810 -0.015630 0.042251 0.000000 -0.004136 0.000000
# 4 0.000000 0.000000 0.000000 -0.010041 0.000000 0.019156
# 5 -0.011644 -0.007963 -0.004136 0.000000 0.069113 0.000000
# 6 0.000000 0.000000 0.000000 0.019156 0.000000 0.032455
#
#
# Mechanical properties :
#
#
# Convention : Reuss Voigt Hill
#
# Bulk Modulus (GPa) = 25.25114 36.23819 30.74466
# Shear Modulus (GPa) = 22.98956 7.39782 15.19369
#
# Velocity S-wave (km/s) = 3.47803 1.97297 2.82748
# Velocity P-wave (km/s) = 5.42361 4.92524 5.18042
#
# Compressibility (1/GPa) = 0.03960218
#
# Stress axis : x y z
#
# Youngs Moduli (GPa) = 76.81712 47.81656 23.66799
#
# Poissons Ratio (x) = -0.05502 0.09019
# Poissons Ratio (y) = -0.08839 0.36994
# Poissons Ratio (z) = 0.29271 0.74739
#
# Static dielectric constant tensor:
#      x y z
#    x 1.683930 0.000000 -0.013770 
#    y 0.000000 1.637190 0.000000 
#    z -0.013770 0.000000 1.690000 
# 
# From -- ./inp_files/92065.got.cif
#   From: 2010.05.17/outbox.cif.g08.bks.cpg/sg10_47_cif.got.tgz:92065.got - 2010.06.03 11:33:40.
