data_PCOD9149114
_publ_section_title
;
Structure prediction by ZEFSAII (Michael W. Deem and Ramdas Pophale) SiO2 
 PCOD9149114
Probable space group: P 2/M
;
_chemical_formula_sum "Si O2"
_cell_formula_units_Z 32
_cell_length_a 16.653384
_cell_length_b 8.009246
_cell_length_c 24.967274
_cell_angle_alpha 90.000000
_cell_angle_beta 26.816940
_cell_angle_gamma 90.000000
_cell_volume 1502.373659
_symmetry_space_group_name_H-M "P 2/M"
_symmetry_group_IT_number 10
_symmetry_cell_setting 'monoclinic'
loop_
_space_group_symop_operation_xyz
x,y,z
-x,y,-z
-x,-y,-z
x,-y,z
loop_
_atom_site_type_symbol
_atom_site_label
_atom_site_fract_x
_atom_site_fract_y
_atom_site_fract_z
Si Si1 0.550293 0.698442 0.752640
Si Si2 0.421651 0.195044 0.378823
Si Si3 0.940975 0.688286 0.806895
Si Si4 0.794898 0.187918 0.189457
Si Si5 0.840538 0.700358 0.983277
Si Si6 0.301423 0.809288 0.628202
Si Si7 0.043967 0.199220 0.633841
Si Si8 0.873757 0.797924 0.624367
O O1 0.549068 0.500000 0.743254
O O2 0.625739 0.789844 0.655381
O O3 0.677128 0.735849 0.727035
O O4 0.348879 0.757641 0.882290
O O5 0.620630 0.271290 0.266365
O O6 0.249651 0.263558 0.512682
O O7 0.442628 0.000000 0.381842
O O8 0.873734 0.500000 0.843126
O O9 0.152090 0.694298 0.692400
O O10 0.930286 0.768343 0.754841
O O11 0.867787 0.766982 0.905992
O O12 0.733712 0.182271 0.287840
O O13 0.993175 0.261009 0.076775
O O14 0.814816 0.000000 0.155988
O O15 0.836224 0.500000 0.981021
O O16 0.500000 0.752175 0.500000
O O17 0.282794 0.000000 0.617589
O O18 0.948527 0.262174 0.636822
O O19 0.061713 0.000000 0.617555
O O20 0.000000 0.743329 0.500000
O O21 0.871987 0.000000 0.625919
#
# Coordination Sequence:
#
# PCOD9149114 Si02
#       8
#     4   4   4   4   4   4   4   4
#     4  11  23  38  58  82 109 145 187 228 271 325
#     4  10  20  36  56  82 115 146 180 226 282 331
#     4  10  20  34  53  77 108 145 184 224 268 318
#     4   9  18  31  52  79 105 142 190 232 266 315
#     4   9  21  40  55  73 111 156 188 222 272 320
#     4   9  16  29  49  72 102 141 184 226 272 321
#     4  10  20  36  59  84 113 143 174 219 279 336
#     4  10  20  39  63  85 110 142 174 217 281 335
#
# _framework density 21.299627999999998
#
# number of rings (size 3 to 8) (size 9 to 14) (size 15 to 20)
#    0.000    2.250    1.250    1.500    0.000    6.000 
#    0.000    5.625    0.000    3.750    0.000    0.000 
#    0.000    0.000    0.000    0.000    0.000    0.000 
#
# Total GULP energy -178441.065928 kJ/mol
# GULP energy per Si atom -5576.283310 kJ/mol
# Density = 2.125115 g / cm^3
# Si number density = 21.299628 Si / 1000 Ang^3
#
#
#
# Elastic Constant Matrix: (Units=GPa)
#
#
# Indices 1 2 3 4 5 6 
#
# 1 92.0636 1.2116 6.5651 0.0000 -3.1194 0.0000
# 2 1.2116 16.7559 -0.9678 0.0000 -0.2619 0.0000
# 3 6.5651 -0.9678 62.6175 0.0000 -6.6223 0.0000
# 4 0.0000 0.0000 0.0000 16.5569 0.0000 -3.7158
# 5 -3.1194 -0.2619 -6.6223 0.0000 32.1312 0.0000
# 6 0.0000 0.0000 0.0000 -3.7158 0.0000 26.9658
#
#
#
# Elastic Compliance Matrix: (Units=1/GPa)
#
#
# Indices 1 2 3 4 5 6 
#
# 1 0.010978 -0.000843 -0.001075 0.000000 0.000837 0.000000
# 2 -0.000843 0.059814 0.001079 0.000000 0.000628 0.000000
# 3 -0.001075 0.001079 0.016448 0.000000 0.003294 0.000000
# 4 0.000000 0.000000 0.000000 0.062325 0.000000 0.008588
# 5 0.000837 0.000628 0.003294 0.000000 0.031888 0.000000
# 6 0.000000 0.000000 0.000000 0.008588 0.000000 0.038267
#
#
# Mechanical properties :
#
#
# Convention : Reuss Voigt Hill
#
# Bulk Modulus (GPa) = 11.68749 20.56163 16.12456
# Shear Modulus (GPa) = 20.00653 26.10600 23.05626
#
# Velocity S-wave (km/s) = 3.06811 3.50473 3.29366
# Velocity P-wave (km/s) = 4.24855 5.10412 4.69586
#
# Compressibility (1/GPa) = 0.08556155
#
# Stress axis : x y z
#
# Youngs Moduli (GPa) = 91.08957 16.71861 60.79837
#
# Poissons Ratio (x) = 0.01409 0.06539
# Poissons Ratio (y) = 0.07677 -0.06562
# Poissons Ratio (z) = 0.09796 -0.01804
#
# Static dielectric constant tensor:
#      x y z
#    x 1.797590 0.000000 -0.000070 
#    y 0.000000 1.793070 0.000000 
#    z -0.000070 0.000000 1.789890 
# 
# From -- ./inp_files/89486.got.cif
#   From: 2010.05.17/outbox.cif.g08.bks.cpg/sg10_45_cif.got.tgz:89486.got - 2010.06.03 11:33:40.
