data_PCOD9149557
_publ_section_title
;
Structure prediction by ZEFSAII (Michael W. Deem and Ramdas Pophale) SiO2 
 PCOD9149557
Probable space group: P 2/M
;
_chemical_formula_sum "Si O2"
_cell_formula_units_Z 32
_cell_length_a 24.249843
_cell_length_b 7.573177
_cell_length_c 24.247053
_cell_angle_alpha 90.000000
_cell_angle_beta 19.417792
_cell_angle_gamma 90.000000
_cell_volume 1480.394902
_symmetry_space_group_name_H-M "P 2/M"
_symmetry_group_IT_number 10
_symmetry_cell_setting 'monoclinic'
loop_
_space_group_symop_operation_xyz
x,y,z
-x,y,-z
-x,-y,-z
x,-y,z
loop_
_atom_site_type_symbol
_atom_site_label
_atom_site_fract_x
_atom_site_fract_y
_atom_site_fract_z
Si Si1 0.131160 0.799117 0.130656
Si Si2 0.068711 0.699888 0.069246
Si Si3 0.715331 0.213297 0.349423
Si Si4 0.517104 0.216133 0.161511
Si Si5 0.592567 0.215096 0.967740
Si Si6 0.348633 0.786695 0.715951
Si Si7 0.838880 0.783867 0.482514
Si Si8 0.967605 0.215095 0.592697
O O1 0.097786 0.806873 0.097396
O O2 0.974912 0.720446 0.310428
O O3 0.142420 0.000000 0.141924
O O4 0.310902 0.720455 0.974412
O O5 0.078483 0.500000 0.078876
O O6 0.887320 0.730712 0.214416
O O7 0.213316 0.730629 0.888148
O O8 0.705413 0.269868 0.294683
O O9 0.540988 0.270474 0.541863
O O10 0.714807 0.000000 0.350206
O O11 0.348853 0.276277 0.349290
O O12 0.515707 0.000000 0.165021
O O13 0.514834 0.267460 0.099257
O O14 0.784432 0.268160 0.784578
O O15 0.588239 0.000000 0.970761
O O16 0.500000 0.276329 0.000000
O O17 0.349356 0.000000 0.715499
O O18 0.900962 0.732549 0.484959
O O19 0.835388 0.000000 0.483888
O O20 0.000000 0.276339 0.500000
O O21 0.970616 0.000000 0.588379
#
# Coordination Sequence:
#
# PCOD9149557 Si02
#       8
#     4   4   4   4   4   4   4   4
#     4  10  20  35  51  68  96 137 186 232 268 318
#     4  12  25  37  54  83 118 154 192 234 286 336
#     4   9  19  38  64  91 118 150 189 231 275 328
#     4   9  16  27  43  63  88 123 167 214 265 320
#     4   9  14  20  32  55  89 125 156 193 252 328
#     4   9  19  38  64  91 118 150 189 231 275 328
#     4   9  16  27  43  63  88 123 167 214 265 320
#     4   9  14  20  32  55  89 125 156 193 252 328
#
# _framework density 21.615853999999999
#
# number of rings (size 3 to 8) (size 9 to 14) (size 15 to 20)
#    0.000    2.500    1.250    3.000    0.000    6.500 
#    0.000    3.750    0.000    0.000    0.000    0.000 
#    0.000    1.000    0.000    0.000    0.000    0.000 
#
# Total GULP energy -178632.823726 kJ/mol
# GULP energy per Si atom -5582.275741 kJ/mol
# Density = 2.156666 g / cm^3
# Si number density = 21.615854 Si / 1000 Ang^3
#
#
#
# Elastic Constant Matrix: (Units=GPa)
#
#
# Indices 1 2 3 4 5 6 
#
# 1 98.9505 -4.7680 89.6936 0.0000 -4.6292 0.0000
# 2 -4.7680 51.7458 5.1168 0.0000 -1.7888 0.0000
# 3 89.6936 5.1168 215.5230 0.0000 -17.9444 0.0000
# 4 0.0000 0.0000 0.0000 32.7061 0.0000 -17.0613
# 5 -4.6292 -1.7888 -17.9444 0.0000 18.1791 0.0000
# 6 0.0000 0.0000 0.0000 -17.0613 0.0000 -61.4091
#
#
#
# Elastic Compliance Matrix: (Units=1/GPa)
#
#
# Indices 1 2 3 4 5 6 
#
# 1 0.016590 0.002147 -0.007176 0.000000 -0.002647 0.000000
# 2 0.002147 0.019690 -0.001257 0.000000 0.001243 0.000000
# 3 -0.007176 -0.001257 0.008165 0.000000 0.006108 0.000000
# 4 0.000000 0.000000 0.000000 0.026705 0.000000 -0.007419
# 5 -0.002647 0.001243 0.006108 0.000000 0.060486 0.000000
# 6 0.000000 0.000000 0.000000 -0.007419 0.000000 -0.014223
#
#
# Mechanical properties :
#
#
# Convention : Reuss Voigt Hill
#
# Bulk Modulus (GPa) = 31.37518 60.70045 46.03781
# Shear Modulus (GPa) = 35.55952 16.30701 25.93327
#
# Velocity S-wave (km/s) = 4.06034 2.74961 3.46747
# Velocity P-wave (km/s) = 6.04386 6.18247 6.11356
#
# Compressibility (1/GPa) = 0.03187233
#
# Stress axis : x y z
#
# Youngs Moduli (GPa) = 60.27759 50.78633 122.48125
#
# Poissons Ratio (x) = -0.10902 0.87887
# Poissons Ratio (y) = -0.12940 0.15400
# Poissons Ratio (z) = 0.43252 0.06386
#
# Static dielectric constant tensor:
#      x y z
#    x 1.743730 0.000000 -0.006820 
#    y 0.000000 1.841430 0.000000 
#    z -0.006820 0.000000 1.780980 
# 
# From -- ./inp_files/90585.got.cif
#   From: 2010.05.17/outbox.cif.g08.bks.cpg/sg10_46_cif.got.tgz:90585.got - 2010.06.03 11:33:40.
