data_PCOD9149830
_publ_section_title
;
Structure prediction by ZEFSAII (Michael W. Deem and Ramdas Pophale) SiO2 
 PCOD9149830
Probable space group: P 2/M
;
_chemical_formula_sum "Si O2"
_cell_formula_units_Z 24
_cell_length_a 9.184067
_cell_length_b 14.118727
_cell_length_c 15.617503
_cell_angle_alpha 90.000000
_cell_angle_beta 37.970081
_cell_angle_gamma 90.000000
_cell_volume 1245.930269
_symmetry_space_group_name_H-M "P 2/M"
_symmetry_group_IT_number 10
_symmetry_cell_setting 'monoclinic'
loop_
_space_group_symop_operation_xyz
x,y,z
-x,y,-z
-x,-y,-z
x,-y,z
loop_
_atom_site_type_symbol
_atom_site_label
_atom_site_fract_x
_atom_site_fract_y
_atom_site_fract_z
Si Si1 0.780060 0.790266 0.872076
Si Si2 0.941936 0.106393 0.640929
Si Si3 0.739337 0.293110 0.644150
Si Si4 0.949201 0.893022 0.123480
Si Si5 0.705896 0.605900 0.832029
Si Si6 0.539958 0.809338 0.583274
O O1 0.857987 0.875577 0.775840
O O2 0.871338 0.690758 0.790813
O O3 0.879856 0.813777 0.917091
O O4 0.500000 0.787159 0.000000
O O5 0.801965 0.187832 0.653269
O O6 0.220907 0.128905 0.516677
O O7 0.892022 0.000000 0.635574
O O8 0.632269 0.354182 0.772196
O O9 0.590377 0.277376 0.626503
O O10 0.000000 0.333269 0.500000
O O11 0.686769 0.864653 0.275217
O O12 0.999392 0.000000 0.130282
O O13 0.000000 0.892850 0.000000
O O14 0.804130 0.500000 0.777876
O O15 0.500000 0.599652 0.000000
O O16 0.500000 0.788622 0.500000
#
# Coordination Sequence:
#
# PCOD9149830 Si02
#       6
#     4   4   4   4   4   4
#     4  10  21  37  58  84 114 152 191 244 291 343
#     4  10  20  35  56  82 113 156 202 237 277 337
#     4   9  21  37  57  88 115 151 192 240 291 337
#     4  11  25  38  54  85 122 162 198 237 290 342
#     4   9  19  37  64  89 109 141 191 243 298 353
#     4  11  22  38  57  80 118 164 199 237 278 339
#
# _framework density 19.262715
#
# number of rings (size 3 to 8) (size 9 to 14) (size 15 to 20)
#    0.000    2.000    1.667    1.000    7.000    6.000 
#    0.000    0.000    0.000    2.000    0.000    0.000 
#    0.000    0.000    0.000    0.000    0.000    0.000 
#
# Total GULP energy -133629.248862 kJ/mol
# GULP energy per Si atom -5567.885369 kJ/mol
# Density = 1.921887 g / cm^3
# Si number density = 19.262715 Si / 1000 Ang^3
#
#
#
# Elastic Constant Matrix: (Units=GPa)
#
#
# Indices 1 2 3 4 5 6 
#
# 1 92.0379 49.7724 28.1159 0.0000 23.9876 0.0000
# 2 49.7724 106.5138 36.3433 0.0000 11.7859 0.0000
# 3 28.1159 36.3433 86.2100 0.0000 19.0185 0.0000
# 4 0.0000 0.0000 0.0000 -1.6142 0.0000 -7.6178
# 5 23.9876 11.7859 19.0185 0.0000 39.6936 0.0000
# 6 0.0000 0.0000 0.0000 -7.6178 0.0000 14.1130
#
#
#
# Elastic Compliance Matrix: (Units=1/GPa)
#
#
# Indices 1 2 3 4 5 6 
#
# 1 0.016762 -0.006652 -0.000965 0.000000 -0.007692 0.000000
# 2 -0.006652 0.013654 -0.004002 0.000000 0.001883 0.000000
# 3 -0.000965 -0.004002 0.014772 0.000000 -0.005306 0.000000
# 4 0.000000 0.000000 0.000000 -0.174641 0.000000 -0.094266
# 5 -0.007692 0.001883 -0.005306 0.000000 0.031824 0.000000
# 6 0.000000 0.000000 0.000000 -0.094266 0.000000 0.019974
#
#
# Mechanical properties :
#
#
# Convention : Reuss Voigt Hill
#
# Bulk Modulus (GPa) = 45.56042 57.02500 51.29271
# Shear Modulus (GPa) = -106.16090 21.80716 -42.17687
#
# Velocity S-wave (km/s) = -7.43181 3.36831 -4.68435
# Velocity P-wave (km/s) = 7.06674 6.69294 1.60366
#
# Compressibility (1/GPa) = 0.02194888
#
# Stress axis : x y z
#
# Youngs Moduli (GPa) = 59.65844 73.23826 67.69489
#
# Poissons Ratio (x) = 0.48719 0.06536
# Poissons Ratio (y) = 0.39686 0.27092
# Poissons Ratio (z) = 0.05760 0.29311
#
# Static dielectric constant tensor:
#      x y z
#    x 1.726750 0.000000 0.036320 
#    y 0.000000 1.696780 0.000000 
#    z 0.036320 0.000000 1.730450 
# 
# From -- ./inp_files/61646.got.cif
#   From: 2010.05.17/outbox.cif.g08.bks.cpg/sg10_31_cif.got.tgz:61646.got - 2010.06.03 11:33:40.
