data_PCOD9149939
_publ_section_title
;
Structure prediction by ZEFSAII (Michael W. Deem and Ramdas Pophale) SiO2 
 PCOD9149939
Probable space group: P 2/M
;
_chemical_formula_sum "Si O2"
_cell_formula_units_Z 32
_cell_length_a 15.456969
_cell_length_b 7.906038
_cell_length_c 22.735584
_cell_angle_alpha 90.000000
_cell_angle_beta 147.988475
_cell_angle_gamma 90.000000
_cell_volume 1472.783215
_symmetry_space_group_name_H-M "P 2/M"
_symmetry_group_IT_number 10
_symmetry_cell_setting 'monoclinic'
loop_
_space_group_symop_operation_xyz
x,y,z
-x,y,-z
-x,-y,-z
x,-y,z
loop_
_atom_site_type_symbol
_atom_site_label
_atom_site_fract_x
_atom_site_fract_y
_atom_site_fract_z
Si Si1 0.998821 0.704564 0.179030
Si Si2 0.696693 0.308444 0.940191
Si Si3 0.164786 0.808494 0.676520
Si Si4 0.374051 0.701050 0.690145
Si Si5 0.036375 0.205074 0.330441
Si Si6 0.488069 0.194265 0.058900
Si Si7 0.634875 0.697980 0.622556
Si Si8 0.614848 0.802397 0.435685
O O1 0.996112 0.500000 0.172098
O O2 0.955078 0.745869 0.221758
O O3 0.183121 0.769732 0.275287
O O4 0.872194 0.770594 0.056599
O O5 0.721300 0.500000 0.932637
O O6 0.547962 0.231164 0.816509
O O7 0.617734 0.308096 0.959601
O O8 0.225036 0.732256 0.649538
O O9 0.332168 0.813798 0.810268
O O10 0.041212 0.729801 0.652951
O O11 0.109571 0.000000 0.632106
O O12 0.389865 0.500000 0.693575
O O13 0.350100 0.778917 0.612722
O O14 0.224598 0.262721 0.437840
O O15 0.031182 0.000000 0.330834
O O16 0.423259 0.000000 0.020696
O O17 0.500000 0.257242 0.000000
O O18 0.500000 0.772954 0.500000
O O19 0.651669 0.500000 0.617445
O O20 0.548353 0.714096 0.635822
O O21 0.597073 0.000000 0.437998
#
# Coordination Sequence:
#
# PCOD9149939 Si02
#       8
#     4   4   4   4   4   4   4   4
#     4  10  20  35  57  84 113 141 175 222 274 326
#     4   9  19  34  52  76 105 140 179 220 265 314
#     4   9  18  33  51  74 107 145 183 223 267 315
#     4  10  21  38  57  77 107 147 189 226 264 314
#     4  10  21  35  54  82 113 144 180 223 272 324
#     4   9  16  27  46  71 101 139 180 219 262 313
#     4  10  20  37  60  85 111 140 174 217 273 330
#     4  11  23  38  58  82 109 143 182 225 272 323
#
# _framework density 21.727568999999999
#
# number of rings (size 3 to 8) (size 9 to 14) (size 15 to 20)
#    0.000    2.250    1.250    1.500    0.000    4.500 
#    0.000    5.625    0.000    3.750    0.000    0.000 
#    0.000    0.000    0.000    0.000    0.000    0.000 
#
# Total GULP energy -178433.594525 kJ/mol
# GULP energy per Si atom -5576.049829 kJ/mol
# Density = 2.167812 g / cm^3
# Si number density = 21.727569 Si / 1000 Ang^3
#
#
#
# Elastic Constant Matrix: (Units=GPa)
#
#
# Indices 1 2 3 4 5 6 
#
# 1 60.9463 -3.8941 4.9860 0.0000 9.5484 0.0000
# 2 -3.8941 31.8458 2.4469 0.0000 3.8065 0.0000
# 3 4.9860 2.4469 68.1144 0.0000 13.4141 0.0000
# 4 0.0000 0.0000 0.0000 11.6531 0.0000 -2.2599
# 5 9.5484 3.8065 13.4141 0.0000 34.6871 0.0000
# 6 0.0000 0.0000 0.0000 -2.2599 0.0000 27.6335
#
#
#
# Elastic Compliance Matrix: (Units=1/GPa)
#
#
# Indices 1 2 3 4 5 6 
#
# 1 0.017389 0.002747 -0.000400 0.000000 -0.004933 0.000000
# 2 0.002747 0.032268 -0.000556 0.000000 -0.004082 0.000000
# 3 -0.000400 -0.000556 0.015908 0.000000 -0.005981 0.000000
# 4 0.000000 0.000000 0.000000 0.087197 0.000000 0.007131
# 5 -0.004933 -0.004082 -0.005981 0.000000 0.032948 0.000000
# 6 0.000000 0.000000 0.000000 0.007131 0.000000 0.036771
#
#
# Mechanical properties :
#
#
# Convention : Reuss Voigt Hill
#
# Bulk Modulus (GPa) = 14.46215 18.66491 16.56353
# Shear Modulus (GPa) = 20.66551 25.28592 22.97571
#
# Velocity S-wave (km/s) = 3.08737 3.41511 3.25537
# Velocity P-wave (km/s) = 4.40224 4.91525 4.66580
#
# Compressibility (1/GPa) = 0.06914602
#
# Stress axis : x y z
#
# Youngs Moduli (GPa) = 57.50754 30.99056 62.86033
#
# Poissons Ratio (x) = -0.08512 0.02514
# Poissons Ratio (y) = -0.15796 0.03497
# Poissons Ratio (z) = 0.02300 0.01724
#
# Static dielectric constant tensor:
#      x y z
#    x 1.794770 0.000000 0.024430 
#    y 0.000000 1.805410 0.000000 
#    z 0.024430 0.000000 1.857210 
# 
# From -- ./inp_files/71698.got.cif
#   From: 2010.05.17/outbox.cif.g08.bks.cpg/sg10_36_cif.got.tgz:71698.got - 2010.06.03 11:33:40.
