data_PCOD9149194
_publ_section_title
;
Structure prediction by ZEFSAII (Michael W. Deem and Ramdas Pophale) SiO2 
 PCOD9149194
Probable space group: P 2/M
;
_chemical_formula_sum "Si O2"
_cell_formula_units_Z 24
_cell_length_a 15.073462
_cell_length_b 9.474684
_cell_length_c 14.453948
_cell_angle_alpha 90.000000
_cell_angle_beta 32.438295
_cell_angle_gamma 90.000000
_cell_volume 1107.250070
_symmetry_space_group_name_H-M "P 2/M"
_symmetry_group_IT_number 10
_symmetry_cell_setting 'monoclinic'
loop_
_space_group_symop_operation_xyz
x,y,z
-x,y,-z
-x,-y,-z
x,-y,z
loop_
_atom_site_type_symbol
_atom_site_label
_atom_site_fract_x
_atom_site_fract_y
_atom_site_fract_z
Si Si1 0.726718 0.335099 0.473177
Si Si2 0.126699 0.664537 0.311019
Si Si3 0.126699 0.164537 0.811019
Si Si4 0.726718 0.164901 0.973177
Si Si5 0.401806 0.661470 0.217256
Si Si6 0.401807 0.838530 0.717256
O O1 0.738453 0.500000 0.441439
O O2 0.857002 0.249511 0.297583
O O3 0.726584 0.318962 0.584352
O O4 0.547266 0.272643 0.602552
O O5 0.087711 0.500000 0.327233
O O6 0.142998 0.749510 0.202417
O O7 0.303093 0.671006 0.208889
O O8 0.000000 0.718834 0.500000
O O9 0.303093 0.171006 0.708889
O O10 0.087712 0.000000 0.827233
O O11 0.000000 0.218834 0.000000
O O12 0.738453 0.000000 0.941439
O O13 0.547266 0.227357 0.102552
O O14 0.726584 0.181037 0.084352
O O15 0.467216 0.500000 0.169048
O O16 0.467216 0.000000 0.669048
#
# Coordination Sequence:
#
# PCOD9149194 Si02
#       6
#     4   4   4   4   4   4
#     4  10  20  34  54  79 103 130 169 214 254 294
#     4  10  21  36  53  74 103 139 172 203 249 307
#     4  10  21  36  53  74 103 139 172 203 249 307
#     4  10  20  34  54  79 103 130 169 214 254 294
#     4   9  19  36  55  75 102 135 169 207 253 303
#     4   9  19  36  55  75 102 135 169 207 253 303
#
# _framework density 21.675321
#
# number of rings (size 3 to 8) (size 9 to 14) (size 15 to 20)
#    0.000    2.333    0.000    2.000    0.000    8.667 
#    0.000    0.000    0.000    0.000    0.000    0.000 
#    0.000    0.000    0.000    0.000    0.000    0.000 
#
# Total GULP energy -134139.279218 kJ/mol
# GULP energy per Si atom -5589.136634 kJ/mol
# Density = 2.162599 g / cm^3
# Si number density = 21.675321 Si / 1000 Ang^3
#
#
#
# Elastic Constant Matrix: (Units=GPa)
#
#
# Indices 1 2 3 4 5 6 
#
# 1 63.0730 25.3113 10.8766 0.0000 17.5579 0.0000
# 2 25.3113 76.2112 51.1437 0.0000 29.9335 0.0000
# 3 10.8766 51.1437 124.7405 0.0000 34.4651 0.0000
# 4 0.0000 0.0000 0.0000 44.5137 0.0000 6.9254
# 5 17.5579 29.9335 34.4651 0.0000 37.4911 0.0000
# 6 0.0000 0.0000 0.0000 6.9254 0.0000 10.8954
#
#
#
# Elastic Compliance Matrix: (Units=1/GPa)
#
#
# Indices 1 2 3 4 5 6 
#
# 1 0.019566 -0.005336 0.002461 0.000000 -0.007166 0.000000
# 2 -0.005336 0.023047 -0.006153 0.000000 -0.010246 0.000000
# 3 0.002461 -0.006153 0.012448 0.000000 -0.007683 0.000000
# 4 0.000000 0.000000 0.000000 0.024930 0.000000 -0.015846
# 5 -0.007166 -0.010246 -0.007683 0.000000 0.045272 0.000000
# 6 0.000000 0.000000 0.000000 -0.015846 0.000000 0.101854
#
#
# Mechanical properties :
#
#
# Convention : Reuss Voigt Hill
#
# Bulk Modulus (GPa) = 27.02251 48.74309 37.88280
# Shear Modulus (GPa) = 19.41693 30.35959 24.88826
#
# Velocity S-wave (km/s) = 2.99625 3.74659 3.39223
# Velocity P-wave (km/s) = 4.94611 6.42282 5.73222
#
# Compressibility (1/GPa) = 0.03700618
#
# Stress axis : x y z
#
# Youngs Moduli (GPa) = 51.10859 43.38957 80.33704
#
# Poissons Ratio (x) = 0.23151 -0.19775
# Poissons Ratio (y) = 0.27269 0.49433
# Poissons Ratio (z) = -0.12580 0.26698
#
# Static dielectric constant tensor:
#      x y z
#    x 1.784550 0.000000 -0.016600 
#    y 0.000000 1.716950 0.000000 
#    z -0.016600 0.000000 1.855570 
# 
# From -- ./inp_files/27226.got.cif
#   From: 2010.05.17/outbox.cif.g08.bks.cpg/sg10_14_cif.got.tgz:27226.got - 2010.06.03 11:33:40.
