data_PCOD9149738
_publ_section_title
;
Structure prediction by ZEFSAII (Michael W. Deem and Ramdas Pophale) SiO2 
 PCOD9149738
Probable space group: P 2/M
;
_chemical_formula_sum "Si O2"
_cell_formula_units_Z 30
_cell_length_a 5.282291
_cell_length_b 18.541458
_cell_length_c 15.129427
_cell_angle_alpha 90.000000
_cell_angle_beta 81.098787
_cell_angle_gamma 90.000000
_cell_volume 1463.951022
_symmetry_space_group_name_H-M "P 2/M"
_symmetry_group_IT_number 10
_symmetry_cell_setting 'monoclinic'
loop_
_space_group_symop_operation_xyz
x,y,z
-x,y,-z
-x,-y,-z
x,-y,z
loop_
_atom_site_type_symbol
_atom_site_label
_atom_site_fract_x
_atom_site_fract_y
_atom_site_fract_z
Si Si1 0.000000 0.181043 0.000000
Si Si2 0.056731 0.228795 0.323290
Si Si3 0.005876 0.700998 0.855692
Si Si4 0.594914 0.416778 0.242395
Si Si5 0.645373 0.083653 0.105757
Si Si6 0.514025 0.696131 0.396110
Si Si7 0.103938 0.915772 0.225655
Si Si8 0.720622 0.574314 0.916683
O O1 0.930600 0.231800 0.086647
O O2 0.756714 0.128062 0.017070
O O3 0.120439 0.266350 0.225317
O O4 0.273017 0.255311 0.379027
O O5 0.055861 0.143473 0.304324
O O6 0.777307 0.260019 0.363267
O O7 0.832798 0.651767 0.926450
O O8 0.208331 0.640999 0.811291
O O9 0.683399 0.500000 0.253198
O O10 0.511287 0.376346 0.336277
O O11 0.378943 0.422884 0.178555
O O12 0.376326 0.103930 0.165523
O O13 0.870383 0.089211 0.168379
O O14 0.628377 0.000000 0.082165
O O15 0.500000 0.678931 0.500000
O O16 0.120131 0.000000 0.253064
O O17 0.880684 0.500000 0.915883
O O18 0.500000 0.568322 0.000000
#
# Coordination Sequence:
#
# PCOD9149738 Si02
#       8
#     2   4   4   4   4   4   4   4
#     4  12  23  36  55  90 126 178 222 272 309 374
#     4  11  22  41  67  92 132 161 206 259 319 381
#     4  11  22  36  56  85 120 167 212 263 308 373
#     4  10  22  40  61  86 123 164 208 264 322 380
#     4  10  22  39  57  88 130 173 219 269 313 364
#     4  11  24  43  69  99 126 161 205 263 331 391
#     4  10  21  40  65  91 126 171 216 257 315 381
#     4  10  20  35  55  81 117 163 209 258 309 367
#
# _framework density 20.492488999999999
#
# number of rings (size 3 to 8) (size 9 to 14) (size 15 to 20)
#    0.000    1.467    2.667    2.600    1.867    1.867 
#    2.400    4.667    0.000    4.800    0.000    0.000 
#    0.000    0.000    0.000    0.000    0.000    0.000 
#
# Total GULP energy -167319.363635 kJ/mol
# GULP energy per Si atom -5577.312121 kJ/mol
# Density = 2.044585 g / cm^3
# Si number density = 20.492489 Si / 1000 Ang^3
#
#
#
# Elastic Constant Matrix: (Units=GPa)
#
#
# Indices 1 2 3 4 5 6 
#
# 1 100.3131 18.9245 28.1201 0.0000 6.3190 0.0000
# 2 18.9245 133.0401 42.7724 0.0000 -5.3184 0.0000
# 3 28.1201 42.7724 104.3916 0.0000 16.3093 0.0000
# 4 0.0000 0.0000 0.0000 22.6962 0.0000 -10.7904
# 5 6.3190 -5.3184 16.3093 0.0000 26.2918 0.0000
# 6 0.0000 0.0000 0.0000 -10.7904 0.0000 15.7879
#
#
#
# Elastic Compliance Matrix: (Units=1/GPa)
#
#
# Indices 1 2 3 4 5 6 
#
# 1 0.010877 -0.000832 -0.002385 0.000000 -0.001303 0.000000
# 2 -0.000832 0.009200 -0.004282 0.000000 0.004718 0.000000
# 3 -0.002385 -0.004282 0.013312 0.000000 -0.008551 0.000000
# 4 0.000000 0.000000 0.000000 0.065268 0.000000 0.044608
# 5 -0.001303 0.004718 -0.008551 0.000000 0.044606 0.000000
# 6 0.000000 0.000000 0.000000 0.044608 0.000000 0.093827
#
#
# Mechanical properties :
#
#
# Convention : Reuss Voigt Hill
#
# Bulk Modulus (GPa) = 54.38001 57.48651 55.93326
# Shear Modulus (GPa) = 19.36324 29.48371 24.42347
#
# Velocity S-wave (km/s) = 3.07725 3.79721 3.45603
# Velocity P-wave (km/s) = 6.26260 6.88029 6.57870
#
# Compressibility (1/GPa) = 0.01838911
#
# Stress axis : x y z
#
# Youngs Moduli (GPa) = 91.94115 108.69159 75.11785
#
# Poissons Ratio (x) = 0.09047 0.17917
# Poissons Ratio (y) = 0.07653 0.32169
# Poissons Ratio (z) = 0.21930 0.46547
#
# Static dielectric constant tensor:
#      x y z
#    x 1.860770 0.000000 -0.011350 
#    y 0.000000 1.760240 0.000000 
#    z -0.011350 0.000000 1.721770 
# 
# From -- ./inp_files/59403.got.cif
#   From: 2010.05.17/outbox.cif.g08.bks.cpg/sg10_30_cif.got.tgz:59403.got - 2010.06.03 11:33:40.
