data_PCOD9149717
_publ_section_title
;
Structure prediction by ZEFSAII (Michael W. Deem and Ramdas Pophale) SiO2 
 PCOD9149717
Probable space group: P 2/M
;
_chemical_formula_sum "Si O2"
_cell_formula_units_Z 24
_cell_length_a 20.999233
_cell_length_b 8.702274
_cell_length_c 8.304670
_cell_angle_alpha 90.000000
_cell_angle_beta 124.410266
_cell_angle_gamma 90.000000
_cell_volume 1252.042198
_symmetry_space_group_name_H-M "P 2/M"
_symmetry_group_IT_number 10
_symmetry_cell_setting 'monoclinic'
loop_
_space_group_symop_operation_xyz
x,y,z
-x,y,-z
-x,-y,-z
x,-y,z
loop_
_atom_site_type_symbol
_atom_site_label
_atom_site_fract_x
_atom_site_fract_y
_atom_site_fract_z
Si Si1 0.167697 0.316985 0.744556
Si Si2 0.670761 0.181831 0.940267
Si Si3 0.089422 0.314692 0.292045
Si Si4 0.915640 0.815729 0.057224
Si Si5 0.496388 0.171797 0.182744
Si Si6 0.586542 0.678455 0.550491
O O1 0.157133 0.500000 0.744916
O O2 0.134910 0.272123 0.521166
O O3 0.126490 0.238200 0.839560
O O4 0.256997 0.271293 0.887469
O O5 0.589366 0.231554 0.901628
O O6 0.652642 0.222947 0.728685
O O7 0.681416 0.000000 0.977222
O O8 0.087666 0.500000 0.278068
O O9 0.002650 0.250401 0.187943
O O10 0.118468 0.248483 0.161306
O O11 0.916882 0.000000 0.051950
O O12 0.567564 0.273681 0.343081
O O13 0.502814 0.000000 0.266922
O O14 0.500000 0.157380 0.000000
O O15 0.500000 0.709698 0.500000
O O16 0.603381 0.500000 0.596249
#
# Coordination Sequence:
#
# PCOD9149717 Si02
#       6
#     4   4   4   4   4   4
#     4  11  23  39  59  84 118 157 195 238 293 349
#     4  10  20  35  55  79 108 144 184 231 283 337
#     4  10  21  39  62  86 117 157 197 241 287 343
#     4  11  22  37  61  90 118 152 195 243 289 344
#     4   9  18  34  55  79 107 141 182 229 280 335
#     4   9  17  31  52  75 101 136 177 221 266 324
#
# _framework density 19.168683000000001
#
# number of rings (size 3 to 8) (size 9 to 14) (size 15 to 20)
#    0.000    2.000    0.000    5.000    0.000    7.667 
#    3.000    0.000    0.000    0.000    0.000    0.000 
#    0.000    0.000    0.000    0.000    0.000    0.000 
#
# Total GULP energy -133762.383296 kJ/mol
# GULP energy per Si atom -5573.432637 kJ/mol
# Density = 1.912505 g / cm^3
# Si number density = 19.168683 Si / 1000 Ang^3
#
#
#
# Elastic Constant Matrix: (Units=GPa)
#
#
# Indices 1 2 3 4 5 6 
#
# 1 45.1220 19.5255 56.1629 0.0000 -8.0807 0.0000
# 2 19.5255 67.0411 46.1591 0.0000 -7.7292 0.0000
# 3 56.1629 46.1591 158.7524 0.0000 -16.1033 0.0000
# 4 0.0000 0.0000 0.0000 502.4022 0.0000 410.9128
# 5 -8.0807 -7.7292 -16.1033 0.0000 24.7064 0.0000
# 6 0.0000 0.0000 0.0000 410.9128 0.0000 373.8189
#
#
#
# Elastic Compliance Matrix: (Units=1/GPa)
#
#
# Indices 1 2 3 4 5 6 
#
# 1 0.040240 -0.002178 -0.013210 0.000000 0.003870 0.000000
# 2 -0.002178 0.018909 -0.004497 0.000000 0.002272 0.000000
# 3 -0.013210 -0.004497 0.012527 0.000000 0.002438 0.000000
# 4 0.000000 0.000000 0.000000 0.019718 0.000000 -0.021675
# 5 0.003870 0.002272 0.002438 0.000000 0.044041 0.000000
# 6 0.000000 0.000000 0.000000 -0.021675 0.000000 0.026501
#
#
# Mechanical properties :
#
#
# Convention : Reuss Voigt Hill
#
# Bulk Modulus (GPa) = 31.34223 57.17896 44.26059
# Shear Modulus (GPa) = 23.54696 190.12338 106.83517
#
# Velocity S-wave (km/s) = 3.50867 9.96994 7.47363
# Velocity P-wave (km/s) = 5.72718 12.74469 9.87997
#
# Compressibility (1/GPa) = 0.03190583
#
# Stress axis : x y z
#
# Youngs Moduli (GPa) = 24.85071 52.88562 79.82524
#
# Poissons Ratio (x) = 0.11520 1.05451
# Poissons Ratio (y) = 0.05413 0.35896
# Poissons Ratio (z) = 0.32828 0.23782
#
# Static dielectric constant tensor:
#      x y z
#    x 1.710070 0.000000 -0.069160 
#    y 0.000000 1.669380 0.000000 
#    z -0.069160 0.000000 1.716860 
# 
# From -- ./inp_files/33948.got.cif
#   From: 2010.05.17/outbox.cif.g08.bks.cpg/sg10_17_cif.got.tgz:33948.got - 2010.06.03 11:33:40.
