data_PCOD9149527
_publ_section_title
;
Structure prediction by ZEFSAII (Michael W. Deem and Ramdas Pophale) SiO2 
 PCOD9149527
Probable space group: P 2/M
;
_chemical_formula_sum "Si O2"
_cell_formula_units_Z 32
_cell_length_a 11.546990
_cell_length_b 7.463920
_cell_length_c 15.533307
_cell_angle_alpha 90.000000
_cell_angle_beta 97.109844
_cell_angle_gamma 90.000000
_cell_volume 1328.456567
_symmetry_space_group_name_H-M "P 2/M"
_symmetry_group_IT_number 10
_symmetry_cell_setting 'monoclinic'
loop_
_space_group_symop_operation_xyz
x,y,z
-x,y,-z
-x,-y,-z
x,-y,z
loop_
_atom_site_type_symbol
_atom_site_label
_atom_site_fract_x
_atom_site_fract_y
_atom_site_fract_z
Si Si1 0.038877 0.798760 0.095867
Si Si2 0.630595 0.797076 0.487969
Si Si3 0.369909 0.281981 0.011169
Si Si4 0.639515 0.717132 0.291058
Si Si5 0.098417 0.289705 0.441241
Si Si6 0.388898 0.719085 0.203062
Si Si7 0.823951 0.707412 0.727063
Si Si8 0.197488 0.718036 0.843343
O O1 0.126480 0.710316 0.171276
O O2 0.924120 0.800095 0.143347
O O3 0.080186 0.000000 0.080606
O O4 0.000000 0.716586 0.000000
O O5 0.500000 0.718397 0.500000
O O6 0.634494 0.792665 0.385249
O O7 0.761661 0.723956 0.523400
O O8 0.629104 0.000000 0.521420
O O9 0.366983 0.500000 0.011535
O O10 0.346225 0.220749 0.105520
O O11 0.500000 0.227474 0.000000
O O12 0.283197 0.227435 0.928556
O O13 0.641091 0.500000 0.298068
O O14 0.522161 0.768899 0.230070
O O15 0.748845 0.769814 0.242899
O O16 0.068561 0.500000 0.433819
O O17 0.097973 0.215197 0.342764
O O18 0.000000 0.216284 0.500000
O O19 0.386500 0.500000 0.203125
O O20 0.305522 0.784298 0.271874
O O21 0.809378 0.500000 0.702578
O O22 0.186723 0.500000 0.843231
#
# Coordination Sequence:
#
# PCOD9149527 Si02
#       8
#     4   4   4   4   4   4   4   4
#     4  11  25  42  58  81 120 166 207 247 294 352
#     4  11  25  43  63  90 126 167 210 254 307 377
#     4   9  14  25  47  80 116 144 178 232 288 343
#     4  10  20  35  60  92 122 153 193 247 309 366
#     4  10  23  43  67  96 127 159 205 267 325 377
#     4   9  16  29  53  86 118 148 188 239 297 353
#     4  10  21  38  63  91 118 152 199 252 303 357
#     4  10  20  34  58  88 117 151 195 247 302 359
#
# _framework density 24.088103
#
# number of rings (size 3 to 8) (size 9 to 14) (size 15 to 20)
#    0.000    2.000    1.250    2.250    1.750    5.250 
#    0.000    0.625    0.000    1.125    0.000    0.000 
#    0.000    0.000    0.000    0.000    0.000    0.000 
#
# Total GULP energy -178533.743122 kJ/mol
# GULP energy per Si atom -5579.179473 kJ/mol
# Density = 2.403328 g / cm^3
# Si number density = 24.088103 Si / 1000 Ang^3
#
#
#
# Elastic Constant Matrix: (Units=GPa)
#
#
# Indices 1 2 3 4 5 6 
#
# 1 113.8573 -3.6150 39.1395 0.0000 -38.9254 0.0000
# 2 -3.6150 67.6040 0.9786 0.0000 -6.6238 0.0000
# 3 39.1395 0.9786 142.5474 0.0000 -34.7593 0.0000
# 4 0.0000 0.0000 0.0000 31.3145 0.0000 1.7236
# 5 -38.9254 -6.6238 -34.7593 0.0000 43.5910 0.0000
# 6 0.0000 0.0000 0.0000 1.7236 0.0000 18.8040
#
#
#
# Elastic Compliance Matrix: (Units=1/GPa)
#
#
# Indices 1 2 3 4 5 6 
#
# 1 0.012946 0.001798 -0.000846 0.000000 0.011159 0.000000
# 2 0.001798 0.015302 0.000447 0.000000 0.004287 0.000000
# 3 -0.000846 0.000447 0.008785 0.000000 0.006318 0.000000
# 4 0.000000 0.000000 0.000000 0.032096 0.000000 -0.002942
# 5 0.011159 0.004287 0.006318 0.000000 0.038594 0.000000
# 6 0.000000 0.000000 0.000000 -0.002942 0.000000 0.053450
#
#
# Mechanical properties :
#
#
# Convention : Reuss Voigt Hill
#
# Bulk Modulus (GPa) = 25.10704 44.11276 34.60990
# Shear Modulus (GPa) = 29.12878 37.90894 33.51886
#
# Velocity S-wave (km/s) = 3.48121 3.97137 3.73434
# Velocity P-wave (km/s) = 5.15792 6.27550 5.74395
#
# Compressibility (1/GPa) = 0.03982946
#
# Stress axis : x y z
#
# Youngs Moduli (GPa) = 77.24549 65.35222 113.83174
#
# Poissons Ratio (x) = -0.11749 0.09629
# Poissons Ratio (y) = -0.13887 -0.05084
# Poissons Ratio (z) = 0.06534 -0.02919
#
# Static dielectric constant tensor:
#      x y z
#    x 1.996010 0.000000 0.028450 
#    y 0.000000 1.962030 0.000000 
#    z 0.028450 0.000000 1.939570 
# 
# From -- ./inp_files/63802.got.cif
#   From: 2010.05.17/outbox.cif.g08.bks.cpg/sg10_32_cif.got.tgz:63802.got - 2010.06.03 11:33:40.
