data_PCOD9149089
_publ_section_title
;
Structure prediction by ZEFSAII (Michael W. Deem and Ramdas Pophale) SiO2 
 PCOD9149089
Probable space group: P 2/M
;
_chemical_formula_sum "Si O2"
_cell_formula_units_Z 28
_cell_length_a 15.583333
_cell_length_b 15.749249
_cell_length_c 7.725561
_cell_angle_alpha 90.000000
_cell_angle_beta 119.720012
_cell_angle_gamma 90.000000
_cell_volume 1646.642240
_symmetry_space_group_name_H-M "P 2/M"
_symmetry_group_IT_number 10
_symmetry_cell_setting 'monoclinic'
loop_
_space_group_symop_operation_xyz
x,y,z
-x,y,-z
-x,-y,-z
x,-y,z
loop_
_atom_site_type_symbol
_atom_site_label
_atom_site_fract_x
_atom_site_fract_y
_atom_site_fract_z
Si Si1 0.811562 0.100357 0.811558
Si Si2 0.887678 0.780173 0.185606
Si Si3 0.615032 0.500000 0.406730
Si Si4 0.689819 0.316057 0.388193
Si Si5 0.112326 0.780174 0.410261
Si Si6 0.310177 0.316058 0.008566
Si Si7 0.610851 0.199462 0.610843
Si Si8 0.384965 0.500000 0.176673
O O1 0.860666 0.143995 0.692643
O O2 0.696788 0.129305 0.696781
O O3 0.822648 0.000000 0.822647
O O4 0.860668 0.143998 0.028678
O O5 0.880762 0.805976 0.380758
O O6 0.804592 0.708234 0.074404
O O7 0.000002 0.751774 0.265532
O O8 0.666507 0.414422 0.393644
O O9 0.499998 0.500000 0.237256
O O10 0.617503 0.500000 0.617498
O O11 0.804587 0.291764 0.534767
O O12 0.666451 0.293478 0.166442
O O13 0.628536 0.259763 0.462259
O O14 0.371458 0.259766 0.205204
O O15 0.333488 0.414423 0.060637
O O16 0.500000 0.165607 0.500000
#
# Coordination Sequence:
#
# PCOD9149089 Si02
#       8
#     4   4   2   4   4   4   4   2
#     4  10  21  35  53  79 106 131 166 210 255 306
#     4   9  19  36  56  77 103 135 169 207 253 304
#     4  11  21  33  50  74 106 138 171 214 255 292
#     4  10  20  34  53  76 103 136 173 212 253 297
#     4   9  19  36  56  77 103 135 169 207 253 304
#     4  10  20  34  53  76 103 136 173 212 253 297
#     4  10  20  35  53  73 102 137 172 211 252 301
#     4  11  21  33  50  74 106 138 171 214 255 292
#
# _framework density 17.004301999999999
#
# number of rings (size 3 to 8) (size 9 to 14) (size 15 to 20)
#    0.000    2.143    1.429    1.714    0.000    4.857 
#    0.000    2.143    0.000    4.286    0.000    8.000 
#    0.000    0.000    0.000    0.000    0.000    0.000 
#
# Total GULP energy -156201.430738 kJ/mol
# GULP energy per Si atom -5578.622526 kJ/mol
# Density = 1.696560 g / cm^3
# Si number density = 17.004302 Si / 1000 Ang^3
#
#
#
# Elastic Constant Matrix: (Units=GPa)
#
#
# Indices 1 2 3 4 5 6 
#
# 1 104.1731 43.4176 56.5655 0.0000 12.0121 0.0000
# 2 43.4176 102.7582 41.4124 0.0000 4.4486 0.0000
# 3 56.5655 41.4124 94.6370 0.0000 9.1225 0.0000
# 4 0.0000 0.0000 0.0000 4.0776 0.0000 1.0968
# 5 12.0121 4.4486 9.1225 0.0000 27.5053 0.0000
# 6 0.0000 0.0000 0.0000 1.0968 0.0000 4.5742
#
#
#
# Elastic Compliance Matrix: (Units=1/GPa)
#
#
# Indices 1 2 3 4 5 6 
#
# 1 0.015461 -0.003389 -0.007396 0.000000 -0.003751 0.000000
# 2 -0.003389 0.012559 -0.003530 0.000000 0.000620 0.000000
# 3 -0.007396 -0.003530 0.016700 0.000000 -0.001738 0.000000
# 4 0.000000 0.000000 0.000000 0.262154 0.000000 -0.062863
# 5 -0.003751 0.000620 -0.001738 0.000000 0.038471 0.000000
# 6 0.000000 0.000000 0.000000 -0.062863 0.000000 0.233694
#
#
# Mechanical properties :
#
#
# Convention : Reuss Voigt Hill
#
# Bulk Modulus (GPa) = 62.15477 64.92880 63.54179
# Shear Modulus (GPa) = 8.15618 17.90959 13.03289
#
# Velocity S-wave (km/s) = 2.19248 3.24888 2.77148
# Velocity P-wave (km/s) = 6.56056 7.23466 6.90584
#
# Compressibility (1/GPa) = 0.01608887
#
# Stress axis : x y z
#
# Youngs Moduli (GPa) = 64.68027 79.62200 59.88155
#
# Poissons Ratio (x) = 0.26986 0.44290
# Poissons Ratio (y) = 0.21922 0.21137
# Poissons Ratio (z) = 0.47840 0.28105
#
# Static dielectric constant tensor:
#      x y z
#    x 1.588810 0.000000 -0.004600 
#    y 0.000000 1.520240 0.000000 
#    z -0.004600 0.000000 1.590880 
# 
# From -- ./inp_files/29633.got.cif
#   From: 2010.05.17/outbox.cif.g08.bks.cpg/sg10_15_cif.got.tgz:29633.got - 2010.06.03 11:33:40.
