data_PCOD9149034
_publ_section_title
;
Structure prediction by ZEFSAII (Michael W. Deem and Ramdas Pophale) SiO2 
 PCOD9149034
Probable space group: P 2/M
;
_chemical_formula_sum "Si O2"
_cell_formula_units_Z 32
_cell_length_a 7.592433
_cell_length_b 15.213243
_cell_length_c 13.437351
_cell_angle_alpha 90.000000
_cell_angle_beta 69.123777
_cell_angle_gamma 90.000000
_cell_volume 1450.197506
_symmetry_space_group_name_H-M "P 2/M"
_symmetry_group_IT_number 10
_symmetry_cell_setting 'monoclinic'
loop_
_space_group_symop_operation_xyz
x,y,z
-x,y,-z
-x,-y,-z
x,-y,z
loop_
_atom_site_type_symbol
_atom_site_label
_atom_site_fract_x
_atom_site_fract_y
_atom_site_fract_z
Si Si1 0.780673 0.399470 0.005679
Si Si2 0.705262 0.094361 0.908021
Si Si3 0.532375 0.902957 0.730922
Si Si4 0.891066 0.269172 0.832946
Si Si5 0.356334 0.598930 0.619685
Si Si6 0.668660 0.279647 0.201355
Si Si7 0.795904 0.096547 0.486834
Si Si8 0.056360 0.729069 0.603174
O O1 0.715898 0.500000 0.020129
O O2 0.663945 0.334300 0.100346
O O3 0.789032 0.354592 0.896161
O O4 0.000000 0.399579 0.000000
O O5 0.675920 0.091856 0.794836
O O6 0.817007 0.183013 0.904058
O O7 0.789542 0.000000 0.922055
O O8 0.500000 0.099981 0.000000
O O9 0.407444 0.818780 0.781316
O O10 0.641099 0.891748 0.604467
O O11 0.437679 0.000000 0.747946
O O12 0.111355 0.275927 0.813818
O O13 0.884849 0.260676 0.714894
O O14 0.500000 0.596903 0.500000
O O15 0.322000 0.500000 0.663648
O O16 0.426754 0.661451 0.693798
O O17 0.169169 0.643380 0.613566
O O18 0.812551 0.182842 0.415334
O O19 0.000000 0.092727 0.500000
O O20 0.765574 0.000000 0.445523
O O21 0.000000 0.721956 0.500000
#
# Coordination Sequence:
#
# PCOD9149034 Si02
#       8
#     4   4   4   4   4   4   4   4
#     4   9  18  35  58  81 106 141 186 232 279 330
#     4  10  20  34  52  76 109 147 183 220 267 326
#     4  10  20  34  55  82 112 148 185 222 269 326
#     4  10  21  34  55  84 109 141 183 230 278 325
#     4  10  21  36  54  79 110 144 183 226 274 328
#     4  10  20  36  59  83 112 145 182 229 278 325
#     4   9  17  31  52  77 106 142 183 221 259 313
#     4  10  20  34  54  80 110 144 181 223 276 329
#
# _framework density 22.065957999999998
#
# number of rings (size 3 to 8) (size 9 to 14) (size 15 to 20)
#    0.000    2.250    0.000    3.375    0.000    5.250 
#    0.000    1.875    0.000   15.375    0.000    0.000 
#    0.000    0.000    0.000    0.000    0.000    0.000 
#
# Total GULP energy -178655.387856 kJ/mol
# GULP energy per Si atom -5582.980870 kJ/mol
# Density = 2.201574 g / cm^3
# Si number density = 22.065958 Si / 1000 Ang^3
#
#
#
# Elastic Constant Matrix: (Units=GPa)
#
#
# Indices 1 2 3 4 5 6 
#
# 1 20.9832 17.2230 0.7427 0.0000 -2.3027 0.0000
# 2 17.2230 196.7750 64.8287 0.0000 -8.2933 0.0000
# 3 0.7427 64.8287 112.8358 0.0000 0.2314 0.0000
# 4 0.0000 0.0000 0.0000 21.0664 0.0000 -2.2897
# 5 -2.3027 -8.2933 0.2314 0.0000 14.9111 0.0000
# 6 0.0000 0.0000 0.0000 -2.2897 0.0000 50.0927
#
#
#
# Elastic Compliance Matrix: (Units=1/GPa)
#
#
# Indices 1 2 3 4 5 6 
#
# 1 0.052435 -0.005249 0.002660 0.000000 0.005137 0.000000
# 2 -0.005249 0.006987 -0.003986 0.000000 0.003137 0.000000
# 3 0.002660 -0.003986 0.011139 0.000000 -0.001979 0.000000
# 4 0.000000 0.000000 0.000000 0.047706 0.000000 0.002181
# 5 0.005137 0.003137 -0.001979 0.000000 0.069633 0.000000
# 6 0.000000 0.000000 0.000000 0.002181 0.000000 0.020063
#
#
# Mechanical properties :
#
#
# Convention : Reuss Voigt Hill
#
# Bulk Modulus (GPa) = 17.41828 55.13143 36.27486
# Shear Modulus (GPa) = 20.81159 33.73400 27.27280
#
# Velocity S-wave (km/s) = 3.07441 3.91420 3.51945
# Velocity P-wave (km/s) = 4.52919 6.74293 5.74372
#
# Compressibility (1/GPa) = 0.05741095
#
# Stress axis : x y z
#
# Youngs Moduli (GPa) = 19.07109 143.12529 89.77332
#
# Poissons Ratio (x) = 0.75133 -0.23883
# Poissons Ratio (y) = 0.10011 0.35785
# Poissons Ratio (z) = -0.05074 0.57051
#
# Static dielectric constant tensor:
#      x y z
#    x 1.850000 0.000000 0.005870 
#    y 0.000000 1.829040 0.000000 
#    z 0.005870 0.000000 1.863410 
# 
# From -- ./inp_files/61817.got.cif
#   From: 2010.05.17/outbox.cif.g08.bks.cpg/sg10_31_cif.got.tgz:61817.got - 2010.06.03 11:33:40.
