data_PCOD9149522
_publ_section_title
;
Structure prediction by ZEFSAII (Michael W. Deem and Ramdas Pophale) SiO2 
 PCOD9149522
Probable space group: P 2/M
;
_chemical_formula_sum "Si O2"
_cell_formula_units_Z 24
_cell_length_a 11.223872
_cell_length_b 7.633087
_cell_length_c 21.823189
_cell_angle_alpha 90.000000
_cell_angle_beta 146.037468
_cell_angle_gamma 90.000000
_cell_volume 1044.483141
_symmetry_space_group_name_H-M "P 2/M"
_symmetry_group_IT_number 10
_symmetry_cell_setting 'monoclinic'
loop_
_space_group_symop_operation_xyz
x,y,z
-x,y,-z
-x,-y,-z
x,-y,z
loop_
_atom_site_type_symbol
_atom_site_label
_atom_site_fract_x
_atom_site_fract_y
_atom_site_fract_z
Si Si1 0.592753 0.212445 0.678847
Si Si2 0.155832 0.213002 0.329939
Si Si3 0.860900 0.791416 0.537062
Si Si4 0.336683 0.703343 0.741509
Si Si5 0.778467 0.704412 0.880951
Si Si6 0.317144 0.211999 0.876444
O O1 0.664676 0.266813 0.641400
O O2 0.349662 0.272685 0.587836
O O3 0.755538 0.283259 0.798327
O O4 0.603422 0.000000 0.686314
O O5 0.161689 0.275975 0.402470
O O6 0.921587 0.260517 0.205017
O O7 0.167544 0.000000 0.338222
O O8 0.103398 0.764073 0.619670
O O9 0.836335 0.000000 0.529118
O O10 0.341578 0.500000 0.728359
O O11 0.555557 0.785563 0.809746
O O12 0.342664 0.727370 0.817500
O O13 0.778464 0.500000 0.900248
O O14 0.000000 0.781516 0.000000
O O15 0.325973 0.000000 0.878715
O O16 0.500000 0.275636 0.000000
#
# Coordination Sequence:
#
# PCOD9149522 Si02
#       6
#     4   4   4   4   4   4
#     4  10  20  34  58  87 109 141 185 224 266 320
#     4   8  15  30  52  82 115 141 168 211 271 328
#     4   9  18  35  58  84 115 142 171 222 280 325
#     4  10  21  37  56  77 105 144 187 225 265 320
#     4  10  24  43  56  72 107 151 186 224 275 320
#     4   9  18  32  54  82 110 141 175 220 276 323
#
# _framework density 22.977872000000001
#
# number of rings (size 3 to 8) (size 9 to 14) (size 15 to 20)
#    0.000    2.667    0.000    2.000    2.333    5.333 
#    0.000    6.667    0.000    5.000    0.000    0.000 
#    0.000    0.000    0.000    0.000    0.000    0.000 
#
# Total GULP energy -133938.589796 kJ/mol
# GULP energy per Si atom -5580.774575 kJ/mol
# Density = 2.292557 g / cm^3
# Si number density = 22.977872 Si / 1000 Ang^3
#
#
#
# Elastic Constant Matrix: (Units=GPa)
#
#
# Indices 1 2 3 4 5 6 
#
# 1 81.6346 -1.2091 30.4300 0.0000 26.4370 0.0000
# 2 -1.2091 40.9036 13.0672 0.0000 6.5709 0.0000
# 3 30.4300 13.0672 172.6820 0.0000 22.7689 0.0000
# 4 0.0000 0.0000 0.0000 3.7537 0.0000 7.3880
# 5 26.4370 6.5709 22.7689 0.0000 30.4019 0.0000
# 6 0.0000 0.0000 0.0000 7.3880 0.0000 14.8849
#
#
#
# Elastic Compliance Matrix: (Units=1/GPa)
#
#
# Indices 1 2 3 4 5 6 
#
# 1 0.017703 0.003390 -0.001387 0.000000 -0.015089 0.000000
# 2 0.003390 0.026253 -0.001606 0.000000 -0.007420 0.000000
# 3 -0.001387 -0.001606 0.006604 0.000000 -0.003393 0.000000
# 4 0.000000 0.000000 0.000000 11.530950 0.000000 -5.723300
# 5 -0.015089 -0.007420 -0.003393 0.000000 0.050158 0.000000
# 6 0.000000 0.000000 0.000000 -5.723300 0.000000 2.907899
#
#
# Mechanical properties :
#
#
# Convention : Reuss Voigt Hill
#
# Bulk Modulus (GPa) = 19.47199 42.19960 30.83580
# Shear Modulus (GPa) = 0.34350 26.67025 13.50688
#
# Velocity S-wave (km/s) = 0.38706 3.41059 2.42713
# Velocity P-wave (km/s) = 2.94829 5.82363 4.61558
#
# Compressibility (1/GPa) = 0.05135582
#
# Stress axis : x y z
#
# Youngs Moduli (GPa) = 56.48694 38.09119 151.41699
#
# Poissons Ratio (x) = -0.12914 0.20997
# Poissons Ratio (y) = -0.19150 0.24313
# Poissons Ratio (z) = 0.07833 0.06116
#
# Static dielectric constant tensor:
#      x y z
#    x 1.875600 0.000000 0.032380 
#    y 0.000000 1.861880 0.000000 
#    z 0.032380 0.000000 1.879000 
# 
# From -- ./inp_files/56679.got.cif
#   From: 2010.05.17/outbox.cif.g08.bks.cpg/sg10_29_cif.got.tgz:56679.got - 2010.06.03 11:33:40.
