data_PCOD9149603
_publ_section_title
;
Structure prediction by ZEFSAII (Michael W. Deem and Ramdas Pophale) SiO2 
 PCOD9149603
Probable space group: P 2/M
;
_chemical_formula_sum "Si O2"
_cell_formula_units_Z 28
_cell_length_a 9.641284
_cell_length_b 7.579503
_cell_length_c 32.092047
_cell_angle_alpha 90.000000
_cell_angle_beta 148.935942
_cell_angle_gamma 90.000000
_cell_volume 1210.094903
_symmetry_space_group_name_H-M "P 2/M"
_symmetry_group_IT_number 10
_symmetry_cell_setting 'monoclinic'
loop_
_space_group_symop_operation_xyz
x,y,z
-x,y,-z
-x,-y,-z
x,-y,z
loop_
_atom_site_type_symbol
_atom_site_label
_atom_site_fract_x
_atom_site_fract_y
_atom_site_fract_z
Si Si1 0.736035 0.789514 0.753087
Si Si2 0.156139 0.287635 0.998337
Si Si3 0.346453 0.294553 0.177101
Si Si4 0.092562 0.282372 0.699408
Si Si5 0.234397 0.701457 0.461207
Si Si6 0.590578 0.710839 0.624102
Si Si7 0.340146 0.205826 0.918956
O O1 0.045590 0.720478 0.833036
O O2 0.603421 0.719767 0.761047
O O3 0.589215 0.743355 0.672551
O O4 0.739501 0.000000 0.756658
O O5 0.183626 0.500000 0.005193
O O6 0.948671 0.223031 0.909232
O O7 0.452405 0.219287 0.065797
O O8 0.000000 0.237522 0.000000
O O9 0.330021 0.500000 0.161207
O O10 0.601024 0.221995 0.217535
O O11 0.092067 0.500000 0.699012
O O12 0.984826 0.220645 0.626395
O O13 0.874901 0.225924 0.677688
O O14 0.500000 0.694101 0.500000
O O15 0.146823 0.500000 0.447276
O O16 0.344868 0.781600 0.532591
O O17 0.586445 0.500000 0.616378
O O18 0.298324 0.000000 0.917542
O O19 0.500000 0.285052 0.000000
#
# Coordination Sequence:
#
# PCOD9149603 Si02
#       7
#     4   4   4   4   4   4   4
#     4  11  23  37  52  73 104 139 176 216 252 297
#     4  10  22  36  54  82 110 131 162 212 264 309
#     4  10  20  35  53  76 105 138 170 206 258 309
#     4   8  15  29  53  81 107 132 166 213 257 303
#     4   7  11  24  48  79 106 129 163 207 253 301
#     4   9  17  31  56  83 104 131 169 213 259 305
#     4  10  21  39  57  72  97 139 182 211 246 299
#
# _framework density 23.138680999999998
#
# number of rings (size 3 to 8) (size 9 to 14) (size 15 to 20)
#    0.000    2.714    1.429    2.143    2.000    1.714 
#    0.000    1.429    0.000    9.000    0.000    0.000 
#    0.000    0.000    0.000    0.000    0.000    0.000 
#
# Total GULP energy -156198.092317 kJ/mol
# GULP energy per Si atom -5578.503297 kJ/mol
# Density = 2.308602 g / cm^3
# Si number density = 23.138681 Si / 1000 Ang^3
#
#
#
# Elastic Constant Matrix: (Units=GPa)
#
#
# Indices 1 2 3 4 5 6 
#
# 1 43.2415 -10.9707 -7.0119 0.0000 -4.4452 0.0000
# 2 -10.9707 52.4915 -1.1130 0.0000 3.2341 0.0000
# 3 -7.0119 -1.1130 26.7077 0.0000 -12.8025 0.0000
# 4 0.0000 0.0000 0.0000 -2.5637 0.0000 -13.2570
# 5 -4.4452 3.2341 -12.8025 0.0000 37.7657 0.0000
# 6 0.0000 0.0000 0.0000 -13.2570 0.0000 20.4759
#
#
#
# Elastic Compliance Matrix: (Units=1/GPa)
#
#
# Indices 1 2 3 4 5 6 
#
# 1 0.026793 0.005437 0.010208 0.000000 0.006149 0.000000
# 2 0.005437 0.020255 0.002086 0.000000 -0.000387 0.000000
# 3 0.010208 0.002086 0.048597 0.000000 0.017497 0.000000
# 4 0.000000 0.000000 0.000000 -0.089712 0.000000 -0.058083
# 5 0.006149 -0.000387 0.017497 0.000000 0.033167 0.000000
# 6 0.000000 0.000000 0.000000 -0.058083 0.000000 0.011232
#
#
# Mechanical properties :
#
#
# Convention : Reuss Voigt Hill
#
# Bulk Modulus (GPa) = 7.62732 9.36104 8.49418
# Shear Modulus (GPa) = 85.36383 20.57134 52.96758
#
# Velocity S-wave (km/s) = 6.08049 2.98492 4.78968
# Velocity P-wave (km/s) = 7.25258 3.99175 5.85380
#
# Compressibility (1/GPa) = 0.13110768
#
# Stress axis : x y z
#
# Youngs Moduli (GPa) = 37.32343 49.37002 20.57752
#
# Poissons Ratio (x) = -0.26844 -0.21006
# Poissons Ratio (y) = -0.20294 -0.04292
# Poissons Ratio (z) = -0.38101 -0.10298
#
# Static dielectric constant tensor:
#      x y z
#    x 1.847820 0.000000 -0.028030 
#    y 0.000000 1.901690 0.000000 
#    z -0.028030 0.000000 1.941300 
# 
# From -- ./inp_files/94537.got.cif
#   From: 2010.05.17/outbox.cif.g08.bks.cpg/sg10_48_cif.got.tgz:94537.got - 2010.06.03 11:33:40.
