data_PCOD9149350
_publ_section_title
;
Structure prediction by ZEFSAII (Michael W. Deem and Ramdas Pophale) SiO2 
 PCOD9149350
Probable space group: P 2/M
;
_chemical_formula_sum "Si O2"
_cell_formula_units_Z 24
_cell_length_a 15.347983
_cell_length_b 19.706818
_cell_length_c 13.099593
_cell_angle_alpha 90.000000
_cell_angle_beta 18.050999
_cell_angle_gamma 90.000000
_cell_volume 1227.710331
_symmetry_space_group_name_H-M "P 2/M"
_symmetry_group_IT_number 10
_symmetry_cell_setting 'monoclinic'
loop_
_space_group_symop_operation_xyz
x,y,z
-x,y,-z
-x,-y,-z
x,-y,z
loop_
_atom_site_type_symbol
_atom_site_label
_atom_site_fract_x
_atom_site_fract_y
_atom_site_fract_z
Si Si1 0.886269 0.341840 0.743139
Si Si2 0.683103 0.141491 0.390281
Si Si3 0.543171 0.794997 0.163949
Si Si4 0.897626 0.147870 0.503107
Si Si5 0.609992 0.575725 0.760320
Si Si6 0.517212 0.000000 0.674338
Si Si7 0.893325 0.000000 0.455224
O O1 0.000000 0.333315 0.500000
O O2 0.156002 0.365504 0.506906
O O3 0.707301 0.276016 0.972603
O O4 0.666824 0.403608 0.992014
O O5 0.500000 0.167336 0.500000
O O6 0.652913 0.191407 0.520683
O O7 0.568573 0.067567 0.551567
O O8 0.000000 0.134279 0.000000
O O9 0.350931 0.812476 0.278573
O O10 0.807369 0.846041 0.884965
O O11 0.817157 0.069052 0.598198
O O12 0.000000 0.173133 0.500000
O O13 0.712596 0.500000 0.622386
O O14 0.500000 0.575138 0.000000
O O15 0.739368 0.000000 0.518626
O O16 0.219553 0.000000 0.062636
#
# Coordination Sequence:
#
# PCOD9149350 Si02
#       7
#     4   4   4   4   4   2   2
#     4  10  20  34  55  83 118 159 191 224 276 331
#     4  12  24  41  62  84 108 144 189 249 311 358
#     4  12  24  41  57  83 118 148 195 239 284 356
#     4  12  24  39  59  80 112 153 190 235 287 341
#     4   9  17  31  53  83 119 156 193 228 262 314
#     4  12  22  41  63  81 108 137 189 251 312 358
#     4  12  21  41  58  81 108 145 188 241 287 350
#
# _framework density 19.548584999999999
#
# number of rings (size 3 to 8) (size 9 to 14) (size 15 to 20)
#    0.000    0.833    3.333    5.250    0.000    4.667 
#    0.000    2.500    0.000    0.000    0.000    0.000 
#    0.000   13.333    0.000    0.000    0.000    0.000 
#
# Total GULP energy -134030.915826 kJ/mol
# GULP energy per Si atom -5584.621493 kJ/mol
# Density = 1.950409 g / cm^3
# Si number density = 19.548585 Si / 1000 Ang^3
#
#
#
# Elastic Constant Matrix: (Units=GPa)
#
#
# Indices 1 2 3 4 5 6 
#
# 1 103.3917 12.9862 37.5301 0.0000 -19.9736 0.0000
# 2 12.9862 112.2807 29.3423 0.0000 4.3164 0.0000
# 3 37.5301 29.3423 120.0753 0.0000 -17.4205 0.0000
# 4 0.0000 0.0000 0.0000 64.3333 0.0000 -6.4932
# 5 -19.9736 4.3164 -17.4205 0.0000 34.6194 0.0000
# 6 0.0000 0.0000 0.0000 -6.4932 0.0000 0.6306
#
#
#
# Elastic Compliance Matrix: (Units=1/GPa)
#
#
# Indices 1 2 3 4 5 6 
#
# 1 0.011833 -0.000886 -0.002671 0.000000 0.005594 0.000000
# 2 -0.000886 0.009792 -0.002554 0.000000 -0.003017 0.000000
# 3 -0.002671 -0.002554 0.010366 0.000000 0.003994 0.000000
# 4 0.000000 0.000000 0.000000 -0.396029 0.000000 -4.077794
# 5 0.005594 -0.003017 0.003994 0.000000 0.034499 0.000000
# 6 0.000000 0.000000 0.000000 -4.077794 0.000000-40.402103
#
#
# Mechanical properties :
#
#
# Convention : Reuss Voigt Hill
#
# Bulk Modulus (GPa) = 50.57772 55.05165 52.81469
# Shear Modulus (GPa) = -0.12281 36.97594 18.42657
#
# Velocity S-wave (km/s) = -0.25092 4.35384 3.07352
# Velocity P-wave (km/s) = 5.08380 7.31418 6.29850
#
# Compressibility (1/GPa) = 0.01977155
#
# Stress axis : x y z
#
# Youngs Moduli (GPa) = 84.50790 102.12388 96.46676
#
# Poissons Ratio (x) = 0.09046 0.25762
# Poissons Ratio (y) = 0.07485 0.24635
# Poissons Ratio (z) = 0.22568 0.26079
#
# Static dielectric constant tensor:
#      x y z
#    x 1.698880 0.000000 -0.023570 
#    y 0.000000 1.725650 0.000000 
#    z -0.023570 0.000000 1.771480 
# 
# From -- ./inp_files/52064.got.cif
#   From: 2010.05.17/outbox.cif.g08.bks.cpg/sg10_27_cif.got.tgz:52064.got - 2010.06.03 11:33:40.
