data_PCOD9149652
_publ_section_title
;
Structure prediction by ZEFSAII (Michael W. Deem and Ramdas Pophale) SiO2 
 PCOD9149652
Probable space group: P 2/M
;
_chemical_formula_sum "Si O2"
_cell_formula_units_Z 32
_cell_length_a 16.474694
_cell_length_b 19.771518
_cell_length_c 8.839163
_cell_angle_alpha 90.000000
_cell_angle_beta 145.079644
_cell_angle_gamma 90.000000
_cell_volume 1648.148646
_symmetry_space_group_name_H-M "P 2/M"
_symmetry_group_IT_number 10
_symmetry_cell_setting 'monoclinic'
loop_
_space_group_symop_operation_xyz
x,y,z
-x,y,-z
-x,-y,-z
x,-y,z
loop_
_atom_site_type_symbol
_atom_site_label
_atom_site_fract_x
_atom_site_fract_y
_atom_site_fract_z
Si Si1 0.684988 0.709299 0.980071
Si Si2 0.076272 0.202772 0.782013
Si Si3 0.824745 0.714825 0.525431
Si Si4 0.489196 0.923376 0.725482
Si Si5 0.565169 0.775886 0.258181
Si Si6 0.833499 0.424453 0.709178
Si Si7 0.748151 0.075961 0.900640
Si Si8 0.669814 0.575642 0.774312
O O1 0.776695 0.757667 0.014554
O O2 0.756346 0.715178 0.253821
O O3 0.524749 0.737134 0.751155
O O4 0.700723 0.634267 0.940420
O O5 0.000000 0.196102 0.500000
O O6 0.974220 0.247536 0.731612
O O7 0.126499 0.129816 0.915990
O O8 0.728592 0.756675 0.496337
O O9 0.820558 0.637847 0.575555
O O10 0.460357 0.855887 0.774446
O O11 0.365995 0.920629 0.409698
O O12 0.644835 0.914565 0.888152
O O13 0.483707 0.000000 0.782052
O O14 0.500000 0.750850 0.000000
O O15 0.790691 0.500000 0.588591
O O16 0.744364 0.411146 0.726418
O O17 0.000000 0.427327 0.000000
O O18 0.805656 0.000000 0.993304
O O19 0.500000 0.574949 0.500000
O O20 0.715980 0.500000 0.892364
#
# Coordination Sequence:
#
# PCOD9149652 Si02
#       8
#     4   4   4   4   4   4   4   4
#     4  10  20  36  56  78 108 145 185 224 268 326
#     4  10  20  35  55  80 111 144 182 227 269 322
#     4  10  22  36  53  82 113 143 181 226 276 328
#     4   9  18  34  56  81 107 139 183 227 266 321
#     4  10  20  35  54  79 110 142 180 225 272 324
#     4  10  21  38  56  77 109 145 180 222 273 328
#     4   9  18  34  56  81 107 139 183 227 268 321
#     4  10  21  36  56  83 110 138 182 234 274 319
#
# _framework density 19.415724999999998
#
# number of rings (size 3 to 8) (size 9 to 14) (size 15 to 20)
#    0.000    2.250    1.250    2.250    0.000    4.000 
#    0.000    0.625    0.000   10.500    0.000    0.000 
#    0.000    0.000    0.000    0.000    0.000    0.000 
#
# Total GULP energy -178373.369509 kJ/mol
# GULP energy per Si atom -5574.167797 kJ/mol
# Density = 1.937153 g / cm^3
# Si number density = 19.415725 Si / 1000 Ang^3
#
#
#
# Elastic Constant Matrix: (Units=GPa)
#
#
# Indices 1 2 3 4 5 6 
#
# 1 113.8044 66.0345 31.1244 0.0000 33.1785 0.0000
# 2 66.0345 143.9946 14.1554 0.0000 12.2037 0.0000
# 3 31.1244 14.1554 15.9513 0.0000 14.8520 0.0000
# 4 0.0000 0.0000 0.0000 38.6842 0.0000 -0.4274
# 5 33.1785 12.2037 14.8520 0.0000 17.6497 0.0000
# 6 0.0000 0.0000 0.0000 -0.4274 0.0000 35.3104
#
#
#
# Elastic Compliance Matrix: (Units=1/GPa)
#
#
# Indices 1 2 3 4 5 6 
#
# 1 0.027342 -0.008230 -0.016115 0.000000 -0.032147 0.000000
# 2 -0.008230 0.010100 -0.003727 0.000000 0.011624 0.000000
# 3 -0.016115 -0.003727 0.308708 0.000000 -0.226903 0.000000
# 4 0.000000 0.000000 0.000000 0.025854 0.000000 0.000313
# 5 -0.032147 0.011624 -0.226903 0.000000 0.299987 0.000000
# 6 0.000000 0.000000 0.000000 0.000313 0.000000 0.028324
#
#
# Mechanical properties :
#
#
# Convention : Reuss Voigt Hill
#
# Bulk Modulus (GPa) = 3.44821 55.15322 29.30072
# Shear Modulus (GPa) = 5.86079 29.15792 17.50936
#
# Velocity S-wave (km/s) = 1.73929 3.87947 3.00628
# Velocity P-wave (km/s) = 2.41109 6.96672 5.21289
#
# Compressibility (1/GPa) = 0.29000589
#
# Stress axis : x y z
#
# Youngs Moduli (GPa) = 36.57413 99.00817 3.23930
#
# Poissons Ratio (x) = 0.81484 0.05220
# Poissons Ratio (y) = 0.30100 0.01207
# Poissons Ratio (z) = 0.58940 0.36901
#
# Static dielectric constant tensor:
#      x y z
#    x 1.704090 0.000000 0.000850 
#    y 0.000000 1.704680 0.000000 
#    z 0.000850 0.000000 1.677430 
# 
# From -- ./inp_files/30321.got.cif
#   From: 2010.05.17/outbox.cif.g08.bks.cpg/sg10_16_cif.got.tgz:30321.got - 2010.06.03 11:33:40.
