data_PCOD9149181
_publ_section_title
;
Structure prediction by ZEFSAII (Michael W. Deem and Ramdas Pophale) SiO2 
 PCOD9149181
Probable space group: P 2/M
;
_chemical_formula_sum "Si O2"
_cell_formula_units_Z 24
_cell_length_a 10.347602
_cell_length_b 8.422670
_cell_length_c 21.933790
_cell_angle_alpha 90.000000
_cell_angle_beta 44.960930
_cell_angle_gamma 90.000000
_cell_volume 1350.802442
_symmetry_space_group_name_H-M "P 2/M"
_symmetry_group_IT_number 10
_symmetry_cell_setting 'monoclinic'
loop_
_space_group_symop_operation_xyz
x,y,z
-x,y,-z
-x,-y,-z
x,-y,z
loop_
_atom_site_type_symbol
_atom_site_label
_atom_site_fract_x
_atom_site_fract_y
_atom_site_fract_z
Si Si1 0.291996 0.190207 0.736191
Si Si2 0.005029 0.692052 0.928649
Si Si3 0.007590 0.691984 0.733377
Si Si4 0.291875 0.306497 0.069991
Si Si5 0.000545 0.690610 0.595993
Si Si6 0.288202 0.809454 0.403123
O O1 0.179797 0.250056 0.832324
O O2 0.180790 0.249709 0.714331
O O3 0.501965 0.245064 0.666497
O O4 0.290575 0.000000 0.736642
O O5 0.008779 0.500000 0.927422
O O6 0.826484 0.741678 0.949489
O O7 0.000000 0.747201 0.000000
O O8 0.010986 0.500000 0.732598
O O9 0.006097 0.745834 0.664049
O O10 0.827091 0.742129 0.831453
O O11 0.296765 0.500000 0.068522
O O12 0.500000 0.249494 0.000000
O O13 0.998011 0.500000 0.596058
O O14 0.174956 0.748258 0.499149
O O15 0.823167 0.751079 0.618757
O O16 0.284271 0.000000 0.405142
#
# Coordination Sequence:
#
# PCOD9149181 Si02
#       6
#     4   4   4   4   4   4
#     4  10  21  35  52  74 102 138 173 206 249 301
#     4   9  18  32  51  74  99 130 167 208 253 296
#     4   9  19  34  52  76 103 130 166 212 256 300
#     4   8  14  27  47  70  96 124 156 196 242 293
#     4  10  20  34  54  78 101 130 169 214 261 302
#     4  10  21  36  52  73 103 137 171 207 251 305
#
# _framework density 17.767216000000001
#
# number of rings (size 3 to 8) (size 9 to 14) (size 15 to 20)
#    0.000    2.667    0.000    3.500    0.000    6.333 
#    0.000    6.667    0.000    8.000    0.000    0.000 
#    0.000    0.000    0.000    0.000    0.000    0.000 
#
# Total GULP energy -133851.148725 kJ/mol
# GULP energy per Si atom -5577.131197 kJ/mol
# Density = 1.772678 g / cm^3
# Si number density = 17.767216 Si / 1000 Ang^3
#
#
#
# Elastic Constant Matrix: (Units=GPa)
#
#
# Indices 1 2 3 4 5 6 
#
# 1 166.4136 25.1973 154.7984 0.0000 0.4364 0.0000
# 2 25.1973 21.3843 25.2518 0.0000 1.0498 0.0000
# 3 154.7984 25.2518 162.0651 0.0000 0.3736 0.0000
# 4 0.0000 0.0000 0.0000 8.9120 0.0000 -12.9943
# 5 0.4364 1.0498 0.3736 0.0000 46.5409 0.0000
# 6 0.0000 0.0000 0.0000 -12.9943 0.0000 15.3631
#
#
#
# Elastic Compliance Matrix: (Units=1/GPa)
#
#
# Indices 1 2 3 4 5 6 
#
# 1 0.054085 -0.003339 -0.051140 0.000000 -0.000021 0.000000
# 2 -0.003339 0.057583 -0.005780 0.000000 -0.001221 0.000000
# 3 -0.051140 -0.005780 0.055917 0.000000 0.000161 0.000000
# 4 0.000000 0.000000 0.000000 -0.481061 0.000000 -0.406887
# 5 -0.000021 -0.001221 0.000161 0.000000 0.021513 0.000000
# 6 0.000000 0.000000 0.000000 -0.406887 0.000000 -0.279059
#
#
# Mechanical properties :
#
#
# Convention : Reuss Voigt Hill
#
# Bulk Modulus (GPa) = 21.24587 84.48423 52.86505
# Shear Modulus (GPa) = -11.49914 23.80424 6.15255
#
# Velocity S-wave (km/s) = -2.54679 3.66428 1.86290
# Velocity P-wave (km/s) = 1.82638 8.09669 5.86908
#
# Compressibility (1/GPa) = 0.04706796
#
# Stress axis : x y z
#
# Youngs Moduli (GPa) = 18.48943 17.36618 17.88360
#
# Poissons Ratio (x) = 0.05799 0.91456
# Poissons Ratio (y) = 0.06174 0.10337
# Poissons Ratio (z) = 0.94554 0.10037
#
# Static dielectric constant tensor:
#      x y z
#    x 1.592940 0.000000 0.000920 
#    y 0.000000 1.607880 0.000000 
#    z 0.000920 0.000000 1.592570 
# 
# From -- ./inp_files/66312.got.cif
#   From: 2010.05.17/outbox.cif.g08.bks.cpg/sg10_34_cif.got.tgz:66312.got - 2010.06.03 11:33:40.
