data_PCOD9149979
_publ_section_title
;
Structure prediction by ZEFSAII (Michael W. Deem and Ramdas Pophale) SiO2 
 PCOD9149979
Probable space group: P 2/M
;
_chemical_formula_sum "Si O2"
_cell_formula_units_Z 32
_cell_length_a 25.468867
_cell_length_b 7.933136
_cell_length_c 19.988744
_cell_angle_alpha 90.000000
_cell_angle_beta 158.033726
_cell_angle_gamma 90.000000
_cell_volume 1510.713755
_symmetry_space_group_name_H-M "P 2/M"
_symmetry_group_IT_number 10
_symmetry_cell_setting 'monoclinic'
loop_
_space_group_symop_operation_xyz
x,y,z
-x,y,-z
-x,-y,-z
x,-y,z
loop_
_atom_site_type_symbol
_atom_site_label
_atom_site_fract_x
_atom_site_fract_y
_atom_site_fract_z
Si Si1 0.582711 0.302894 0.401353
Si Si2 0.914562 0.795443 0.568009
Si Si3 0.111554 0.698324 0.685561
Si Si4 0.861711 0.195300 0.656527
Si Si5 0.394811 0.202957 0.819679
Si Si6 0.063477 0.695770 0.005662
Si Si7 0.627140 0.802656 0.604266
Si Si8 0.418143 0.703277 0.081779
O O1 0.556864 0.500000 0.383276
O O2 0.730909 0.284930 0.537617
O O3 0.593651 0.217016 0.486205
O O4 0.464233 0.236750 0.209962
O O5 0.903298 0.742478 0.632049
O O6 0.765113 0.742343 0.359765
O O7 0.039547 0.719822 0.672654
O O8 0.926145 0.000000 0.579315
O O9 0.126162 0.500000 0.686727
O O10 0.000000 0.771844 0.500000
O O11 0.269613 0.769178 0.877674
O O12 0.819601 0.000000 0.599306
O O13 0.994410 0.210702 0.862014
O O14 0.457789 0.252281 0.822693
O O15 0.393959 0.000000 0.821929
O O16 0.500000 0.270257 0.000000
O O17 0.021359 0.500000 0.950146
O O18 0.229462 0.710172 0.207973
O O19 0.000000 0.764020 0.000000
O O20 0.500000 0.741048 0.500000
O O21 0.649276 0.000000 0.644832
O O22 0.408740 0.500000 0.074495
#
# Coordination Sequence:
#
# PCOD9149979 Si02
#       8
#     4   4   4   4   4   4   4   4
#     4  11  22  38  61  89 121 158 201 250 306 363
#     4  10  22  38  57  87 119 152 198 246 297 355
#     4  10  22  40  60  85 120 161 203 248 301 360
#     4  11  22  38  62  90 123 159 201 253 304 359
#     4  10  20  35  57  86 117 150 195 246 295 352
#     4  11  23  39  63  94 123 159 206 249 299 362
#     4  11  25  43  64  92 125 162 204 249 301 360
#     4  10  22  38  58  86 118 155 201 245 297 362
#
# _framework density 21.182040000000001
#
# number of rings (size 3 to 8) (size 9 to 14) (size 15 to 20)
#    0.000    1.500    2.500    2.250    0.000    5.500 
#    0.000    2.500    0.000    0.000    0.000    0.000 
#    0.000    0.000    0.000    0.000    0.000    0.000 
#
# Total GULP energy -178844.148186 kJ/mol
# GULP energy per Si atom -5588.879631 kJ/mol
# Density = 2.113383 g / cm^3
# Si number density = 21.182040 Si / 1000 Ang^3
#
#
#
# Elastic Constant Matrix: (Units=GPa)
#
#
# Indices 1 2 3 4 5 6 
#
# 1 59.1009 -14.6756 -1.7048 0.0000 -0.9811 0.0000
# 2 -14.6756 20.3649 -5.4914 0.0000 -2.7906 0.0000
# 3 -1.7048 -5.4914 78.8201 0.0000 -1.8736 0.0000
# 4 0.0000 0.0000 0.0000 91.9802 0.0000 53.7544
# 5 -0.9811 -2.7906 -1.8736 0.0000 39.8743 0.0000
# 6 0.0000 0.0000 0.0000 53.7544 0.0000 67.3936
#
#
#
# Elastic Compliance Matrix: (Units=1/GPa)
#
#
# Indices 1 2 3 4 5 6 
#
# 1 0.020897 0.015719 0.001587 0.000000 0.001689 0.000000
# 2 0.015719 0.062410 0.004806 0.000000 0.004980 0.000000
# 3 0.001587 0.004806 0.013080 0.000000 0.000990 0.000000
# 4 0.000000 0.000000 0.000000 0.020365 0.000000 -0.016243
# 5 0.001689 0.004980 0.000990 0.000000 0.025515 0.000000
# 6 0.000000 0.000000 0.000000 -0.016243 0.000000 0.027794
#
#
# Mechanical properties :
#
#
# Convention : Reuss Voigt Hill
#
# Bulk Modulus (GPa) = 7.11177 12.72690 9.91934
# Shear Modulus (GPa) = 28.95074 51.86015 40.40544
#
# Velocity S-wave (km/s) = 3.70098 4.95341 4.37227
# Velocity P-wave (km/s) = 4.65056 6.22385 5.49382
#
# Compressibility (1/GPa) = 0.14061193
#
# Stress axis : x y z
#
# Youngs Moduli (GPa) = 47.85323 16.02306 76.45345
#
# Poissons Ratio (x) = -0.25186 -0.12135
# Poissons Ratio (y) = -0.75219 -0.36747
# Poissons Ratio (z) = -0.07596 -0.07701
#
# Static dielectric constant tensor:
#      x y z
#    x 1.742940 0.000000 -0.014920 
#    y 0.000000 1.748150 0.000000 
#    z -0.014920 0.000000 1.781140 
# 
# From -- ./inp_files/87041.got.cif
#   From: 2010.05.17/outbox.cif.g08.bks.cpg/sg10_44_cif.got.tgz:87041.got - 2010.06.03 11:33:40.
