data_PCOD9149467
_publ_section_title
;
Structure prediction by ZEFSAII (Michael W. Deem and Ramdas Pophale) SiO2 
 PCOD9149467
Probable space group: P 2/M
;
_chemical_formula_sum "Si O2"
_cell_formula_units_Z 28
_cell_length_a 9.829361
_cell_length_b 17.496872
_cell_length_c 14.760603
_cell_angle_alpha 90.000000
_cell_angle_beta 37.925985
_cell_angle_gamma 90.000000
_cell_volume 1560.316653
_symmetry_space_group_name_H-M "P 2/M"
_symmetry_group_IT_number 10
_symmetry_cell_setting 'monoclinic'
loop_
_space_group_symop_operation_xyz
x,y,z
-x,y,-z
-x,-y,-z
x,-y,z
loop_
_atom_site_type_symbol
_atom_site_label
_atom_site_fract_x
_atom_site_fract_y
_atom_site_fract_z
Si Si1 0.128050 0.170466 0.113277
Si Si2 0.785895 0.681557 0.047686
Si Si3 0.391381 0.839481 0.651739
Si Si4 0.237666 0.586394 0.118843
Si Si5 0.807301 0.000000 0.975462
Si Si6 0.633224 0.730305 0.657092
Si Si7 0.916350 0.729253 0.686662
Si Si8 0.668792 0.000000 0.251129
O O1 0.224180 0.083882 0.054951
O O2 0.119476 0.205486 0.218765
O O3 0.872239 0.168384 0.215833
O O4 0.235890 0.235880 0.992652
O O5 0.555779 0.667737 0.221860
O O6 0.809616 0.619144 0.956343
O O7 0.000000 0.683116 0.000000
O O8 0.500000 0.814871 0.500000
O O9 0.487480 0.794574 0.685689
O O10 0.441324 0.926989 0.646549
O O11 0.154504 0.500000 0.173567
O O12 0.142100 0.648503 0.237745
O O13 0.500000 0.586023 0.000000
O O14 0.069754 0.000000 0.861343
O O15 0.670311 0.000000 0.141277
O O16 0.755553 0.746729 0.687198
O O17 0.835311 0.719724 0.481285
#
# Coordination Sequence:
#
# PCOD9149467 Si02
#       8
#     4   4   4   4   2   4   4   2
#     4  10  20  34  57  82 112 154 191 242 287 332
#     4  11  21  35  61  89 114 150 189 237 284 332
#     4  11  19  33  53  82 112 150 195 239 291 340
#     4  10  21  41  64  87 116 149 188 230 280 342
#     4   9  18  32  51  79 114 144 198 243 286 329
#     4  11  21  36  57  85 117 147 192 232 279 342
#     4  10  22  39  57  85 116 154 187 232 284 343
#     4   9  19  30  49  77 112 146 193 251 284 329
#
# _framework density 17.945076
#
# number of rings (size 3 to 8) (size 9 to 14) (size 15 to 20)
#    0.000    1.714    4.286    1.071    2.000    0.286 
#    0.000    2.857    0.000    4.286    0.000    0.000 
#    0.000    0.000    0.000    0.000    0.000    0.000 
#
# Total GULP energy -155997.850674 kJ/mol
# GULP energy per Si atom -5571.351810 kJ/mol
# Density = 1.790423 g / cm^3
# Si number density = 17.945076 Si / 1000 Ang^3
#
#
#
# Elastic Constant Matrix: (Units=GPa)
#
#
# Indices 1 2 3 4 5 6 
#
# 1 89.6231 40.8759 32.1727 0.0000 19.4232 0.0000
# 2 40.8759 106.9239 7.7001 0.0000 23.0066 0.0000
# 3 32.1727 7.7001 58.2623 0.0000 11.4887 0.0000
# 4 0.0000 0.0000 0.0000 12.4490 0.0000 -3.8033
# 5 19.4232 23.0066 11.4887 0.0000 27.3632 0.0000
# 6 0.0000 0.0000 0.0000 -3.8033 0.0000 16.8708
#
#
#
# Elastic Compliance Matrix: (Units=1/GPa)
#
#
# Indices 1 2 3 4 5 6 
#
# 1 0.017345 -0.005040 -0.007980 0.000000 -0.004724 0.000000
# 2 -0.005040 0.012892 0.002738 0.000000 -0.008411 0.000000
# 3 -0.007980 0.002738 0.022400 0.000000 -0.006042 0.000000
# 4 0.000000 0.000000 0.000000 0.086269 0.000000 0.019448
# 5 -0.004724 -0.008411 -0.006042 0.000000 0.049508 0.000000
# 6 0.000000 0.000000 0.000000 0.019448 0.000000 0.063658
#
#
# Mechanical properties :
#
#
# Convention : Reuss Voigt Hill
#
# Bulk Modulus (GPa) = 31.17954 46.25632 38.71793
# Shear Modulus (GPa) = 17.64742 22.94063 20.29403
#
# Velocity S-wave (km/s) = 3.13934 3.57932 3.36653
# Velocity P-wave (km/s) = 5.52751 6.55093 6.06086
#
# Compressibility (1/GPa) = 0.03207231
#
# Stress axis : x y z
#
# Youngs Moduli (GPa) = 57.65384 77.56901 44.64257
#
# Poissons Ratio (x) = 0.39092 0.35626
# Poissons Ratio (y) = 0.29055 -0.12222
# Poissons Ratio (z) = 0.46010 -0.21236
#
# Static dielectric constant tensor:
#      x y z
#    x 1.607000 0.000000 0.010780 
#    y 0.000000 1.617460 0.000000 
#    z 0.010780 0.000000 1.637570 
# 
# From -- ./inp_files/62347.got.cif
#   From: 2010.05.17/outbox.cif.g08.bks.cpg/sg10_32_cif.got.tgz:62347.got - 2010.06.03 11:33:40.
