data_PCOD9149878
_publ_section_title
;
Structure prediction by ZEFSAII (Michael W. Deem and Ramdas Pophale) SiO2 
 PCOD9149878
Probable space group: P 2/M
;
_chemical_formula_sum "Si O2"
_cell_formula_units_Z 20
_cell_length_a 22.753255
_cell_length_b 7.813675
_cell_length_c 15.775119
_cell_angle_alpha 90.000000
_cell_angle_beta 156.704915
_cell_angle_gamma 90.000000
_cell_volume 1109.127458
_symmetry_space_group_name_H-M "P 2/M"
_symmetry_group_IT_number 10
_symmetry_cell_setting 'monoclinic'
loop_
_space_group_symop_operation_xyz
x,y,z
-x,y,-z
-x,-y,-z
x,-y,z
loop_
_atom_site_type_symbol
_atom_site_label
_atom_site_fract_x
_atom_site_fract_y
_atom_site_fract_z
Si Si1 0.131696 0.201917 0.932938
Si Si2 0.339514 0.298411 0.756469
Si Si3 0.176292 0.500000 0.249361
Si Si4 0.173721 0.192041 0.370376
Si Si5 0.676149 0.500000 0.738697
Si Si6 0.946406 0.793441 0.521035
O O1 0.992580 0.223265 0.813393
O O2 0.064116 0.247396 0.751217
O O3 0.172381 0.000000 0.987156
O O4 0.259160 0.331978 0.128763
O O5 0.351551 0.500000 0.752765
O O6 0.279127 0.207834 0.592152
O O7 0.213066 0.274893 0.660237
O O8 0.500000 0.236434 0.000000
O O9 0.212305 0.333304 0.352754
O O10 0.258761 0.500000 0.269813
O O11 0.000000 0.500000 0.000000
O O12 0.180172 0.000000 0.344501
O O13 0.500000 0.500000 0.500000
O O14 0.000000 0.734162 0.500000
O O15 0.934407 0.000000 0.503426
#
# Coordination Sequence:
#
# PCOD9149878 Si02
#       6
#     4   4   2   4   2   4
#     4   9  19  38  62  86 114 149 193 238 283 344
#     4  10  20  35  56  87 125 154 183 233 288 339
#     4  12  22  40  65  84 114 146 195 254 280 342
#     4  10  20  37  64  91 113 149 197 239 288 341
#     4  12  26  42  59  84 116 154 187 240 302 340
#     4   9  19  36  58  84 114 152 195 231 274 340
#
# _framework density 18.032191999999998
#
# number of rings (size 3 to 8) (size 9 to 14) (size 15 to 20)
#    0.000    2.000    3.000    1.800    4.200    3.600 
#    3.600    0.000    0.000    0.000    0.000    0.000 
#    0.000    0.000    0.000    0.000    0.000    0.000 
#
# Total GULP energy -111664.884745 kJ/mol
# GULP energy per Si atom -5583.244237 kJ/mol
# Density = 1.799115 g / cm^3
# Si number density = 18.032192 Si / 1000 Ang^3
#
#
#
# Elastic Constant Matrix: (Units=GPa)
#
#
# Indices 1 2 3 4 5 6 
#
# 1 107.1250 39.8834 53.8618 0.0000 -7.7138 0.0000
# 2 39.8834 91.5384 59.1251 0.0000 -2.1594 0.0000
# 3 53.8618 59.1251 140.7439 0.0000 18.2210 0.0000
# 4 0.0000 0.0000 0.0000 24.3517 0.0000 22.1486
# 5 -7.7138 -2.1594 18.2210 0.0000 18.8931 0.0000
# 6 0.0000 0.0000 0.0000 22.1486 0.0000 67.9893
#
#
#
# Elastic Compliance Matrix: (Units=1/GPa)
#
#
# Indices 1 2 3 4 5 6 
#
# 1 0.013837 -0.001941 -0.005922 0.000000 0.011139 0.000000
# 2 -0.001941 0.016699 -0.007332 0.000000 0.008188 0.000000
# 3 -0.005922 -0.007332 0.014710 0.000000 -0.017443 0.000000
# 4 0.000000 0.000000 0.000000 0.058355 0.000000 -0.019010
# 5 0.011139 0.008188 -0.017443 0.000000 0.075235 0.000000
# 6 0.000000 0.000000 0.000000 -0.019010 0.000000 0.020901
#
#
# Mechanical properties :
#
#
# Convention : Reuss Voigt Hill
#
# Bulk Modulus (GPa) = 67.31581 71.68310 69.49946
# Shear Modulus (GPa) = 21.26928 34.68262 27.97595
#
# Velocity S-wave (km/s) = 3.43814 4.39038 3.94311
# Velocity P-wave (km/s) = 7.29198 8.09566 7.70431
#
# Compressibility (1/GPa) = 0.01485535
#
# Stress axis : x y z
#
# Youngs Moduli (GPa) = 72.26878 59.88292 67.98152
#
# Poissons Ratio (x) = 0.11623 0.40259
# Poissons Ratio (y) = 0.14027 0.49847
# Poissons Ratio (z) = 0.42798 0.43908
#
# Static dielectric constant tensor:
#      x y z
#    x 1.590880 0.000000 -0.014520 
#    y 0.000000 1.631700 0.000000 
#    z -0.014520 0.000000 1.602390 
# 
# From -- ./inp_files/71357.got.cif
#   From: 2010.05.17/outbox.cif.g08.bks.cpg/sg10_36_cif.got.tgz:71357.got - 2010.06.03 11:33:40.
