data_PCOD9149039
_publ_section_title
;
Structure prediction by ZEFSAII (Michael W. Deem and Ramdas Pophale) SiO2 
 PCOD9149039
Probable space group: P 2/M
;
_chemical_formula_sum "Si O2"
_cell_formula_units_Z 28
_cell_length_a 19.620989
_cell_length_b 8.016825
_cell_length_c 22.342135
_cell_angle_alpha 90.000000
_cell_angle_beta 158.124111
_cell_angle_gamma 90.000000
_cell_volume 1309.446243
_symmetry_space_group_name_H-M "P 2/M"
_symmetry_group_IT_number 10
_symmetry_cell_setting 'monoclinic'
loop_
_space_group_symop_operation_xyz
x,y,z
-x,y,-z
-x,-y,-z
x,-y,z
loop_
_atom_site_type_symbol
_atom_site_label
_atom_site_fract_x
_atom_site_fract_y
_atom_site_fract_z
Si Si1 0.006395 0.300955 0.343762
Si Si2 0.670302 0.798994 0.877861
Si Si3 0.819737 0.188008 0.877011
Si Si4 0.345351 0.201170 0.694513
Si Si5 0.578495 0.201592 0.000275
Si Si6 0.712728 0.311869 0.672109
Si Si7 0.949043 0.298894 0.752018
O O1 0.010988 0.500000 0.346938
O O2 0.139706 0.246626 0.506651
O O3 0.083321 0.237057 0.342039
O O4 0.792410 0.250304 0.170734
O O5 0.712246 0.736650 0.844897
O O6 0.484936 0.735875 0.756792
O O7 0.653057 0.000000 0.862559
O O8 0.848091 0.754186 0.061851
O O9 0.722183 0.185366 0.734839
O O10 0.870039 0.000000 0.937976
O O11 0.000000 0.279207 0.000000
O O12 0.349326 0.000000 0.699807
O O13 0.443398 0.258839 0.836265
O O14 0.574560 0.000000 0.995669
O O15 0.500000 0.259010 0.000000
O O16 0.500000 0.338462 0.500000
O O17 0.792544 0.500000 0.746884
O O18 0.807757 0.246565 0.688948
O O19 0.942144 0.500000 0.744319
#
# Coordination Sequence:
#
# PCOD9149039 Si02
#       7
#     4   4   4   4   4   4   4
#     4  11  24  40  62  93 129 165 203 251 304 360
#     4  10  20  36  58  83 111 149 197 249 303 359
#     4  10  20  34  52  77 106 138 186 245 299 350
#     4  10  22  40  63  91 123 160 203 248 299 361
#     4  10  22  43  71  98 125 160 203 249 297 358
#     4  10  22  37  52  74 109 152 198 245 296 354
#     4  10  21  37  56  81 113 155 203 248 298 356
#
# _framework density 21.383085000000001
#
# number of rings (size 3 to 8) (size 9 to 14) (size 15 to 20)
#    0.000    1.857    2.857    0.429    2.000    3.714 
#    0.000    2.857    0.000    0.000    0.000    0.000 
#    0.000    0.000    0.000    0.000    0.000    0.000 
#
# Total GULP energy -155877.602330 kJ/mol
# GULP energy per Si atom -5567.057226 kJ/mol
# Density = 2.133442 g / cm^3
# Si number density = 21.383085 Si / 1000 Ang^3
#
#
#
# Elastic Constant Matrix: (Units=GPa)
#
#
# Indices 1 2 3 4 5 6 
#
# 1 145.2431 17.3328 68.3060 0.0000 -23.1488 0.0000
# 2 17.3328 19.1971 10.7872 0.0000 -8.2027 0.0000
# 3 68.3060 10.7872 129.7541 0.0000 -14.3996 0.0000
# 4 0.0000 0.0000 0.0000 12.9610 0.0000 -9.7431
# 5 -23.1488 -8.2027 -14.3996 0.0000 19.0053 0.0000
# 6 0.0000 0.0000 0.0000 -9.7431 0.0000 9.6433
#
#
#
# Elastic Compliance Matrix: (Units=1/GPa)
#
#
# Indices 1 2 3 4 5 6 
#
# 1 0.010697 -0.003723 -0.004426 0.000000 0.008068 0.000000
# 2 -0.003723 0.065892 -0.000945 0.000000 0.023188 0.000000
# 3 -0.004426 -0.000945 0.010341 0.000000 0.002037 0.000000
# 4 0.000000 0.000000 0.000000 0.320814 0.000000 0.324134
# 5 0.008068 0.023188 0.002037 0.000000 0.073995 0.000000
# 6 0.000000 0.000000 0.000000 0.324134 0.000000 0.431187
#
#
# Mechanical properties :
#
#
# Convention : Reuss Voigt Hill
#
# Bulk Modulus (GPa) = 14.54720 54.11626 34.33173
# Shear Modulus (GPa) = 5.24094 21.50649 13.37371
#
# Velocity S-wave (km/s) = 1.56726 3.17483 2.50358
# Velocity P-wave (km/s) = 3.17694 6.22915 4.94446
#
# Compressibility (1/GPa) = 0.06874177
#
# Stress axis : x y z
#
# Youngs Moduli (GPa) = 93.48559 15.17645 96.69811
#
# Poissons Ratio (x) = 0.05651 0.42800
# Poissons Ratio (y) = 0.34808 0.09134
# Poissons Ratio (z) = 0.41378 0.01434
#
# Static dielectric constant tensor:
#      x y z
#    x 1.810970 0.000000 -0.012690 
#    y 0.000000 1.839830 0.000000 
#    z -0.012690 0.000000 1.774540 
# 
# From -- ./inp_files/90415.got.cif
#   From: 2010.05.17/outbox.cif.g08.bks.cpg/sg10_46_cif.got.tgz:90415.got - 2010.06.03 11:33:40.
