data_PCOD9149604
_publ_section_title
;
Structure prediction by ZEFSAII (Michael W. Deem and Ramdas Pophale) SiO2 
 PCOD9149604
Probable space group: P 2/M
;
_chemical_formula_sum "Si O2"
_cell_formula_units_Z 20
_cell_length_a 12.536406
_cell_length_b 14.299199
_cell_length_c 7.837503
_cell_angle_alpha 90.000000
_cell_angle_beta 33.120265
_cell_angle_gamma 90.000000
_cell_volume 767.665026
_symmetry_space_group_name_H-M "P 2/M"
_symmetry_group_IT_number 10
_symmetry_cell_setting 'monoclinic'
loop_
_space_group_symop_operation_xyz
x,y,z
-x,y,-z
-x,-y,-z
x,-y,z
loop_
_atom_site_type_symbol
_atom_site_label
_atom_site_fract_x
_atom_site_fract_y
_atom_site_fract_z
Si Si1 0.976861 0.389747 0.245390
Si Si2 0.329632 0.740659 0.398632
Si Si3 0.965724 0.109600 0.252790
Si Si4 0.693499 0.608386 0.956630
Si Si5 0.607174 0.101138 0.175905
O O1 0.990890 0.500000 0.186053
O O2 0.843261 0.327283 0.299970
O O3 0.836259 0.385705 0.602608
O O4 0.185902 0.357532 0.039321
O O5 0.187830 0.811993 0.480478
O O6 0.472343 0.822316 0.273023
O O7 0.502315 0.664065 0.166275
O O8 0.908894 0.000000 0.350034
O O9 0.000000 0.122106 0.000000
O O10 0.168915 0.123606 0.079593
O O11 0.646042 0.500000 0.048504
O O12 0.500000 0.090758 0.500000
O O13 0.601799 0.000000 0.094404
#
# Coordination Sequence:
#
# PCOD9149604 Si02
#       5
#     4   4   4   4   4
#     4   9  19  36  57  82 111 141 176 219 266 319
#     4  12  19  29  56  87 108 136 179 226 266 313
#     4  10  20  35  53  76 105 138 179 225 268 312
#     4   9  19  36  57  82 111 141 176 219 266 319
#     4  10  20  35  53  76 105 138 179 225 268 312
#
# _framework density 26.053031000000001
#
# number of rings (size 3 to 8) (size 9 to 14) (size 15 to 20)
#    0.000    2.000    2.000    4.200    0.000    1.600 
#    0.000    0.000    0.000   14.400    0.000   22.400 
#    0.000    0.000    0.000    0.000    0.000    0.000 
#
# Total GULP energy -111398.547024 kJ/mol
# GULP energy per Si atom -5569.927351 kJ/mol
# Density = 2.599373 g / cm^3
# Si number density = 26.053031 Si / 1000 Ang^3
#
#
#
# Elastic Constant Matrix: (Units=GPa)
#
#
# Indices 1 2 3 4 5 6 
#
# 1 111.5491 38.0551 76.3986 0.0000 -43.8376 0.0000
# 2 38.0551 162.4604 56.9765 0.0000 -52.4037 0.0000
# 3 76.3986 56.9765 137.7987 0.0000 -60.6777 0.0000
# 4 0.0000 0.0000 0.0000 61.0476 0.0000 21.3448
# 5 -43.8376 -52.4037 -60.6777 0.0000 56.9489 0.0000
# 6 0.0000 0.0000 0.0000 21.3448 0.0000 -259.6888
#
#
#
# Elastic Compliance Matrix: (Units=1/GPa)
#
#
# Indices 1 2 3 4 5 6 
#
# 1 0.015224 0.000366 -0.006185 0.000000 0.005466 0.000000
# 2 0.000366 0.008764 -0.000285 0.000000 0.008042 0.000000
# 3 -0.006185 -0.000285 0.016186 0.000000 0.012222 0.000000
# 4 0.000000 0.000000 0.000000 0.015923 0.000000 0.001309
# 5 0.005466 0.008042 0.012222 0.000000 0.042189 0.000000
# 6 0.000000 0.000000 0.000000 0.001309 0.000000 -0.003743
#
#
# Mechanical properties :
#
#
# Convention : Reuss Voigt Hill
#
# Bulk Modulus (GPa) = 35.75922 83.85207 59.80565
# Shear Modulus (GPa) = 43.07642 -12.31327 15.38158
#
# Velocity S-wave (km/s) = 4.07063 -2.17635 2.43244
# Velocity P-wave (km/s) = 5.98738 5.09310 5.55826
#
# Compressibility (1/GPa) = 0.02796481
#
# Stress axis : x y z
#
# Youngs Moduli (GPa) = 65.68664 114.10658 61.78238
#
# Poissons Ratio (x) = -0.04178 0.38213
# Poissons Ratio (y) = -0.02405 0.01763
# Poissons Ratio (z) = 0.40627 0.03257
#
# Static dielectric constant tensor:
#      x y z
#    x 2.266480 0.000000 0.166270 
#    y 0.000000 2.150170 0.000000 
#    z 0.166270 0.000000 2.096340 
# 
# From -- ./inp_files/50951.got.cif
#   From: 2010.05.17/outbox.cif.g08.bks.cpg/sg10_26_cif.got.tgz:50951.got - 2010.06.03 11:33:40.
