data_PCOD9149884
_publ_section_title
;
Structure prediction by ZEFSAII (Michael W. Deem and Ramdas Pophale) SiO2 
 PCOD9149884
Probable space group: P 2/M
;
_chemical_formula_sum "Si O2"
_cell_formula_units_Z 22
_cell_length_a 7.283794
_cell_length_b 28.436490
_cell_length_c 8.277721
_cell_angle_alpha 90.000000
_cell_angle_beta 38.660326
_cell_angle_gamma 90.000000
_cell_volume 1071.068869
_symmetry_space_group_name_H-M "P 2/M"
_symmetry_group_IT_number 10
_symmetry_cell_setting 'monoclinic'
loop_
_space_group_symop_operation_xyz
x,y,z
-x,y,-z
-x,-y,-z
x,-y,z
loop_
_atom_site_type_symbol
_atom_site_label
_atom_site_fract_x
_atom_site_fract_y
_atom_site_fract_z
Si Si1 0.351058 0.203243 0.778052
Si Si2 0.329591 0.392012 0.447123
Si Si3 0.173320 0.553820 0.054527
Si Si4 0.340145 0.291698 0.275846
Si Si5 0.353538 0.000000 0.778803
Si Si6 0.352636 0.898927 0.778961
O O1 0.500000 0.203744 0.500000
O O2 0.475327 0.247969 0.784545
O O3 0.424694 0.151960 0.804634
O O4 0.000000 0.206888 0.000000
O O5 0.500000 0.394495 0.500000
O O6 0.335460 0.338358 0.387561
O O7 0.009129 0.412585 0.702062
O O8 0.509975 0.424911 0.201437
O O9 0.180880 0.500000 0.105137
O O10 0.000000 0.553723 0.000000
O O11 0.000000 0.276650 0.500000
O O12 0.500000 0.305084 0.000000
O O13 0.500000 0.000000 0.500000
O O14 0.434549 0.050577 0.800391
O O15 0.000000 0.000000 0.000000
O O16 0.500000 0.898894 0.500000
O O17 0.000000 0.899004 0.000000
#
# Coordination Sequence:
#
# PCOD9149884 Si02
#       6
#     4   4   4   4   2   4
#     4  10  20  36  57  79 104 138 183 225 263 313
#     4  10  20  35  57  80 104 137 175 212 253 308
#     4   9  17  31  55  85 108 128 165 215 257 298
#     4  12  25  39  55  78 110 144 178 222 272 315
#     4   8  12  20  36  64 100 128 154 200 264 310
#     4   8  14  24  42  69  99 129 163 210 260 307
#
# _framework density 20.540229
#
# number of rings (size 3 to 8) (size 9 to 14) (size 15 to 20)
#    0.000    2.364    0.000    3.273    0.000    4.364 
#    0.000    0.000    0.000   10.909    0.000    1.273 
#    0.000    0.000    0.000    0.000    0.000    0.000 
#
# Total GULP energy -122730.815194 kJ/mol
# GULP energy per Si atom -5578.673418 kJ/mol
# Density = 2.049348 g / cm^3
# Si number density = 20.540229 Si / 1000 Ang^3
#
#
#
# Elastic Constant Matrix: (Units=GPa)
#
#
# Indices 1 2 3 4 5 6 
#
# 1 33.3904 25.8541 26.2303 0.0000 -10.1950 0.0000
# 2 25.8541 214.6617 44.1855 0.0000 0.4128 0.0000
# 3 26.2303 44.1855 157.7907 0.0000 -16.0422 0.0000
# 4 0.0000 0.0000 0.0000 33.8181 0.0000 -9.5152
# 5 -10.1950 0.4128 -16.0422 0.0000 18.8420 0.0000
# 6 0.0000 0.0000 0.0000 -9.5152 0.0000 -8.6800
#
#
#
# Elastic Compliance Matrix: (Units=1/GPa)
#
#
# Indices 1 2 3 4 5 6 
#
# 1 0.042349 -0.004354 -0.003811 0.000000 0.019765 0.000000
# 2 -0.004354 0.005425 -0.001146 0.000000 -0.003451 0.000000
# 3 -0.003811 -0.001146 0.007756 0.000000 0.004567 0.000000
# 4 0.000000 0.000000 0.000000 0.022599 0.000000 -0.024774
# 5 0.019765 -0.003451 0.004567 0.000000 0.067731 0.000000
# 6 0.000000 0.000000 0.000000 -0.024774 0.000000 -0.088050
#
#
# Mechanical properties :
#
#
# Convention : Reuss Voigt Hill
#
# Bulk Modulus (GPa) = 27.09481 66.48697 46.79089
# Shear Modulus (GPa) = 56.34680 29.43422 42.89051
#
# Velocity S-wave (km/s) = 5.24328 3.78961 4.57456
# Velocity P-wave (km/s) = 7.06227 7.18245 7.12262
#
# Compressibility (1/GPa) = 0.03690744
#
# Stress axis : x y z
#
# Youngs Moduli (GPa) = 23.61352 184.31516 128.92672
#
# Poissons Ratio (x) = 0.80252 0.49136
# Poissons Ratio (y) = 0.10281 0.14779
# Poissons Ratio (z) = 0.08999 0.21128
#
# Static dielectric constant tensor:
#      x y z
#    x 1.738000 0.000000 0.008040 
#    y 0.000000 1.775750 0.000000 
#    z 0.008040 0.000000 1.686400 
# 
# From -- ./inp_files/20742.got.cif
#   From: 2010.05.17/outbox.cif.g08.bks.cpg/sg10_11_cif.got.tgz:20742.got - 2010.06.03 11:33:40.
