data_PCOD9149579
_publ_section_title
;
Structure prediction by ZEFSAII (Michael W. Deem and Ramdas Pophale) SiO2 
 PCOD9149579
Probable space group: P 2/M
;
_chemical_formula_sum "Si O2"
_cell_formula_units_Z 22
_cell_length_a 18.285370
_cell_length_b 11.960107
_cell_length_c 8.264252
_cell_angle_alpha 90.000000
_cell_angle_beta 38.667804
_cell_angle_gamma 90.000000
_cell_volume 1129.239809
_symmetry_space_group_name_H-M "P 2/M"
_symmetry_group_IT_number 10
_symmetry_cell_setting 'monoclinic'
loop_
_space_group_symop_operation_xyz
x,y,z
-x,y,-z
-x,-y,-z
x,-y,z
loop_
_atom_site_type_symbol
_atom_site_label
_atom_site_fract_x
_atom_site_fract_y
_atom_site_fract_z
Si Si1 0.311393 0.198110 0.227537
Si Si2 0.562658 0.000000 0.179422
Si Si3 0.700594 0.000000 0.502363
Si Si4 0.771862 0.000000 0.033573
Si Si5 0.523302 0.631540 0.184220
Si Si6 0.863322 0.768228 0.744173
Si Si7 0.678661 0.630859 0.245805
O O1 0.283507 0.114528 0.422946
O O2 0.198097 0.241001 0.325942
O O3 0.400485 0.302489 0.080544
O O4 0.382739 0.112383 0.989533
O O5 0.630798 0.000000 0.234469
O O6 0.431862 0.000000 0.336954
O O7 0.783070 0.000000 0.205467
O O8 0.833651 0.893531 0.850330
O O9 0.512823 0.500000 0.164496
O O10 0.600988 0.639385 0.215836
O O11 0.397890 0.675178 0.469766
O O12 0.000000 0.745730 0.500000
O O13 0.796163 0.693201 0.992828
O O14 0.698874 0.500000 0.240638
#
# Coordination Sequence:
#
# PCOD9149579 Si02
#       7
#     4   2   2   2   4   4   4
#     4   9  18  32  52  77 109 140 170 210 259 312
#     4   9  19  34  52  77 106 132 161 210 263 318
#     4  11  21  35  53  80 105 138 171 213 261 319
#     4  10  22  35  54  78 100 139 173 210 266 316
#     4   8  14  27  49  77 109 139 168 211 263 313
#     4  10  20  35  52  74 106 141 180 223 257 295
#     4   8  15  28  49  78 105 135 177 218 258 306
#
# _framework density 19.482133000000001
#
# number of rings (size 3 to 8) (size 9 to 14) (size 15 to 20)
#    0.000    2.909    0.000    3.273    2.545    0.364 
#    0.000    1.818    0.000    3.273    0.000    0.000 
#    0.000    7.273    0.000    0.000    0.000    0.000 
#
# Total GULP energy -122494.566094 kJ/mol
# GULP energy per Si atom -5567.934822 kJ/mol
# Density = 1.943779 g / cm^3
# Si number density = 19.482133 Si / 1000 Ang^3
#
#
#
# Elastic Constant Matrix: (Units=GPa)
#
#
# Indices 1 2 3 4 5 6 
#
# 1 51.0039 -4.6055 39.9430 0.0000 -9.9781 0.0000
# 2 -4.6055 60.8835 31.7483 0.0000 -10.5502 0.0000
# 3 39.9430 31.7483 107.1646 0.0000 -20.0025 0.0000
# 4 0.0000 0.0000 0.0000 29.2930 0.0000 22.9090
# 5 -9.9781 -10.5502 -20.0025 0.0000 40.4868 0.0000
# 6 0.0000 0.0000 0.0000 22.9090 0.0000 63.2796
#
#
#
# Elastic Compliance Matrix: (Units=1/GPa)
#
#
# Indices 1 2 3 4 5 6 
#
# 1 0.032866 0.010820 -0.014781 0.000000 0.003617 0.000000
# 2 0.010820 0.023210 -0.010226 0.000000 0.003663 0.000000
# 3 -0.014781 -0.010226 0.018388 0.000000 0.002777 0.000000
# 4 0.000000 0.000000 0.000000 0.047621 0.000000 -0.017240
# 5 0.003617 0.003663 0.002777 0.000000 0.027918 0.000000
# 6 0.000000 0.000000 0.000000 -0.017240 0.000000 0.022044
#
#
# Mechanical properties :
#
#
# Convention : Reuss Voigt Hill
#
# Bulk Modulus (GPa) = 21.69506 39.24707 30.47106
# Shear Modulus (GPa) = 23.17142 36.74296 29.95719
#
# Velocity S-wave (km/s) = 3.45246 4.34750 3.92557
# Velocity P-wave (km/s) = 5.20122 6.73720 6.01841
#
# Compressibility (1/GPa) = 0.04609345
#
# Stress axis : x y z
#
# Youngs Moduli (GPa) = 30.42640 43.08439 54.38235
#
# Poissons Ratio (x) = -0.46619 0.80380
# Poissons Ratio (y) = -0.32923 0.55609
# Poissons Ratio (z) = 0.44972 0.44056
#
# Static dielectric constant tensor:
#      x y z
#    x 1.746580 0.000000 0.028360 
#    y 0.000000 1.841100 0.000000 
#    z 0.028360 0.000000 1.692300 
# 
# From -- ./inp_files/32054.got.cif
#   From: 2010.05.17/outbox.cif.g08.bks.cpg/sg10_17_cif.got.tgz:32054.got - 2010.06.03 11:33:40.
