data_PCOD9149754
_publ_section_title
;
Structure prediction by ZEFSAII (Michael W. Deem and Ramdas Pophale) SiO2 
 PCOD9149754
Probable space group: P 2/M
;
_chemical_formula_sum "Si O2"
_cell_formula_units_Z 24
_cell_length_a 24.988853
_cell_length_b 7.859293
_cell_length_c 12.525607
_cell_angle_alpha 90.000000
_cell_angle_beta 147.054532
_cell_angle_gamma 90.000000
_cell_volume 1337.827713
_symmetry_space_group_name_H-M "P 2/M"
_symmetry_group_IT_number 10
_symmetry_cell_setting 'monoclinic'
loop_
_space_group_symop_operation_xyz
x,y,z
-x,y,-z
-x,-y,-z
x,-y,z
loop_
_atom_site_type_symbol
_atom_site_label
_atom_site_fract_x
_atom_site_fract_y
_atom_site_fract_z
Si Si1 0.622714 0.809295 0.501861
Si Si2 0.750442 0.306553 0.895880
Si Si3 0.738509 0.701752 0.255114
Si Si4 0.594087 0.701990 0.814917
Si Si5 0.880612 0.000000 0.424297
Si Si6 0.601793 0.704230 0.223583
Si Si7 0.888694 0.000000 0.180763
O O1 0.697711 0.693989 0.693096
O O2 0.511771 0.787167 0.359098
O O3 0.618773 0.775394 0.369346
O O4 0.656126 0.000000 0.578517
O O5 0.780541 0.500000 0.974779
O O6 0.665755 0.250194 0.838226
O O7 0.836633 0.169436 0.048746
O O8 0.764723 0.500000 0.292645
O O9 0.689551 0.737215 0.287712
O O10 0.825427 0.831861 0.374839
O O11 0.653679 0.731452 0.024118
O O12 0.575550 0.500000 0.775150
O O13 0.873826 0.000000 0.284166
O O14 0.995127 0.000000 0.645919
O O15 0.592176 0.500000 0.218786
O O16 0.500000 0.766729 0.000000
#
# Coordination Sequence:
#
# PCOD9149754 Si02
#       7
#     4   4   4   4   2   4   2
#     4  12  24  33  55  89 124 163 201 235 283 351
#     4  11  23  41  61  83 121 160 198 243 291 352
#     4  10  21  37  60  87 121 161 194 234 292 347
#     4  10  20  35  55  84 121 162 195 229 283 345
#     4  11  24  40  65  87 124 145 190 257 300 357
#     4  10  20  36  56  82 122 163 200 238 277 337
#     4  11  24  42  61  94 114 150 194 247 313 349
#
# _framework density 17.939530000000001
#
# number of rings (size 3 to 8) (size 9 to 14) (size 15 to 20)
#    0.000    1.333    4.167    2.000    3.500    3.000 
#    0.000    1.667    0.000    2.000    0.000    3.500 
#    0.000    0.000    0.000    0.000    0.000    0.000 
#
# Total GULP energy -134080.836601 kJ/mol
# GULP energy per Si atom -5586.701525 kJ/mol
# Density = 1.789870 g / cm^3
# Si number density = 17.939530 Si / 1000 Ang^3
#
#
#
# Elastic Constant Matrix: (Units=GPa)
#
#
# Indices 1 2 3 4 5 6 
#
# 1 39.0640 32.4134 37.1045 0.0000 8.6495 0.0000
# 2 32.4134 85.4995 51.3440 0.0000 22.0369 0.0000
# 3 37.1045 51.3440 98.6565 0.0000 8.7601 0.0000
# 4 0.0000 0.0000 0.0000 -19.0657 0.0000 -4.8166
# 5 8.6495 22.0369 8.7601 0.0000 27.5340 0.0000
# 6 0.0000 0.0000 0.0000 -4.8166 0.0000 25.8818
#
#
#
# Elastic Compliance Matrix: (Units=1/GPa)
#
#
# Indices 1 2 3 4 5 6 
#
# 1 0.045271 -0.009181 -0.011976 0.000000 -0.003063 0.000000
# 2 -0.009181 0.022976 -0.007335 0.000000 -0.013171 0.000000
# 3 -0.011976 -0.007335 0.018114 0.000000 0.003870 0.000000
# 4 0.000000 0.000000 0.000000 -0.050095 0.000000 -0.009323
# 5 -0.003063 -0.013171 0.003870 0.000000 0.046591 0.000000
# 6 0.000000 0.000000 0.000000 -0.009323 0.000000 0.036902
#
#
# Mechanical properties :
#
#
# Convention : Reuss Voigt Hill
#
# Bulk Modulus (GPa) = 34.04078 51.66041 42.85060
# Shear Modulus (GPa) = 26.80450 13.69391 20.24920
#
# Velocity S-wave (km/s) = 3.86963 2.76585 3.36333
# Velocity P-wave (km/s) = 6.24354 6.24975 6.24665
#
# Compressibility (1/GPa) = 0.02937653
#
# Stress axis : x y z
#
# Youngs Moduli (GPa) = 22.08940 43.52328 55.20545
#
# Poissons Ratio (x) = 0.39959 0.66114
# Poissons Ratio (y) = 0.20280 0.40494
# Poissons Ratio (z) = 0.26454 0.31925
#
# Static dielectric constant tensor:
#      x y z
#    x 1.607070 0.000000 -0.020230 
#    y 0.000000 1.627920 0.000000 
#    z -0.020230 0.000000 1.585260 
# 
# From -- ./inp_files/54613.got.cif
#   From: 2010.05.17/outbox.cif.g08.bks.cpg/sg10_28_cif.got.tgz:54613.got - 2010.06.03 11:33:40.
