data_PCOD9149641
_publ_section_title
;
Structure prediction by ZEFSAII (Michael W. Deem and Ramdas Pophale) SiO2 
 PCOD9149641
Probable space group: P 2/M
;
_chemical_formula_sum "Si O2"
_cell_formula_units_Z 32
_cell_length_a 29.766927
_cell_length_b 8.306394
_cell_length_c 23.605988
_cell_angle_alpha 90.000000
_cell_angle_beta 16.502902
_cell_angle_gamma 90.000000
_cell_volume 1658.000928
_symmetry_space_group_name_H-M "P 2/M"
_symmetry_group_IT_number 10
_symmetry_cell_setting 'monoclinic'
loop_
_space_group_symop_operation_xyz
x,y,z
-x,y,-z
-x,-y,-z
x,-y,z
loop_
_atom_site_type_symbol
_atom_site_label
_atom_site_fract_x
_atom_site_fract_y
_atom_site_fract_z
Si Si1 0.568334 0.312445 0.980006
Si Si2 0.480038 0.188310 0.200972
Si Si3 0.912253 0.312459 0.546080
Si Si4 0.201796 0.304526 0.126214
Si Si5 0.623029 0.305667 0.197913
Si Si6 0.333674 0.805766 0.727382
Si Si7 0.977381 0.807035 0.963243
Si Si8 0.304590 0.690261 0.520017
O O1 0.582918 0.500000 0.980826
O O2 0.742406 0.236919 0.762775
O O3 0.500000 0.309230 0.000000
O O4 0.465093 0.228817 0.153017
O O5 0.362703 0.277396 0.385857
O O6 0.462878 0.000000 0.231743
O O7 0.656700 0.243359 0.005062
O O8 0.881977 0.500000 0.566275
O O9 0.000000 0.313013 0.500000
O O10 0.033502 0.245694 0.352988
O O11 0.202263 0.500000 0.129157
O O12 0.251950 0.258346 0.002082
O O13 0.619514 0.500000 0.203804
O O14 0.667508 0.241882 0.205469
O O15 0.449204 0.251460 0.385804
O O16 0.500000 0.747699 0.500000
O O17 0.333229 0.000000 0.724597
O O18 0.180377 0.746047 0.877845
O O19 0.138042 0.769654 0.735537
O O20 0.960305 0.000000 0.987648
O O21 0.000000 0.743945 0.000000
O O22 0.289012 0.500000 0.547470
#
# Coordination Sequence:
#
# PCOD9149641 Si02
#       8
#     4   4   4   4   4   4   4   4
#     4  10  20  35  54  78 107 144 189 229 275 334
#     4  11  21  34  55  80 111 145 182 228 284 335
#     4   9  15  28  55  79 101 136 179 229 270 313
#     4   9  17  33  55  79 107 140 186 229 272 326
#     4   9  19  34  54  81 112 143 180 232 281 324
#     4  10  21  37  58  83 113 149 184 220 268 330
#     4  10  21  38  60  86 116 150 189 228 272 329
#     4  10  21  38  60  84 110 145 191 235 275 328
#
# _framework density 19.300350000000002
#
# number of rings (size 3 to 8) (size 9 to 14) (size 15 to 20)
#    0.000    2.250    1.250    3.000    0.000    4.750 
#    2.250    1.250    0.000    0.000    0.000    0.000 
#    0.000    0.000    0.000    0.000    0.000    0.000 
#
# Total GULP energy -178500.881426 kJ/mol
# GULP energy per Si atom -5578.152545 kJ/mol
# Density = 1.925642 g / cm^3
# Si number density = 19.300350 Si / 1000 Ang^3
#
#
#
# Elastic Constant Matrix: (Units=GPa)
#
#
# Indices 1 2 3 4 5 6 
#
# 1 111.5193 8.1637 56.5466 0.0000 10.2603 0.0000
# 2 8.1637 6.7425 -2.4961 0.0000 -4.6217 0.0000
# 3 56.5466 -2.4961 121.7767 0.0000 2.5089 0.0000
# 4 0.0000 0.0000 0.0000 21.0571 0.0000 2.4950
# 5 10.2603 -4.6217 2.5089 0.0000 23.7419 0.0000
# 6 0.0000 0.0000 0.0000 2.4950 0.0000 16.8695
#
#
#
# Elastic Compliance Matrix: (Units=1/GPa)
#
#
# Indices 1 2 3 4 5 6 
#
# 1 0.016489 -0.031440 -0.008045 0.000000 -0.012396 0.000000
# 2 -0.031440 0.232077 0.018185 0.000000 0.056843 0.000000
# 3 -0.008045 0.018185 0.012202 0.000000 0.005727 0.000000
# 4 0.000000 0.000000 0.000000 0.048337 0.000000 -0.007149
# 5 -0.012396 0.056843 0.005727 0.000000 0.057937 0.000000
# 6 0.000000 0.000000 0.000000 -0.007149 0.000000 0.060336
#
#
# Mechanical properties :
#
#
# Convention : Reuss Voigt Hill
#
# Bulk Modulus (GPa) = 4.58364 40.49631 22.53997
# Shear Modulus (GPa) = 9.21318 24.18866 16.70092
#
# Velocity S-wave (km/s) = 2.18722 3.54400 2.94482
# Velocity P-wave (km/s) = 2.95950 6.14608 4.82354
#
# Compressibility (1/GPa) = 0.21816741
#
# Stress axis : x y z
#
# Youngs Moduli (GPa) = 60.64813 4.30891 81.95125
#
# Poissons Ratio (x) = 0.13547 0.65934
# Poissons Ratio (y) = 1.90676 -1.49027
# Poissons Ratio (z) = 0.48794 -0.07836
#
# Static dielectric constant tensor:
#      x y z
#    x 1.671500 0.000000 0.002580 
#    y 0.000000 1.688040 0.000000 
#    z 0.002580 0.000000 1.683820 
# 
# From -- ./inp_files/86833.got.cif
#   From: 2010.05.17/outbox.cif.g08.bks.cpg/sg10_44_cif.got.tgz:86833.got - 2010.06.03 11:33:40.
