data_PCOD9149836
_publ_section_title
;
Structure prediction by ZEFSAII (Michael W. Deem and Ramdas Pophale) SiO2 
 PCOD9149836
Probable space group: P 2/M
;
_chemical_formula_sum "Si O2"
_cell_formula_units_Z 28
_cell_length_a 13.867423
_cell_length_b 8.088697
_cell_length_c 16.460122
_cell_angle_alpha 90.000000
_cell_angle_beta 50.650511
_cell_angle_gamma 90.000000
_cell_volume 1427.747373
_symmetry_space_group_name_H-M "P 2/M"
_symmetry_group_IT_number 10
_symmetry_cell_setting 'monoclinic'
loop_
_space_group_symop_operation_xyz
x,y,z
-x,y,-z
-x,-y,-z
x,-y,z
loop_
_atom_site_type_symbol
_atom_site_label
_atom_site_fract_x
_atom_site_fract_y
_atom_site_fract_z
Si Si1 0.941930 0.696905 0.615870
Si Si2 0.481557 0.809004 0.381254
Si Si3 0.224279 0.201783 0.062105
Si Si4 0.678807 0.199929 0.813710
Si Si5 0.039467 0.195018 0.737478
Si Si6 0.684071 0.687428 0.391415
Si Si7 0.557646 0.202287 0.163010
O O1 0.960802 0.500000 0.612162
O O2 0.795326 0.736165 0.699343
O O3 0.000000 0.754850 0.500000
O O4 0.004077 0.777975 0.661928
O O5 0.603714 0.798522 0.373108
O O6 0.372423 0.718624 0.488816
O O7 0.517139 0.741696 0.273904
O O8 0.443499 0.000000 0.392856
O O9 0.295177 0.251022 0.107402
O O10 0.081264 0.256835 0.147680
O O11 0.221037 0.000000 0.063482
O O12 0.307450 0.256293 0.941795
O O13 0.548220 0.251546 0.845047
O O14 0.681880 0.000000 0.811010
O O15 0.169758 0.279191 0.687812
O O16 0.053745 0.000000 0.744400
O O17 0.657019 0.500000 0.382269
O O18 0.560180 0.000000 0.163920
#
# Coordination Sequence:
#
# PCOD9149836 Si02
#       7
#     4   4   4   4   4   4   4
#     4  10  21  34  47  72 109 145 177 215 259 311
#     4  10  20  35  56  83 108 134 177 225 263 313
#     4   8  15  30  52  80 110 137 172 217 263 309
#     4   9  17  30  51  78 106 142 179 214 256 307
#     4  10  20  35  58  80 101 137 179 219 262 312
#     4  11  22  38  57  76 106 142 174 216 274 326
#     4   9  17  30  53  83 109 135 173 223 268 305
#
# _framework density 19.611312000000002
#
# number of rings (size 3 to 8) (size 9 to 14) (size 15 to 20)
#    0.000    2.429    0.000    4.714    2.000    2.857 
#    0.000    1.429    0.000   20.571    0.000    0.000 
#    0.000    0.000    0.000    0.000    0.000    0.000 
#
# Total GULP energy -156242.818869 kJ/mol
# GULP energy per Si atom -5580.100674 kJ/mol
# Density = 1.956668 g / cm^3
# Si number density = 19.611312 Si / 1000 Ang^3
#
#
#
# Elastic Constant Matrix: (Units=GPa)
#
#
# Indices 1 2 3 4 5 6 
#
# 1 62.4160 -3.2265 35.5627 0.0000 -24.2982 0.0000
# 2 -3.2265 23.6569 -0.1851 0.0000 -0.3635 0.0000
# 3 35.5627 -0.1851 97.9018 0.0000 -11.1584 0.0000
# 4 0.0000 0.0000 0.0000 -69.1554 0.0000 0.0592
# 5 -24.2982 -0.3635 -11.1584 0.0000 20.9300 0.0000
# 6 0.0000 0.0000 0.0000 0.0592 0.0000 0.4149
#
#
#
# Elastic Compliance Matrix: (Units=1/GPa)
#
#
# Indices 1 2 3 4 5 6 
#
# 1 0.035569 0.005347 -0.008723 0.000000 0.036735 0.000000
# 2 0.005347 0.043089 -0.001137 0.000000 0.006350 0.000000
# 3 -0.008723 -0.001137 0.013015 0.000000 -0.003208 0.000000
# 4 0.000000 0.000000 0.000000 -0.014458 0.000000 0.002062
# 5 0.036735 0.006350 -0.003208 0.000000 0.088826 0.000000
# 6 0.000000 0.000000 0.000000 0.002062 0.000000 2.409839
#
#
# Mechanical properties :
#
#
# Convention : Reuss Voigt Hill
#
# Bulk Modulus (GPa) = 12.09968 27.58632 19.84300
# Shear Modulus (GPa) = 1.91391 0.55945 1.23668
#
# Velocity S-wave (km/s) = 0.98896 0.53469 0.79496
# Velocity P-wave (km/s) = 2.73627 3.80503 3.31402
#
# Compressibility (1/GPa) = 0.08264682
#
# Stress axis : x y z
#
# Youngs Moduli (GPa) = 28.11425 23.20778 76.83278
#
# Poissons Ratio (x) = -0.12410 0.67024
# Poissons Ratio (y) = -0.15034 0.08738
# Poissons Ratio (z) = 0.24525 0.02639
#
# Static dielectric constant tensor:
#      x y z
#    x 1.656950 0.000000 -0.005880 
#    y 0.000000 1.676960 0.000000 
#    z -0.005880 0.000000 1.697120 
# 
# From -- ./inp_files/63652.got.cif
#   From: 2010.05.17/outbox.cif.g08.bks.cpg/sg10_32_cif.got.tgz:63652.got - 2010.06.03 11:33:40.
