data_PCOD9149262
_publ_section_title
;
Structure prediction by ZEFSAII (Michael W. Deem and Ramdas Pophale) SiO2 
 PCOD9149262
Probable space group: P 2/M
;
_chemical_formula_sum "Si O2"
_cell_formula_units_Z 32
_cell_length_a 12.669369
_cell_length_b 8.855532
_cell_length_c 14.695959
_cell_angle_alpha 90.000000
_cell_angle_beta 89.889360
_cell_angle_gamma 90.000000
_cell_volume 1648.795388
_symmetry_space_group_name_H-M "P 2/M"
_symmetry_group_IT_number 10
_symmetry_cell_setting 'monoclinic'
loop_
_space_group_symop_operation_xyz
x,y,z
-x,y,-z
-x,-y,-z
x,-y,z
loop_
_atom_site_type_symbol
_atom_site_label
_atom_site_fract_x
_atom_site_fract_y
_atom_site_fract_z
Si Si1 0.311326 0.820432 0.722823
Si Si2 0.105012 0.681429 0.814418
Si Si3 0.457944 0.825954 0.228252
Si Si4 0.713194 0.677721 0.657497
Si Si5 0.113624 0.179614 0.210224
Si Si6 0.619314 0.317990 0.469073
Si Si7 0.393027 0.330782 0.056249
Si Si8 0.161611 0.323135 0.014319
O O1 0.210680 0.738077 0.765200
O O2 0.418299 0.792128 0.780263
O O3 0.342398 0.762091 0.622493
O O4 0.292297 0.000000 0.721505
O O5 0.101406 0.500000 0.812679
O O6 0.001193 0.750931 0.769365
O O7 0.106890 0.728739 0.921489
O O8 0.400400 0.718569 0.299551
O O9 0.400422 0.793763 0.133705
O O10 0.446078 0.000000 0.256322
O O11 0.733032 0.500000 0.665577
O O12 0.800241 0.763180 0.717181
O O13 0.699699 0.717089 0.551576
O O14 0.140856 0.237793 0.108327
O O15 0.110538 0.000000 0.210851
O O16 0.500000 0.274229 0.500000
O O17 0.618308 0.500000 0.455924
O O18 0.385821 0.500000 0.098669
O O19 0.287678 0.313217 0.998143
O O20 0.500000 0.324884 0.000000
O O21 0.134537 0.500000 0.028948
#
# Coordination Sequence:
#
# PCOD9149262 Si02
#       8
#     4   4   4   4   4   4   4   4
#     4  11  24  40  61  92 131 165 199 251 314 372
#     4  11  24  43  66  89 120 164 214 259 302 360
#     4  11  22  35  55  87 124 162 197 242 306 364
#     4  11  22  39  64  91 121 157 203 253 298 358
#     4  12  25  41  63  91 126 163 205 257 312 366
#     4  10  21  39  65  95 123 159 206 252 301 363
#     4  10  20  34  54  82 118 162 206 249 298 357
#     4  10  21  38  61  89 120 161 212 258 300 357
#
# _framework density 19.408107999999999
#
# number of rings (size 3 to 8) (size 9 to 14) (size 15 to 20)
#    0.000    1.250    2.500    3.750    0.000    6.500 
#    0.000    0.625    0.000    3.750    0.000    0.000 
#    0.000    0.000    0.000    0.000    0.000    0.000 
#
# Total GULP energy -178791.201028 kJ/mol
# GULP energy per Si atom -5587.225032 kJ/mol
# Density = 1.936393 g / cm^3
# Si number density = 19.408108 Si / 1000 Ang^3
#
#
#
# Elastic Constant Matrix: (Units=GPa)
#
#
# Indices 1 2 3 4 5 6 
#
# 1 113.7413 39.3389 29.9004 0.0000 13.9051 0.0000
# 2 39.3389 65.2340 34.2384 0.0000 10.2338 0.0000
# 3 29.9004 34.2384 73.9749 0.0000 12.7354 0.0000
# 4 0.0000 0.0000 0.0000 -383.9683 0.0000 -66.6913
# 5 13.9051 10.2338 12.7354 0.0000 22.7773 0.0000
# 6 0.0000 0.0000 0.0000 -66.6913 0.0000 21.0927
#
#
#
# Elastic Compliance Matrix: (Units=1/GPa)
#
#
# Indices 1 2 3 4 5 6 
#
# 1 0.011576 -0.005649 -0.001422 0.000000 -0.003734 0.000000
# 2 -0.005649 0.023387 -0.008106 0.000000 -0.002527 0.000000
# 3 -0.001422 -0.008106 0.018886 0.000000 -0.006050 0.000000
# 4 0.000000 0.000000 0.000000 -0.001681 0.000000 -0.005315
# 5 -0.003734 -0.002527 -0.006050 0.000000 0.050701 0.000000
# 6 0.000000 0.000000 0.000000 -0.005315 0.000000 0.030603
#
#
# Mechanical properties :
#
#
# Convention : Reuss Voigt Hill
#
# Bulk Modulus (GPa) = 42.56097 51.10065 46.83081
# Shear Modulus (GPa) = 29.12800 -58.05482 -14.46341
#
# Velocity S-wave (km/s) = 3.87824 -5.47518 -2.73284
# Velocity P-wave (km/s) = 6.48316 3.68557 3.77147
#
# Compressibility (1/GPa) = 0.02349571
#
# Stress axis : x y z
#
# Youngs Moduli (GPa) = 86.38726 42.75917 52.94923
#
# Poissons Ratio (x) = 0.24154 0.07527
# Poissons Ratio (y) = 0.48798 0.42921
# Poissons Ratio (z) = 0.12281 0.34661
#
# Static dielectric constant tensor:
#      x y z
#    x 1.685180 0.000000 0.004970 
#    y 0.000000 1.656700 0.000000 
#    z 0.004970 0.000000 1.676780 
# 
# From -- ./inp_files/63814.got.cif
#   From: 2010.05.17/outbox.cif.g08.bks.cpg/sg10_32_cif.got.tgz:63814.got - 2010.06.03 11:33:40.
