data_PCOD9149115
_publ_section_title
;
Structure prediction by ZEFSAII (Michael W. Deem and Ramdas Pophale) SiO2 
 PCOD9149115
Probable space group: P 2/M
;
_chemical_formula_sum "Si O2"
_cell_formula_units_Z 28
_cell_length_a 19.312704
_cell_length_b 14.483638
_cell_length_c 6.990295
_cell_angle_alpha 90.000000
_cell_angle_beta 142.538440
_cell_angle_gamma 90.000000
_cell_volume 1189.278021
_symmetry_space_group_name_H-M "P 2/M"
_symmetry_group_IT_number 10
_symmetry_cell_setting 'monoclinic'
loop_
_space_group_symop_operation_xyz
x,y,z
-x,y,-z
-x,-y,-z
x,-y,z
loop_
_atom_site_type_symbol
_atom_site_label
_atom_site_fract_x
_atom_site_fract_y
_atom_site_fract_z
Si Si1 0.965300 0.736299 0.649192
Si Si2 0.372922 0.765568 0.171441
Si Si3 0.365434 0.100260 0.645966
Si Si4 0.373216 0.298228 0.733623
Si Si5 0.776073 0.397916 0.111226
Si Si6 0.149670 0.398727 0.154427
Si Si7 0.198841 0.103430 0.649537
O O1 0.864250 0.659497 0.433369
O O2 0.910033 0.830254 0.604350
O O3 0.000000 0.750341 0.500000
O O4 0.069238 0.690525 0.990710
O O5 0.500000 0.793827 0.500000
O O6 0.369589 0.741977 0.938847
O O7 0.331105 0.668187 0.164823
O O8 0.280569 0.846857 0.985265
O O9 0.354220 0.207654 0.554617
O O10 0.274480 0.096806 0.621445
O O11 0.349725 0.000000 0.508473
O O12 0.500000 0.098959 0.000000
O O13 0.275107 0.372015 0.496526
O O14 0.500000 0.336998 0.000000
O O15 0.747016 0.500000 0.118853
O O16 0.840946 0.407977 0.054062
O O17 0.114042 0.500000 0.149677
O O18 0.167602 0.000000 0.636619
#
# Coordination Sequence:
#
# PCOD9149115 Si02
#       7
#     4   4   4   4   4   4   4
#     4   9  18  34  56  79 109 146 186 228 277 335
#     4  10  20  34  53  77 108 146 183 223 276 336
#     4   8  15  31  54  76 102 139 178 218 271 333
#     4  10  20  34  54  80 112 143 182 236 286 330
#     4   9  18  34  55  77 103 140 185 228 273 330
#     4  10  20  35  56  80 107 144 188 233 281 332
#     4   9  18  33  54  82 113 143 182 231 278 330
#
# _framework density 23.543696000000001
#
# number of rings (size 3 to 8) (size 9 to 14) (size 15 to 20)
#    0.000    2.714    0.000    1.286    0.000    3.429 
#    0.000    7.143    0.000   26.571    0.000    0.000 
#    0.000    0.000    0.000    0.000    0.000    0.000 
#
# Total GULP energy -156168.107747 kJ/mol
# GULP energy per Si atom -5577.432420 kJ/mol
# Density = 2.349011 g / cm^3
# Si number density = 23.543696 Si / 1000 Ang^3
#
#
#
# Elastic Constant Matrix: (Units=GPa)
#
#
# Indices 1 2 3 4 5 6 
#
# 1 59.7856 30.3479 17.9328 0.0000 19.9027 0.0000
# 2 30.3479 203.4835 71.1192 0.0000 25.9995 0.0000
# 3 17.9328 71.1192 111.2267 0.0000 19.1487 0.0000
# 4 0.0000 0.0000 0.0000 -41.1806 0.0000 -25.8442
# 5 19.9027 25.9995 19.1487 0.0000 33.8834 0.0000
# 6 0.0000 0.0000 0.0000 -25.8442 0.0000 9.4188
#
#
#
# Elastic Compliance Matrix: (Units=1/GPa)
#
#
# Indices 1 2 3 4 5 6 
#
# 1 0.021365 -0.001593 -0.000527 0.000000 -0.011029 0.000000
# 2 -0.001593 0.006705 -0.003662 0.000000 -0.002140 0.000000
# 3 -0.000527 -0.003662 0.012053 0.000000 -0.003692 0.000000
# 4 0.000000 0.000000 0.000000 -0.008921 0.000000 -0.024478
# 5 -0.011029 -0.002140 -0.003692 0.000000 0.039720 0.000000
# 6 0.000000 0.000000 0.000000 -0.024478 0.000000 0.039004
#
#
# Mechanical properties :
#
#
# Convention : Reuss Voigt Hill
#
# Bulk Modulus (GPa) = 35.01627 68.14396 51.58012
# Shear Modulus (GPa) = 38.16498 17.43073 27.79785
#
# Velocity S-wave (km/s) = 4.03057 2.72390 3.43985
# Velocity P-wave (km/s) = 6.04697 6.23693 6.14268
#
# Compressibility (1/GPa) = 0.02855815
#
# Stress axis : x y z
#
# Youngs Moduli (GPa) = 46.80603 149.13420 82.96771
#
# Poissons Ratio (x) = 0.23755 0.04375
# Poissons Ratio (y) = 0.07456 0.30385
# Poissons Ratio (z) = 0.02468 0.54617
#
# Static dielectric constant tensor:
#      x y z
#    x 2.034610 0.000000 -0.038930 
#    y 0.000000 1.919070 0.000000 
#    z -0.038930 0.000000 1.890270 
# 
# From -- ./inp_files/35299.got.cif
#   From: 2010.05.17/outbox.cif.g08.bks.cpg/sg10_18_cif.got.tgz:35299.got - 2010.06.03 11:33:40.
