data_PCOD9149023
_publ_section_title
;
Structure prediction by ZEFSAII (Michael W. Deem and Ramdas Pophale) SiO2 
 PCOD9149023
Probable space group: P 2/M
;
_chemical_formula_sum "Si O2"
_cell_formula_units_Z 32
_cell_length_a 5.454004
_cell_length_b 9.660627
_cell_length_c 30.140007
_cell_angle_alpha 90.000000
_cell_angle_beta 78.159399
_cell_angle_gamma 90.000000
_cell_volume 1554.259638
_symmetry_space_group_name_H-M "P 2/M"
_symmetry_group_IT_number 10
_symmetry_cell_setting 'monoclinic'
loop_
_space_group_symop_operation_xyz
x,y,z
-x,y,-z
-x,-y,-z
x,-y,z
loop_
_atom_site_type_symbol
_atom_site_label
_atom_site_fract_x
_atom_site_fract_y
_atom_site_fract_z
Si Si1 0.025088 0.332472 0.182453
Si Si2 0.804924 0.844861 0.745953
Si Si3 0.515722 0.345943 0.700432
Si Si4 0.902719 0.652208 0.608678
Si Si5 0.720876 0.333379 0.523055
Si Si6 0.588600 0.332998 0.129470
Si Si7 0.278605 0.330971 0.974658
Si Si8 0.818344 0.847406 0.347817
O O1 0.017317 0.500000 0.190784
O O2 0.020607 0.240197 0.226902
O O3 0.301943 0.298743 0.152368
O O4 0.801581 0.293890 0.157215
O O5 0.579750 0.741328 0.741748
O O6 0.945427 0.864449 0.693984
O O7 0.737954 0.000000 0.764315
O O8 0.419704 0.500000 0.714199
O O9 0.761794 0.363418 0.660569
O O10 0.346687 0.257329 0.674182
O O11 0.016618 0.500000 0.593812
O O12 0.710897 0.688021 0.576440
O O13 0.098584 0.773401 0.610078
O O14 0.500000 0.278168 0.500000
O O15 0.719625 0.500000 0.517324
O O16 0.000000 0.284197 0.500000
O O17 0.596888 0.500000 0.128002
O O18 0.660456 0.284100 0.077540
O O19 0.278349 0.500000 0.974595
O O20 0.500000 0.288387 0.000000
O O21 0.000000 0.288006 0.000000
O O22 0.705749 0.000000 0.358197
#
# Coordination Sequence:
#
# PCOD9149023 Si02
#       8
#     4   4   4   4   4   4   4   4
#     4  10  20  34  52  75 107 146 182 225 274 326
#     4  10  22  38  53  75 105 141 185 229 275 329
#     4  10  20  34  56  82 107 136 179 228 276 328
#     4   9  19  34  54  81 108 139 180 227 274 324
#     4   9  18  31  52  82 114 143 177 224 277 328
#     4   9  18  31  47  73 108 143 182 224 273 330
#     4   9  15  24  42  68 101 140 175 215 271 330
#     4  10  21  36  55  78 107 142 180 227 279 328
#
# _framework density 20.588581000000001
#
# number of rings (size 3 to 8) (size 9 to 14) (size 15 to 20)
#    0.000    2.500    0.000    1.875    3.500    5.000 
#    0.000    0.000    0.000    0.750    0.000    0.000 
#    0.000   10.000    0.000    0.000    0.000    0.000 
#
# Total GULP energy -178308.702130 kJ/mol
# GULP energy per Si atom -5572.146942 kJ/mol
# Density = 2.054172 g / cm^3
# Si number density = 20.588581 Si / 1000 Ang^3
#
#
#
# Elastic Constant Matrix: (Units=GPa)
#
#
# Indices 1 2 3 4 5 6 
#
# 1 108.6515 30.3909 42.3610 0.0000 28.0353 0.0000
# 2 30.3909 107.1832 22.4531 0.0000 25.9502 0.0000
# 3 42.3610 22.4531 101.9392 0.0000 24.8633 0.0000
# 4 0.0000 0.0000 0.0000 -43.3422 0.0000 -16.1940
# 5 28.0353 25.9502 24.8633 0.0000 43.5770 0.0000
# 6 0.0000 0.0000 0.0000 -16.1940 0.0000 0.1090
#
#
#
# Elastic Compliance Matrix: (Units=1/GPa)
#
#
# Indices 1 2 3 4 5 6 
#
# 1 0.012305 -0.001540 -0.003563 0.000000 -0.004967 0.000000
# 2 -0.001540 0.011174 -0.000511 0.000000 -0.005372 0.000000
# 3 -0.003563 -0.000511 0.012511 0.000000 -0.004542 0.000000
# 4 0.000000 0.000000 0.000000 -0.000408 0.000000 -0.060658
# 5 -0.004967 -0.005372 -0.004542 0.000000 0.031933 0.000000
# 6 0.000000 0.000000 0.000000 -0.060658 0.000000 0.162349
#
#
# Mechanical properties :
#
#
# Convention : Reuss Voigt Hill
#
# Bulk Modulus (GPa) = 40.38479 56.46489 48.42484
# Shear Modulus (GPa) = 20.05252 14.90669 17.47960
#
# Velocity S-wave (km/s) = 3.12422 2.69369 2.91691
# Velocity P-wave (km/s) = 5.71595 6.09586 5.90896
#
# Compressibility (1/GPa) = 0.02476180
#
# Stress axis : x y z
#
# Youngs Moduli (GPa) = 81.26690 89.49228 79.93245
#
# Poissons Ratio (x) = 0.13784 0.28478
# Poissons Ratio (y) = 0.12517 0.04084
# Poissons Ratio (z) = 0.28954 0.04573
#
# Static dielectric constant tensor:
#      x y z
#    x 1.807350 0.000000 -0.048510 
#    y 0.000000 1.783100 0.000000 
#    z -0.048510 0.000000 1.768830 
# 
# From -- ./inp_files/13644.got.cif
#   From: 2010.05.17/outbox.cif.g08.bks.cpg/sg10_7_cif.got.tgz:13644.got - 2010.06.03 11:33:40.
