data_PCOD9149458
_publ_section_title
;
Structure prediction by ZEFSAII (Michael W. Deem and Ramdas Pophale) SiO2 
 PCOD9149458
Probable space group: P 2/M
;
_chemical_formula_sum "Si O2"
_cell_formula_units_Z 26
_cell_length_a 11.854420
_cell_length_b 21.059890
_cell_length_c 8.441815
_cell_angle_alpha 90.000000
_cell_angle_beta 37.859006
_cell_angle_gamma 90.000000
_cell_volume 1293.429754
_symmetry_space_group_name_H-M "P 2/M"
_symmetry_group_IT_number 10
_symmetry_cell_setting 'monoclinic'
loop_
_space_group_symop_operation_xyz
x,y,z
-x,y,-z
-x,-y,-z
x,-y,z
loop_
_atom_site_type_symbol
_atom_site_label
_atom_site_fract_x
_atom_site_fract_y
_atom_site_fract_z
Si Si1 0.727622 0.072403 0.408359
Si Si2 0.500000 0.270275 0.000000
Si Si3 0.566814 0.146861 0.094648
Si Si4 0.885515 0.926809 0.876830
Si Si5 0.728803 0.380773 0.854702
Si Si6 0.410984 0.423555 0.435794
Si Si7 0.055587 0.572487 0.672938
O O1 0.562143 0.118585 0.627905
O O2 0.898794 0.085522 0.336074
O O3 0.665488 0.000000 0.503451
O O4 0.802139 0.075863 0.147219
O O5 0.523498 0.221396 0.119770
O O6 0.323145 0.315727 0.177199
O O7 0.500000 0.118730 0.000000
O O8 0.773074 0.123860 0.899310
O O9 0.862035 0.000000 0.846249
O O10 0.813194 0.427119 0.628707
O O11 0.886754 0.382539 0.813982
O O12 0.542926 0.402001 0.147065
O O13 0.500000 0.400632 0.500000
O O14 0.411485 0.500000 0.435538
O O15 0.197842 0.405484 0.649314
O O16 0.990653 0.500000 0.775332
#
# Coordination Sequence:
#
# PCOD9149458 Si02
#       7
#     4   2   4   4   4   4   4
#     4   9  18  35  60  87 113 142 179 231 289 337
#     4  10  24  40  52  76 110 160 196 232 268 320
#     4  10  22  36  50  81 113 149 188 231 268 325
#     4   9  18  35  60  87 112 142 182 229 287 340
#     4  11  19  39  57  78 110 150 189 231 267 324
#     4  10  20  34  56  88 121 141 162 218 292 346
#     4  10  20  34  63  94 106 136 186 234 285 339
#
# _framework density 20.101593999999999
#
# number of rings (size 3 to 8) (size 9 to 14) (size 15 to 20)
#    0.462    1.692    1.538    3.692    0.000    4.923 
#    5.538    5.385    0.000    0.000    0.000    0.000 
#    0.000    0.000    0.000    0.000    0.000    0.000 
#
# Total GULP energy -144865.560414 kJ/mol
# GULP energy per Si atom -5571.752324 kJ/mol
# Density = 2.005584 g / cm^3
# Si number density = 20.101594 Si / 1000 Ang^3
#
#
#
# Elastic Constant Matrix: (Units=GPa)
#
#
# Indices 1 2 3 4 5 6 
#
# 1 131.0702 43.1155 1.1570 0.0000 -32.8044 0.0000
# 2 43.1155 73.1346 12.0314 0.0000 -19.9485 0.0000
# 3 1.1570 12.0314 30.7378 0.0000 -14.9182 0.0000
# 4 0.0000 0.0000 0.0000 -27.3105 0.0000 -7.3722
# 5 -32.8044 -19.9485 -14.9182 0.0000 31.0021 0.0000
# 6 0.0000 0.0000 0.0000 -7.3722 0.0000 57.8381
#
#
#
# Elastic Compliance Matrix: (Units=1/GPa)
#
#
# Indices 1 2 3 4 5 6 
#
# 1 0.012810 -0.005017 0.008472 0.000000 0.014403 0.000000
# 2 -0.005017 0.018618 -0.005037 0.000000 0.004248 0.000000
# 3 0.008472 -0.005037 0.048227 0.000000 0.028930 0.000000
# 4 0.000000 0.000000 0.000000 -0.035398 0.000000 -0.004512
# 5 0.014403 0.004248 0.028930 0.000000 0.064150 0.000000
# 6 0.000000 0.000000 0.000000 -0.004512 0.000000 0.016715
#
#
# Mechanical properties :
#
#
# Convention : Reuss Voigt Hill
#
# Bulk Modulus (GPa) = 13.07354 38.61670 25.84512
# Shear Modulus (GPa) = 32.51326 24.21518 28.36422
#
# Velocity S-wave (km/s) = 4.02611 3.47456 3.76046
# Velocity P-wave (km/s) = 5.30383 5.94552 5.63382
#
# Compressibility (1/GPa) = 0.07649039
#
# Stress axis : x y z
#
# Youngs Moduli (GPa) = 78.06496 53.71040 20.73538
#
# Poissons Ratio (x) = 0.26946 -0.17567
# Poissons Ratio (y) = 0.39165 0.10445
# Poissons Ratio (z) = -0.66136 0.27055
#
# Static dielectric constant tensor:
#      x y z
#    x 1.820370 0.000000 0.003350 
#    y 0.000000 1.692070 0.000000 
#    z 0.003350 0.000000 1.727110 
# 
# From -- ./inp_files/26018.got.cif
#   From: 2010.05.17/outbox.cif.g08.bks.cpg/sg10_14_cif.got.tgz:26018.got - 2010.06.03 11:33:40.
