data_PCOD9149694
_publ_section_title
;
Structure prediction by ZEFSAII (Michael W. Deem and Ramdas Pophale) SiO2 
 PCOD9149694
Probable space group: P 2/M
;
_chemical_formula_sum "Si O2"
_cell_formula_units_Z 32
_cell_length_a 22.328634
_cell_length_b 9.148373
_cell_length_c 9.333140
_cell_angle_alpha 90.000000
_cell_angle_beta 89.867702
_cell_angle_gamma 90.000000
_cell_volume 1906.481701
_symmetry_space_group_name_H-M "P 2/M"
_symmetry_group_IT_number 10
_symmetry_cell_setting 'monoclinic'
loop_
_space_group_symop_operation_xyz
x,y,z
-x,y,-z
-x,-y,-z
x,-y,z
loop_
_atom_site_type_symbol
_atom_site_label
_atom_site_fract_x
_atom_site_fract_y
_atom_site_fract_z
Si Si1 0.389183 0.325595 0.660188
Si Si2 0.270490 0.824957 0.161831
Si Si3 0.504577 0.173350 0.168050
Si Si4 0.174327 0.826985 0.636690
Si Si5 0.716830 0.174330 0.167999
Si Si6 0.180762 0.671758 0.353140
Si Si7 0.067661 0.326953 0.519403
Si Si8 0.615109 0.173423 0.646228
O O1 0.388940 0.500000 0.657920
O O2 0.445201 0.264659 0.750424
O O3 0.330253 0.262988 0.738120
O O4 0.391951 0.262377 0.499482
O O5 0.211166 0.745713 0.218087
O O6 0.324923 0.786447 0.267586
O O7 0.262136 0.000000 0.167760
O O8 0.286562 0.787036 0.998893
O O9 0.441480 0.194284 0.248713
O O10 0.519837 0.000000 0.176513
O O11 0.500000 0.210924 0.000000
O O12 0.216499 0.799727 0.771345
O O13 0.204591 0.752137 0.496783
O O14 0.108159 0.756556 0.636187
O O15 0.169994 0.000000 0.613443
O O16 0.704519 0.000000 0.183110
O O17 0.193885 0.500000 0.357708
O O18 0.109087 0.690383 0.376684
O O19 0.066444 0.500000 0.552667
O O20 0.000000 0.275440 0.500000
O O21 0.618261 0.000000 0.611511
#
# Coordination Sequence:
#
# PCOD9149694 Si02
#       8
#     4   4   4   4   4   4   4   4
#     4  12  25  37  54  80 110 140 175 220 268 315
#     4  10  20  35  55  78 103 135 176 221 266 311
#     4  10  21  40  63  82 103 137 180 220 264 321
#     4   9  17  30  51  78 104 133 174 219 259 302
#     4  10  21  37  55  76 106 141 178 219 265 318
#     4   9  18  31  49  75 106 137 172 211 257 311
#     4   8  16  31  51  76 108 142 175 213 257 308
#     4  10  21  37  58  79 102 137 180 220 262 316
#
# _framework density 16.784844
#
# number of rings (size 3 to 8) (size 9 to 14) (size 15 to 20)
#    0.750    1.500    0.000    3.375    0.000    9.500 
#    0.000    1.250    0.000    0.750    0.000    5.250 
#    0.000    0.000    0.000    0.000    0.000    0.000 
#
# Total GULP energy -178314.711392 kJ/mol
# GULP energy per Si atom -5572.334731 kJ/mol
# Density = 1.674664 g / cm^3
# Si number density = 16.784844 Si / 1000 Ang^3
#
#
#
# Elastic Constant Matrix: (Units=GPa)
#
#
# Indices 1 2 3 4 5 6 
#
# 1 105.3973 55.7728 53.7129 0.0000 0.0713 0.0000
# 2 55.7728 60.1331 59.2564 0.0000 -1.6997 0.0000
# 3 53.7129 59.2564 124.5887 0.0000 -2.2678 0.0000
# 4 0.0000 0.0000 0.0000 -6.4281 0.0000 -8.4130
# 5 0.0713 -1.6997 -2.2678 0.0000 10.3565 0.0000
# 6 0.0000 0.0000 0.0000 -8.4130 0.0000 22.7034
#
#
#
# Elastic Compliance Matrix: (Units=1/GPa)
#
#
# Indices 1 2 3 4 5 6 
#
# 1 0.018732 -0.017779 0.000326 0.000000 -0.002975 0.000000
# 2 -0.017779 0.048211 -0.015179 0.000000 0.004711 0.000000
# 3 0.000326 -0.015179 0.015120 0.000000 0.000817 0.000000
# 4 0.000000 0.000000 0.000000 -0.104760 0.000000 -0.038820
# 5 -0.002975 0.004711 0.000817 0.000000 0.097531 0.000000
# 6 0.000000 0.000000 0.000000 -0.038820 0.000000 0.029661
#
#
# Mechanical properties :
#
#
# Convention : Reuss Voigt Hill
#
# Bulk Modulus (GPa) = 59.52888 69.73371 64.63130
# Shear Modulus (GPa) = 28.51320 13.41816 20.96568
#
# Velocity S-wave (km/s) = 4.12606 2.83047 3.53807
# Velocity P-wave (km/s) = 7.63164 7.23311 7.43505
#
# Compressibility (1/GPa) = 0.01679857
#
# Stress axis : x y z
#
# Youngs Moduli (GPa) = 53.38521 20.74234 66.13721
#
# Poissons Ratio (x) = 0.36878 -0.02157
# Poissons Ratio (y) = 0.94914 1.00390
# Poissons Ratio (z) = -0.01741 0.31485
#
# Static dielectric constant tensor:
#      x y z
#    x 1.573420 0.000000 -0.001720 
#    y 0.000000 1.558980 0.000000 
#    z -0.001720 0.000000 1.549680 
# 
# From -- ./inp_files/35698.got.cif
#   From: 2010.05.17/outbox.cif.g08.bks.cpg/sg10_18_cif.got.tgz:35698.got - 2010.06.03 11:33:40.
