data_PCOD9149627
_publ_section_title
;
Structure prediction by ZEFSAII (Michael W. Deem and Ramdas Pophale) SiO2 
 PCOD9149627
Probable space group: P 2/M
;
_chemical_formula_sum "Si O2"
_cell_formula_units_Z 32
_cell_length_a 12.359341
_cell_length_b 13.859301
_cell_length_c 15.807503
_cell_angle_alpha 90.000000
_cell_angle_beta 139.744746
_cell_angle_gamma 90.000000
_cell_volume 1749.696860
_symmetry_space_group_name_H-M "P 2/M"
_symmetry_group_IT_number 10
_symmetry_cell_setting 'monoclinic'
loop_
_space_group_symop_operation_xyz
x,y,z
-x,y,-z
-x,-y,-z
x,-y,z
loop_
_atom_site_type_symbol
_atom_site_label
_atom_site_fract_x
_atom_site_fract_y
_atom_site_fract_z
Si Si1 0.600961 0.388547 0.470982
Si Si2 0.003022 0.109574 0.761491
Si Si3 0.923655 0.615448 0.760066
Si Si4 0.712147 0.289730 0.783934
Si Si5 0.884108 0.883385 0.354317
Si Si6 0.501134 0.888455 0.898538
Si Si7 0.663390 0.889431 0.644086
Si Si8 0.203646 0.747303 0.976730
O O1 0.500000 0.388171 0.500000
O O2 0.611121 0.500000 0.448985
O O3 0.788758 0.354428 0.606819
O O4 0.477809 0.329852 0.336725
O O5 0.806207 0.110033 0.658154
O O6 0.059264 0.151370 0.705007
O O7 0.074541 0.165672 0.884157
O O8 0.065320 0.000000 0.801558
O O9 0.933005 0.500000 0.764904
O O10 0.832624 0.650588 0.792428
O O11 0.106864 0.663924 0.865958
O O12 0.708518 0.180878 0.746736
O O13 0.777054 0.290548 0.917440
O O14 0.686330 0.866790 0.245896
O O15 0.000000 0.846948 0.500000
O O16 0.905779 0.000000 0.365018
O O17 0.544356 0.000000 0.897344
O O18 0.500000 0.890985 0.000000
O O19 0.625350 0.801743 0.947411
O O20 0.500000 0.850884 0.500000
O O21 0.636247 0.000000 0.655401
#
# Coordination Sequence:
#
# PCOD9149627 Si02
#       8
#     4   4   4   4   4   4   4   4
#     4   8  16  34  58  77  99 140 188 236 281 316
#     4  10  20  35  54  76 111 155 192 226 273 333
#     4  10  21  38  58  80 111 150 191 236 285 335
#     4  11  21  33  52  81 114 147 193 236 269 326
#     4   9  18  35  60  84 103 135 191 249 285 318
#     4  10  20  38  59  80 112 150 186 232 287 337
#     4  10  21  34  49  74 115 161 190 221 270 325
#     4  12  23  33  53  86 113 147 186 227 281 335
#
# _framework density 18.288881
#
# number of rings (size 3 to 8) (size 9 to 14) (size 15 to 20)
#    0.000    2.000    2.500    3.000    0.000    3.500 
#    0.000    3.750    0.000    0.375    0.000    0.000 
#    0.000    3.000    0.000    0.000    0.000    0.000 
#
# Total GULP energy -178235.944204 kJ/mol
# GULP energy per Si atom -5569.873256 kJ/mol
# Density = 1.824726 g / cm^3
# Si number density = 18.288881 Si / 1000 Ang^3
#
#
#
# Elastic Constant Matrix: (Units=GPa)
#
#
# Indices 1 2 3 4 5 6 
#
# 1 28.3081 12.1737 36.0307 0.0000 11.4909 0.0000
# 2 12.1737 74.3671 34.2458 0.0000 1.7589 0.0000
# 3 36.0307 34.2458 135.7553 0.0000 14.8636 0.0000
# 4 0.0000 0.0000 0.0000 19.1820 0.0000 15.5647
# 5 11.4909 1.7589 14.8636 0.0000 19.3361 0.0000
# 6 0.0000 0.0000 0.0000 15.5647 0.0000 14.7074
#
#
#
# Elastic Compliance Matrix: (Units=1/GPa)
#
#
# Indices 1 2 3 4 5 6 
#
# 1 0.065386 -0.003926 -0.013265 0.000000 -0.028303 0.000000
# 2 -0.003926 0.015502 -0.003243 0.000000 0.003415 0.000000
# 3 -0.013265 -0.003243 0.011803 0.000000 -0.000895 0.000000
# 4 0.000000 0.000000 0.000000 0.368982 0.000000 -0.390488
# 5 -0.028303 0.003415 -0.000895 0.000000 0.068914 0.000000
# 6 0.000000 0.000000 0.000000 -0.390488 0.000000 0.481241
#
#
# Mechanical properties :
#
#
# Convention : Reuss Voigt Hill
#
# Bulk Modulus (GPa) = 19.29584 44.81456 32.05520
# Shear Modulus (GPa) = 4.67303 21.04379 12.85841
#
# Velocity S-wave (km/s) = 1.60021 3.39578 2.65443
# Velocity P-wave (km/s) = 3.74002 6.31918 5.19229
#
# Compressibility (1/GPa) = 0.05182463
#
# Stress axis : x y z
#
# Youngs Moduli (GPa) = 15.29368 64.50851 84.72582
#
# Poissons Ratio (x) = 0.25324 1.12389
# Poissons Ratio (y) = 0.06004 0.27473
# Poissons Ratio (z) = 0.20287 0.20917
#
# Static dielectric constant tensor:
#      x y z
#    x 1.640400 0.000000 0.032020 
#    y 0.000000 1.663150 0.000000 
#    z 0.032020 0.000000 1.670960 
# 
# From -- ./inp_files/65123.got.cif
#   From: 2010.05.17/outbox.cif.g08.bks.cpg/sg10_33_cif.got.tgz:65123.got - 2010.06.03 11:33:40.
