data_PCOD9149085
_publ_section_title
;
Structure prediction by ZEFSAII (Michael W. Deem and Ramdas Pophale) SiO2 
 PCOD9149085
Probable space group: P 2/M
;
_chemical_formula_sum "Si O2"
_cell_formula_units_Z 28
_cell_length_a 9.598427
_cell_length_b 7.703617
_cell_length_c 30.431643
_cell_angle_alpha 90.000000
_cell_angle_beta 37.298601
_cell_angle_gamma 90.000000
_cell_volume 1363.548344
_symmetry_space_group_name_H-M "P 2/M"
_symmetry_group_IT_number 10
_symmetry_cell_setting 'monoclinic'
loop_
_space_group_symop_operation_xyz
x,y,z
-x,y,-z
-x,-y,-z
x,-y,z
loop_
_atom_site_type_symbol
_atom_site_label
_atom_site_fract_x
_atom_site_fract_y
_atom_site_fract_z
Si Si1 0.262056 0.291120 0.930504
Si Si2 0.105352 0.208177 0.795300
Si Si3 0.473658 0.211236 0.368500
Si Si4 0.632503 0.797781 0.508009
Si Si5 0.847736 0.295602 0.631032
Si Si6 0.587508 0.790839 0.930645
Si Si7 0.428543 0.709109 0.794588
O O1 0.250352 0.500000 0.929904
O O2 0.412971 0.250688 0.935287
O O3 0.377059 0.226343 0.856406
O O4 0.000000 0.226307 0.000000
O O5 0.285136 0.270606 0.713294
O O6 0.221347 0.248045 0.813198
O O7 0.846099 0.275092 0.856918
O O8 0.096470 0.000000 0.793417
O O9 0.429386 0.275970 0.428703
O O10 0.275291 0.269788 0.384965
O O11 0.469884 0.000000 0.369153
O O12 0.500000 0.717947 0.500000
O O13 0.903807 0.788896 0.431683
O O14 0.562398 0.000000 0.528107
O O15 0.880601 0.500000 0.630386
O O16 0.664345 0.226724 0.712890
O O17 0.600496 0.000000 0.930180
O O18 0.500000 0.726822 0.000000
O O19 0.445344 0.500000 0.791686
#
# Coordination Sequence:
#
# PCOD9149085 Si02
#       7
#     4   4   4   4   4   4   4
#     4  10  21  36  54  76 102 135 174 210 246 295
#     4   9  18  33  53  76 101 132 169 206 249 302
#     4   9  18  34  54  74  99 132 170 210 248 294
#     4  10  21  35  51  73 101 133 170 211 252 296
#     4  10  20  34  53  76 102 132 166 206 254 305
#     4  10  21  35  52  78 109 136 166 208 254 298
#     4   9  19  35  53  76 104 131 165 210 253 296
#
# _framework density 20.534658
#
# number of rings (size 3 to 8) (size 9 to 14) (size 15 to 20)
#    0.000    2.429    0.000    1.714    0.000    6.000 
#    0.000    1.429    0.000    0.000    0.000    0.000 
#    0.000    0.000    0.000    0.000    0.000    0.000 
#
# Total GULP energy -156328.520872 kJ/mol
# GULP energy per Si atom -5583.161460 kJ/mol
# Density = 2.048792 g / cm^3
# Si number density = 20.534658 Si / 1000 Ang^3
#
#
#
# Elastic Constant Matrix: (Units=GPa)
#
#
# Indices 1 2 3 4 5 6 
#
# 1 154.5574 -13.1793 124.0421 0.0000 5.2508 0.0000
# 2 -13.1793 30.7136 -4.5287 0.0000 2.3960 0.0000
# 3 124.0421 -4.5287 149.4672 0.0000 9.9214 0.0000
# 4 0.0000 0.0000 0.0000 10.2761 0.0000 1.2186
# 5 5.2508 2.3960 9.9214 0.0000 35.4631 0.0000
# 6 0.0000 0.0000 0.0000 1.2186 0.0000 27.8429
#
#
#
# Elastic Compliance Matrix: (Units=1/GPa)
#
#
# Indices 1 2 3 4 5 6 
#
# 1 0.020585 0.006229 -0.016980 0.000000 0.001282 0.000000
# 2 0.006229 0.034815 -0.003971 0.000000 -0.002164 0.000000
# 3 -0.016980 -0.003971 0.020864 0.000000 -0.003055 0.000000
# 4 0.000000 0.000000 0.000000 0.097821 0.000000 -0.004281
# 5 0.001282 -0.002164 -0.003055 0.000000 0.029009 0.000000
# 6 0.000000 0.000000 0.000000 -0.004281 0.000000 0.036103
#
#
# Mechanical properties :
#
#
# Convention : Reuss Voigt Hill
#
# Bulk Modulus (GPa) = 21.35782 60.82293 41.09037
# Shear Modulus (GPa) = 17.59024 29.94336 23.76680
#
# Velocity S-wave (km/s) = 2.92997 3.82276 3.40575
# Velocity P-wave (km/s) = 4.67651 7.01204 5.95980
#
# Compressibility (1/GPa) = 0.04682126
#
# Stress axis : x y z
#
# Youngs Moduli (GPa) = 48.57881 28.72313 47.92871
#
# Poissons Ratio (x) = -0.17893 0.81382
# Poissons Ratio (y) = -0.30262 0.19034
# Poissons Ratio (z) = 0.82486 0.11407
#
# Static dielectric constant tensor:
#      x y z
#    x 1.680510 0.000000 0.010600 
#    y 0.000000 1.771110 0.000000 
#    z 0.010600 0.000000 1.745820 
# 
# From -- ./inp_files/36702.got.cif
#   From: 2010.05.17/outbox.cif.g08.bks.cpg/sg10_19_cif.got.tgz:36702.got - 2010.06.03 11:33:40.
