data_PCOD9149217
_publ_section_title
;
Structure prediction by ZEFSAII (Michael W. Deem and Ramdas Pophale) SiO2 
 PCOD9149217
Probable space group: P 2/M
;
_chemical_formula_sum "Si O2"
_cell_formula_units_Z 22
_cell_length_a 13.008046
_cell_length_b 9.292362
_cell_length_c 8.938160
_cell_angle_alpha 90.000000
_cell_angle_beta 90.350851
_cell_angle_gamma 90.000000
_cell_volume 1080.384056
_symmetry_space_group_name_H-M "P 2/M"
_symmetry_group_IT_number 10
_symmetry_cell_setting 'monoclinic'
loop_
_space_group_symop_operation_xyz
x,y,z
-x,y,-z
-x,-y,-z
x,-y,z
loop_
_atom_site_type_symbol
_atom_site_label
_atom_site_fract_x
_atom_site_fract_y
_atom_site_fract_z
Si Si1 0.720026 0.339089 0.878275
Si Si2 0.292260 0.825096 0.428899
Si Si3 0.176867 0.834214 0.865088
Si Si4 0.500000 0.708419 0.000000
Si Si5 0.597161 0.839203 0.290071
Si Si6 0.106086 0.668160 0.590590
O O1 0.756177 0.500000 0.838404
O O2 0.698314 0.242606 0.733507
O O3 0.612030 0.355665 0.965597
O O4 0.799903 0.254802 0.984811
O O5 0.381287 0.774465 0.546090
O O6 0.188263 0.758495 0.495902
O O7 0.289102 0.000000 0.427300
O O8 0.288519 0.841422 0.782978
O O9 0.103922 0.746686 0.751689
O O10 0.144856 0.000000 0.890300
O O11 0.524787 0.782425 0.159237
O O12 0.560744 0.000000 0.318676
O O13 0.137286 0.500000 0.608880
O O14 0.000000 0.671767 0.500000
#
# Coordination Sequence:
#
# PCOD9149217 Si02
#       6
#     4   4   4   2   4   4
#     4  11  22  37  55  78 111 148 187 232 281 328
#     4  10  21  37  56  81 112 147 186 229 277 324
#     4   9  18  34  56  81 109 145 184 223 272 326
#     4  10  20  34  54  80 107 146 191 228 273 332
#     4   8  16  31  52  77 106 140 180 227 274 321
#     4  10  20  36  60  88 115 144 178 218 270 331
#
# _framework density 20.363129000000001
#
# number of rings (size 3 to 8) (size 9 to 14) (size 15 to 20)
#    0.000    2.364    0.000    3.818    0.000    4.364 
#    0.000    6.364    0.000    5.455    0.000    0.000 
#    0.000    0.000    0.000    0.000    0.000    0.000 
#
# Total GULP energy -122497.525575 kJ/mol
# GULP energy per Si atom -5568.069344 kJ/mol
# Density = 2.031678 g / cm^3
# Si number density = 20.363129 Si / 1000 Ang^3
#
#
#
# Elastic Constant Matrix: (Units=GPa)
#
#
# Indices 1 2 3 4 5 6 
#
# 1 37.2769 28.9573 29.4128 0.0000 18.5362 0.0000
# 2 28.9573 148.8996 80.3211 0.0000 22.6868 0.0000
# 3 29.4128 80.3211 175.5587 0.0000 36.3364 0.0000
# 4 0.0000 0.0000 0.0000 114.0127 0.0000 80.1979
# 5 18.5362 22.6868 36.3364 0.0000 31.7837 0.0000
# 6 0.0000 0.0000 0.0000 80.1979 0.0000 79.7736
#
#
#
# Elastic Compliance Matrix: (Units=1/GPa)
#
#
# Indices 1 2 3 4 5 6 
#
# 1 0.040692 -0.004557 -0.000647 0.000000 -0.019739 0.000000
# 2 -0.004557 0.009549 -0.003595 0.000000 -0.000048 0.000000
# 3 -0.000647 -0.003595 0.008960 0.000000 -0.007300 0.000000
# 4 0.000000 0.000000 0.000000 0.029951 0.000000 -0.030110
# 5 -0.019739 -0.000048 -0.007300 0.000000 0.051355 0.000000
# 6 0.000000 0.000000 0.000000 -0.030110 0.000000 0.042806
#
#
# Mechanical properties :
#
#
# Convention : Reuss Voigt Hill
#
# Bulk Modulus (GPa) = 24.03703 71.01307 47.52505
# Shear Modulus (GPa) = 23.27973 59.98358 41.63166
#
# Velocity S-wave (km/s) = 3.38484 5.43331 4.52648
# Velocity P-wave (km/s) = 5.20634 8.62034 7.12096
#
# Compressibility (1/GPa) = 0.04160249
#
# Stress axis : x y z
#
# Youngs Moduli (GPa) = 24.57472 104.72360 111.60149
#
# Poissons Ratio (x) = 0.47724 0.07221
# Poissons Ratio (y) = 0.11199 0.40126
# Poissons Ratio (z) = 0.01590 0.37653
#
# Static dielectric constant tensor:
#      x y z
#    x 1.753950 0.000000 0.002530 
#    y 0.000000 1.723030 0.000000 
#    z 0.002530 0.000000 1.748370 
# 
# From -- ./inp_files/27356.got.cif
#   From: 2010.05.17/outbox.cif.g08.bks.cpg/sg10_14_cif.got.tgz:27356.got - 2010.06.03 11:33:40.
