data_PCOD9149165
_publ_section_title
;
Structure prediction by ZEFSAII (Michael W. Deem and Ramdas Pophale) SiO2 
 PCOD9149165
Probable space group: P 2/M
;
_chemical_formula_sum "Si O2"
_cell_formula_units_Z 28
_cell_length_a 14.737807
_cell_length_b 12.646890
_cell_length_c 8.847454
_cell_angle_alpha 90.000000
_cell_angle_beta 119.714039
_cell_angle_gamma 90.000000
_cell_volume 1432.220173
_symmetry_space_group_name_H-M "P 2/M"
_symmetry_group_IT_number 10
_symmetry_cell_setting 'monoclinic'
loop_
_space_group_symop_operation_xyz
x,y,z
-x,y,-z
-x,-y,-z
x,-y,z
loop_
_atom_site_type_symbol
_atom_site_label
_atom_site_fract_x
_atom_site_fract_y
_atom_site_fract_z
Si Si1 0.189187 0.380220 0.568527
Si Si2 0.082394 0.196650 0.680195
Si Si3 0.064757 0.296321 0.189644
Si Si4 0.568979 0.879218 0.406343
Si Si5 0.770634 0.121658 0.764118
Si Si6 0.407491 0.285137 0.829669
Si Si7 0.298266 0.118104 0.959418
O O1 0.169366 0.500000 0.601359
O O2 0.130567 0.295739 0.626759
O O3 0.140611 0.363895 0.361120
O O4 0.312598 0.354641 0.685433
O O5 0.177705 0.124771 0.808469
O O6 0.000000 0.142893 0.500000
O O7 0.019663 0.242043 0.770083
O O8 0.137270 0.204386 0.179741
O O9 0.000000 0.349701 0.000000
O O10 0.500000 0.867656 0.500000
O O11 0.689657 0.869506 0.558677
O O12 0.548521 0.789059 0.267786
O O13 0.553238 0.000000 0.337714
O O14 0.807883 0.000000 0.802024
O O15 0.706390 0.140903 0.865700
O O16 0.357183 0.203378 0.908068
O O17 0.500000 0.341138 0.000000
O O18 0.339110 0.000000 0.968669
#
# Coordination Sequence:
#
# PCOD9149165 Si02
#       7
#     4   4   4   4   4   4   4
#     4  10  23  43  62  83 111 144 190 248 300 346
#     4   9  20  35  54  81 112 153 189 231 286 339
#     4  11  20  36  61  85 116 149 191 236 283 340
#     4  10  20  35  57  87 120 154 189 227 280 339
#     4  10  20  34  54  84 121 158 190 226 277 337
#     4  11  22  38  61  86 112 153 192 238 285 340
#     4  10  20  34  53  83 121 156 193 230 268 332
#
# _framework density 19.550066000000001
#
# number of rings (size 3 to 8) (size 9 to 14) (size 15 to 20)
#    0.000    1.857    2.857    1.286    0.000    6.571 
#    0.000    0.000    0.000    0.429    0.000    0.000 
#    0.000    0.000    0.000    0.000    0.000    0.000 
#
# Total GULP energy -156287.492264 kJ/mol
# GULP energy per Si atom -5581.696152 kJ/mol
# Density = 1.950557 g / cm^3
# Si number density = 19.550066 Si / 1000 Ang^3
#
#
#
# Elastic Constant Matrix: (Units=GPa)
#
#
# Indices 1 2 3 4 5 6 
#
# 1 47.4504 5.8630 15.9272 0.0000 10.0880 0.0000
# 2 5.8630 54.6918 15.5234 0.0000 0.5672 0.0000
# 3 15.9272 15.5234 125.3375 0.0000 21.9756 0.0000
# 4 0.0000 0.0000 0.0000 6.7794 0.0000 -2.8401
# 5 10.0880 0.5672 21.9756 0.0000 35.8777 0.0000
# 6 0.0000 0.0000 0.0000 -2.8401 0.0000 6.6870
#
#
#
# Elastic Compliance Matrix: (Units=1/GPa)
#
#
# Indices 1 2 3 4 5 6 
#
# 1 0.023042 -0.001918 -0.001747 0.000000 -0.005378 0.000000
# 2 -0.001918 0.019162 -0.002432 0.000000 0.001726 0.000000
# 3 -0.001747 -0.002432 0.009421 0.000000 -0.005240 0.000000
# 4 0.000000 0.000000 0.000000 0.179431 0.000000 0.076208
# 5 -0.005378 0.001726 -0.005240 0.000000 0.032567 0.000000
# 6 0.000000 0.000000 0.000000 0.076208 0.000000 0.181912
#
#
# Mechanical properties :
#
#
# Convention : Reuss Voigt Hill
#
# Bulk Modulus (GPa) = 25.36229 33.56742 29.46486
# Shear Modulus (GPa) = 10.61857 22.54657 16.58257
#
# Velocity S-wave (km/s) = 2.33308 3.39967 2.91556
# Velocity P-wave (km/s) = 4.50098 5.71118 5.14181
#
# Compressibility (1/GPa) = 0.03942861
#
# Stress axis : x y z
#
# Youngs Moduli (GPa) = 43.39971 52.18562 106.15082
#
# Poissons Ratio (x) = 0.10011 0.18549
# Poissons Ratio (y) = 0.08325 0.25818
# Poissons Ratio (z) = 0.07584 0.12693
#
# Static dielectric constant tensor:
#      x y z
#    x 1.684070 0.000000 0.036700 
#    y 0.000000 1.625890 0.000000 
#    z 0.036700 0.000000 1.748990 
# 
# From -- ./inp_files/28461.got.cif
#   From: 2010.05.17/outbox.cif.g08.bks.cpg/sg10_15_cif.got.tgz:28461.got - 2010.06.03 11:33:40.
