data_PCOD9149325
_publ_section_title
;
Structure prediction by ZEFSAII (Michael W. Deem and Ramdas Pophale) SiO2 
 PCOD9149325
Probable space group: P 2/M
;
_chemical_formula_sum "Si O2"
_cell_formula_units_Z 28
_cell_length_a 15.803255
_cell_length_b 7.459078
_cell_length_c 21.336375
_cell_angle_alpha 90.000000
_cell_angle_beta 153.220160
_cell_angle_gamma 90.000000
_cell_volume 1133.204498
_symmetry_space_group_name_H-M "P 2/M"
_symmetry_group_IT_number 10
_symmetry_cell_setting 'monoclinic'
loop_
_space_group_symop_operation_xyz
x,y,z
-x,y,-z
-x,-y,-z
x,-y,z
loop_
_atom_site_type_symbol
_atom_site_label
_atom_site_fract_x
_atom_site_fract_y
_atom_site_fract_z
Si Si1 0.172524 0.795291 0.073904
Si Si2 0.639053 0.713484 0.681417
Si Si3 0.618767 0.785152 0.910205
Si Si4 0.221008 0.286424 0.351613
Si Si5 0.809073 0.284312 0.408351
Si Si6 0.086516 0.705601 0.390131
Si Si7 0.696640 0.216765 0.100444
O O1 0.334737 0.796210 0.233709
O O2 0.259491 0.714631 0.068220
O O3 0.116741 0.000000 0.023043
O O4 0.000000 0.712173 0.000000
O O5 0.664091 0.500000 0.704652
O O6 0.780822 0.782313 0.720809
O O7 0.432174 0.738881 0.517132
O O8 0.395001 0.752780 0.755731
O O9 0.639346 0.000000 0.923145
O O10 0.695548 0.720122 0.027647
O O11 0.184124 0.500000 0.321042
O O12 0.104929 0.211039 0.332963
O O13 0.826275 0.500000 0.423088
O O14 0.000000 0.220009 0.500000
O O15 0.814024 0.215403 0.483539
O O16 0.155389 0.500000 0.429720
O O17 0.864537 0.708155 0.253212
O O18 0.709217 0.000000 0.109982
O O19 0.500000 0.268496 0.000000
#
# Coordination Sequence:
#
# PCOD9149325 Si02
#       7
#     4   4   4   4   4   4   4
#     4  10  22  37  52  74 110 149 183 225 273 318
#     4   9  17  33  55  76 103 138 178 219 264 316
#     4  10  22  39  58  81 113 153 192 229 277 335
#     4   8  16  31  52  78 106 135 169 220 271 313
#     4  10  21  37  59  88 117 144 181 232 287 339
#     4  10  20  34  55  82 111 141 179 224 275 330
#     4  10  22  39  57  80 110 144 185 230 274 326
#
# _framework density 24.708691999999999
#
# number of rings (size 3 to 8) (size 9 to 14) (size 15 to 20)
#    0.000    2.429    0.000    2.571    2.000    3.714 
#    0.000    2.143    0.000    0.000    0.000    0.000 
#    0.000    0.000    0.000    0.000    0.000    0.000 
#
# Total GULP energy -156357.393551 kJ/mol
# GULP energy per Si atom -5584.192627 kJ/mol
# Density = 2.465245 g / cm^3
# Si number density = 24.708692 Si / 1000 Ang^3
#
#
#
# Elastic Constant Matrix: (Units=GPa)
#
#
# Indices 1 2 3 4 5 6 
#
# 1 110.6615 11.2867 6.7549 0.0000 -7.8715 0.0000
# 2 11.2867 72.5501 -1.9583 0.0000 -1.1796 0.0000
# 3 6.7549 -1.9583 81.4352 0.0000 -9.2416 0.0000
# 4 0.0000 0.0000 0.0000 4.4303 0.0000 -6.0378
# 5 -7.8715 -1.1796 -9.2416 0.0000 42.7598 0.0000
# 6 0.0000 0.0000 0.0000 -6.0378 0.0000 -6.4229
#
#
#
# Elastic Compliance Matrix: (Units=1/GPa)
#
#
# Indices 1 2 3 4 5 6 
#
# 1 0.009332 -0.001444 -0.000634 0.000000 0.001541 0.000000
# 2 -0.001444 0.014025 0.000483 0.000000 0.000225 0.000000
# 3 -0.000634 0.000483 0.012642 0.000000 0.002629 0.000000
# 4 0.000000 0.000000 0.000000 0.098950 0.000000 -0.093017
# 5 0.001541 0.000225 0.002629 0.000000 0.024245 0.000000
# 6 0.000000 0.000000 0.000000 -0.093017 0.000000 -0.068253
#
#
# Mechanical properties :
#
#
# Convention : Reuss Voigt Hill
#
# Bulk Modulus (GPa) = 30.47950 32.97927 31.72938
# Shear Modulus (GPa) = 47.58814 24.72434 36.15624
#
# Velocity S-wave (km/s) = 4.39335 3.16671 3.82946
# Velocity P-wave (km/s) = 6.17233 5.17175 5.69406
#
# Compressibility (1/GPa) = 0.03280894
#
# Stress axis : x y z
#
# Youngs Moduli (GPa) = 107.15652 71.30178 79.09991
#
# Poissons Ratio (x) = 0.10295 0.05014
# Poissons Ratio (y) = 0.15472 -0.03817
# Poissons Ratio (z) = 0.06793 -0.03441
#
# Static dielectric constant tensor:
#      x y z
#    x 2.027810 0.000000 0.014930 
#    y 0.000000 1.958100 0.000000 
#    z 0.014930 0.000000 1.906420 
# 
# From -- ./inp_files/84911.got.cif
#   From: 2010.05.17/outbox.cif.g08.bks.cpg/sg10_43_cif.got.tgz:84911.got - 2010.06.03 11:33:40.
