data_PCOD9149886
_publ_section_title
;
Structure prediction by ZEFSAII (Michael W. Deem and Ramdas Pophale) SiO2 
 PCOD9149886
Probable space group: P 2/M
;
_chemical_formula_sum "Si O2"
_cell_formula_units_Z 28
_cell_length_a 5.427880
_cell_length_b 9.870193
_cell_length_c 26.472634
_cell_angle_alpha 90.000000
_cell_angle_beta 70.132460
_cell_angle_gamma 90.000000
_cell_volume 1333.837667
_symmetry_space_group_name_H-M "P 2/M"
_symmetry_group_IT_number 10
_symmetry_cell_setting 'monoclinic'
loop_
_space_group_symop_operation_xyz
x,y,z
-x,y,-z
-x,-y,-z
x,-y,z
loop_
_atom_site_type_symbol
_atom_site_label
_atom_site_fract_x
_atom_site_fract_y
_atom_site_fract_z
Si Si1 0.873629 0.847670 0.154143
Si Si2 0.723993 0.145703 0.047669
Si Si3 0.921469 0.842089 0.707408
Si Si4 0.542756 0.347814 0.788195
Si Si5 0.467210 0.157236 0.361226
Si Si6 0.695001 0.661657 0.533083
Si Si7 0.650444 0.648841 0.897577
O O1 0.756240 0.860891 0.105973
O O2 0.687516 0.761484 0.204029
O O3 0.125523 0.758432 0.125844
O O4 0.922323 0.000000 0.169635
O O5 0.557357 0.280142 0.051627
O O6 0.599842 0.000000 0.042808
O O7 0.000000 0.153862 0.000000
O O8 0.804531 0.729957 0.753268
O O9 0.740584 0.824590 0.669889
O O10 0.229606 0.821320 0.675908
O O11 0.883631 0.000000 0.726446
O O12 0.514406 0.500000 0.768066
O O13 0.539505 0.366141 0.848713
O O14 0.394649 0.255841 0.411835
O O15 0.447481 0.000000 0.378810
O O16 0.500000 0.693257 0.500000
O O17 0.677076 0.500000 0.543492
O O18 0.000000 0.692644 0.500000
O O19 0.740239 0.500000 0.908105
#
# Coordination Sequence:
#
# PCOD9149886 Si02
#       7
#     4   4   4   4   4   4   4
#     4  10  20  35  57  80 105 141 183 230 282 340
#     4   9  19  36  55  77 105 139 182 228 278 340
#     4  10  22  39  58  85 119 156 197 246 298 354
#     4  10  22  38  56  80 109 145 189 235 285 346
#     4  10  22  39  59  87 121 155 199 247 294 350
#     4  10  21  37  59  87 119 156 199 244 293 350
#     4  10  21  36  54  79 110 141 181 231 282 346
#
# _framework density 20.992059000000001
#
# number of rings (size 3 to 8) (size 9 to 14) (size 15 to 20)
#    0.000    2.143    0.000    2.143    2.000    4.857 
#    0.000    2.857    0.000    0.000    0.000    0.000 
#    0.000    0.000    0.000    0.000    0.000    0.000 
#
# Total GULP energy -156220.638154 kJ/mol
# GULP energy per Si atom -5579.308506 kJ/mol
# Density = 2.094428 g / cm^3
# Si number density = 20.992059 Si / 1000 Ang^3
#
#
#
# Elastic Constant Matrix: (Units=GPa)
#
#
# Indices 1 2 3 4 5 6 
#
# 1 95.4780 46.1097 32.2669 0.0000 -4.4823 0.0000
# 2 46.1097 169.9949 60.3338 0.0000 -21.4286 0.0000
# 3 32.2669 60.3338 90.1641 0.0000 -4.8230 0.0000
# 4 0.0000 0.0000 0.0000 103.3566 0.0000 -27.9098
# 5 -4.4823 -21.4286 -4.8230 0.0000 34.7791 0.0000
# 6 0.0000 0.0000 0.0000 -27.9098 0.0000 20.2828
#
#
#
# Elastic Compliance Matrix: (Units=1/GPa)
#
#
# Indices 1 2 3 4 5 6 
#
# 1 0.012614 -0.002424 -0.002907 0.000000 -0.000271 0.000000
# 2 -0.002424 0.008797 -0.004782 0.000000 0.004445 0.000000
# 3 -0.002907 -0.004782 0.015266 0.000000 -0.001204 0.000000
# 4 0.000000 0.000000 0.000000 0.015396 0.000000 0.021185
# 5 -0.000271 0.004445 -0.001204 0.000000 0.031290 0.000000
# 6 0.000000 0.000000 0.000000 0.021185 0.000000 0.078455
#
#
# Mechanical properties :
#
#
# Convention : Reuss Voigt Hill
#
# Bulk Modulus (GPa) = 60.77829 70.33974 65.55901
# Shear Modulus (GPa) = 26.66290 46.14547 36.40418
#
# Velocity S-wave (km/s) = 3.56777 4.69362 4.16888
# Velocity P-wave (km/s) = 6.78143 7.93435 7.38044
#
# Compressibility (1/GPa) = 0.01645324
#
# Stress axis : x y z
#
# Youngs Moduli (GPa) = 79.27831 113.67046 65.50374
#
# Poissons Ratio (x) = 0.27553 0.19039
# Poissons Ratio (y) = 0.19217 0.31321
# Poissons Ratio (z) = 0.23043 0.54353
#
# Static dielectric constant tensor:
#      x y z
#    x 1.840710 0.000000 0.018310 
#    y 0.000000 1.800100 0.000000 
#    z 0.018310 0.000000 1.734840 
# 
# From -- ./inp_files/13570.got.cif
#   From: 2010.05.17/outbox.cif.g08.bks.cpg/sg10_7_cif.got.tgz:13570.got - 2010.06.03 11:33:40.
