data_PCOD9149342
_publ_section_title
;
Structure prediction by ZEFSAII (Michael W. Deem and Ramdas Pophale) SiO2 
 PCOD9149342
Probable space group: P 2/M
;
_chemical_formula_sum "Si O2"
_cell_formula_units_Z 32
_cell_length_a 14.511717
_cell_length_b 8.499149
_cell_length_c 20.401657
_cell_angle_alpha 90.000000
_cell_angle_beta 40.613316
_cell_angle_gamma 90.000000
_cell_volume 1637.976841
_symmetry_space_group_name_H-M "P 2/M"
_symmetry_group_IT_number 10
_symmetry_cell_setting 'monoclinic'
loop_
_space_group_symop_operation_xyz
x,y,z
-x,y,-z
-x,-y,-z
x,-y,z
loop_
_atom_site_type_symbol
_atom_site_label
_atom_site_fract_x
_atom_site_fract_y
_atom_site_fract_z
Si Si1 0.366856 0.189529 0.227155
Si Si2 0.598574 0.188526 0.299415
Si Si3 0.144626 0.189768 0.457617
Si Si4 0.660227 0.310389 0.898702
Si Si5 0.288793 0.312088 0.503592
Si Si6 0.804534 0.309516 0.301279
Si Si7 0.126234 0.689983 0.102766
Si Si8 0.329342 0.809921 0.886562
O O1 0.273180 0.235480 0.340148
O O2 0.305514 0.255669 0.192989
O O3 0.528413 0.241898 0.151705
O O4 0.365729 0.000000 0.224383
O O5 0.438996 0.243820 0.399419
O O6 0.700181 0.250170 0.301471
O O7 0.652410 0.241473 0.198573
O O8 0.598892 0.000000 0.298949
O O9 0.171703 0.262233 0.513834
O O10 0.000000 0.236598 0.500000
O O11 0.145005 0.000000 0.463734
O O12 0.659436 0.500000 0.900756
O O13 0.771051 0.254991 0.893607
O O14 0.500000 0.254638 0.000000
O O15 0.299984 0.500000 0.498809
O O16 0.248051 0.257469 0.598561
O O17 0.802905 0.500000 0.301774
O O18 0.965460 0.257364 0.200799
O O19 0.127146 0.500000 0.102921
O O20 0.194535 0.746499 0.998036
O O21 0.325937 0.000000 0.889297
#
# Coordination Sequence:
#
# PCOD9149342 Si02
#       8
#     4   4   4   4   4   4   4   4
#     4  10  20  36  56  82 116 154 192 239 293 343
#     4  11  23  42  66  90 117 152 199 252 303 358
#     4  10  22  40  60  87 124 161 198 243 295 351
#     4  10  20  34  55  83 113 149 194 236 277 339
#     4  11  23  40  64  91 122 158 199 247 298 357
#     4  10  24  43  60  86 123 157 195 248 305 357
#     4  10  22  40  59  84 122 160 195 242 298 354
#     4  10  21  38  60  86 119 152 195 249 295 350
#
# _framework density 19.536296
#
# number of rings (size 3 to 8) (size 9 to 14) (size 15 to 20)
#    0.000    1.750    2.500    1.125    1.750    6.000 
#    0.000    2.500    0.000    0.000    0.000    0.000 
#    0.000    0.000    0.000    0.000    0.000    0.000 
#
# Total GULP energy -178794.946072 kJ/mol
# GULP energy per Si atom -5587.342065 kJ/mol
# Density = 1.949183 g / cm^3
# Si number density = 19.536296 Si / 1000 Ang^3
#
#
#
# Elastic Constant Matrix: (Units=GPa)
#
#
# Indices 1 2 3 4 5 6 
#
# 1 152.3157 18.5027 72.2462 0.0000 14.9888 0.0000
# 2 18.5027 5.7591 17.1888 0.0000 2.8962 0.0000
# 3 72.2462 17.1888 117.3938 0.0000 22.5720 0.0000
# 4 0.0000 0.0000 0.0000 25.6062 0.0000 3.9625
# 5 14.9888 2.8962 22.5720 0.0000 34.6590 0.0000
# 6 0.0000 0.0000 0.0000 3.9625 0.0000 28.5010
#
#
#
# Elastic Compliance Matrix: (Units=1/GPa)
#
#
# Indices 1 2 3 4 5 6 
#
# 1 0.011320 -0.027765 -0.002750 0.000000 -0.000784 0.000000
# 2 -0.027765 0.377052 -0.039292 0.000000 0.006089 0.000000
# 3 -0.002750 -0.039292 0.017266 0.000000 -0.006772 0.000000
# 4 0.000000 0.000000 0.000000 0.039912 0.000000 -0.005549
# 5 -0.000784 0.006089 -0.006772 0.000000 0.033093 0.000000
# 6 0.000000 0.000000 0.000000 -0.005549 0.000000 0.035858
#
#
# Mechanical properties :
#
#
# Convention : Reuss Voigt Hill
#
# Bulk Modulus (GPa) = 3.75907 54.59379 29.17643
# Shear Modulus (GPa) = 6.73138 28.92198 17.82668
#
# Velocity S-wave (km/s) = 1.85824 3.85180 3.02402
# Velocity P-wave (km/s) = 2.55586 6.91283 5.21151
#
# Compressibility (1/GPa) = 0.26602351
#
# Stress axis : x y z
#
# Youngs Moduli (GPa) = 88.34111 2.65215 57.91709
#
# Poissons Ratio (x) = 0.07364 0.15928
# Poissons Ratio (y) = 2.45281 2.27566
# Poissons Ratio (z) = 0.24296 0.10421
#
# Static dielectric constant tensor:
#      x y z
#    x 1.664520 0.000000 0.000340 
#    y 0.000000 1.670060 0.000000 
#    z 0.000340 0.000000 1.676410 
# 
# From -- ./inp_files/58297.got.cif
#   From: 2010.05.17/outbox.cif.g08.bks.cpg/sg10_30_cif.got.tgz:58297.got - 2010.06.03 11:33:40.
