data_PCOD9149929
_publ_section_title
;
Structure prediction by ZEFSAII (Michael W. Deem and Ramdas Pophale) SiO2 
 PCOD9149929
Probable space group: P 2/M
;
_chemical_formula_sum "Si O2"
_cell_formula_units_Z 32
_cell_length_a 26.439145
_cell_length_b 7.833311
_cell_length_c 15.387135
_cell_angle_alpha 90.000000
_cell_angle_beta 153.094039
_cell_angle_gamma 90.000000
_cell_volume 1442.100427
_symmetry_space_group_name_H-M "P 2/M"
_symmetry_group_IT_number 10
_symmetry_cell_setting 'monoclinic'
loop_
_space_group_symop_operation_xyz
x,y,z
-x,y,-z
-x,-y,-z
x,-y,z
loop_
_atom_site_type_symbol
_atom_site_label
_atom_site_fract_x
_atom_site_fract_y
_atom_site_fract_z
Si Si1 0.319576 0.295725 0.599741
Si Si2 0.124677 0.300271 0.176914
Si Si3 0.817054 0.296021 0.089065
Si Si4 0.840440 0.797485 0.504173
Si Si5 0.927611 0.801714 0.081455
Si Si6 0.535368 0.709303 0.835050
Si Si7 0.448494 0.705254 0.332202
Si Si8 0.791509 0.705338 0.239073
O O1 0.324520 0.500000 0.596790
O O2 0.224307 0.226525 0.387698
O O3 0.273608 0.261641 0.625438
O O4 0.441387 0.231835 0.758402
O O5 0.118393 0.500000 0.190061
O O6 0.144303 0.285789 0.103790
O O7 0.000000 0.225845 0.000000
O O8 0.837648 0.500000 0.115994
O O9 0.878980 0.214294 0.103217
O O10 0.843734 0.234756 0.227798
O O11 0.684427 0.267299 0.874269
O O12 0.850037 0.750550 0.418278
O O13 0.946947 0.726513 0.720236
O O14 0.845212 0.000000 0.518159
O O15 0.932736 0.000000 0.065836
O O16 0.538471 0.500000 0.840677
O O17 0.505008 0.763658 0.689891
O O18 0.662365 0.765629 0.047241
O O19 0.500000 0.775644 0.500000
O O20 0.465793 0.500000 0.359735
O O21 0.788540 0.500000 0.228037
#
# Coordination Sequence:
#
# PCOD9149929 Si02
#       8
#     4   4   4   4   4   4   4   4
#     4  10  20  35  58  85 112 142 179 225 271 322
#     4  10  20  35  57  84 111 141 182 229 272 317
#     4   9  19  35  57  84 110 139 181 228 272 320
#     4  11  24  39  55  77 107 147 189 226 273 329
#     4  11  24  38  54  78 112 151 185 222 272 329
#     4   8  16  31  52  82 112 139 174 217 273 326
#     4   8  14  26  49  81 112 138 169 216 268 318
#     4   9  19  38  60  82 109 140 179 230 278 320
#
# _framework density 22.189855000000001
#
# number of rings (size 3 to 8) (size 9 to 14) (size 15 to 20)
#    0.000    2.500    1.250    2.250    1.750    3.750 
#    0.000    5.625    0.000    1.125    0.000    0.000 
#    0.000    0.000    0.000    0.000    0.000    0.000 
#
# Total GULP energy -178599.589371 kJ/mol
# GULP energy per Si atom -5581.237168 kJ/mol
# Density = 2.213935 g / cm^3
# Si number density = 22.189855 Si / 1000 Ang^3
#
#
#
# Elastic Constant Matrix: (Units=GPa)
#
#
# Indices 1 2 3 4 5 6 
#
# 1 85.1692 6.1270 -22.5727 0.0000 -16.9759 0.0000
# 2 6.1270 21.6468 18.1365 0.0000 14.3743 0.0000
# 3 -22.5727 18.1365 -25.2989 0.0000 -45.2631 0.0000
# 4 0.0000 0.0000 0.0000 -127.4682 0.0000 -234.9790
# 5 -16.9759 14.3743 -45.2631 0.0000 16.7739 0.0000
# 6 0.0000 0.0000 0.0000 -234.9790 0.0000 -457.4776
#
#
#
# Elastic Compliance Matrix: (Units=1/GPa)
#
#
# Indices 1 2 3 4 5 6 
#
# 1 0.010136 0.001854 -0.003985 0.000000 -0.002085 0.000000
# 2 0.001854 0.032281 0.011603 0.000000 0.005525 0.000000
# 3 -0.003985 0.011603 -0.000454 0.000000 -0.015202 0.000000
# 4 0.000000 0.000000 0.000000 -0.147633 0.000000 0.075830
# 5 -0.002085 0.005525 -0.015202 0.000000 0.011750 0.000000
# 6 0.000000 0.000000 0.000000 0.075830 0.000000 -0.041135
#
#
# Mechanical properties :
#
#
# Convention : Reuss Voigt Hill
#
# Bulk Modulus (GPa) = 16.41821 9.43320 12.92570
# Shear Modulus (GPa) = -37.39796 -108.31263 -72.85529
#
# Velocity S-wave (km/s) = -4.10977 -6.99412 -5.73620
# Velocity P-wave (km/s) = 3.88655 7.80790 6.16719
#
# Compressibility (1/GPa) = 0.06090798
#
# Stress axis : x y z
#
# Youngs Moduli (GPa) = 98.65595 30.97790 -2201.73012
#
# Poissons Ratio (x) = -0.05744 -8.77443
# Poissons Ratio (y) = -0.18293 25.54773
# Poissons Ratio (z) = 0.39317 -0.35945
#
# Static dielectric constant tensor:
#      x y z
#    x 1.843920 0.000000 0.003260 
#    y 0.000000 1.819830 0.000000 
#    z 0.003260 0.000000 1.829910 
# 
# From -- ./inp_files/71476.got.cif
#   From: 2010.05.17/outbox.cif.g08.bks.cpg/sg10_36_cif.got.tgz:71476.got - 2010.06.03 11:33:40.
