data_PCOD9149593
_publ_section_title
;
Structure prediction by ZEFSAII (Michael W. Deem and Ramdas Pophale) SiO2 
 PCOD9149593
Probable space group: P 2/M
;
_chemical_formula_sum "Si O2"
_cell_formula_units_Z 28
_cell_length_a 23.533238
_cell_length_b 8.943741
_cell_length_c 19.186686
_cell_angle_alpha 90.000000
_cell_angle_beta 23.712971
_cell_angle_gamma 90.000000
_cell_volume 1624.031344
_symmetry_space_group_name_H-M "P 2/M"
_symmetry_group_IT_number 10
_symmetry_cell_setting 'monoclinic'
loop_
_space_group_symop_operation_xyz
x,y,z
-x,y,-z
-x,-y,-z
x,-y,z
loop_
_atom_site_type_symbol
_atom_site_label
_atom_site_fract_x
_atom_site_fract_y
_atom_site_fract_z
Si Si1 0.989204 0.679404 0.729507
Si Si2 0.691351 0.679015 0.587830
Si Si3 0.568537 0.177759 0.586244
Si Si4 0.269010 0.318811 0.881304
Si Si5 0.942556 0.820565 0.489884
Si Si6 0.377944 0.179498 0.191152
Si Si7 0.337825 0.671685 0.654118
O O1 0.985586 0.500000 0.726695
O O2 0.143249 0.719381 0.587163
O O3 0.978997 0.750518 0.664516
O O4 0.863382 0.723728 0.922423
O O5 0.679814 0.500000 0.596300
O O6 0.630431 0.753468 0.587192
O O7 0.613244 0.738821 0.744668
O O8 0.412196 0.244379 0.748342
O O9 0.662000 0.228907 0.414783
O O10 0.562051 0.000000 0.597402
O O11 0.286310 0.500000 0.863831
O O12 0.250742 0.279364 0.820018
O O13 0.776429 0.785741 0.667240
O O14 0.000000 0.768830 0.500000
O O15 0.957994 0.000000 0.469417
O O16 0.385232 0.000000 0.193983
O O17 0.500000 0.221720 0.000000
O O18 0.500000 0.671879 0.500000
O O19 0.302106 0.500000 0.676182
#
# Coordination Sequence:
#
# PCOD9149593 Si02
#       7
#     4   4   4   4   4   4   4
#     4   9  19  35  54  75  99 130 167 206 248 293
#     4  10  20  35  53  73 101 135 169 205 248 296
#     4  11  21  32  50  76 103 132 168 207 248 295
#     4   9  18  34  54  76 101 129 165 208 251 296
#     4   9  18  32  49  70  98 131 163 197 242 294
#     4   9  18  33  51  71  98 130 164 203 245 291
#     4   8  15  30  51  72  98 131 164 203 250 294
#
# _framework density 17.241046000000001
#
# number of rings (size 3 to 8) (size 9 to 14) (size 15 to 20)
#    0.000    2.714    0.000    2.571    0.000    5.429 
#    0.000    2.143    0.000    4.286    0.000    0.000 
#    0.000    0.000    0.000    0.000    0.000    0.000 
#
# Total GULP energy -156115.083042 kJ/mol
# GULP energy per Si atom -5575.538680 kJ/mol
# Density = 1.720180 g / cm^3
# Si number density = 17.241046 Si / 1000 Ang^3
#
#
#
# Elastic Constant Matrix: (Units=GPa)
#
#
# Indices 1 2 3 4 5 6 
#
# 1 127.6239 56.4755 72.5978 0.0000 36.4163 0.0000
# 2 56.4755 48.1203 47.1894 0.0000 16.0468 0.0000
# 3 72.5978 47.1894 158.1214 0.0000 36.7256 0.0000
# 4 0.0000 0.0000 0.0000 821.2264 0.0000 169.7575
# 5 36.4163 16.0468 36.7256 0.0000 21.6007 0.0000
# 6 0.0000 0.0000 0.0000 169.7575 0.0000 57.7751
#
#
#
# Elastic Compliance Matrix: (Units=1/GPa)
#
#
# Indices 1 2 3 4 5 6 
#
# 1 0.023833 -0.020221 0.001546 0.000000 -0.027786 0.000000
# 2 -0.020221 0.048350 -0.007802 0.000000 0.011436 0.000000
# 3 0.001546 -0.007802 0.011902 0.000000 -0.017047 0.000000
# 4 0.000000 0.000000 0.000000 0.003101 0.000000 -0.009113
# 5 -0.027786 0.011436 -0.017047 0.000000 0.113626 0.000000
# 6 0.000000 0.000000 0.000000 -0.009113 0.000000 0.044084
#
#
# Mechanical properties :
#
#
# Convention : Reuss Voigt Hill
#
# Bulk Modulus (GPa) = 32.12155 76.26566 54.19360
# Shear Modulus (GPa) = 16.22183 190.62731 103.42457
#
# Velocity S-wave (km/s) = 3.07071 10.52644 7.75356
# Velocity P-wave (km/s) = 5.58960 13.85902 10.56683
#
# Compressibility (1/GPa) = 0.03113175
#
# Stress axis : x y z
#
# Youngs Moduli (GPa) = 41.95930 20.68231 84.01948
#
# Poissons Ratio (x) = 0.41822 -0.12991
# Poissons Ratio (y) = 0.84846 0.65550
# Poissons Ratio (z) = -0.06488 0.16136
#
# Static dielectric constant tensor:
#      x y z
#    x 1.564780 0.000000 0.004650 
#    y 0.000000 1.575770 0.000000 
#    z 0.004650 0.000000 1.590640 
# 
# From -- ./inp_files/70216.got.cif
#   From: 2010.05.17/outbox.cif.g08.bks.cpg/sg10_36_cif.got.tgz:70216.got - 2010.06.03 11:33:40.
