data_PCOD9149448
_publ_section_title
;
Structure prediction by ZEFSAII (Michael W. Deem and Ramdas Pophale) SiO2 
 PCOD9149448
Probable space group: P 2/M
;
_chemical_formula_sum "Si O2"
_cell_formula_units_Z 32
_cell_length_a 25.052983
_cell_length_b 8.214570
_cell_length_c 14.537433
_cell_angle_alpha 90.000000
_cell_angle_beta 29.986987
_cell_angle_gamma 90.000000
_cell_volume 1495.309595
_symmetry_space_group_name_H-M "P 2/M"
_symmetry_group_IT_number 10
_symmetry_cell_setting 'monoclinic'
loop_
_space_group_symop_operation_xyz
x,y,z
-x,y,-z
-x,-y,-z
x,-y,z
loop_
_atom_site_type_symbol
_atom_site_label
_atom_site_fract_x
_atom_site_fract_y
_atom_site_fract_z
Si Si1 0.240236 0.811593 0.055005
Si Si2 0.982544 0.310786 0.630182
Si Si3 0.340905 0.809174 0.503076
Si Si4 0.850417 0.193933 0.471070
Si Si5 0.681265 0.194233 0.864274
Si Si6 0.113444 0.800324 0.790117
Si Si7 0.537257 0.688820 0.845368
Si Si8 0.529557 0.307181 0.352864
O O1 0.359479 0.774497 0.842888
O O2 0.216000 0.000000 0.073042
O O3 0.142931 0.708359 0.160801
O O4 0.243715 0.785288 0.159751
O O5 0.013433 0.500000 0.582875
O O6 0.000000 0.244865 0.500000
O O7 0.053675 0.226654 0.601473
O O8 0.218675 0.749630 0.690130
O O9 0.377071 0.782964 0.342940
O O10 0.429172 0.727614 0.435980
O O11 0.343528 0.000000 0.519944
O O12 0.742883 0.254676 0.681844
O O13 0.873056 0.256610 0.335383
O O14 0.836558 0.000000 0.484725
O O15 0.656577 0.000000 0.894671
O O16 0.574253 0.293174 0.042313
O O17 0.114116 0.000000 0.788793
O O18 0.000000 0.748216 0.000000
O O19 0.567402 0.500000 0.809785
O O20 0.500000 0.756344 0.000000
O O21 0.500000 0.252801 0.500000
O O22 0.548251 0.500000 0.325839
#
# Coordination Sequence:
#
# PCOD9149448 Si02
#       8
#     4   4   4   4   4   4   4   4
#     4  11  22  38  62  89 119 158 205 255 303 362
#     4  11  23  37  57  87 126 167 204 251 310 372
#     4  11  22  39  65  92 122 160 204 255 306 364
#     4  10  20  37  61  88 121 159 204 255 305 363
#     4  10  20  34  56  86 118 154 198 252 309 362
#     4   9  20  39  63  91 120 154 200 254 303 348
#     4  11  23  36  55  86 123 162 202 248 308 374
#     4  11  25  44  65  91 127 165 203 252 307 368
#
# _framework density 21.40025
#
# number of rings (size 3 to 8) (size 9 to 14) (size 15 to 20)
#    0.000    1.500    2.500    2.625    0.000    5.500 
#    0.000    2.500    0.000    2.625    0.000    0.000 
#    0.000    0.000    0.000    0.000    0.000    0.000 
#
# Total GULP energy -178780.665989 kJ/mol
# GULP energy per Si atom -5586.895812 kJ/mol
# Density = 2.135154 g / cm^3
# Si number density = 21.400250 Si / 1000 Ang^3
#
#
#
# Elastic Constant Matrix: (Units=GPa)
#
#
# Indices 1 2 3 4 5 6 
#
# 1 70.4806 -4.8131 37.9258 0.0000 -2.4207 0.0000
# 2 -4.8131 7.2695 -0.5581 0.0000 4.0530 0.0000
# 3 37.9258 -0.5581 129.3160 0.0000 -8.1278 0.0000
# 4 0.0000 0.0000 0.0000 25.1255 0.0000 -5.6354
# 5 -2.4207 4.0530 -8.1278 0.0000 37.0808 0.0000
# 6 0.0000 0.0000 0.0000 -5.6354 0.0000 27.6647
#
#
#
# Elastic Compliance Matrix: (Units=1/GPa)
#
#
# Indices 1 2 3 4 5 6 
#
# 1 0.017795 0.012111 -0.005249 0.000000 -0.001313 0.000000
# 2 0.012111 0.154750 -0.003952 0.000000 -0.016990 0.000000
# 3 -0.005249 -0.003952 0.009390 0.000000 0.002148 0.000000
# 4 0.000000 0.000000 0.000000 0.041706 0.000000 0.008496
# 5 -0.001313 -0.016990 0.002148 0.000000 0.029210 0.000000
# 6 0.000000 0.000000 0.000000 0.008496 0.000000 0.037878
#
#
# Mechanical properties :
#
#
# Convention : Reuss Voigt Hill
#
# Bulk Modulus (GPa) = 5.32610 30.24168 17.78389
# Shear Modulus (GPa) = 14.38876 29.60831 21.99853
#
# Velocity S-wave (km/s) = 2.59581 3.72364 3.20965
# Velocity P-wave (km/s) = 3.38800 5.71398 4.69724
#
# Compressibility (1/GPa) = 0.18775452
#
# Stress axis : x y z
#
# Youngs Moduli (GPa) = 56.19608 6.46205 106.49199
#
# Poissons Ratio (x) = -0.07826 0.55899
# Poissons Ratio (y) = -0.68058 0.42084
# Poissons Ratio (z) = 0.29498 0.02554
#
# Static dielectric constant tensor:
#      x y z
#    x 1.811480 0.000000 0.002760 
#    y 0.000000 1.736920 0.000000 
#    z 0.002760 0.000000 1.791160 
# 
# From -- ./inp_files/72199.got.cif
#   From: 2010.05.17/outbox.cif.g08.bks.cpg/sg10_37_cif.got.tgz:72199.got - 2010.06.03 11:33:40.
