data_PCOD9149746
_publ_section_title
;
Structure prediction by ZEFSAII (Michael W. Deem and Ramdas Pophale) SiO2 
 PCOD9149746
Probable space group: P 2/M
;
_chemical_formula_sum "Si O2"
_cell_formula_units_Z 28
_cell_length_a 12.316382
_cell_length_b 7.700735
_cell_length_c 16.065790
_cell_angle_alpha 90.000000
_cell_angle_beta 124.107029
_cell_angle_gamma 90.000000
_cell_volume 1261.662861
_symmetry_space_group_name_H-M "P 2/M"
_symmetry_group_IT_number 10
_symmetry_cell_setting 'monoclinic'
loop_
_space_group_symop_operation_xyz
x,y,z
-x,y,-z
-x,-y,-z
x,-y,z
loop_
_atom_site_type_symbol
_atom_site_label
_atom_site_fract_x
_atom_site_fract_y
_atom_site_fract_z
Si Si1 0.893767 0.205912 0.388247
Si Si2 0.350405 0.200719 0.441480
Si Si3 0.844094 0.300614 0.782852
Si Si4 0.907200 0.710125 0.204206
Si Si5 0.633663 0.286687 0.819863
Si Si6 0.632054 0.287728 0.011257
Si Si7 0.358150 0.297772 0.626689
O O1 0.933405 0.242268 0.310846
O O2 0.751149 0.280092 0.349389
O O3 0.000000 0.274762 0.500000
O O4 0.884214 0.000000 0.395572
O O5 0.500000 0.266902 0.500000
O O6 0.252945 0.297975 0.338355
O O7 0.311354 0.210467 0.521266
O O8 0.350805 0.000000 0.414648
O O9 0.872414 0.500000 0.818645
O O10 0.759525 0.224806 0.822054
O O11 0.979865 0.222087 0.808945
O O12 0.909556 0.500000 0.201023
O O13 0.763352 0.769206 0.114680
O O14 0.632993 0.500000 0.817309
O O15 0.498821 0.229747 0.717664
O O16 0.634990 0.234430 0.916310
O O17 0.631313 0.500000 0.012014
O O18 0.500000 0.229472 0.000000
O O19 0.374424 0.500000 0.613689
#
# Coordination Sequence:
#
# PCOD9149746 Si02
#       7
#     4   4   4   4   4   4   4
#     4  11  24  40  57  79 112 150 188 231 283 340
#     4  11  22  35  53  80 116 155 190 226 276 336
#     4  10  20  35  55  83 116 148 191 237 279 334
#     4  10  21  36  58  85 112 148 190 234 283 335
#     4   9  18  32  54  84 114 145 181 231 287 332
#     4   9  17  32  55  83 114 145 185 235 286 335
#     4  11  21  35  59  85 112 146 189 236 281 332
#
# _framework density 22.192934000000001
#
# number of rings (size 3 to 8) (size 9 to 14) (size 15 to 20)
#    0.000    1.857    1.429    3.000    0.000    7.429 
#    0.000    2.857    0.000    5.571    0.000    2.000 
#    0.000    0.000    0.000    0.000    0.000    0.000 
#
# Total GULP energy -156541.572517 kJ/mol
# GULP energy per Si atom -5590.770447 kJ/mol
# Density = 2.214242 g / cm^3
# Si number density = 22.192934 Si / 1000 Ang^3
#
#
#
# Elastic Constant Matrix: (Units=GPa)
#
#
# Indices 1 2 3 4 5 6 
#
# 1 195.9058 0.2953 71.0253 0.0000 -6.4607 0.0000
# 2 0.2953 44.9515 -1.4775 0.0000 3.2908 0.0000
# 3 71.0253 -1.4775 116.6975 0.0000 -13.2581 0.0000
# 4 0.0000 0.0000 0.0000 -100.4985 0.0000 31.5588
# 5 -6.4607 3.2908 -13.2581 0.0000 39.9899 0.0000
# 6 0.0000 0.0000 0.0000 31.5588 0.0000 -3.2922
#
#
#
# Elastic Compliance Matrix: (Units=1/GPa)
#
#
# Indices 1 2 3 4 5 6 
#
# 1 0.006554 -0.000156 -0.004020 0.000000 -0.000261 0.000000
# 2 -0.000156 0.022385 0.000173 0.000000 -0.001810 0.000000
# 3 -0.004020 0.000173 0.011371 0.000000 0.003106 0.000000
# 4 0.000000 0.000000 0.000000 0.004950 0.000000 0.047450
# 5 -0.000261 -0.001810 0.003106 0.000000 0.026143 0.000000
# 6 0.000000 0.000000 0.000000 0.047450 0.000000 0.151105
#
#
# Mechanical properties :
#
#
# Convention : Reuss Voigt Hill
#
# Bulk Modulus (GPa) = 30.95705 55.24902 43.10303
# Shear Modulus (GPa) = 20.72256 6.42061 13.57159
#
# Velocity S-wave (km/s) = 3.05904 1.70275 2.47559
# Velocity P-wave (km/s) = 5.14357 5.36794 5.25695
#
# Compressibility (1/GPa) = 0.03230282
#
# Stress axis : x y z
#
# Youngs Moduli (GPa) = 152.58524 44.67199 87.94144
#
# Poissons Ratio (x) = 0.00697 0.35356
# Poissons Ratio (y) = 0.02381 -0.01519
# Poissons Ratio (z) = 0.61346 -0.00772
#
# Static dielectric constant tensor:
#      x y z
#    x 1.817360 0.000000 0.005760 
#    y 0.000000 1.815090 0.000000 
#    z 0.005760 0.000000 1.765880 
# 
# From -- ./inp_files/63637.got.cif
#   From: 2010.05.17/outbox.cif.g08.bks.cpg/sg10_32_cif.got.tgz:63637.got - 2010.06.03 11:33:40.
