data_PCOD9149429
_publ_section_title
;
Structure prediction by ZEFSAII (Michael W. Deem and Ramdas Pophale) SiO2 
 PCOD9149429
Probable space group: P 2/M
;
_chemical_formula_sum "Si O2"
_cell_formula_units_Z 32
_cell_length_a 22.988647
_cell_length_b 8.326138
_cell_length_c 15.607903
_cell_angle_alpha 90.000000
_cell_angle_beta 148.733636
_cell_angle_gamma 90.000000
_cell_volume 1550.541860
_symmetry_space_group_name_H-M "P 2/M"
_symmetry_group_IT_number 10
_symmetry_cell_setting 'monoclinic'
loop_
_space_group_symop_operation_xyz
x,y,z
-x,y,-z
-x,-y,-z
x,-y,z
loop_
_atom_site_type_symbol
_atom_site_label
_atom_site_fract_x
_atom_site_fract_y
_atom_site_fract_z
Si Si1 0.192218 0.691398 0.373481
Si Si2 0.873837 0.310397 0.361225
Si Si3 0.838240 0.192717 0.044133
Si Si4 0.173655 0.682016 0.160712
Si Si5 0.558605 0.317304 0.486331
Si Si6 0.557613 0.183163 0.308646
Si Si7 0.921600 0.809626 0.598982
Si Si8 0.317200 0.192457 0.004914
O O1 0.174983 0.500000 0.352975
O O2 0.149265 0.750360 0.225360
O O3 0.325277 0.724333 0.553183
O O4 0.130335 0.773488 0.374032
O O5 0.870777 0.500000 0.340053
O O6 0.857817 0.276712 0.441692
O O7 0.779602 0.228467 0.185117
O O8 0.000000 0.249640 0.500000
O O9 0.730566 0.252754 0.962814
O O10 0.949695 0.248437 0.233957
O O11 0.835329 0.000000 0.044615
O O12 0.852436 0.236925 0.962491
O O13 0.128861 0.500000 0.100923
O O14 0.308737 0.676181 0.332194
O O15 0.500000 0.272788 0.500000
O O16 0.523495 0.500000 0.417631
O O17 0.535731 0.192598 0.383023
O O18 0.574653 0.000000 0.300909
O O19 0.439109 0.253270 0.127084
O O20 0.920329 0.000000 0.581394
O O21 0.331264 0.000000 0.029444
#
# Coordination Sequence:
#
# PCOD9149429 Si02
#       8
#     4   4   4   4   4   4   4   4
#     4  10  22  41  60  81 116 157 199 242 287 339
#     4  11  23  39  62  92 119 148 188 232 285 348
#     4  10  21  35  55  85 118 152 191 237 289 341
#     4   9  19  33  51  77 111 154 195 237 284 332
#     4   9  17  30  48  73 109 152 195 236 286 339
#     4  10  20  34  56  84 113 150 195 237 284 341
#     4  11  23  40  63  86 114 153 193 238 291 345
#     4  10  21  38  59  87 122 154 187 235 292 346
#
# _framework density 20.637945999999999
#
# number of rings (size 3 to 8) (size 9 to 14) (size 15 to 20)
#    0.000    2.000    1.250    3.000    0.000    6.250 
#    0.000    3.125    0.000    3.750    0.000    0.000 
#    0.000    0.000    0.000    0.000    0.000    0.000 
#
# Total GULP energy -178492.256447 kJ/mol
# GULP energy per Si atom -5577.883014 kJ/mol
# Density = 2.059097 g / cm^3
# Si number density = 20.637946 Si / 1000 Ang^3
#
#
#
# Elastic Constant Matrix: (Units=GPa)
#
#
# Indices 1 2 3 4 5 6 
#
# 1 54.6032 -7.8066 2.0231 0.0000 -10.1678 0.0000
# 2 -7.8066 12.5210 2.1961 0.0000 4.0881 0.0000
# 3 2.0231 2.1961 79.9131 0.0000 -4.4275 0.0000
# 4 0.0000 0.0000 0.0000 27.3551 0.0000 -4.9492
# 5 -10.1678 4.0881 -4.4275 0.0000 28.5429 0.0000
# 6 0.0000 0.0000 0.0000 -4.9492 0.0000 24.9870
#
#
#
# Elastic Compliance Matrix: (Units=1/GPa)
#
#
# Indices 1 2 3 4 5 6 
#
# 1 0.021029 0.011312 -0.000522 0.000000 0.005790 0.000000
# 2 0.011312 0.090585 -0.003300 0.000000 -0.009456 0.000000
# 3 -0.000522 -0.003300 0.012743 0.000000 0.002263 0.000000
# 4 0.000000 0.000000 0.000000 0.037915 0.000000 0.007510
# 5 0.005790 -0.009456 0.002263 0.000000 0.038803 0.000000
# 6 0.000000 0.000000 0.000000 0.007510 0.000000 0.041508
#
#
# Mechanical properties :
#
#
# Convention : Reuss Voigt Hill
#
# Bulk Modulus (GPa) = 7.17686 15.54027 11.35857
# Shear Modulus (GPa) = 18.24500 26.21864 22.23182
#
# Velocity S-wave (km/s) = 2.97653 3.56815 3.28568
# Velocity P-wave (km/s) = 3.91127 4.95196 4.46205
#
# Compressibility (1/GPa) = 0.13933666
#
# Stress axis : x y z
#
# Youngs Moduli (GPa) = 47.55389 11.03940 78.47520
#
# Poissons Ratio (x) = -0.12488 0.04100
# Poissons Ratio (y) = -0.53794 0.25894
# Poissons Ratio (z) = 0.02485 0.03643
#
# Static dielectric constant tensor:
#      x y z
#    x 1.771070 0.000000 0.024800 
#    y 0.000000 1.732180 0.000000 
#    z 0.024800 0.000000 1.766750 
# 
# From -- ./inp_files/71563.got.cif
#   From: 2010.05.17/outbox.cif.g08.bks.cpg/sg10_36_cif.got.tgz:71563.got - 2010.06.03 11:33:40.
