data_PCOD9149030
_publ_section_title
;
Structure prediction by ZEFSAII (Michael W. Deem and Ramdas Pophale) SiO2 
 PCOD9149030
Probable space group: P 2/M
;
_chemical_formula_sum "Si O2"
_cell_formula_units_Z 28
_cell_length_a 8.342639
_cell_length_b 21.487391
_cell_length_c 13.626239
_cell_angle_alpha 90.000000
_cell_angle_beta 145.960042
_cell_angle_gamma 90.000000
_cell_volume 1367.330453
_symmetry_space_group_name_H-M "P 2/M"
_symmetry_group_IT_number 10
_symmetry_cell_setting 'monoclinic'
loop_
_space_group_symop_operation_xyz
x,y,z
-x,y,-z
-x,-y,-z
x,-y,z
loop_
_atom_site_type_symbol
_atom_site_label
_atom_site_fract_x
_atom_site_fract_y
_atom_site_fract_z
Si Si1 0.369768 0.806424 0.541811
Si Si2 0.334651 0.930096 0.647906
Si Si3 0.886626 0.721447 0.836830
Si Si4 0.138221 0.500000 0.464310
Si Si5 0.156753 0.606577 0.321303
Si Si6 0.836755 0.819082 0.154580
Si Si7 0.863658 0.071197 0.037134
Si Si8 0.172485 0.500000 0.184138
O O1 0.500000 0.814642 0.500000
O O2 0.409084 0.869934 0.621208
O O3 0.559862 0.748590 0.679236
O O4 0.031697 0.798168 0.346177
O O5 0.524540 0.925048 0.842425
O O6 0.000000 0.927503 0.500000
O O7 0.398275 0.000000 0.639533
O O8 0.922301 0.673567 0.763399
O O9 0.078046 0.778889 0.897869
O O10 0.000000 0.698540 0.000000
O O11 0.062706 0.564836 0.368000
O O12 0.483697 0.500000 0.647911
O O13 0.000000 0.500000 0.500000
O O14 0.500000 0.609164 0.500000
O O15 0.079067 0.560178 0.195449
O O16 0.500000 0.814216 0.000000
O O17 0.925468 0.887725 0.163096
O O18 0.945384 0.000000 0.095156
O O19 0.000000 0.089658 0.000000
O O20 0.000000 0.500000 0.000000
#
# Coordination Sequence:
#
# PCOD9149030 Si02
#       8
#     4   4   4   2   4   4   4   2
#     4  10  21  35  55  79 107 145 189 241 292 353
#     4  10  20  34  52  76 106 140 183 239 301 361
#     4  11  22  39  61  82 111 157 203 241 285 342
#     4   9  19  37  64  94 126 159 185 231 289 331
#     4   9  18  36  61  88 121 155 196 235 272 337
#     4  11  22  36  54  80 114 146 185 244 303 356
#     4  10  20  35  55  76 101 139 189 241 295 363
#     4   9  17  33  60  92 118 153 197 233 274 323
#
# _framework density 20.47786
#
# number of rings (size 3 to 8) (size 9 to 14) (size 15 to 20)
#    0.000    2.000    0.000    6.429    0.000    1.143 
#    0.000    5.714    0.000    6.857    0.000    0.000 
#    0.000    0.000    0.000    0.000    0.000    0.000 
#
# Total GULP energy -155930.592820 kJ/mol
# GULP energy per Si atom -5568.949744 kJ/mol
# Density = 2.043125 g / cm^3
# Si number density = 20.477860 Si / 1000 Ang^3
#
#
#
# Elastic Constant Matrix: (Units=GPa)
#
#
# Indices 1 2 3 4 5 6 
#
# 1 58.7522 29.0554 27.8769 0.0000 -6.4624 0.0000
# 2 29.0554 96.4972 26.9912 0.0000 -10.0038 0.0000
# 3 27.8769 26.9912 105.5821 0.0000 -1.2404 0.0000
# 4 0.0000 0.0000 0.0000 -32.6892 0.0000 35.6107
# 5 -6.4624 -10.0038 -1.2404 0.0000 34.0224 0.0000
# 6 0.0000 0.0000 0.0000 35.6107 0.0000 -13.4387
#
#
#
# Elastic Compliance Matrix: (Units=1/GPa)
#
#
# Indices 1 2 3 4 5 6 
#
# 1 0.021932 -0.005097 -0.004458 0.000000 0.002505 0.000000
# 2 -0.005097 0.012700 -0.001869 0.000000 0.002698 0.000000
# 3 -0.004458 -0.001869 0.011115 0.000000 -0.000991 0.000000
# 4 0.000000 0.000000 0.000000 0.016214 0.000000 0.042965
# 5 0.002505 0.002698 -0.000991 0.000000 0.030625 0.000000
# 6 0.000000 0.000000 0.000000 0.042965 0.000000 0.039441
#
#
# Mechanical properties :
#
#
# Convention : Reuss Voigt Hill
#
# Bulk Modulus (GPa) = 43.67224 47.63093 45.65159
# Shear Modulus (GPa) = 30.76747 9.37278 20.07012
#
# Velocity S-wave (km/s) = 3.88038 2.14172 3.13403
# Velocity P-wave (km/s) = 6.43812 5.42459 5.95296
#
# Compressibility (1/GPa) = 0.02289784
#
# Stress axis : x y z
#
# Youngs Moduli (GPa) = 45.59491 78.73840 89.97135
#
# Poissons Ratio (x) = 0.40134 0.40112
# Poissons Ratio (y) = 0.23240 0.16818
# Poissons Ratio (z) = 0.20328 0.14718
#
# Static dielectric constant tensor:
#      x y z
#    x 1.725690 0.000000 0.039000 
#    y 0.000000 1.806780 0.000000 
#    z 0.039000 0.000000 1.763390 
# 
# From -- ./inp_files/62637.got.cif
#   From: 2010.05.17/outbox.cif.g08.bks.cpg/sg10_32_cif.got.tgz:62637.got - 2010.06.03 11:33:40.
