data_PCOD9149091
_publ_section_title
;
Structure prediction by ZEFSAII (Michael W. Deem and Ramdas Pophale) SiO2 
 PCOD9149091
Probable space group: P 2/M
;
_chemical_formula_sum "Si O2"
_cell_formula_units_Z 24
_cell_length_a 14.378207
_cell_length_b 8.750671
_cell_length_c 11.495204
_cell_angle_alpha 90.000000
_cell_angle_beta 103.100949
_cell_angle_gamma 90.000000
_cell_volume 1408.670233
_symmetry_space_group_name_H-M "P 2/M"
_symmetry_group_IT_number 10
_symmetry_cell_setting 'monoclinic'
loop_
_space_group_symop_operation_xyz
x,y,z
-x,y,-z
-x,-y,-z
x,-y,z
loop_
_atom_site_type_symbol
_atom_site_label
_atom_site_fract_x
_atom_site_fract_y
_atom_site_fract_z
Si Si1 0.716665 0.684703 0.974137
Si Si2 0.909836 0.683322 0.892522
Si Si3 0.043238 0.181966 0.341986
Si Si4 0.313475 0.180531 0.777999
Si Si5 0.489137 0.324201 0.137606
Si Si6 0.140744 0.317712 0.594315
O O1 0.713115 0.500000 0.990672
O O2 0.812334 0.722370 0.931945
O O3 0.620136 0.726624 0.876435
O O4 0.712911 0.762157 0.099343
O O5 0.909989 0.500000 0.871937
O O6 0.920873 0.768008 0.773796
O O7 0.000000 0.719033 0.000000
O O8 0.112354 0.245020 0.462704
O O9 0.940187 0.257006 0.339534
O O10 0.035162 0.000000 0.349292
O O11 0.424132 0.225166 0.789797
O O12 0.242894 0.264440 0.669460
O O13 0.300321 0.000000 0.766630
O O14 0.500416 0.500000 0.179241
O O15 0.500000 0.323176 0.000000
O O16 0.134970 0.500000 0.585790
#
# Coordination Sequence:
#
# PCOD9149091 Si02
#       6
#     4   4   4   4   4   4
#     4   9  18  32  50  73 104 140 175 209 245 296
#     4  10  20  34  53  76 103 138 175 204 239 295
#     4  11  22  36  53  77 106 131 163 208 255 296
#     4  11  20  30  49  78 106 130 165 213 261 301
#     4   8  15  29  47  69  99 135 172 208 249 297
#     4  11  21  36  56  74  98 134 172 206 246 299
#
# _framework density 17.037344000000001
#
# number of rings (size 3 to 8) (size 9 to 14) (size 15 to 20)
#    0.000    2.000    0.000    7.500    0.000    5.333 
#    0.000    0.000    0.000    1.000    0.000    7.000 
#    0.000    0.000    0.000    0.000    0.000    0.000 
#
# Total GULP energy -133963.071750 kJ/mol
# GULP energy per Si atom -5581.794656 kJ/mol
# Density = 1.699857 g / cm^3
# Si number density = 17.037344 Si / 1000 Ang^3
#
#
#
# Elastic Constant Matrix: (Units=GPa)
#
#
# Indices 1 2 3 4 5 6 
#
# 1 126.2360 40.3739 48.6259 0.0000 14.7695 0.0000
# 2 40.3739 86.2194 31.1534 0.0000 4.1698 0.0000
# 3 48.6259 31.1534 48.1222 0.0000 8.8544 0.0000
# 4 0.0000 0.0000 0.0000 131.9717 0.0000 16.9083
# 5 14.7695 4.1698 8.8544 0.0000 25.7733 0.0000
# 6 0.0000 0.0000 0.0000 16.9083 0.0000 11.1576
#
#
#
# Elastic Compliance Matrix: (Units=1/GPa)
#
#
# Indices 1 2 3 4 5 6 
#
# 1 0.013442 -0.001890 -0.011740 0.000000 -0.003364 0.000000
# 2 -0.001890 0.015429 -0.008346 0.000000 0.001454 0.000000
# 3 -0.011740 -0.008346 0.039028 0.000000 -0.005330 0.000000
# 4 0.000000 0.000000 0.000000 0.009403 0.000000 -0.014249
# 5 -0.003364 0.001454 -0.005330 0.000000 0.042323 0.000000
# 6 0.000000 0.000000 0.000000 -0.014249 0.000000 0.111218
#
#
# Mechanical properties :
#
#
# Convention : Reuss Voigt Hill
#
# Bulk Modulus (GPa) = 41.76156 55.65378 48.70767
# Shear Modulus (GPa) = 17.68175 43.14215 30.41195
#
# Velocity S-wave (km/s) = 3.22502 5.03757 4.22953
# Velocity P-wave (km/s) = 6.19941 8.15921 7.24588
#
# Compressibility (1/GPa) = 0.02394546
#
# Stress axis : x y z
#
# Youngs Moduli (GPa) = 74.39363 64.81471 25.62286
#
# Poissons Ratio (x) = 0.12248 0.30082
# Poissons Ratio (y) = 0.14058 0.21386
# Poissons Ratio (z) = 0.87341 0.54096
#
# Static dielectric constant tensor:
#      x y z
#    x 1.592370 0.000000 0.017030 
#    y 0.000000 1.568350 0.000000 
#    z 0.017030 0.000000 1.548230 
# 
# From -- ./inp_files/48885.got.cif
#   From: 2010.05.17/outbox.cif.g08.bks.cpg/sg10_25_cif.got.tgz:48885.got - 2010.06.03 11:33:40.
