data_PCOD9149493
_publ_section_title
;
Structure prediction by ZEFSAII (Michael W. Deem and Ramdas Pophale) SiO2 
 PCOD9149493
Probable space group: P 2/M
;
_chemical_formula_sum "Si O2"
_cell_formula_units_Z 28
_cell_length_a 12.196505
_cell_length_b 7.488354
_cell_length_c 13.704061
_cell_angle_alpha 90.000000
_cell_angle_beta 104.517285
_cell_angle_gamma 90.000000
_cell_volume 1211.654319
_symmetry_space_group_name_H-M "P 2/M"
_symmetry_group_IT_number 10
_symmetry_cell_setting 'monoclinic'
loop_
_space_group_symop_operation_xyz
x,y,z
-x,y,-z
-x,-y,-z
x,-y,z
loop_
_atom_site_type_symbol
_atom_site_label
_atom_site_fract_x
_atom_site_fract_y
_atom_site_fract_z
Si Si1 0.297188 0.782866 0.656787
Si Si2 0.611796 0.217137 0.962464
Si Si3 0.199591 0.217572 0.845626
Si Si4 0.549207 0.208034 0.735805
Si Si5 0.030564 0.784343 0.115696
Si Si6 0.778264 0.707641 0.699491
Si Si7 0.104420 0.705183 0.463084
O O1 0.251783 0.730018 0.753784
O O2 0.427311 0.721583 0.675842
O O3 0.213251 0.709208 0.557011
O O4 0.291491 0.000000 0.648557
O O5 0.720860 0.278094 0.047353
O O6 0.621519 0.000000 0.960373
O O7 0.500000 0.258175 0.000000
O O8 0.592745 0.284724 0.848728
O O9 0.071180 0.274679 0.836014
O O10 0.200335 0.000000 0.846743
O O11 0.652630 0.218142 0.684173
O O12 0.526446 0.000000 0.751039
O O13 0.150414 0.727451 0.185421
O O14 0.032471 0.000000 0.113777
O O15 0.000000 0.723740 0.000000
O O16 0.763276 0.500000 0.674163
O O17 0.854832 0.787663 0.629927
O O18 0.069855 0.500000 0.433922
O O19 0.000000 0.787574 0.500000
#
# Coordination Sequence:
#
# PCOD9149493 Si02
#       7
#     4   4   4   4   4   4   4
#     4  10  20  34  57  88 113 140 183 235 284 329
#     4   9  14  26  51  82 116 149 178 214 264 325
#     4   9  16  28  50  83 116 143 178 225 276 329
#     4  10  20  35  57  86 118 149 184 227 280 336
#     4  10  20  35  57  86 116 146 183 226 277 334
#     4  11  24  40  58  80 110 150 191 231 279 332
#     4  10  23  43  62  79 105 146 192 234 282 338
#
# _framework density 23.108899000000001
#
# number of rings (size 3 to 8) (size 9 to 14) (size 15 to 20)
#    0.000    2.143    1.429    2.143    0.000    5.143 
#    0.000    2.857    0.000    1.286    0.000    0.000 
#    0.000    0.000    0.000    0.000    0.000    0.000 
#
# Total GULP energy -156486.877478 kJ/mol
# GULP energy per Si atom -5588.817053 kJ/mol
# Density = 2.305630 g / cm^3
# Si number density = 23.108899 Si / 1000 Ang^3
#
#
#
# Elastic Constant Matrix: (Units=GPa)
#
#
# Indices 1 2 3 4 5 6 
#
# 1 138.0212 -9.1754 41.1218 0.0000 9.8692 0.0000
# 2 -9.1754 60.6514 -8.5083 0.0000 -3.4361 0.0000
# 3 41.1218 -8.5083 94.6630 0.0000 5.8767 0.0000
# 4 0.0000 0.0000 0.0000 19.0823 0.0000 4.3680
# 5 9.8692 -3.4361 5.8767 0.0000 38.7663 0.0000
# 6 0.0000 0.0000 0.0000 4.3680 0.0000 -0.6363
#
#
#
# Elastic Compliance Matrix: (Units=1/GPa)
#
#
# Indices 1 2 3 4 5 6 
#
# 1 0.008449 0.000697 -0.003511 0.000000 -0.001557 0.000000
# 2 0.000697 0.016817 0.001138 0.000000 0.001141 0.000000
# 3 -0.003511 0.001138 0.012245 0.000000 -0.000862 0.000000
# 4 0.000000 0.000000 0.000000 0.020380 0.000000 0.139903
# 5 -0.001557 0.001141 -0.000862 0.000000 0.026424 0.000000
# 6 0.000000 0.000000 0.000000 0.139903 0.000000 -0.611190
#
#
# Mechanical properties :
#
#
# Convention : Reuss Voigt Hill
#
# Bulk Modulus (GPa) = 29.27426 37.80130 33.53778
# Shear Modulus (GPa) = -9.76302 29.43564 9.83631
#
# Velocity S-wave (km/s) = -2.05766 3.57288 2.06537
# Velocity P-wave (km/s) = 2.65522 5.78048 4.49801
#
# Compressibility (1/GPa) = 0.03415970
#
# Stress axis : x y z
#
# Youngs Moduli (GPa) = 118.35730 59.46218 81.66806
#
# Poissons Ratio (x) = -0.04147 0.28673
# Poissons Ratio (y) = -0.08255 -0.09292
# Poissons Ratio (z) = 0.41554 -0.06765
#
# Static dielectric constant tensor:
#      x y z
#    x 1.856500 0.000000 -0.027710 
#    y 0.000000 1.894690 0.000000 
#    z -0.027710 0.000000 1.835250 
# 
# From -- ./inp_files/55872.got.cif
#   From: 2010.05.17/outbox.cif.g08.bks.cpg/sg10_28_cif.got.tgz:55872.got - 2010.06.03 11:33:40.
