data_PCOD9149475
_publ_section_title
;
Structure prediction by ZEFSAII (Michael W. Deem and Ramdas Pophale) SiO2 
 PCOD9149475
Probable space group: P 2/M
;
_chemical_formula_sum "Si O2"
_cell_formula_units_Z 28
_cell_length_a 28.097349
_cell_length_b 7.427188
_cell_length_c 9.475327
_cell_angle_alpha 90.000000
_cell_angle_beta 37.616482
_cell_angle_gamma 90.000000
_cell_volume 1206.922327
_symmetry_space_group_name_H-M "P 2/M"
_symmetry_group_IT_number 10
_symmetry_cell_setting 'monoclinic'
loop_
_space_group_symop_operation_xyz
x,y,z
-x,y,-z
-x,-y,-z
x,-y,z
loop_
_atom_site_type_symbol
_atom_site_label
_atom_site_fract_x
_atom_site_fract_y
_atom_site_fract_z
Si Si1 0.829706 0.280447 0.232513
Si Si2 0.980271 0.280168 0.705416
Si Si3 0.885637 0.295128 0.404697
Si Si4 0.480472 0.282400 0.204099
Si Si5 0.574080 0.792988 0.246704
Si Si6 0.257668 0.211745 0.068429
Si Si7 0.303715 0.716707 0.649146
O O1 0.826296 0.500000 0.247164
O O2 0.856495 0.216438 0.324276
O O3 0.746011 0.220645 0.368980
O O4 0.895306 0.232174 0.963385
O O5 0.984376 0.500000 0.692949
O O6 0.042841 0.215170 0.674736
O O7 0.000000 0.219989 0.500000
O O8 0.909972 0.500000 0.313396
O O9 0.813519 0.298215 0.682121
O O10 0.481700 0.500000 0.211237
O O11 0.547232 0.211642 0.149482
O O12 0.393138 0.219538 0.448067
O O13 0.500000 0.231132 0.000000
O O14 0.500000 0.707789 0.500000
O O15 0.579609 0.000000 0.284216
O O16 0.658615 0.714140 0.076577
O O17 0.253118 0.000000 0.112362
O O18 0.258406 0.235948 0.898743
O O19 0.307722 0.500000 0.632320
#
# Coordination Sequence:
#
# PCOD9149475 Si02
#       7
#     4   4   4   4   4   4   4
#     4   9  18  32  54  84 116 143 178 225 269 322
#     4   9  16  29  53  85 115 143 179 221 265 320
#     4  10  20  34  57  85 112 145 180 222 276 325
#     4  10  22  36  55  84 115 142 177 227 280 328
#     4  10  21  39  58  77 105 145 189 228 270 322
#     4  11  23  38  56  79 109 144 186 232 272 321
#     4  10  20  36  56  80 109 145 183 224 274 326
#
# _framework density 23.199504999999998
#
# number of rings (size 3 to 8) (size 9 to 14) (size 15 to 20)
#    0.000    2.143    1.429    1.714    2.000    5.714 
#    0.000    0.714    0.000    5.571    0.000    0.000 
#    0.000    0.000    0.000    0.000    0.000    0.000 
#
# Total GULP energy -156474.765559 kJ/mol
# GULP energy per Si atom -5588.384484 kJ/mol
# Density = 2.314670 g / cm^3
# Si number density = 23.199505 Si / 1000 Ang^3
#
#
#
# Elastic Constant Matrix: (Units=GPa)
#
#
# Indices 1 2 3 4 5 6 
#
# 1 153.3654 -0.5334 11.7841 0.0000 0.7743 0.0000
# 2 -0.5334 78.6041 -4.0541 0.0000 -3.6421 0.0000
# 3 11.7841 -4.0541 58.7115 0.0000 2.9955 0.0000
# 4 0.0000 0.0000 0.0000 -16.5838 0.0000 1.0207
# 5 0.7743 -3.6421 2.9955 0.0000 46.1880 0.0000
# 6 0.0000 0.0000 0.0000 1.0207 0.0000 -5.4001
#
#
#
# Elastic Compliance Matrix: (Units=1/GPa)
#
#
# Indices 1 2 3 4 5 6 
#
# 1 0.006623 -0.000025 -0.001330 0.000000 -0.000027 0.000000
# 2 -0.000025 0.012809 0.000841 0.000000 0.000956 0.000000
# 3 -0.001330 0.000841 0.017410 0.000000 -0.001041 0.000000
# 4 0.000000 0.000000 0.000000 -0.061010 0.000000 -0.011532
# 5 -0.000027 0.000956 -0.001041 0.000000 0.021794 0.000000
# 6 0.000000 0.000000 0.000000 -0.011532 0.000000 -0.187362
#
#
# Mechanical properties :
#
#
# Convention : Reuss Voigt Hill
#
# Bulk Modulus (GPa) = 27.92123 33.89712 30.90918
# Shear Modulus (GPa) = -28.28543 23.73979 -2.27282
#
# Velocity S-wave (km/s) = -3.49553 3.20236 -0.99086
# Velocity P-wave (km/s) = 2.05675 5.32131 3.47031
#
# Compressibility (1/GPa) = 0.03581504
#
# Stress axis : x y z
#
# Youngs Moduli (GPa) = 150.99845 78.06720 57.43681
#
# Poissons Ratio (x) = 0.00194 0.07637
# Poissons Ratio (y) = 0.00376 -0.04829
# Poissons Ratio (z) = 0.20076 -0.06563
#
# Static dielectric constant tensor:
#      x y z
#    x 1.886810 0.000000 -0.006430 
#    y 0.000000 1.922040 0.000000 
#    z -0.006430 0.000000 1.830900 
# 
# From -- ./inp_files/36920.got.cif
#   From: 2010.05.17/outbox.cif.g08.bks.cpg/sg10_19_cif.got.tgz:36920.got - 2010.06.03 11:33:40.
