data_PCOD9149311
_publ_section_title
;
Structure prediction by ZEFSAII (Michael W. Deem and Ramdas Pophale) SiO2 
 PCOD9149311
Probable space group: P 2/M
;
_chemical_formula_sum "Si O2"
_cell_formula_units_Z 16
_cell_length_a 20.109810
_cell_length_b 8.112490
_cell_length_c 7.110113
_cell_angle_alpha 90.000000
_cell_angle_beta 144.500644
_cell_angle_gamma 90.000000
_cell_volume 673.574811
_symmetry_space_group_name_H-M "P 2/M"
_symmetry_group_IT_number 10
_symmetry_cell_setting 'monoclinic'
loop_
_space_group_symop_operation_xyz
x,y,z
-x,y,-z
-x,-y,-z
x,-y,z
loop_
_atom_site_type_symbol
_atom_site_label
_atom_site_fract_x
_atom_site_fract_y
_atom_site_fract_z
Si Si1 0.832340 0.000000 0.957880
Si Si2 0.215958 0.679065 0.654450
Si Si3 0.911212 0.000000 0.578388
Si Si4 0.703889 0.681993 0.737898
Si Si5 0.462665 0.189632 0.131773
O O1 0.860715 0.000000 0.247753
O O2 0.758729 0.164942 0.752326
O O3 0.953176 0.000000 0.133375
O O4 0.174601 0.500000 0.493375
O O5 0.136280 0.835363 0.434034
O O6 0.228825 0.671911 0.910900
O O7 0.344712 0.714671 0.882512
O O8 0.707563 0.500000 0.657356
O O9 0.572851 0.728874 0.482477
O O10 0.446267 0.000000 0.156310
O O11 0.500000 0.188876 0.000000
#
# Coordination Sequence:
#
# PCOD9149311 Si02
#       5
#     2   4   2   4   4
#     4   9  18  33  53  78 108 139 172 215 260 301
#     4  10  20  34  55  81 107 138 174 212 259 313
#     4   9  18  33  53  78 108 139 172 215 260 301
#     4  10  20  34  55  81 107 138 174 212 259 313
#     4  11  22  35  54  79 107 140 175 214 263 315
#
# _framework density 23.753855999999999
#
# number of rings (size 3 to 8) (size 9 to 14) (size 15 to 20)
#    0.000    2.000    2.500    1.500    0.000    6.000 
#    0.000    5.000    0.000    3.000    0.000    3.500 
#    0.000    0.000    0.000    0.000    0.000    0.000 
#
# Total GULP energy -89543.283702 kJ/mol
# GULP energy per Si atom -5596.455231 kJ/mol
# Density = 2.369979 g / cm^3
# Si number density = 23.753856 Si / 1000 Ang^3
#
#
#
# Elastic Constant Matrix: (Units=GPa)
#
#
# Indices 1 2 3 4 5 6 
#
# 1 63.5501 48.8760 22.5136 0.0000 24.6766 0.0000
# 2 48.8760 274.8424 68.2121 0.0000 51.4037 0.0000
# 3 22.5136 68.2121 74.3802 0.0000 28.5780 0.0000
# 4 0.0000 0.0000 0.0000 -14.2711 0.0000 -9.8307
# 5 24.6766 51.4037 28.5780 0.0000 59.0200 0.0000
# 6 0.0000 0.0000 0.0000 -9.8307 0.0000 1.2203
#
#
#
# Elastic Compliance Matrix: (Units=1/GPa)
#
#
# Indices 1 2 3 4 5 6 
#
# 1 0.020237 -0.002015 -0.002089 0.000000 -0.005694 0.000000
# 2 -0.002015 0.005224 -0.003386 0.000000 -0.002068 0.000000
# 3 -0.002089 -0.003386 0.019305 0.000000 -0.005525 0.000000
# 4 0.000000 0.000000 0.000000 -0.010699 0.000000 -0.086190
# 5 -0.005694 -0.002068 -0.005525 0.000000 0.023800 0.000000
# 6 0.000000 0.000000 0.000000 -0.086190 0.000000 0.125122
#
#
# Mechanical properties :
#
#
# Convention : Reuss Voigt Hill
#
# Bulk Modulus (GPa) = 33.57524 76.88622 55.23073
# Shear Modulus (GPa) = 24.05013 27.40525 25.72769
#
# Velocity S-wave (km/s) = 3.18539 3.40033 3.29461
# Velocity P-wave (km/s) = 5.26254 6.91769 6.14609
#
# Compressibility (1/GPa) = 0.02978385
#
# Stress axis : x y z
#
# Youngs Moduli (GPa) = 49.41493 191.42514 51.79965
#
# Poissons Ratio (x) = 0.38576 0.10823
# Poissons Ratio (y) = 0.09958 0.17542
# Poissons Ratio (z) = 0.10325 0.64825
#
# Static dielectric constant tensor:
#      x y z
#    x 1.941010 0.000000 -0.083740 
#    y 0.000000 1.899460 0.000000 
#    z -0.083740 0.000000 1.857710 
# 
# From -- ./inp_files/21332.got.cif
#   From: 2010.05.17/outbox.cif.g08.bks.cpg/sg10_11_cif.got.tgz:21332.got - 2010.06.03 11:33:40.
