data_PCOD9149001
_publ_section_title
;
Structure prediction by ZEFSAII (Michael W. Deem and Ramdas Pophale) SiO2 
 PCOD9149001
Probable space group: P 2/M
;
_chemical_formula_sum "Si O2"
_cell_formula_units_Z 28
_cell_length_a 29.983676
_cell_length_b 7.520253
_cell_length_c 9.042639
_cell_angle_alpha 90.000000
_cell_angle_beta 39.596111
_cell_angle_gamma 90.000000
_cell_volume 1299.586796
_symmetry_space_group_name_H-M "P 2/M"
_symmetry_group_IT_number 10
_symmetry_cell_setting 'monoclinic'
loop_
_space_group_symop_operation_xyz
x,y,z
-x,y,-z
-x,-y,-z
x,-y,z
loop_
_atom_site_type_symbol
_atom_site_label
_atom_site_fract_x
_atom_site_fract_y
_atom_site_fract_z
Si Si1 0.213606 0.204359 0.391701
Si Si2 0.071102 0.791934 0.887186
Si Si3 0.202064 0.707171 0.085581
Si Si4 0.342979 0.784486 0.552790
Si Si5 0.353360 0.217759 0.182705
Si Si6 0.494686 0.207935 0.193357
Si Si7 0.069731 0.284485 0.234765
O O1 0.143829 0.286622 0.640902
O O2 0.206432 0.205658 0.234368
O O3 0.288233 0.280448 0.251683
O O4 0.215924 0.000000 0.439714
O O5 0.071988 0.000000 0.839716
O O6 0.069053 0.779582 0.068581
O O7 0.000000 0.714090 0.000000
O O8 0.187630 0.500000 0.150191
O O9 0.138816 0.776250 0.145692
O O10 0.275276 0.724884 0.813900
O O11 0.339067 0.733316 0.390090
O O12 0.417785 0.718774 0.424856
O O13 0.344409 0.000000 0.552708
O O14 0.357429 0.000000 0.167185
O O15 0.431268 0.282234 0.940478
O O16 0.492905 0.000000 0.240838
O O17 0.500000 0.213651 0.000000
O O18 0.070699 0.500000 0.227094
O O19 0.000000 0.229555 0.500000
#
# Coordination Sequence:
#
# PCOD9149001 Si02
#       7
#     4   4   4   4   4   4   4
#     4  10  20  34  52  74 102 136 171 207 251 302
#     4  10  21  36  56  84 111 132 161 206 257 303
#     4  11  23  36  50  72 103 136 172 212 249 292
#     4   9  16  30  54  78 100 129 164 207 260 308
#     4   8  14  27  50  78 101 124 165 215 253 295
#     4   7  11  22  45  76 101 122 158 208 254 297
#     4  10  22  39  57  77 102 136 175 208 242 292
#
# _framework density 21.545311000000002
#
# number of rings (size 3 to 8) (size 9 to 14) (size 15 to 20)
#    0.000    2.714    0.000    3.857    0.000    3.429 
#    0.000    1.429    0.000    9.000    0.000    0.000 
#    0.000    0.000    0.000    0.000    0.000    0.000 
#
# Total GULP energy -156242.862549 kJ/mol
# GULP energy per Si atom -5580.102234 kJ/mol
# Density = 2.149627 g / cm^3
# Si number density = 21.545311 Si / 1000 Ang^3
#
#
#
# Elastic Constant Matrix: (Units=GPa)
#
#
# Indices 1 2 3 4 5 6 
#
# 1 165.2345 -4.2991 86.6583 0.0000 -43.9073 0.0000
# 2 -4.2991 54.4137 -10.2279 0.0000 -8.9845 0.0000
# 3 86.6583 -10.2279 147.0488 0.0000 -41.5912 0.0000
# 4 0.0000 0.0000 0.0000 24.0512 0.0000 13.3940
# 5 -43.9073 -8.9845 -41.5912 0.0000 41.5320 0.0000
# 6 0.0000 0.0000 0.0000 13.3940 0.0000 22.4977
#
#
#
# Elastic Compliance Matrix: (Units=1/GPa)
#
#
# Indices 1 2 3 4 5 6 
#
# 1 0.009922 0.001218 -0.003796 0.000000 0.006951 0.000000
# 2 0.001218 0.020573 0.003259 0.000000 0.009002 0.000000
# 3 -0.003796 0.003259 0.011620 0.000000 0.008328 0.000000
# 4 0.000000 0.000000 0.000000 0.062200 0.000000 -0.037031
# 5 0.006951 0.009002 0.008328 0.000000 0.041714 0.000000
# 6 0.000000 0.000000 0.000000 -0.037031 0.000000 0.066495
#
#
# Mechanical properties :
#
#
# Convention : Reuss Voigt Hill
#
# Bulk Modulus (GPa) = 23.00086 56.77329 39.88708
# Shear Modulus (GPa) = 22.15783 37.25390 29.70586
#
# Velocity S-wave (km/s) = 3.21039 4.16275 3.71720
# Velocity P-wave (km/s) = 4.94377 7.03651 6.08085
#
# Compressibility (1/GPa) = 0.04347664
#
# Stress axis : x y z
#
# Youngs Moduli (GPa) = 100.78846 48.60742 86.05910
#
# Poissons Ratio (x) = -0.05920 0.32671
# Poissons Ratio (y) = -0.12276 -0.28049
# Poissons Ratio (z) = 0.38263 -0.15843
#
# Static dielectric constant tensor:
#      x y z
#    x 1.762140 0.000000 -0.061550 
#    y 0.000000 1.826170 0.000000 
#    z -0.061550 0.000000 1.765510 
# 
# From -- ./inp_files/36990.got.cif
#   From: 2010.05.17/outbox.cif.g08.bks.cpg/sg10_19_cif.got.tgz:36990.got - 2010.06.03 11:33:40.
