data_PCOD9149201
_publ_section_title
;
Structure prediction by ZEFSAII (Michael W. Deem and Ramdas Pophale) SiO2 
 PCOD9149201
Probable space group: P 2/M
;
_chemical_formula_sum "Si O2"
_cell_formula_units_Z 24
_cell_length_a 21.324105
_cell_length_b 7.408324
_cell_length_c 14.656306
_cell_angle_alpha 90.000000
_cell_angle_beta 25.956225
_cell_angle_gamma 90.000000
_cell_volume 1013.389258
_symmetry_space_group_name_H-M "P 2/M"
_symmetry_group_IT_number 10
_symmetry_cell_setting 'monoclinic'
loop_
_space_group_symop_operation_xyz
x,y,z
-x,y,-z
-x,-y,-z
x,-y,z
loop_
_atom_site_type_symbol
_atom_site_label
_atom_site_fract_x
_atom_site_fract_y
_atom_site_fract_z
Si Si1 0.476522 0.783475 0.633305
Si Si2 0.954485 0.707055 0.416465
Si Si3 0.744537 0.285609 0.927779
Si Si4 0.988466 0.781391 0.864973
Si Si5 0.362280 0.720480 0.122742
Si Si6 0.775479 0.780630 0.300012
O O1 0.500000 0.715486 0.500000
O O2 0.331640 0.744209 0.875989
O O3 0.612673 0.719338 0.513818
O O4 0.484330 0.000000 0.617770
O O5 0.942047 0.500000 0.464492
O O6 0.999198 0.709114 0.252153
O O7 0.793645 0.780859 0.635638
O O8 0.093331 0.788308 0.285368
O O9 0.757257 0.500000 0.900551
O O10 0.646105 0.222681 0.972536
O O11 0.125462 0.723760 0.745969
O O12 0.986894 0.000000 0.860914
O O13 0.851899 0.728440 0.104917
O O14 0.367617 0.500000 0.119721
O O15 0.500000 0.783616 0.000000
O O16 0.778313 0.000000 0.297778
#
# Coordination Sequence:
#
# PCOD9149201 Si02
#       6
#     4   4   4   4   4   4
#     4  10  20  34  54  79 109 144 180 215 259 316
#     4  10  20  34  54  79 107 135 172 219 266 312
#     4  10  21  36  55  80 109 141 176 220 267 310
#     4   9  17  32  54  76 102 140 179 214 260 314
#     4   9  19  36  57  78 103 140 181 216 262 324
#     4   8  16  31  50  74 105 140 178 216 256 310
#
# _framework density 23.682903
#
# number of rings (size 3 to 8) (size 9 to 14) (size 15 to 20)
#    0.000    2.667    0.000    2.500    2.333    4.333 
#    0.000    3.333    0.000    3.000    0.000    0.000 
#    0.000    0.000    0.000    0.000    0.000    0.000 
#
# Total GULP energy -134044.474244 kJ/mol
# GULP energy per Si atom -5585.186427 kJ/mol
# Density = 2.362900 g / cm^3
# Si number density = 23.682903 Si / 1000 Ang^3
#
#
#
# Elastic Constant Matrix: (Units=GPa)
#
#
# Indices 1 2 3 4 5 6 
#
# 1 140.5648 3.4674 78.8393 0.0000 -15.4330 0.0000
# 2 3.4674 78.9810 -0.0843 0.0000 -4.5489 0.0000
# 3 78.8393 -0.0843 144.2428 0.0000 -24.9780 0.0000
# 4 0.0000 0.0000 0.0000 11.9035 0.0000 8.1993
# 5 -15.4330 -4.5489 -24.9780 0.0000 45.0268 0.0000
# 6 0.0000 0.0000 0.0000 8.1993 0.0000 5.9657
#
#
#
# Elastic Compliance Matrix: (Units=1/GPa)
#
#
# Indices 1 2 3 4 5 6 
#
# 1 0.010282 -0.000434 -0.005551 0.000000 0.000401 0.000000
# 2 -0.000434 0.012762 0.000489 0.000000 0.001412 0.000000
# 3 -0.005551 0.000489 0.010671 0.000000 0.004067 0.000000
# 4 0.000000 0.000000 0.000000 1.576480 0.000000 -2.166719
# 5 0.000401 0.001412 0.004067 0.000000 0.024745 0.000000
# 6 0.000000 0.000000 0.000000 -2.166719 0.000000 3.145569
#
#
# Mechanical properties :
#
#
# Convention : Reuss Voigt Hill
#
# Bulk Modulus (GPa) = 44.00612 58.69260 51.34936
# Shear Modulus (GPa) = 1.04187 31.35029 16.19608
#
# Velocity S-wave (km/s) = 0.66399 3.64229 2.61793
# Velocity P-wave (km/s) = 4.38287 6.52111 5.55583
#
# Compressibility (1/GPa) = 0.02272411
#
# Stress axis : x y z
#
# Youngs Moduli (GPa) = 97.25547 78.35655 93.71078
#
# Poissons Ratio (x) = 0.03402 0.52017
# Poissons Ratio (y) = 0.04223 -0.04585
# Poissons Ratio (z) = 0.53984 -0.03834
#
# Static dielectric constant tensor:
#      x y z
#    x 1.895430 0.000000 -0.019460 
#    y 0.000000 1.909770 0.000000 
#    z -0.019460 0.000000 1.874450 
# 
# From -- ./inp_files/53592.got.cif
#   From: 2010.05.17/outbox.cif.g08.bks.cpg/sg10_27_cif.got.tgz:53592.got - 2010.06.03 11:33:40.
