data_PCOD9149877
_publ_section_title
;
Structure prediction by ZEFSAII (Michael W. Deem and Ramdas Pophale) SiO2 
 PCOD9149877
Probable space group: P 2/M
;
_chemical_formula_sum "Si O2"
_cell_formula_units_Z 25
_cell_length_a 8.842747
_cell_length_b 21.183393
_cell_length_c 8.385157
_cell_angle_alpha 90.000000
_cell_angle_beta 55.355845
_cell_angle_gamma 90.000000
_cell_volume 1292.214575
_symmetry_space_group_name_H-M "P 2/M"
_symmetry_group_IT_number 10
_symmetry_cell_setting 'monoclinic'
loop_
_space_group_symop_operation_xyz
x,y,z
-x,y,-z
-x,-y,-z
x,-y,z
loop_
_atom_site_type_symbol
_atom_site_label
_atom_site_fract_x
_atom_site_fract_y
_atom_site_fract_z
Si Si1 0.198506 0.072198 0.299025
Si Si2 0.454948 0.181348 0.217192
Si Si3 0.000000 0.500000 0.500000
Si Si4 0.950935 0.696384 0.843183
Si Si5 0.308862 0.601435 0.190173
Si Si6 0.347465 0.693079 0.451942
Si Si7 0.155037 0.162596 0.030629
O O1 0.339115 0.117909 0.305519
O O2 0.179982 0.106644 0.140460
O O3 0.000000 0.073297 0.500000
O O4 0.261396 0.000000 0.249230
O O5 0.358264 0.240948 0.351371
O O6 0.500000 0.190496 0.000000
O O7 0.654680 0.174548 0.174319
O O8 0.852665 0.554301 0.656501
O O9 0.791477 0.651396 0.869841
O O10 0.895705 0.770136 0.858602
O O11 0.141879 0.684970 0.639472
O O12 0.000000 0.686118 0.000000
O O13 0.377726 0.638847 0.304751
O O14 0.500000 0.575600 0.000000
O O15 0.500000 0.691785 0.500000
O O16 0.000000 0.146275 0.000000
#
# Coordination Sequence:
#
# PCOD9149877 Si02
#       7
#     4   4   1   4   4   4   4
#     4  10  21  37  55  77 113 161 207 249 306 375
#     4  10  21  36  58  88 118 157 207 256 313 368
#     4  12  26  48  68  98 128 178 212 248 312 378
#     4  11  22  40  65  97 129 162 210 264 316 372
#     4  12  24  45  70  95 132 169 213 259 311 375
#     4  12  22  38  66  98 128 162 209 263 319 369
#     4  10  20  35  56  87 118 151 198 256 315 363
#
# _framework density 19.346630999999999
#
# number of rings (size 3 to 8) (size 9 to 14) (size 15 to 20)
#    0.000    1.120    1.600    7.440    0.000    3.200 
#    0.000    0.800    0.000    2.400    0.000    0.000 
#    0.000    0.000    0.000    0.000    0.000    0.000 
#
# Total GULP energy -139324.725587 kJ/mol
# GULP energy per Si atom -5572.989023 kJ/mol
# Density = 1.930260 g / cm^3
# Si number density = 19.346631 Si / 1000 Ang^3
#
#
#
# Elastic Constant Matrix: (Units=GPa)
#
#
# Indices 1 2 3 4 5 6 
#
# 1 84.7745 26.1072 25.8855 0.0000 -10.5152 0.0000
# 2 26.1072 116.4884 43.1011 0.0000 6.0369 0.0000
# 3 25.8855 43.1011 113.1791 0.0000 -26.9521 0.0000
# 4 0.0000 0.0000 0.0000 -21.8557 0.0000 -21.8414
# 5 -10.5152 6.0369 -26.9521 0.0000 35.9005 0.0000
# 6 0.0000 0.0000 0.0000 -21.8414 0.0000 -6.4609
#
#
#
# Elastic Compliance Matrix: (Units=1/GPa)
#
#
# Indices 1 2 3 4 5 6 
#
# 1 0.013443 -0.002754 -0.001191 0.000000 0.003506 0.000000
# 2 -0.002754 0.011546 -0.005384 0.000000 -0.006790 0.000000
# 3 -0.001191 -0.005384 0.013749 0.000000 0.010878 0.000000
# 4 0.000000 0.000000 0.000000 0.019238 0.000000 -0.065035
# 5 0.003506 -0.006790 0.010878 0.000000 0.038190 0.000000
# 6 0.000000 0.000000 0.000000 -0.065035 0.000000 0.065077
#
#
# Mechanical properties :
#
#
# Convention : Reuss Voigt Hill
#
# Bulk Modulus (GPa) = 49.80104 56.06995 52.93549
# Shear Modulus (GPa) = 26.79625 16.14002 21.46814
#
# Velocity S-wave (km/s) = 3.72568 2.89148 3.33477
# Velocity P-wave (km/s) = 6.65619 6.33973 6.49989
#
# Compressibility (1/GPa) = 0.02007990
#
# Stress axis : x y z
#
# Youngs Moduli (GPa) = 74.39040 86.61215 72.73374
#
# Poissons Ratio (x) = 0.23852 0.08661
# Poissons Ratio (y) = 0.20486 0.39160
# Poissons Ratio (z) = 0.08858 0.46632
#
# Static dielectric constant tensor:
#      x y z
#    x 1.704630 0.000000 -0.008250 
#    y 0.000000 1.654500 0.000000 
#    z -0.008250 0.000000 1.708470 
# 
# From -- ./inp_files/20150.got.cif
#   From: 2010.05.17/outbox.cif.g08.bks.cpg/sg10_11_cif.got.tgz:20150.got - 2010.06.03 11:33:40.
