data_PCOD9149710
_publ_section_title
;
Structure prediction by ZEFSAII (Michael W. Deem and Ramdas Pophale) SiO2 
 PCOD9149710
Probable space group: P 2/M
;
_chemical_formula_sum "Si O2"
_cell_formula_units_Z 24
_cell_length_a 14.449381
_cell_length_b 16.165244
_cell_length_c 9.117153
_cell_angle_alpha 90.000000
_cell_angle_beta 39.301769
_cell_angle_gamma 90.000000
_cell_volume 1348.876150
_symmetry_space_group_name_H-M "P 2/M"
_symmetry_group_IT_number 10
_symmetry_cell_setting 'monoclinic'
loop_
_space_group_symop_operation_xyz
x,y,z
-x,y,-z
-x,-y,-z
x,-y,z
loop_
_atom_site_type_symbol
_atom_site_label
_atom_site_fract_x
_atom_site_fract_y
_atom_site_fract_z
Si Si1 0.367672 0.813508 0.773346
Si Si2 0.642697 0.000000 0.214189
Si Si3 0.351785 0.266591 0.097579
Si Si4 0.903509 0.159506 0.470979
Si Si5 0.006760 0.000000 0.166719
Si Si6 0.151130 0.405659 0.224981
Si Si7 0.080826 0.717408 0.055586
O O1 0.500000 0.806665 0.500000
O O2 0.367124 0.907380 0.836091
O O3 0.389451 0.757094 0.885919
O O4 0.218811 0.781358 0.877470
O O5 0.500000 0.000000 0.500000
O O6 0.817486 0.000000 0.031591
O O7 0.255605 0.191585 0.284776
O O8 0.254837 0.348258 0.196890
O O9 0.500000 0.280448 0.000000
O O10 0.000000 0.148040 0.500000
O O11 0.928958 0.078846 0.339160
O O12 0.969559 0.234712 0.297651
O O13 0.000000 0.000000 0.000000
O O14 0.202161 0.500000 0.145727
O O15 0.130268 0.361841 0.091268
O O16 0.000000 0.406474 0.500000
O O17 0.000000 0.701489 0.000000
#
# Coordination Sequence:
#
# PCOD9149710 Si02
#       7
#     4   2   4   4   2   4   4
#     4  10  22  37  56  85 119 160 202 251 307 357
#     4  10  20  35  55  78 121 157 199 244 305 347
#     4  11  23  39  62  87 119 160 203 251 305 366
#     4  12  21  41  59  88 120 164 210 249 304 354
#     4  12  25  37  59  92 123 163 209 266 295 352
#     4  10  20  40  65  91 121 152 196 252 310 375
#     4  11  21  36  63  88 121 157 204 249 301 363
#
# _framework density 17.792591000000002
#
# number of rings (size 3 to 8) (size 9 to 14) (size 15 to 20)
#    0.000    1.167    6.667    0.750    2.333    2.667 
#    0.000    0.833    0.000    8.000    0.000    0.000 
#    0.000    0.000    0.000    0.000    0.000    0.000 
#
# Total GULP energy -133610.317143 kJ/mol
# GULP energy per Si atom -5567.096548 kJ/mol
# Density = 1.775209 g / cm^3
# Si number density = 17.792591 Si / 1000 Ang^3
#
#
#
# Elastic Constant Matrix: (Units=GPa)
#
#
# Indices 1 2 3 4 5 6 
#
# 1 119.7756 46.5028 45.1417 0.0000 -1.6278 0.0000
# 2 46.5028 126.8321 35.5541 0.0000 1.4025 0.0000
# 3 45.1417 35.5541 87.3768 0.0000 3.5251 0.0000
# 4 0.0000 0.0000 0.0000 -4.2937 0.0000 -35.9390
# 5 -1.6278 1.4025 3.5251 0.0000 23.7881 0.0000
# 6 0.0000 0.0000 0.0000 -35.9390 0.0000 -51.2737
#
#
#
# Elastic Compliance Matrix: (Units=1/GPa)
#
#
# Indices 1 2 3 4 5 6 
#
# 1 0.011247 -0.002816 -0.004731 0.000000 0.001637 0.000000
# 2 -0.002816 0.009604 -0.002437 0.000000 -0.000398 0.000000
# 3 -0.004731 -0.002437 0.014978 0.000000 -0.002400 0.000000
# 4 0.000000 0.000000 0.000000 0.047854 0.000000 -0.033542
# 5 0.001637 -0.000398 -0.002400 0.000000 0.042529 0.000000
# 6 0.000000 0.000000 0.000000 -0.033542 0.000000 0.004007
#
#
# Mechanical properties :
#
#
# Convention : Reuss Voigt Hill
#
# Bulk Modulus (GPa) = 63.04751 65.37573 64.21162
# Shear Modulus (GPa) = 32.15941 7.42985 19.79463
#
# Velocity S-wave (km/s) = 4.25604 2.04570 3.33907
# Velocity P-wave (km/s) = 7.72421 6.51175 7.14375
#
# Compressibility (1/GPa) = 0.01586105
#
# Stress axis : x y z
#
# Youngs Moduli (GPa) = 88.90879 104.11812 66.76677
#
# Poissons Ratio (x) = 0.29317 0.31588
# Poissons Ratio (y) = 0.25034 0.16274
# Poissons Ratio (z) = 0.42064 0.25377
#
# Static dielectric constant tensor:
#      x y z
#    x 1.123240 0.000000 0.357840 
#    y 0.000000 1.637260 0.000000 
#    z 0.357840 0.000000 1.317690 
# 
# From -- ./inp_files/29342.got.cif
#   From: 2010.05.17/outbox.cif.g08.bks.cpg/sg10_15_cif.got.tgz:29342.got - 2010.06.03 11:33:40.
