data_PCOD9149663
_publ_section_title
;
Structure prediction by ZEFSAII (Michael W. Deem and Ramdas Pophale) SiO2 
 PCOD9149663
Probable space group: P 2/M
;
_chemical_formula_sum "Si O2"
_cell_formula_units_Z 32
_cell_length_a 21.105193
_cell_length_b 8.692018
_cell_length_c 14.500315
_cell_angle_alpha 90.000000
_cell_angle_beta 136.391318
_cell_angle_gamma 90.000000
_cell_volume 1834.704127
_symmetry_space_group_name_H-M "P 2/M"
_symmetry_group_IT_number 10
_symmetry_cell_setting 'monoclinic'
loop_
_space_group_symop_operation_xyz
x,y,z
-x,y,-z
-x,-y,-z
x,-y,z
loop_
_atom_site_type_symbol
_atom_site_label
_atom_site_fract_x
_atom_site_fract_y
_atom_site_fract_z
Si Si1 0.954103 0.183916 0.643596
Si Si2 0.187801 0.684564 0.644405
Si Si3 0.105234 0.184273 0.082767
Si Si4 0.860791 0.683392 0.084108
Si Si5 0.726086 0.815127 0.081617
Si Si6 0.339811 0.683551 0.649150
Si Si7 0.520764 0.185054 0.917828
Si Si8 0.816165 0.684934 0.651946
O O1 0.903094 0.248627 0.499518
O O2 0.892327 0.239652 0.665282
O O3 0.054557 0.251537 0.766436
O O4 0.957185 0.000000 0.644643
O O5 0.180896 0.500000 0.643338
O O6 0.212805 0.756870 0.768316
O O7 0.271887 0.722847 0.662927
O O8 0.168455 0.254050 0.229566
O O9 0.114135 0.000000 0.089151
O O10 0.126829 0.253736 0.006041
O O11 0.000000 0.220863 0.000000
O O12 0.863799 0.500000 0.087280
O O13 0.768388 0.744292 0.034074
O O14 0.729308 0.000000 0.081059
O O15 0.621275 0.764920 0.990561
O O16 0.352181 0.500000 0.663533
O O17 0.437215 0.761950 0.765940
O O18 0.282087 0.724071 0.496999
O O19 0.521679 0.000000 0.921747
O O20 0.500000 0.241720 0.000000
O O21 0.827284 0.500000 0.659598
#
# Coordination Sequence:
#
# PCOD9149663 Si02
#       8
#     4   4   4   4   4   4   4   4
#     4  11  21  35  55  81 113 151 191 232 278 331
#     4  10  20  35  54  81 114 151 192 231 277 334
#     4  11  22  37  60  88 114 147 189 232 283 335
#     4  12  25  40  58  81 113 152 191 234 283 336
#     4  11  23  39  57  81 115 151 191 236 281 337
#     4   9  19  33  54  84 116 147 184 231 278 331
#     4  10  20  35  57  85 113 148 189 232 282 334
#     4  10  20  35  56  86 117 148 186 231 283 332
#
# _framework density 17.441503000000001
#
# number of rings (size 3 to 8) (size 9 to 14) (size 15 to 20)
#    0.000    1.500    2.500    4.500    0.000    4.750 
#    0.000    2.500    0.000    0.750    0.000    5.250 
#    0.000    0.000    0.000    0.000    0.000    0.000 
#
# Total GULP energy -178810.822899 kJ/mol
# GULP energy per Si atom -5587.838216 kJ/mol
# Density = 1.740181 g / cm^3
# Si number density = 17.441503 Si / 1000 Ang^3
#
#
#
# Elastic Constant Matrix: (Units=GPa)
#
#
# Indices 1 2 3 4 5 6 
#
# 1 113.7883 49.0082 64.9748 0.0000 3.0448 0.0000
# 2 49.0082 80.3510 40.6362 0.0000 -2.6381 0.0000
# 3 64.9748 40.6362 112.1548 0.0000 0.5720 0.0000
# 4 0.0000 0.0000 0.0000 32.3170 0.0000 -3.4657
# 5 3.0448 -2.6381 0.5720 0.0000 22.4206 0.0000
# 6 0.0000 0.0000 0.0000 -3.4657 0.0000 26.2592
#
#
#
# Elastic Compliance Matrix: (Units=1/GPa)
#
#
# Indices 1 2 3 4 5 6 
#
# 1 0.015241 -0.006028 -0.006633 0.000000 -0.002610 0.000000
# 2 -0.006028 0.017706 -0.002938 0.000000 0.002977 0.000000
# 3 -0.006633 -0.002938 0.013822 0.000000 0.000202 0.000000
# 4 0.000000 0.000000 0.000000 0.031388 0.000000 0.004143
# 5 -0.002610 0.002977 0.000202 0.000000 0.045301 0.000000
# 6 0.000000 0.000000 0.000000 0.004143 0.000000 0.038629
#
#
# Mechanical properties :
#
#
# Convention : Reuss Voigt Hill
#
# Bulk Modulus (GPa) = 64.21664 68.39250 66.30457
# Shear Modulus (GPa) = 25.19213 26.31103 25.75158
#
# Velocity S-wave (km/s) = 3.80462 3.88819 3.84663
# Velocity P-wave (km/s) = 7.49656 7.71071 7.60439
#
# Compressibility (1/GPa) = 0.01557229
#
# Stress axis : x y z
#
# Youngs Moduli (GPa) = 65.61062 56.47960 72.34672
#
# Poissons Ratio (x) = 0.34043 0.47985
# Poissons Ratio (y) = 0.39547 0.21258
# Poissons Ratio (z) = 0.43517 0.16596
#
# Static dielectric constant tensor:
#      x y z
#    x 1.591470 0.000000 0.001940 
#    y 0.000000 1.580390 0.000000 
#    z 0.001940 0.000000 1.587460 
# 
# From -- ./inp_files/70050.got.cif
#   From: 2010.05.17/outbox.cif.g08.bks.cpg/sg10_36_cif.got.tgz:70050.got - 2010.06.03 11:33:40.
