data_PCOD9149468
_publ_section_title
;
Structure prediction by ZEFSAII (Michael W. Deem and Ramdas Pophale) SiO2 
 PCOD9149468
Probable space group: P 2/M
;
_chemical_formula_sum "Si O2"
_cell_formula_units_Z 24
_cell_length_a 18.587259
_cell_length_b 10.756507
_cell_length_c 5.754519
_cell_angle_alpha 90.000000
_cell_angle_beta 108.134344
_cell_angle_gamma 90.000000
_cell_volume 1093.376610
_symmetry_space_group_name_H-M "P 2/M"
_symmetry_group_IT_number 10
_symmetry_cell_setting 'monoclinic'
loop_
_space_group_symop_operation_xyz
x,y,z
-x,y,-z
-x,-y,-z
x,-y,z
loop_
_atom_site_type_symbol
_atom_site_label
_atom_site_fract_x
_atom_site_fract_y
_atom_site_fract_z
Si Si1 0.184567 0.137304 0.218479
Si Si2 0.691243 0.229373 0.336558
Si Si3 0.777191 0.638881 0.047771
Si Si4 0.972092 0.854433 0.720284
Si Si5 0.431529 0.865200 0.113859
Si Si6 0.611934 0.638416 0.634393
O O1 0.265395 0.150709 0.425966
O O2 0.118486 0.147591 0.343315
O O3 0.178113 0.000000 0.103107
O O4 0.177699 0.250426 0.031279
O O5 0.753699 0.317001 0.279986
O O6 0.628350 0.317078 0.390435
O O7 0.647584 0.147243 0.105434
O O8 0.810118 0.500000 0.074197
O O9 0.695948 0.634044 0.834144
O O10 0.000000 0.801489 0.500000
O O11 0.996907 0.000000 0.744628
O O12 0.000000 0.803015 0.000000
O O13 0.432810 0.745893 0.279059
O O14 0.433247 0.000000 0.236200
O O15 0.500000 0.861926 0.000000
O O16 0.581188 0.500000 0.621165
#
# Coordination Sequence:
#
# PCOD9149468 Si02
#       6
#     4   4   4   4   4   4
#     4  10  21  34  57  88 113 144 189 242 287 337
#     4  10  20  34  57  83 108 143 188 236 280 340
#     4   9  19  35  55  80 113 149 184 229 287 345
#     4   9  19  35  56  85 123 159 194 241 303 362
#     4  10  22  38  54  76 111 149 182 226 286 345
#     4   9  19  36  56  79 105 138 186 233 279 335
#
# _framework density 21.950348999999999
#
# number of rings (size 3 to 8) (size 9 to 14) (size 15 to 20)
#    0.000    2.500    0.000    1.000    2.333    9.667 
#    0.000    2.500    0.000    1.000    0.000    0.000 
#    0.000    0.000    0.000    0.000    0.000    0.000 
#
# Total GULP energy -133915.598412 kJ/mol
# GULP energy per Si atom -5579.816601 kJ/mol
# Density = 2.190039 g / cm^3
# Si number density = 21.950349 Si / 1000 Ang^3
#
#
#
# Elastic Constant Matrix: (Units=GPa)
#
#
# Indices 1 2 3 4 5 6 
#
# 1 60.6461 43.4647 17.1669 0.0000 -11.4521 0.0000
# 2 43.4647 206.3785 48.8158 0.0000 -36.4618 0.0000
# 3 17.1669 48.8158 77.9716 0.0000 -20.1201 0.0000
# 4 0.0000 0.0000 0.0000 -303.3184 0.0000 -730.1564
# 5 -11.4521 -36.4618 -20.1201 0.0000 43.2007 0.0000
# 6 0.0000 0.0000 0.0000 -730.1564 0.0000-1673.8883
#
#
#
# Elastic Compliance Matrix: (Units=1/GPa)
#
#
# Indices 1 2 3 4 5 6 
#
# 1 0.019768 -0.003479 -0.001795 0.000000 0.001468 0.000000
# 2 -0.003479 0.006830 -0.002569 0.000000 0.003646 0.000000
# 3 -0.001795 -0.002569 0.016079 0.000000 0.004844 0.000000
# 4 0.000000 0.000000 0.000000 0.065883 0.000000 -0.028738
# 5 0.001468 0.003646 0.004844 0.000000 0.028870 0.000000
# 6 0.000000 0.000000 0.000000 -0.028738 0.000000 0.011938
#
#
# Mechanical properties :
#
#
# Convention : Reuss Voigt Hill
#
# Bulk Modulus (GPa) = 37.05180 62.65457 49.85318
# Shear Modulus (GPa) = 28.72699 -371.09796 -171.18548
#
# Velocity S-wave (km/s) = 3.62156 -13.01651 -8.84064
# Velocity P-wave (km/s) = 5.86549 14.04636 9.02486
#
# Compressibility (1/GPa) = 0.02698924
#
# Stress axis : x y z
#
# Youngs Moduli (GPa) = 50.58666 146.41130 62.19277
#
# Poissons Ratio (x) = 0.50942 0.11165
# Poissons Ratio (y) = 0.17601 0.15979
# Poissons Ratio (z) = 0.09082 0.37618
#
# Static dielectric constant tensor:
#      x y z
#    x 1.817690 0.000000 -0.001140 
#    y 0.000000 1.797950 0.000000 
#    z -0.001140 0.000000 1.845400 
# 
# From -- ./inp_files/10969.got.cif
#   From: 2010.05.17/outbox.cif.g08.bks.cpg/sg10_6_cif.got.tgz:10969.got - 2010.06.03 11:33:40.
