data_PCOD9149364
_publ_section_title
;
Structure prediction by ZEFSAII (Michael W. Deem and Ramdas Pophale) SiO2 
 PCOD9149364
Probable space group: P 2/M
;
_chemical_formula_sum "Si O2"
_cell_formula_units_Z 32
_cell_length_a 24.549595
_cell_length_b 8.536615
_cell_length_c 24.528709
_cell_angle_alpha 90.000000
_cell_angle_beta 18.830615
_cell_angle_gamma 90.000000
_cell_volume 1659.204300
_symmetry_space_group_name_H-M "P 2/M"
_symmetry_group_IT_number 10
_symmetry_cell_setting 'monoclinic'
loop_
_space_group_symop_operation_xyz
x,y,z
-x,y,-z
-x,-y,-z
x,-y,z
loop_
_atom_site_type_symbol
_atom_site_label
_atom_site_fract_x
_atom_site_fract_y
_atom_site_fract_z
Si Si1 0.661070 0.188855 0.514409
Si Si2 0.093661 0.689238 0.965984
Si Si3 0.364898 0.810725 0.876906
Si Si4 0.844944 0.686320 0.715245
Si Si5 0.014406 0.687111 0.161431
Si Si6 0.465129 0.189288 0.594466
Si Si7 0.430575 0.189560 0.939427
Si Si8 0.794016 0.187737 0.641996
O O1 0.518348 0.240470 0.692409
O O2 0.600394 0.239945 0.511541
O O3 0.847141 0.251307 0.349084
O O4 0.665862 0.000000 0.510819
O O5 0.094905 0.500000 0.963866
O O6 0.283611 0.750540 0.784866
O O7 0.010827 0.740354 0.101342
O O8 0.000000 0.744896 0.000000
O O9 0.399052 0.764355 0.906816
O O10 0.358845 0.000000 0.880286
O O11 0.187232 0.747261 0.023884
O O12 0.841268 0.500000 0.713323
O O13 0.795470 0.761314 0.703870
O O14 0.037162 0.740376 0.544281
O O15 0.712924 0.741575 0.885572
O O16 0.014660 0.500000 0.161992
O O17 0.500000 0.244810 0.500000
O O18 0.463231 0.000000 0.595784
O O19 0.617825 0.236773 0.781682
O O20 0.422370 0.000000 0.950718
O O21 0.806988 0.000000 0.626768
#
# Coordination Sequence:
#
# PCOD9149364 Si02
#       8
#     4   4   4   4   4   4   4   4
#     4  10  21  38  60  84 112 150 193 238 295 350
#     4  10  21  36  54  80 115 152 188 228 283 355
#     4  10  22  42  63  83 112 153 199 247 294 348
#     4  11  22  36  58  90 127 161 194 240 300 352
#     4  11  23  38  59  86 115 150 192 237 293 352
#     4  10  20  34  55  85 115 143 185 239 291 344
#     4  10  22  39  61  86 113 153 204 248 291 346
#     4  10  20  37  61  88 121 160 204 247 288 343
#
# _framework density 19.286352000000001
#
# number of rings (size 3 to 8) (size 9 to 14) (size 15 to 20)
#    0.000    1.750    1.250    3.750    0.000    6.000 
#    0.000    2.500    0.000    0.000    0.000    0.000 
#    0.000    0.000    0.000    0.000    0.000    0.000 
#
# Total GULP energy -178792.095747 kJ/mol
# GULP energy per Si atom -5587.252992 kJ/mol
# Density = 1.924246 g / cm^3
# Si number density = 19.286352 Si / 1000 Ang^3
#
#
#
# Elastic Constant Matrix: (Units=GPa)
#
#
# Indices 1 2 3 4 5 6 
#
# 1 111.3986 17.1357 77.4008 0.0000 -13.4024 0.0000
# 2 17.1357 8.0060 12.5336 0.0000 -9.1203 0.0000
# 3 77.4008 12.5336 160.6445 0.0000 -26.8768 0.0000
# 4 0.0000 0.0000 0.0000 26.8896 0.0000 -13.1780
# 5 -13.4024 -9.1203 -26.8768 0.0000 11.1642 0.0000
# 6 0.0000 0.0000 0.0000 -13.1780 0.0000 19.7069
#
#
#
# Elastic Compliance Matrix: (Units=1/GPa)
#
#
# Indices 1 2 3 4 5 6 
#
# 1 0.002640 0.075751 0.006198 0.000000 0.079973 0.000000
# 2 0.075751 -0.528367 -0.087531 0.000000 -0.551424 0.000000
# 3 0.006198 -0.087531 -0.001090 0.000000 -0.066689 0.000000
# 4 0.000000 0.000000 0.000000 0.055317 0.000000 0.036991
# 5 0.079973 -0.551424 -0.066689 0.000000 -0.425444 0.000000
# 6 0.000000 0.000000 0.000000 0.036991 0.000000 0.075479
#
#
# Mechanical properties :
#
#
# Convention : Reuss Voigt Hill
#
# Bulk Modulus (GPa) = -1.85880 54.90994 26.52557
# Shear Modulus (GPa) = -5.05241 23.08408 9.01583
#
# Velocity S-wave (km/s) = -1.62030 3.46340 2.16446
# Velocity P-wave (km/s) = 2.11338 6.67279 4.47548
#
# Compressibility (1/GPa) = -0.53798096
#
# Stress axis : x y z
#
# Youngs Moduli (GPa) = 378.84227 -1.89263 -917.69973
#
# Poissons Ratio (x) = 0.14337 5.68796
# Poissons Ratio (y) = -28.69757 -80.32710
# Poissons Ratio (z) = -2.34809 -0.16566
#
# Static dielectric constant tensor:
#      x y z
#    x 1.674310 0.000000 0.006560 
#    y 0.000000 1.651970 0.000000 
#    z 0.006560 0.000000 1.647320 
# 
# From -- ./inp_files/90575.got.cif
#   From: 2010.05.17/outbox.cif.g08.bks.cpg/sg10_46_cif.got.tgz:90575.got - 2010.06.03 11:33:40.
