data_PCOD9149617
_publ_section_title
;
Structure prediction by ZEFSAII (Michael W. Deem and Ramdas Pophale) SiO2 
 PCOD9149617
Probable space group: P 2/M
;
_chemical_formula_sum "Si O2"
_cell_formula_units_Z 28
_cell_length_a 14.781118
_cell_length_b 24.578645
_cell_length_c 8.528774
_cell_angle_alpha 90.000000
_cell_angle_beta 29.940501
_cell_angle_gamma 90.000000
_cell_volume 1546.463764
_symmetry_space_group_name_H-M "P 2/M"
_symmetry_group_IT_number 10
_symmetry_cell_setting 'monoclinic'
loop_
_space_group_symop_operation_xyz
x,y,z
-x,y,-z
-x,-y,-z
x,-y,z
loop_
_atom_site_type_symbol
_atom_site_label
_atom_site_fract_x
_atom_site_fract_y
_atom_site_fract_z
Si Si1 0.161861 0.939431 0.378840
Si Si2 0.308782 0.438010 0.382435
Si Si3 0.836321 0.649271 0.622929
Si Si4 0.186862 0.731488 0.626276
Si Si5 0.690665 0.146310 0.618670
Si Si6 0.459299 0.939431 0.378840
Si Si7 0.540750 0.350729 0.622929
O O1 0.173803 0.890133 0.481227
O O2 0.000000 0.932791 0.500000
O O3 0.144558 0.000000 0.477529
O O4 0.351395 0.939251 1.000000
O O5 0.252531 0.500000 0.494938
O O6 0.172601 0.403593 0.477378
O O7 0.350021 0.403593 0.477378
O O8 0.500000 0.439033 0.000000
O O9 0.835752 0.700199 0.505073
O O10 0.000000 0.648928 0.500000
O O11 0.649474 0.650470 1.000000
O O12 0.239875 0.793820 0.520250
O O13 0.340825 0.700199 0.494927
O O14 0.000000 0.727432 0.000000
O O15 0.655030 0.109867 0.518773
O O16 0.500000 0.150346 0.000000
O O17 0.500000 0.932791 0.500000
O O18 0.377913 0.000000 0.477529
O O19 0.500000 0.351072 0.500000
#
# Coordination Sequence:
#
# PCOD9149617 Si02
#       7
#     4   4   4   4   4   4   4
#     4   9  18  33  53  76 102 133 168 208 257 314
#     4   8  16  32  54  82 115 146 177 216 260 310
#     4  10  20  36  58  81 109 145 182 220 266 316
#     4  11  23  38  55  77 106 139 182 229 271 317
#     4  10  20  35  54  75 103 137 173 213 263 320
#     4   9  18  33  53  76 102 133 168 208 257 314
#     4  10  20  36  58  81 109 145 182 220 266 316
#
# _framework density 18.105823999999998
#
# number of rings (size 3 to 8) (size 9 to 14) (size 15 to 20)
#    0.000    2.429    0.000    3.429    0.000    4.571 
#    0.000    2.857    0.000   18.857    0.000    0.000 
#    0.000    0.000    0.000    0.000    0.000    0.000 
#
# Total GULP energy -156205.225159 kJ/mol
# GULP energy per Si atom -5578.758041 kJ/mol
# Density = 1.806461 g / cm^3
# Si number density = 18.105824 Si / 1000 Ang^3
#
#
#
# Elastic Constant Matrix: (Units=GPa)
#
#
# Indices 1 2 3 4 5 6 
#
# 1 172.4517 111.7993 40.9070 0.0000 -2.5770 0.0000
# 2 111.7993 202.8589 41.9464 0.0000 -2.3330 0.0000
# 3 40.9070 41.9464 49.2557 0.0000 -1.5375 0.0000
# 4 0.0000 0.0000 0.0000 16.2122 0.0000 0.1530
# 5 -2.5770 -2.3330 -1.5375 0.0000 27.2279 0.0000
# 6 0.0000 0.0000 0.0000 0.1530 0.0000 11.6306
#
#
#
# Elastic Compliance Matrix: (Units=1/GPa)
#
#
# Indices 1 2 3 4 5 6 
#
# 1 0.009707 -0.004468 -0.004248 0.000000 0.000296 0.000000
# 2 -0.004468 0.008041 -0.003134 0.000000 0.000089 0.000000
# 3 -0.004248 -0.003134 0.026525 0.000000 0.000827 0.000000
# 4 0.000000 0.000000 0.000000 0.061690 0.000000 -0.000812
# 5 0.000296 0.000089 0.000827 0.000000 0.036809 0.000000
# 6 0.000000 0.000000 0.000000 -0.000812 0.000000 0.085991
#
#
# Mechanical properties :
#
#
# Convention : Reuss Voigt Hill
#
# Bulk Modulus (GPa) = 48.60682 90.43018 69.51850
# Shear Modulus (GPa) = 19.28108 26.34171 22.81139
#
# Velocity S-wave (km/s) = 3.26684 3.81842 3.55335
# Velocity P-wave (km/s) = 6.41357 8.33632 7.43734
#
# Compressibility (1/GPa) = 0.02057324
#
# Stress axis : x y z
#
# Youngs Moduli (GPa) = 103.01356 124.35989 37.70045
#
# Poissons Ratio (x) = 0.55567 0.16014
# Poissons Ratio (y) = 0.46029 0.11816
# Poissons Ratio (z) = 0.43757 0.38977
#
# Static dielectric constant tensor:
#      x y z
#    x 1.602420 0.000000 0.000360 
#    y 0.000000 1.613030 0.000000 
#    z 0.000360 0.000000 1.613160 
# 
# From -- ./inp_files/30389.got.cif
#   From: 2010.05.17/outbox.cif.g08.bks.cpg/sg10_16_cif.got.tgz:30389.got - 2010.06.03 11:33:40.
