data_PCOD9149341
_publ_section_title
;
Structure prediction by ZEFSAII (Michael W. Deem and Ramdas Pophale) SiO2 
 PCOD9149341
Probable space group: P 2/M
;
_chemical_formula_sum "Si O2"
_cell_formula_units_Z 32
_cell_length_a 25.453449
_cell_length_b 8.137358
_cell_length_c 16.659867
_cell_angle_alpha 90.000000
_cell_angle_beta 153.392232
_cell_angle_gamma 90.000000
_cell_volume 1545.480616
_symmetry_space_group_name_H-M "P 2/M"
_symmetry_group_IT_number 10
_symmetry_cell_setting 'monoclinic'
loop_
_space_group_symop_operation_xyz
x,y,z
-x,y,-z
-x,-y,-z
x,-y,z
loop_
_atom_site_type_symbol
_atom_site_label
_atom_site_fract_x
_atom_site_fract_y
_atom_site_fract_z
Si Si1 0.170774 0.698176 0.542582
Si Si2 0.589244 0.698623 0.051913
Si Si3 0.181531 0.305985 0.080793
Si Si4 0.085162 0.698819 0.257436
Si Si5 0.746122 0.804024 0.647835
Si Si6 0.045615 0.198114 0.647728
Si Si7 0.498289 0.198215 0.242707
Si Si8 0.282044 0.197129 0.050556
O O1 0.174021 0.500000 0.547613
O O2 0.281602 0.758251 0.745292
O O3 0.166934 0.749815 0.444297
O O4 0.050185 0.754155 0.417592
O O5 0.591102 0.500000 0.053877
O O6 0.500000 0.751074 0.000000
O O7 0.546605 0.754212 0.906689
O O8 0.172998 0.500000 0.055805
O O9 0.243179 0.270551 0.249321
O O10 0.251143 0.235514 0.100105
O O11 0.047316 0.242464 0.905933
O O12 0.082430 0.500000 0.250281
O O13 0.141344 0.760523 0.252186
O O14 0.628883 0.743017 0.442431
O O15 0.739475 0.000000 0.647054
O O16 0.000000 0.261063 0.500000
O O17 0.051650 0.000000 0.651678
O O18 0.173116 0.260071 0.848049
O O19 0.404115 0.257842 0.180313
O O20 0.501357 0.000000 0.249700
O O21 0.283870 0.000000 0.045578
#
# Coordination Sequence:
#
# PCOD9149341 Si02
#       8
#     4   4   4   4   4   4   4   4
#     4  10  20  35  56  84 116 151 189 235 289 343
#     4  10  21  37  59  86 118 158 201 243 290 346
#     4  11  23  40  63  89 118 154 196 244 299 354
#     4  10  21  39  61  87 121 155 192 241 297 356
#     4  11  24  40  61  88 117 153 198 247 299 354
#     4  10  20  34  55  83 113 149 191 235 284 339
#     4  10  23  42  61  85 119 159 201 245 295 349
#     4  10  21  39  61  84 118 158 197 244 293 347
#
# _framework density 20.705534
#
# number of rings (size 3 to 8) (size 9 to 14) (size 15 to 20)
#    0.000    1.750    1.250    2.625    0.000    8.000 
#    0.000    2.500    0.000    0.000    0.000    0.000 
#    0.000    0.000    0.000    0.000    0.000    0.000 
#
# Total GULP energy -178813.632767 kJ/mol
# GULP energy per Si atom -5587.926024 kJ/mol
# Density = 2.065841 g / cm^3
# Si number density = 20.705534 Si / 1000 Ang^3
#
#
#
# Elastic Constant Matrix: (Units=GPa)
#
#
# Indices 1 2 3 4 5 6 
#
# 1 127.2470 -0.0807 29.9535 0.0000 -1.5493 0.0000
# 2 -0.0807 4.5203 4.7640 0.0000 5.0148 0.0000
# 3 29.9535 4.7640 89.1838 0.0000 -1.3630 0.0000
# 4 0.0000 0.0000 0.0000 21.6776 0.0000 -2.7541
# 5 -1.5493 5.0148 -1.3630 0.0000 38.6674 0.0000
# 6 0.0000 0.0000 0.0000 -2.7541 0.0000 29.9590
#
#
#
# Elastic Compliance Matrix: (Units=1/GPa)
#
#
# Indices 1 2 3 4 5 6 
#
# 1 0.008584 0.003669 -0.003083 0.000000 -0.000241 0.000000
# 2 0.003669 0.279646 -0.016731 0.000000 -0.036710 0.000000
# 3 -0.003083 -0.016731 0.013180 0.000000 0.002511 0.000000
# 4 0.000000 0.000000 0.000000 0.046676 0.000000 0.004291
# 5 -0.000241 -0.036710 0.002511 0.000000 0.030701 0.000000
# 6 0.000000 0.000000 0.000000 0.004291 0.000000 0.033773
#
#
# Mechanical properties :
#
#
# Convention : Reuss Voigt Hill
#
# Bulk Modulus (GPa) = 3.71582 32.24719 17.98150
# Shear Modulus (GPa) = 9.35354 30.48177 19.91765
#
# Velocity S-wave (km/s) = 2.12773 3.84103 3.10489
# Velocity P-wave (km/s) = 2.79907 5.93964 4.64296
#
# Compressibility (1/GPa) = 0.26911981
#
# Stress axis : x y z
#
# Youngs Moduli (GPa) = 116.49894 3.57595 75.87105
#
# Poissons Ratio (x) = -0.01312 0.23388
# Poissons Ratio (y) = -0.42742 1.26942
# Poissons Ratio (z) = 0.35912 0.05983
#
# Static dielectric constant tensor:
#      x y z
#    x 1.711990 0.000000 0.008060 
#    y 0.000000 1.733110 0.000000 
#    z 0.008060 0.000000 1.755870 
# 
# From -- ./inp_files/71567.got.cif
#   From: 2010.05.17/outbox.cif.g08.bks.cpg/sg10_36_cif.got.tgz:71567.got - 2010.06.03 11:33:40.
