data_PCOD9149492
_publ_section_title
;
Structure prediction by ZEFSAII (Michael W. Deem and Ramdas Pophale) SiO2 
 PCOD9149492
Probable space group: P 2/M
;
_chemical_formula_sum "Si O2"
_cell_formula_units_Z 32
_cell_length_a 12.009601
_cell_length_b 13.213913
_cell_length_c 11.586978
_cell_angle_alpha 90.000000
_cell_angle_beta 64.738588
_cell_angle_gamma 90.000000
_cell_volume 1662.939430
_symmetry_space_group_name_H-M "P 2/M"
_symmetry_group_IT_number 10
_symmetry_cell_setting 'monoclinic'
loop_
_space_group_symop_operation_xyz
x,y,z
-x,y,-z
-x,-y,-z
x,-y,z
loop_
_atom_site_type_symbol
_atom_site_label
_atom_site_fract_x
_atom_site_fract_y
_atom_site_fract_z
Si Si1 0.465585 0.611296 0.215395
Si Si2 0.127970 0.879742 0.515172
Si Si3 0.111627 0.620278 0.178936
Si Si4 0.733553 0.764896 0.740617
Si Si5 0.274785 0.291889 0.898609
Si Si6 0.373409 0.385845 0.511575
Si Si7 0.854214 0.268718 0.285822
Si Si8 0.640630 0.887126 0.981407
O O1 0.456090 0.500000 0.162999
O O2 0.395657 0.704085 0.186168
O O3 0.607586 0.636465 0.178466
O O4 0.390613 0.607028 0.367753
O O5 0.229662 0.816860 0.395955
O O6 0.118131 0.829358 0.646726
O O7 0.000000 0.868018 0.500000
O O8 0.155512 0.000000 0.509117
O O9 0.116723 0.500000 0.192120
O O10 0.168624 0.680829 0.262263
O O11 0.974251 0.661471 0.225759
O O12 0.189887 0.653168 0.031551
O O13 0.726838 0.854558 0.836620
O O14 0.198722 0.258428 0.820066
O O15 0.332845 0.193314 0.931818
O O16 0.500000 0.336580 0.500000
O O17 0.367713 0.500000 0.563033
O O18 0.253679 0.327486 0.600336
O O19 0.668838 0.000000 0.008135
O O20 0.500000 0.885298 0.000000
#
# Coordination Sequence:
#
# PCOD9149492 Si02
#       8
#     4   4   4   4   4   4   4   4
#     4  11  21  35  60  93 128 166 204 248 305 374
#     4  11  24  44  67  89 119 163 212 263 323 381
#     4  11  25  41  62  93 130 173 212 254 307 367
#     4  11  21  41  64  93 123 159 208 267 311 372
#     4  11  24  40  62  91 133 169 209 256 307 372
#     4  10  20  34  57  87 121 163 200 237 298 371
#     4  12  23  41  64  93 129 162 207 260 312 371
#     4  10  21  39  63  88 118 161 210 260 314 366
#
# _framework density 19.243034000000002
#
# number of rings (size 3 to 8) (size 9 to 14) (size 15 to 20)
#    0.000    1.125    5.000    1.875    0.000    2.500 
#    0.000    2.500    0.000    3.375    0.000    0.000 
#    0.000    0.000    0.000    0.000    0.000    0.000 
#
# Total GULP energy -178561.097502 kJ/mol
# GULP energy per Si atom -5580.034297 kJ/mol
# Density = 1.919924 g / cm^3
# Si number density = 19.243034 Si / 1000 Ang^3
#
#
#
# Elastic Constant Matrix: (Units=GPa)
#
#
# Indices 1 2 3 4 5 6 
#
# 1 94.9353 42.5840 13.7344 0.0000 -11.4449 0.0000
# 2 42.5840 141.0097 42.6504 0.0000 -5.4742 0.0000
# 3 13.7344 42.6504 62.0798 0.0000 -4.1270 0.0000
# 4 0.0000 0.0000 0.0000 23.1087 0.0000 -3.8093
# 5 -11.4449 -5.4742 -4.1270 0.0000 26.7937 0.0000
# 6 0.0000 0.0000 0.0000 -3.8093 0.0000 23.6587
#
#
#
# Elastic Compliance Matrix: (Units=1/GPa)
#
#
# Indices 1 2 3 4 5 6 
#
# 1 0.012744 -0.003671 0.000015 0.000000 0.004696 0.000000
# 2 -0.003671 0.010030 -0.006110 0.000000 -0.000460 0.000000
# 3 0.000015 -0.006110 0.020429 0.000000 0.001905 0.000000
# 4 0.000000 0.000000 0.000000 0.044454 0.000000 0.007158
# 5 0.004696 -0.000460 0.001905 0.000000 0.039528 0.000000
# 6 0.000000 0.000000 0.000000 0.007158 0.000000 0.043420
#
#
# Mechanical properties :
#
#
# Convention : Reuss Voigt Hill
#
# Bulk Modulus (GPa) = 42.24382 55.10694 48.67538
# Shear Modulus (GPa) = 25.24910 27.98261 26.61586
#
# Velocity S-wave (km/s) = 3.62624 3.81749 3.72310
# Velocity P-wave (km/s) = 6.28755 6.93762 6.62057
#
# Compressibility (1/GPa) = 0.02367210
#
# Stress axis : x y z
#
# Youngs Moduli (GPa) = 78.46820 99.69780 48.94980
#
# Poissons Ratio (x) = 0.36596 -0.00071
# Poissons Ratio (y) = 0.28804 0.29906
# Poissons Ratio (z) = -0.00115 0.60911
#
# Static dielectric constant tensor:
#      x y z
#    x 1.699890 0.000000 0.013080 
#    y 0.000000 1.675860 0.000000 
#    z 0.013080 0.000000 1.682520 
# 
# From -- ./inp_files/46975.got.cif
#   From: 2010.05.17/outbox.cif.g08.bks.cpg/sg10_24_cif.got.tgz:46975.got - 2010.06.03 11:33:40.
