data_PCOD9149366
_publ_section_title
;
Structure prediction by ZEFSAII (Michael W. Deem and Ramdas Pophale) SiO2 
 PCOD9149366
Probable space group: P 2/M
;
_chemical_formula_sum "Si O2"
_cell_formula_units_Z 28
_cell_length_a 19.231131
_cell_length_b 9.047566
_cell_length_c 14.062595
_cell_angle_alpha 90.000000
_cell_angle_beta 145.922038
_cell_angle_gamma 90.000000
_cell_volume 1371.003394
_symmetry_space_group_name_H-M "P 2/M"
_symmetry_group_IT_number 10
_symmetry_cell_setting 'monoclinic'
loop_
_space_group_symop_operation_xyz
x,y,z
-x,y,-z
-x,-y,-z
x,-y,z
loop_
_atom_site_type_symbol
_atom_site_label
_atom_site_fract_x
_atom_site_fract_y
_atom_site_fract_z
Si Si1 0.785391 0.173171 0.891979
Si Si2 0.526383 0.674352 0.140813
Si Si3 0.965071 0.676104 0.234295
Si Si4 0.781231 0.177551 0.410072
Si Si5 0.559916 0.828463 0.787100
Si Si6 0.862527 0.832887 0.297313
Si Si7 0.613830 0.330786 0.552957
O O1 0.676834 0.183963 0.849093
O O2 0.727431 0.249363 0.733231
O O3 0.810611 0.000000 0.904941
O O4 0.902137 0.257059 0.068992
O O5 0.537477 0.500000 0.170268
O O6 0.654877 0.757854 0.307504
O O7 0.425501 0.742670 0.097742
O O8 0.500000 0.698121 0.000000
O O9 0.972870 0.500000 0.239341
O O10 0.879861 0.727033 0.227493
O O11 0.099007 0.748227 0.406394
O O12 0.783536 0.213799 0.299305
O O13 0.788953 0.000000 0.426694
O O14 0.443713 0.757178 0.600054
O O15 0.537781 0.000000 0.780773
O O16 0.000000 0.843186 0.500000
O O17 0.827374 0.000000 0.225912
O O18 0.500000 0.334009 0.500000
O O19 0.644002 0.500000 0.562701
#
# Coordination Sequence:
#
# PCOD9149366 Si02
#       7
#     4   4   4   4   4   4   4
#     4  10  20  34  55  85 117 147 185 229 275 334
#     4  11  25  41  57  81 112 147 189 236 279 324
#     4  11  21  32  52  81 112 144 180 227 284 332
#     4  10  21  38  57  75 104 145 189 230 274 331
#     4  10  21  37  58  82 111 151 191 228 275 331
#     4   8  16  31  49  71  99 136 178 221 268 322
#     4   9  17  32  55  83 114 145 179 227 284 332
#
# _framework density 20.422998
#
# number of rings (size 3 to 8) (size 9 to 14) (size 15 to 20)
#    0.000    2.143    0.000    4.286    2.000    7.714 
#    0.000    0.000    0.000    0.857    0.000    6.000 
#    0.000    0.000    0.000    0.000    0.000    0.000 
#
# Total GULP energy -156432.313861 kJ/mol
# GULP energy per Si atom -5586.868352 kJ/mol
# Density = 2.037651 g / cm^3
# Si number density = 20.422998 Si / 1000 Ang^3
#
#
#
# Elastic Constant Matrix: (Units=GPa)
#
#
# Indices 1 2 3 4 5 6 
#
# 1 26.5218 10.7484 -2.5994 0.0000 1.1997 0.0000
# 2 10.7484 121.2282 71.1822 0.0000 -9.4771 0.0000
# 3 -2.5994 71.1822 110.8266 0.0000 -10.9055 0.0000
# 4 0.0000 0.0000 0.0000 22.2382 0.0000 -16.0794
# 5 1.1997 -9.4771 -10.9055 0.0000 24.7162 0.0000
# 6 0.0000 0.0000 0.0000 -16.0794 0.0000 2.9511
#
#
#
# Elastic Compliance Matrix: (Units=1/GPa)
#
#
# Indices 1 2 3 4 5 6 
#
# 1 0.041083 -0.006833 0.005121 0.000000 -0.002355 0.000000
# 2 -0.006833 0.014426 -0.009250 0.000000 0.001781 0.000000
# 3 0.005121 -0.009250 0.015379 0.000000 0.002990 0.000000
# 4 0.000000 0.000000 0.000000 -0.015297 0.000000 -0.083348
# 5 -0.002355 0.001781 0.002990 0.000000 0.042576 0.000000
# 6 0.000000 0.000000 0.000000 -0.083348 0.000000 -0.115273
#
#
# Mechanical properties :
#
#
# Convention : Reuss Voigt Hill
#
# Bulk Modulus (GPa) = 20.42436 46.35989 33.39213
# Shear Modulus (GPa) = 236.52698 21.93080 129.22889
#
# Velocity S-wave (km/s) = 10.77337 3.28049 7.96326
# Velocity P-wave (km/s) = 12.83652 6.09081 10.04675
#
# Compressibility (1/GPa) = 0.04896114
#
# Stress axis : x y z
#
# Youngs Moduli (GPa) = 24.34125 69.32125 65.02472
#
# Poissons Ratio (x) = 0.47370 -0.33298
# Poissons Ratio (y) = 0.16633 0.60150
# Poissons Ratio (z) = -0.12465 0.64124
#
# Static dielectric constant tensor:
#      x y z
#    x 1.754040 0.000000 0.005870 
#    y 0.000000 1.679770 0.000000 
#    z 0.005870 0.000000 1.738230 
# 
# From -- ./inp_files/70315.got.cif
#   From: 2010.05.17/outbox.cif.g08.bks.cpg/sg10_36_cif.got.tgz:70315.got - 2010.06.03 11:33:40.
