data_PCOD9149561
_publ_section_title
;
Structure prediction by ZEFSAII (Michael W. Deem and Ramdas Pophale) SiO2 
 PCOD9149561
Probable space group: P 2/M
;
_chemical_formula_sum "Si O2"
_cell_formula_units_Z 28
_cell_length_a 33.929990
_cell_length_b 7.358676
_cell_length_c 9.823393
_cell_angle_alpha 90.000000
_cell_angle_beta 30.297858
_cell_angle_gamma 90.000000
_cell_volume 1237.377162
_symmetry_space_group_name_H-M "P 2/M"
_symmetry_group_IT_number 10
_symmetry_cell_setting 'monoclinic'
loop_
_space_group_symop_operation_xyz
x,y,z
-x,y,-z
-x,-y,-z
x,-y,z
loop_
_atom_site_type_symbol
_atom_site_label
_atom_site_fract_x
_atom_site_fract_y
_atom_site_fract_z
Si Si1 0.345347 0.780605 0.290115
Si Si2 0.578171 0.279188 0.347719
Si Si3 0.483036 0.293581 0.195900
Si Si4 0.115766 0.500000 0.083823
Si Si5 0.153500 0.219139 0.365184
Si Si6 0.261047 0.791037 0.283004
Si Si7 0.768839 0.216147 0.150936
Si Si8 0.034306 0.500000 0.622588
O O1 0.429317 0.701792 0.004867
O O2 0.314690 0.736859 0.533150
O O3 0.351492 0.000000 0.260823
O O4 0.283077 0.714066 0.364227
O O5 0.500000 0.222895 0.500000
O O6 0.579066 0.500000 0.346816
O O7 0.657107 0.214651 0.042703
O O8 0.570619 0.214357 0.526470
O O9 0.456621 0.500000 0.248924
O O10 0.500000 0.202961 0.000000
O O11 0.068245 0.500000 0.367943
O O12 0.058127 0.500000 0.127328
O O13 0.169155 0.322642 0.941265
O O14 0.073025 0.324687 0.578204
O O15 0.143723 0.000000 0.395646
O O16 0.195282 0.283178 0.378677
O O17 0.211256 0.262617 0.064625
O O18 0.238574 0.000000 0.373438
O O19 0.778283 0.000000 0.136529
#
# Coordination Sequence:
#
# PCOD9149561 Si02
#       8
#     4   4   4   2   4   4   4   2
#     4  10  21  36  53  74 103 140 180 220 267 322
#     4  10  20  35  51  72 101 134 179 225 267 316
#     4  10  22  37  50  73 103 137 178 223 274 319
#     4   9  18  34  57  87 113 143 175 214 266 318
#     4   9  19  35  54  82 112 141 178 222 266 313
#     4  10  21  35  53  75 102 140 180 220 271 319
#     4   9  19  35  54  81 112 142 180 220 263 318
#     4   9  18  34  57  87 115 139 177 215 264 321
#
# _framework density 22.628509000000001
#
# number of rings (size 3 to 8) (size 9 to 14) (size 15 to 20)
#    0.000    2.429    1.429    0.000    4.000    1.714 
#    0.000    2.857    0.000    1.714    0.000    4.000 
#    0.000    0.000    0.000    0.000    0.000    0.000 
#
# Total GULP energy -156275.535779 kJ/mol
# GULP energy per Si atom -5581.269135 kJ/mol
# Density = 2.257701 g / cm^3
# Si number density = 22.628509 Si / 1000 Ang^3
#
#
#
# Elastic Constant Matrix: (Units=GPa)
#
#
# Indices 1 2 3 4 5 6 
#
# 1 108.0842 11.8853 -8.9093 0.0000 3.7661 0.0000
# 2 11.8853 88.3238 -3.5151 0.0000 -0.0204 0.0000
# 3 -8.9093 -3.5151 15.1067 0.0000 10.4008 0.0000
# 4 0.0000 0.0000 0.0000 4.1712 0.0000 -5.8695
# 5 3.7661 -0.0204 10.4008 0.0000 36.4981 0.0000
# 6 0.0000 0.0000 0.0000 -5.8695 0.0000 12.3208
#
#
#
# Elastic Compliance Matrix: (Units=1/GPa)
#
#
# Indices 1 2 3 4 5 6 
#
# 1 0.010146 -0.001046 0.008039 0.000000 -0.003338 0.000000
# 2 -0.001046 0.011561 0.002481 0.000000 -0.000593 0.000000
# 3 0.008039 0.002481 0.089679 0.000000 -0.026384 0.000000
# 4 0.000000 0.000000 0.000000 0.727270 0.000000 0.346465
# 5 -0.003338 -0.000593 -0.026384 0.000000 0.035261 0.000000
# 6 0.000000 0.000000 0.000000 0.346465 0.000000 0.246217
#
#
# Mechanical properties :
#
#
# Convention : Reuss Voigt Hill
#
# Bulk Modulus (GPa) = 7.67263 23.38182 15.52722
# Shear Modulus (GPa) = 4.36822 24.73494 14.55158
#
# Velocity S-wave (km/s) = 1.39090 3.30977 2.53862
# Velocity P-wave (km/s) = 2.44490 4.99615 3.93313
#
# Compressibility (1/GPa) = 0.13033346
#
# Stress axis : x y z
#
# Youngs Moduli (GPa) = 98.56085 86.49501 11.15092
#
# Poissons Ratio (x) = 0.09049 -0.08964
# Poissons Ratio (y) = 0.10311 -0.02767
# Poissons Ratio (z) = -0.79229 -0.21462
#
# Static dielectric constant tensor:
#      x y z
#    x 1.896210 0.000000 0.016590 
#    y 0.000000 1.816150 0.000000 
#    z 0.016590 0.000000 1.811810 
# 
# From -- ./inp_files/37993.got.cif
#   From: 2010.05.17/outbox.cif.g08.bks.cpg/sg10_19_cif.got.tgz:37993.got - 2010.06.03 11:33:40.
