data_PCOD9149070
_publ_section_title
;
Structure prediction by ZEFSAII (Michael W. Deem and Ramdas Pophale) SiO2 
 PCOD9149070
Probable space group: P 2/M
;
_chemical_formula_sum "Si O2"
_cell_formula_units_Z 32
_cell_length_a 18.286822
_cell_length_b 8.400211
_cell_length_c 24.587491
_cell_angle_alpha 90.000000
_cell_angle_beta 30.259289
_cell_angle_gamma 90.000000
_cell_volume 1903.264236
_symmetry_space_group_name_H-M "P 2/M"
_symmetry_group_IT_number 10
_symmetry_cell_setting 'monoclinic'
loop_
_space_group_symop_operation_xyz
x,y,z
-x,y,-z
-x,-y,-z
x,-y,z
loop_
_atom_site_type_symbol
_atom_site_label
_atom_site_fract_x
_atom_site_fract_y
_atom_site_fract_z
Si Si1 0.456232 0.811878 0.967005
Si Si2 0.274390 0.192482 0.403680
Si Si3 0.403331 0.194480 0.433326
Si Si4 0.372281 0.185240 0.627639
Si Si5 0.156092 0.193436 0.679182
Si Si6 0.860279 0.313569 0.821887
Si Si7 0.948690 0.812403 0.647830
Si Si8 0.700192 0.685562 0.732643
O O1 0.556220 0.723936 0.859334
O O2 0.486301 0.000000 0.943579
O O3 0.500000 0.760165 0.000000
O O4 0.286494 0.778539 0.069148
O O5 0.374153 0.242989 0.390413
O O6 0.315832 0.265333 0.319555
O O7 0.108638 0.235684 0.525482
O O8 0.280113 0.000000 0.395888
O O9 0.549307 0.254049 0.369446
O O10 0.264950 0.238187 0.559756
O O11 0.407991 0.000000 0.431503
O O12 0.500000 0.185743 0.500000
O O13 0.232722 0.251394 0.685748
O O14 0.339233 0.000000 0.660633
O O15 0.998047 0.259178 0.768596
O O16 0.151577 0.000000 0.683012
O O17 0.834249 0.500000 0.845114
O O18 0.899747 0.276481 0.733762
O O19 0.831680 0.781568 0.676104
O O20 0.953656 0.000000 0.658023
O O21 0.735015 0.500000 0.714488
#
# Coordination Sequence:
#
# PCOD9149070 Si02
#       8
#     4   4   4   4   4   4   4   4
#     4  11  23  40  61  76  93 128 173 216 256 305
#     4  10  20  34  53  75 104 140 179 214 246 296
#     4   8  13  25  46  74 102 134 173 212 248 287
#     4   7  11  20  42  72 100 129 168 212 248 285
#     4   9  15  28  48  73 103 136 172 209 249 299
#     4  12  23  33  51  78 107 136 167 210 261 307
#     4  11  21  36  55  75 100 137 179 213 249 297
#     4  12  25  38  53  75 104 134 169 214 261 307
#
# _framework density 16.813220999999999
#
# number of rings (size 3 to 8) (size 9 to 14) (size 15 to 20)
#    0.000    2.000    2.500    4.875    0.000    3.000 
#    0.000    0.000    0.000    4.125    0.000    0.875 
#    0.000    7.000    0.000    0.000    0.000    0.000 
#
# Total GULP energy -178516.790464 kJ/mol
# GULP energy per Si atom -5578.649702 kJ/mol
# Density = 1.677495 g / cm^3
# Si number density = 16.813221 Si / 1000 Ang^3
#
#
#
# Elastic Constant Matrix: (Units=GPa)
#
#
# Indices 1 2 3 4 5 6 
#
# 1 128.2620 -4.9868 42.4472 0.0000 -13.4093 0.0000
# 2 -4.9868 13.1446 0.7141 0.0000 4.1567 0.0000
# 3 42.4472 0.7141 44.5489 0.0000 5.3079 0.0000
# 4 0.0000 0.0000 0.0000 43.2427 0.0000 10.7842
# 5 -13.4093 4.1567 5.3079 0.0000 20.4731 0.0000
# 6 0.0000 0.0000 0.0000 10.7842 0.0000 3.5806
#
#
#
# Elastic Compliance Matrix: (Units=1/GPa)
#
#
# Indices 1 2 3 4 5 6 
#
# 1 0.014216 0.002170 -0.015104 0.000000 0.012786 0.000000
# 2 0.002170 0.081648 -0.001621 0.000000 -0.014735 0.000000
# 3 -0.015104 -0.001621 0.039215 0.000000 -0.019731 0.000000
# 4 0.000000 0.000000 0.000000 0.092915 0.000000 -0.279844
# 5 0.012786 -0.014735 -0.019731 0.000000 0.065326 0.000000
# 6 0.000000 0.000000 0.000000 -0.279844 0.000000 1.122130
#
#
# Mechanical properties :
#
#
# Convention : Reuss Voigt Hill
#
# Bulk Modulus (GPa) = 9.43661 29.14497 19.29079
# Shear Modulus (GPa) = 3.37865 23.31134 13.34499
#
# Velocity S-wave (km/s) = 1.41911 3.72760 2.82036
# Velocity P-wave (km/s) = 2.88270 5.99156 4.70153
#
# Compressibility (1/GPa) = 0.10597023
#
# Stress axis : x y z
#
# Youngs Moduli (GPa) = 70.34246 12.24772 25.50026
#
# Poissons Ratio (x) = -0.02658 0.38515
# Poissons Ratio (y) = -0.15268 0.04134
# Poissons Ratio (z) = 1.06244 0.01986
#
# Static dielectric constant tensor:
#      x y z
#    x 1.596910 0.000000 -0.013510 
#    y 0.000000 1.566720 0.000000 
#    z -0.013510 0.000000 1.531400 
# 
# From -- ./inp_files/79933.got.cif
#   From: 2010.05.17/outbox.cif.g08.bks.cpg/sg10_40_cif.got.tgz:79933.got - 2010.06.03 11:33:40.
