data_PCOD9149247
_publ_section_title
;
Structure prediction by ZEFSAII (Michael W. Deem and Ramdas Pophale) SiO2 
 PCOD9149247
Probable space group: P 2/M
;
_chemical_formula_sum "Si O2"
_cell_formula_units_Z 28
_cell_length_a 9.439893
_cell_length_b 13.807031
_cell_length_c 11.746550
_cell_angle_alpha 90.000000
_cell_angle_beta 105.086923
_cell_angle_gamma 90.000000
_cell_volume 1478.238140
_symmetry_space_group_name_H-M "P 2/M"
_symmetry_group_IT_number 10
_symmetry_cell_setting 'monoclinic'
loop_
_space_group_symop_operation_xyz
x,y,z
-x,y,-z
-x,-y,-z
x,-y,z
loop_
_atom_site_type_symbol
_atom_site_label
_atom_site_fract_x
_atom_site_fract_y
_atom_site_fract_z
Si Si1 0.961227 0.394397 0.125363
Si Si2 0.623123 0.614100 0.120542
Si Si3 0.963362 0.891616 0.318700
Si Si4 0.088904 0.200304 0.134212
Si Si5 0.287879 0.111610 0.469793
Si Si6 0.619741 0.110596 0.774524
Si Si7 0.665730 0.215590 0.299121
O O1 0.994479 0.500000 0.184060
O O2 0.787629 0.376401 0.103235
O O3 0.055095 0.303271 0.187317
O O4 0.000000 0.400415 0.000000
O O5 0.600368 0.500000 0.142872
O O6 0.625756 0.682447 0.232672
O O7 0.500000 0.640755 0.000000
O O8 0.830230 0.817572 0.303446
O O9 0.026878 0.881057 0.204898
O O10 0.111240 0.878157 0.423327
O O11 0.907905 0.000000 0.327991
O O12 0.258770 0.181296 0.148068
O O13 0.000000 0.198083 0.000000
O O14 0.353857 0.118913 0.356920
O O15 0.340971 0.194370 0.566837
O O16 0.320204 0.000000 0.515304
O O17 0.457232 0.141961 0.773099
O O18 0.648965 0.000000 0.812300
#
# Coordination Sequence:
#
# PCOD9149247 Si02
#       7
#     4   4   4   4   4   4   4
#     4   9  18  35  60  81 101 138 189 234 271 328
#     4  10  23  41  59  84 116 145 179 232 294 344
#     4  10  20  34  54  82 112 148 190 227 274 335
#     4  10  20  35  53  77 111 151 183 230 281 332
#     4   9  19  37  58  80 111 151 193 232 273 328
#     4  10  22  36  54  82 116 153 192 229 274 329
#     4  12  21  33  59  85 107 143 187 238 279 324
#
# _framework density 18.941465999999998
#
# number of rings (size 3 to 8) (size 9 to 14) (size 15 to 20)
#    0.000    2.000    1.429    3.429    4.000    3.429 
#    0.000    0.000    0.000   11.571    0.000    0.000 
#    0.000    0.000    0.000    0.000    0.000    0.000 
#
# Total GULP energy -156034.425248 kJ/mol
# GULP energy per Si atom -5572.658045 kJ/mol
# Density = 1.889835 g / cm^3
# Si number density = 18.941466 Si / 1000 Ang^3
#
#
#
# Elastic Constant Matrix: (Units=GPa)
#
#
# Indices 1 2 3 4 5 6 
#
# 1 76.6588 24.8126 2.9524 0.0000 18.9473 0.0000
# 2 24.8126 107.9787 43.3509 0.0000 20.5368 0.0000
# 3 2.9524 43.3509 65.0134 0.0000 12.7933 0.0000
# 4 0.0000 0.0000 0.0000 22.5993 0.0000 -1.9406
# 5 18.9473 20.5368 12.7933 0.0000 24.4775 0.0000
# 6 0.0000 0.0000 0.0000 -1.9406 0.0000 23.4870
#
#
#
# Elastic Compliance Matrix: (Units=1/GPa)
#
#
# Indices 1 2 3 4 5 6 
#
# 1 0.016977 -0.002998 0.003699 0.000000 -0.012560 0.000000
# 2 -0.002998 0.014321 -0.008366 0.000000 -0.005323 0.000000
# 3 0.003699 -0.008366 0.022264 0.000000 -0.007481 0.000000
# 4 0.000000 0.000000 0.000000 0.044565 0.000000 0.003682
# 5 -0.012560 -0.005323 -0.007481 0.000000 0.058952 0.000000
# 6 0.000000 0.000000 0.000000 0.003682 0.000000 0.042881
#
#
# Mechanical properties :
#
#
# Convention : Reuss Voigt Hill
#
# Bulk Modulus (GPa) = 26.15488 43.54251 34.84869
# Shear Modulus (GPa) = 21.92678 26.01510 23.97094
#
# Velocity S-wave (km/s) = 3.40605 3.71003 3.56128
# Velocity P-wave (km/s) = 5.41355 6.43352 5.94545
#
# Compressibility (1/GPa) = 0.03823379
#
# Stress axis : x y z
#
# Youngs Moduli (GPa) = 58.90360 69.82840 44.91613
#
# Poissons Ratio (x) = 0.20931 -0.16616
# Poissons Ratio (y) = 0.17657 0.37575
# Poissons Ratio (z) = -0.21790 0.58416
#
# Static dielectric constant tensor:
#      x y z
#    x 1.696800 0.000000 0.000820 
#    y 0.000000 1.704380 0.000000 
#    z 0.000820 0.000000 1.685740 
# 
# From -- ./inp_files/42753.got.cif
#   From: 2010.05.17/outbox.cif.g08.bks.cpg/sg10_22_cif.got.tgz:42753.got - 2010.06.03 11:33:40.
