data_PCOD9149328
_publ_section_title
;
Structure prediction by ZEFSAII (Michael W. Deem and Ramdas Pophale) SiO2 
 PCOD9149328
Probable space group: P 2/M
;
_chemical_formula_sum "Si O2"
_cell_formula_units_Z 28
_cell_length_a 28.942586
_cell_length_b 9.182571
_cell_length_c 8.994928
_cell_angle_alpha 90.000000
_cell_angle_beta 39.499053
_cell_angle_gamma 90.000000
_cell_volume 1520.551508
_symmetry_space_group_name_H-M "P 2/M"
_symmetry_group_IT_number 10
_symmetry_cell_setting 'monoclinic'
loop_
_space_group_symop_operation_xyz
x,y,z
-x,y,-z
-x,-y,-z
x,-y,z
loop_
_atom_site_type_symbol
_atom_site_label
_atom_site_fract_x
_atom_site_fract_y
_atom_site_fract_z
Si Si1 0.423958 0.672360 0.104176
Si Si2 0.849760 0.671805 0.201422
Si Si3 0.429452 0.826218 0.774277
Si Si4 0.711059 0.172989 0.403221
Si Si5 0.144862 0.328901 0.454249
Si Si6 0.280552 0.171763 0.970343
Si Si7 0.997506 0.167491 0.825307
O O1 0.408575 0.500000 0.137237
O O2 0.359464 0.754374 0.349153
O O3 0.500000 0.694564 0.000000
O O4 0.430044 0.737257 0.924477
O O5 0.848391 0.500000 0.171592
O O6 0.782391 0.753555 0.295203
O O7 0.845454 0.688543 0.391408
O O8 0.925596 0.743338 0.962302
O O9 0.500000 0.792886 0.500000
O O10 0.355937 0.794468 0.866148
O O11 0.430779 0.000000 0.803112
O O12 0.710667 0.195350 0.227019
O O13 0.711372 0.000000 0.432133
O O14 0.136573 0.500000 0.444700
O O15 0.071685 0.244040 0.591134
O O16 0.214700 0.264094 0.199678
O O17 0.265128 0.000000 0.032772
O O18 0.993343 0.000000 0.786414
O O19 0.000000 0.167654 0.000000
#
# Coordination Sequence:
#
# PCOD9149328 Si02
#       7
#     4   4   4   4   4   4   4
#     4  11  24  40  59  86 118 150 185 228 279 333
#     4  10  20  35  56  84 116 147 184 230 281 337
#     4  10  21  39  63  88 114 147 188 232 278 330
#     4  11  23  39  59  82 111 149 191 233 278 329
#     4  10  20  34  55  82 112 147 185 229 282 336
#     4  10  22  38  56  81 112 146 187 234 280 329
#     4   9  17  31  54  82 111 145 186 231 278 330
#
# _framework density 18.414373000000001
#
# number of rings (size 3 to 8) (size 9 to 14) (size 15 to 20)
#    0.000    1.857    0.000    3.857    0.000   10.000 
#    0.000    0.714    0.000    4.286    0.000    0.000 
#    0.000    0.000    0.000    0.000    0.000    0.000 
#
# Total GULP energy -156478.895794 kJ/mol
# GULP energy per Si atom -5588.531993 kJ/mol
# Density = 1.837246 g / cm^3
# Si number density = 18.414373 Si / 1000 Ang^3
#
#
#
# Elastic Constant Matrix: (Units=GPa)
#
#
# Indices 1 2 3 4 5 6 
#
# 1 108.7612 103.7138 77.6655 0.0000 -20.7797 0.0000
# 2 103.7138 151.7330 115.4236 0.0000 -16.1104 0.0000
# 3 77.6655 115.4236 155.4607 0.0000 -28.4912 0.0000
# 4 0.0000 0.0000 0.0000 23.8506 0.0000 -9.4681
# 5 -20.7797 -16.1104 -28.4912 0.0000 25.3359 0.0000
# 6 0.0000 0.0000 0.0000 -9.4681 0.0000 26.7159
#
#
#
# Elastic Compliance Matrix: (Units=1/GPa)
#
#
# Indices 1 2 3 4 5 6 
#
# 1 0.030567 -0.022507 0.004297 0.000000 0.015591 0.000000
# 2 -0.022507 0.032011 -0.015336 0.000000 -0.015351 0.000000
# 3 0.004297 -0.015336 0.018303 0.000000 0.014355 0.000000
# 4 0.000000 0.000000 0.000000 0.048792 0.000000 0.017292
# 5 0.015591 -0.015351 0.014355 0.000000 0.058638 0.000000
# 6 0.000000 0.000000 0.000000 0.017292 0.000000 0.043559
#
#
# Mechanical properties :
#
#
# Convention : Reuss Voigt Hill
#
# Bulk Modulus (GPa) = 72.52083 112.17341 92.34712
# Shear Modulus (GPa) = 16.47125 23.12395 19.79760
#
# Velocity S-wave (km/s) = 2.99403 3.54751 3.28245
# Velocity P-wave (km/s) = 7.17081 8.82203 8.03893
#
# Compressibility (1/GPa) = 0.01378914
#
# Stress axis : x y z
#
# Youngs Moduli (GPa) = 32.71491 31.23929 54.63540
#
# Poissons Ratio (x) = 0.70310 -0.23477
# Poissons Ratio (y) = 0.73631 0.83790
# Poissons Ratio (z) = -0.14057 0.47909
#
# Static dielectric constant tensor:
#      x y z
#    x 1.610020 0.000000 0.004140 
#    y 0.000000 1.614530 0.000000 
#    z 0.004140 0.000000 1.598790 
# 
# From -- ./inp_files/37121.got.cif
#   From: 2010.05.17/outbox.cif.g08.bks.cpg/sg10_19_cif.got.tgz:37121.got - 2010.06.03 11:33:40.
