data_PCOD9149787
_publ_section_title
;
Structure prediction by ZEFSAII (Michael W. Deem and Ramdas Pophale) SiO2 
 PCOD9149787
Probable space group: P 2/M
;
_chemical_formula_sum "Si O2"
_cell_formula_units_Z 28
_cell_length_a 9.568075
_cell_length_b 9.061657
_cell_length_c 24.678269
_cell_angle_alpha 90.000000
_cell_angle_beta 134.031122
_cell_angle_gamma 90.000000
_cell_volume 1538.342518
_symmetry_space_group_name_H-M "P 2/M"
_symmetry_group_IT_number 10
_symmetry_cell_setting 'monoclinic'
loop_
_space_group_symop_operation_xyz
x,y,z
-x,y,-z
-x,-y,-z
x,-y,z
loop_
_atom_site_type_symbol
_atom_site_label
_atom_site_fract_x
_atom_site_fract_y
_atom_site_fract_z
Si Si1 0.756456 0.673953 0.278401
Si Si2 0.198587 0.323240 0.582314
Si Si3 0.407442 0.166539 0.326899
Si Si4 0.993224 0.332430 0.062517
Si Si5 0.624572 0.835859 0.811024
Si Si6 0.275166 0.175971 0.928703
Si Si7 0.003123 0.675552 0.763564
O O1 0.702102 0.500000 0.261941
O O2 0.813610 0.706717 0.356157
O O3 0.570394 0.773920 0.214956
O O4 0.917604 0.697939 0.276073
O O5 0.217300 0.500000 0.581493
O O6 0.389579 0.249376 0.607608
O O7 0.000000 0.275219 0.500000
O O8 0.408184 0.154799 0.261923
O O9 0.209482 0.251852 0.288071
O O10 0.404461 0.000000 0.348486
O O11 0.950632 0.500000 0.068323
O O12 0.204944 0.280606 0.137062
O O13 0.841183 0.223345 0.048975
O O14 0.000000 0.326019 0.000000
O O15 0.676285 0.000000 0.845111
O O16 0.157909 0.254145 0.847821
O O17 0.266165 0.000000 0.917791
O O18 0.500000 0.218218 0.000000
O O19 0.990695 0.500000 0.770562
#
# Coordination Sequence:
#
# PCOD9149787 Si02
#       7
#     4   4   4   4   4   4   4
#     4   9  20  36  56  85 115 145 189 234 280 336
#     4   9  18  36  62  88 116 150 188 232 280 336
#     4  10  20  35  57  84 113 147 187 231 279 339
#     4  11  24  39  57  81 109 144 189 237 285 338
#     4  10  20  35  56  80 107 144 187 233 283 334
#     4  11  25  42  58  81 113 151 192 239 293 345
#     4  11  22  37  59  83 113 152 191 238 286 339
#
# _framework density 18.201408000000001
#
# number of rings (size 3 to 8) (size 9 to 14) (size 15 to 20)
#    0.000    1.857    1.429    2.143    2.000    4.857 
#    0.000    0.714    0.000    4.286    0.000    0.000 
#    0.000    0.000    0.000    0.000    0.000    0.000 
#
# Total GULP energy -156166.115264 kJ/mol
# GULP energy per Si atom -5577.361259 kJ/mol
# Density = 1.815998 g / cm^3
# Si number density = 18.201408 Si / 1000 Ang^3
#
#
#
# Elastic Constant Matrix: (Units=GPa)
#
#
# Indices 1 2 3 4 5 6 
#
# 1 109.5954 48.3964 43.5122 0.0000 25.6642 0.0000
# 2 48.3964 65.5704 40.5558 0.0000 16.3809 0.0000
# 3 43.5122 40.5558 93.8675 0.0000 32.2733 0.0000
# 4 0.0000 0.0000 0.0000 12.5166 0.0000 -9.9209
# 5 25.6642 16.3809 32.2733 0.0000 27.5556 0.0000
# 6 0.0000 0.0000 0.0000 -9.9209 0.0000 -5.5912
#
#
#
# Elastic Compliance Matrix: (Units=1/GPa)
#
#
# Indices 1 2 3 4 5 6 
#
# 1 0.015149 -0.008899 -0.000243 0.000000 -0.008534 0.000000
# 2 -0.008899 0.026197 -0.007850 0.000000 0.001908 0.000000
# 3 -0.000243 -0.007850 0.020885 0.000000 -0.019568 0.000000
# 4 0.000000 0.000000 0.000000 0.033201 0.000000 -0.058910
# 5 -0.008534 0.001908 -0.019568 0.000000 0.066023 0.000000
# 6 0.000000 0.000000 0.000000 -0.058910 0.000000 -0.074324
#
#
# Mechanical properties :
#
#
# Convention : Reuss Voigt Hill
#
# Bulk Modulus (GPa) = 35.40048 59.32915 47.36481
# Shear Modulus (GPa) = 38.30503 16.00079 27.15291
#
# Velocity S-wave (km/s) = 4.59247 2.96817 3.86658
# Velocity P-wave (km/s) = 6.90019 6.66434 6.78329
#
# Compressibility (1/GPa) = 0.02824821
#
# Stress axis : x y z
#
# Youngs Moduli (GPa) = 66.00996 38.17208 47.88012
#
# Poissons Ratio (x) = 0.33968 0.01166
# Poissons Ratio (y) = 0.58741 0.37584
# Poissons Ratio (z) = 0.01607 0.29964
#
# Static dielectric constant tensor:
#      x y z
#    x 1.572260 0.000000 0.016180 
#    y 0.000000 1.638440 0.000000 
#    z 0.016180 0.000000 1.615130 
# 
# From -- ./inp_files/85666.got.cif
#   From: 2010.05.17/outbox.cif.g08.bks.cpg/sg10_43_cif.got.tgz:85666.got - 2010.06.03 11:33:40.
