data_PCOD9149384
_publ_section_title
;
Structure prediction by ZEFSAII (Michael W. Deem and Ramdas Pophale) SiO2 
 PCOD9149384
Probable space group: P 2/M
;
_chemical_formula_sum "Si O2"
_cell_formula_units_Z 24
_cell_length_a 13.762798
_cell_length_b 11.139562
_cell_length_c 18.949669
_cell_angle_alpha 90.000000
_cell_angle_beta 157.508287
_cell_angle_gamma 90.000000
_cell_volume 1111.384822
_symmetry_space_group_name_H-M "P 2/M"
_symmetry_group_IT_number 10
_symmetry_cell_setting 'monoclinic'
loop_
_space_group_symop_operation_xyz
x,y,z
-x,y,-z
-x,-y,-z
x,-y,z
loop_
_atom_site_type_symbol
_atom_site_label
_atom_site_fract_x
_atom_site_fract_y
_atom_site_fract_z
Si Si1 0.744927 0.280208 0.358132
Si Si2 0.924666 0.143262 0.615793
Si Si3 0.303855 0.628325 0.153630
Si Si4 0.475621 0.742139 0.405132
Si Si5 0.965370 0.868685 0.079091
Si Si6 0.629369 0.863047 0.992189
O O1 0.840542 0.184110 0.481238
O O2 0.552527 0.363625 0.271563
O O3 0.585750 0.217297 0.188589
O O4 0.000000 0.338747 0.500000
O O5 0.725622 0.203866 0.536287
O O6 0.908171 0.000000 0.610255
O O7 0.212801 0.176926 0.832769
O O8 0.177384 0.500000 0.055042
O O9 0.379121 0.643517 0.285302
O O10 0.157644 0.751507 0.038505
O O11 0.500000 0.692113 0.500000
O O12 0.264355 0.846806 0.272889
O O13 0.891751 0.000000 0.000584
O O14 0.851970 0.867383 0.081692
O O15 0.535821 0.000000 0.938588
#
# Coordination Sequence:
#
# PCOD9149384 Si02
#       6
#     4   4   4   4   4   4
#     4  10  22  39  60  83 111 152 209 261 312 367
#     4  10  20  34  55  87 128 164 199 247 303 364
#     4  10  24  43  61  86 120 158 207 259 309 366
#     4  11  21  34  58  89 125 164 203 245 295 362
#     4  10  20  36  60  90 125 163 203 244 296 362
#     4   9  18  33  54  85 124 160 197 244 301 365
#
# _framework density 21.594681000000001
#
# number of rings (size 3 to 8) (size 9 to 14) (size 15 to 20)
#    0.000    2.000    1.667    1.500    0.000   10.000 
#    0.000    1.667    0.000    0.000    0.000    4.667 
#    0.000    0.000    0.000    0.000    0.000    0.000 
#
# Total GULP energy -133951.824665 kJ/mol
# GULP energy per Si atom -5581.326028 kJ/mol
# Density = 2.154553 g / cm^3
# Si number density = 21.594681 Si / 1000 Ang^3
#
#
#
# Elastic Constant Matrix: (Units=GPa)
#
#
# Indices 1 2 3 4 5 6 
#
# 1 99.7234 15.1623 26.1314 0.0000 -4.7544 0.0000
# 2 15.1623 114.1655 40.7107 0.0000 -14.9592 0.0000
# 3 26.1314 40.7107 105.7339 0.0000 -1.9843 0.0000
# 4 0.0000 0.0000 0.0000 25.9953 0.0000 8.8248
# 5 -4.7544 -14.9592 -1.9843 0.0000 54.1757 0.0000
# 6 0.0000 0.0000 0.0000 8.8248 0.0000 4.5235
#
#
#
# Elastic Compliance Matrix: (Units=1/GPa)
#
#
# Indices 1 2 3 4 5 6 
#
# 1 0.010780 -0.000453 -0.002476 0.000000 0.000730 0.000000
# 2 -0.000453 0.010571 -0.003907 0.000000 0.002736 0.000000
# 3 -0.002476 -0.003907 0.011558 0.000000 -0.000873 0.000000
# 4 0.000000 0.000000 0.000000 0.113906 0.000000 -0.222218
# 5 0.000730 0.002736 -0.000873 0.000000 0.019246 0.000000
# 6 0.000000 0.000000 0.000000 -0.222218 0.000000 0.654588
#
#
# Mechanical properties :
#
#
# Convention : Reuss Voigt Hill
#
# Bulk Modulus (GPa) = 51.98374 53.73685 52.86029
# Shear Modulus (GPa) = 5.94718 32.78013 19.36366
#
# Velocity S-wave (km/s) = 1.66132 3.90034 2.99772
# Velocity P-wave (km/s) = 5.27302 6.72472 6.04262
#
# Compressibility (1/GPa) = 0.01923678
#
# Stress axis : x y z
#
# Youngs Moduli (GPa) = 92.76203 94.59795 86.52369
#
# Poissons Ratio (x) = 0.04286 0.21424
# Poissons Ratio (y) = 0.04203 0.33803
# Poissons Ratio (z) = 0.22969 0.36958
#
# Static dielectric constant tensor:
#      x y z
#    x 1.831270 0.000000 -0.004980 
#    y 0.000000 1.732790 0.000000 
#    z -0.004980 0.000000 1.858310 
# 
# From -- ./inp_files/70582.got.cif
#   From: 2010.05.17/outbox.cif.g08.bks.cpg/sg10_36_cif.got.tgz:70582.got - 2010.06.03 11:33:40.
