data_PCOD9149895
_publ_section_title
;
Structure prediction by ZEFSAII (Michael W. Deem and Ramdas Pophale) SiO2 
 PCOD9149895
Probable space group: P 2/M
;
_chemical_formula_sum "Si O2"
_cell_formula_units_Z 24
_cell_length_a 18.755547
_cell_length_b 7.704590
_cell_length_c 25.248791
_cell_angle_alpha 90.000000
_cell_angle_beta 161.140619
_cell_angle_gamma 90.000000
_cell_volume 1179.380253
_symmetry_space_group_name_H-M "P 2/M"
_symmetry_group_IT_number 10
_symmetry_cell_setting 'monoclinic'
loop_
_space_group_symop_operation_xyz
x,y,z
-x,y,-z
-x,-y,-z
x,-y,z
loop_
_atom_site_type_symbol
_atom_site_label
_atom_site_fract_x
_atom_site_fract_y
_atom_site_fract_z
Si Si1 0.962717 0.798389 0.692333
Si Si2 0.254455 0.287459 0.671291
Si Si3 0.625570 0.709332 0.361216
Si Si4 0.571793 0.290310 0.492700
Si Si5 0.249571 0.712158 0.172420
Si Si6 0.456862 0.700691 0.027822
O O1 0.817363 0.753951 0.538151
O O2 0.807330 0.761332 0.633777
O O3 0.014541 0.000000 0.727372
O O4 0.196742 0.703999 0.856796
O O5 0.264987 0.500000 0.677798
O O6 0.332865 0.226578 0.668664
O O7 0.404196 0.225081 0.825430
O O8 0.000000 0.239533 0.500000
O O9 0.620186 0.500000 0.355596
O O10 0.394071 0.768452 0.223702
O O11 0.500000 0.227369 0.500000
O O12 0.571828 0.500000 0.494000
O O13 0.389250 0.234303 0.321783
O O14 0.245270 0.500000 0.168853
O O15 0.000000 0.773363 0.000000
O O16 0.531675 0.500000 0.076594
O O17 0.500000 0.779796 0.000000
#
# Coordination Sequence:
#
# PCOD9149895 Si02
#       6
#     4   4   4   4   4   4
#     4  11  22  35  52  75 108 146 179 213 258 314
#     4   9  17  30  52  80 102 125 165 217 267 309
#     4   9  17  32  53  74  99 132 173 218 260 307
#     4   9  18  33  54  77 101 133 175 220 262 306
#     4   8  14  25  44  71  97 121 155 204 257 300
#     4  10  20  35  57  82 107 136 173 219 266 313
#
# _framework density 20.349671000000001
#
# number of rings (size 3 to 8) (size 9 to 14) (size 15 to 20)
#    0.000    2.667    0.000    3.500    0.000    4.667 
#    0.000    5.833    0.000   10.000    0.000    0.000 
#    0.000    0.000    0.000    0.000    0.000    0.000 
#
# Total GULP energy -133915.929176 kJ/mol
# GULP energy per Si atom -5579.830382 kJ/mol
# Density = 2.030335 g / cm^3
# Si number density = 20.349671 Si / 1000 Ang^3
#
#
#
# Elastic Constant Matrix: (Units=GPa)
#
#
# Indices 1 2 3 4 5 6 
#
# 1 213.6955 4.6029 90.7426 0.0000 -6.2621 0.0000
# 2 4.6029 37.3697 -8.4691 0.0000 -5.0842 0.0000
# 3 90.7426 -8.4691 132.1622 0.0000 10.1264 0.0000
# 4 0.0000 0.0000 0.0000 -12.0930 0.0000 11.1717
# 5 -6.2621 -5.0842 10.1264 0.0000 23.0964 0.0000
# 6 0.0000 0.0000 0.0000 11.1717 0.0000 32.6132
#
#
#
# Elastic Compliance Matrix: (Units=1/GPa)
#
#
# Indices 1 2 3 4 5 6 
#
# 1 0.007048 -0.001528 -0.005234 0.000000 0.003869 0.000000
# 2 -0.001528 0.028151 0.002494 0.000000 0.004689 0.000000
# 3 -0.005234 0.002494 0.011782 0.000000 -0.006036 0.000000
# 4 0.000000 0.000000 0.000000 -0.062814 0.000000 0.021517
# 5 0.003869 0.004689 -0.006036 0.000000 0.048024 0.000000
# 6 0.000000 0.000000 0.000000 0.021517 0.000000 0.023292
#
#
# Mechanical properties :
#
#
# Convention : Reuss Voigt Hill
#
# Bulk Modulus (GPa) = 26.01079 61.88670 43.94874
# Shear Modulus (GPa) = 65.07513 28.48005 46.77759
#
# Velocity S-wave (km/s) = 5.66109 3.74509 4.79967
# Velocity P-wave (km/s) = 7.45253 7.01275 7.23598
#
# Compressibility (1/GPa) = 0.03844559
#
# Stress axis : x y z
#
# Youngs Moduli (GPa) = 141.87870 35.52281 84.87371
#
# Poissons Ratio (x) = 0.05427 0.44421
# Poissons Ratio (y) = 0.21677 -0.21164
# Poissons Ratio (z) = 0.74255 -0.08858
#
# Static dielectric constant tensor:
#      x y z
#    x 1.721510 0.000000 -0.004780 
#    y 0.000000 1.734150 0.000000 
#    z -0.004780 0.000000 1.683780 
# 
# From -- ./inp_files/80048.got.cif
#   From: 2010.05.17/outbox.cif.g08.bks.cpg/sg10_41_cif.got.tgz:80048.got - 2010.06.03 11:33:40.
