data_PCOD9149726
_publ_section_title
;
Structure prediction by ZEFSAII (Michael W. Deem and Ramdas Pophale) SiO2 
 PCOD9149726
Probable space group: P 2/M
;
_chemical_formula_sum "Si O2"
_cell_formula_units_Z 28
_cell_length_a 12.856581
_cell_length_b 8.771423
_cell_length_c 15.199943
_cell_angle_alpha 90.000000
_cell_angle_beta 105.001979
_cell_angle_gamma 90.000000
_cell_volume 1655.683281
_symmetry_space_group_name_H-M "P 2/M"
_symmetry_group_IT_number 10
_symmetry_cell_setting 'monoclinic'
loop_
_space_group_symop_operation_xyz
x,y,z
-x,y,-z
-x,-y,-z
x,-y,z
loop_
_atom_site_type_symbol
_atom_site_label
_atom_site_fract_x
_atom_site_fract_y
_atom_site_fract_z
Si Si1 0.428012 0.682542 0.103157
Si Si2 0.757458 0.818061 0.597682
Si Si3 0.405737 0.681866 0.301865
Si Si4 0.785818 0.317482 0.267190
Si Si5 0.345806 0.182005 0.913025
Si Si6 0.637552 0.182442 0.388653
Si Si7 0.015065 0.683391 0.401139
O O1 0.436686 0.500000 0.094716
O O2 0.395387 0.716794 0.195819
O O3 0.544520 0.755949 0.108535
O O4 0.349238 0.749454 0.011780
O O5 0.693899 0.741452 0.663596
O O6 0.694798 0.779174 0.493332
O O7 0.879023 0.760319 0.614449
O O8 0.755044 0.000000 0.606934
O O9 0.416058 0.500000 0.313348
O O10 0.515437 0.759464 0.359744
O O11 0.776181 0.500000 0.258096
O O12 0.750974 0.241091 0.168401
O O13 0.704059 0.259319 0.324387
O O14 0.906264 0.279003 0.324830
O O15 0.349064 0.000000 0.916682
O O16 0.639583 0.000000 0.377771
O O17 0.028821 0.500000 0.402520
O O18 0.000000 0.729020 0.500000
#
# Coordination Sequence:
#
# PCOD9149726 Si02
#       7
#     4   4   4   4   4   4   4
#     4  10  20  35  55  80 111 145 184 227 273 331
#     4  11  24  38  55  80 114 151 187 230 278 329
#     4  11  23  37  57  81 111 151 189 227 273 330
#     4  11  21  35  57  82 112 147 184 230 277 324
#     4  11  21  33  54  83 113 145 179 225 280 334
#     4  11  22  35  53  81 115 149 184 226 276 330
#     4  10  21  38  59  81 107 145 192 234 271 323
#
# _framework density 16.911448
#
# number of rings (size 3 to 8) (size 9 to 14) (size 15 to 20)
#    0.000    1.286    2.857    4.714    0.000    6.571 
#    0.000    0.000    0.000    0.857    0.000    6.000 
#    0.000    0.000    0.000    0.000    0.000    0.000 
#
# Total GULP energy -156491.681549 kJ/mol
# GULP energy per Si atom -5588.988627 kJ/mol
# Density = 1.687296 g / cm^3
# Si number density = 16.911448 Si / 1000 Ang^3
#
#
#
# Elastic Constant Matrix: (Units=GPa)
#
#
# Indices 1 2 3 4 5 6 
#
# 1 100.3832 35.3975 44.4566 0.0000 5.4105 0.0000
# 2 35.3975 66.0880 47.6085 0.0000 8.4679 0.0000
# 3 44.4566 47.6085 102.7757 0.0000 20.8051 0.0000
# 4 0.0000 0.0000 0.0000 29.2804 0.0000 -9.3263
# 5 5.4105 8.4679 20.8051 0.0000 19.8978 0.0000
# 6 0.0000 0.0000 0.0000 -9.3263 0.0000 51.4902
#
#
#
# Elastic Compliance Matrix: (Units=1/GPa)
#
#
# Indices 1 2 3 4 5 6 
#
# 1 0.013241 -0.004380 -0.004246 0.000000 0.002703 0.000000
# 2 -0.004380 0.024203 -0.009480 0.000000 0.000803 0.000000
# 3 -0.004246 -0.009480 0.018910 0.000000 -0.014583 0.000000
# 4 0.000000 0.000000 0.000000 0.036243 0.000000 0.006565
# 5 0.002703 0.000803 -0.014583 0.000000 0.064429 0.000000
# 6 0.000000 0.000000 0.000000 0.006565 0.000000 0.020610
#
#
# Mechanical properties :
#
#
# Convention : Reuss Voigt Hill
#
# Bulk Modulus (GPa) = 49.64322 58.24136 53.94229
# Shear Modulus (GPa) = 22.66945 29.58596 26.12771
#
# Velocity S-wave (km/s) = 3.66523 4.18720 3.93488
# Velocity P-wave (km/s) = 6.87971 7.60859 7.25331
#
# Compressibility (1/GPa) = 0.02014374
#
# Stress axis : x y z
#
# Youngs Moduli (GPa) = 75.52378 41.31678 52.88246
#
# Poissons Ratio (x) = 0.18095 0.22453
# Poissons Ratio (y) = 0.33077 0.50131
# Poissons Ratio (z) = 0.32066 0.39167
#
# Static dielectric constant tensor:
#      x y z
#    x 1.532550 0.000000 0.006290 
#    y 0.000000 1.563970 0.000000 
#    z 0.006290 0.000000 1.579390 
# 
# From -- ./inp_files/63396.got.cif
#   From: 2010.05.17/outbox.cif.g08.bks.cpg/sg10_32_cif.got.tgz:63396.got - 2010.06.03 11:33:40.
