data_PCOD9149919
_publ_section_title
;
Structure prediction by ZEFSAII (Michael W. Deem and Ramdas Pophale) SiO2 
 PCOD9149919
Probable space group: P 2/M
;
_chemical_formula_sum "Si O2"
_cell_formula_units_Z 25
_cell_length_a 21.770948
_cell_length_b 9.392756
_cell_length_c 9.936386
_cell_angle_alpha 90.000000
_cell_angle_beta 146.217790
_cell_angle_gamma 90.000000
_cell_volume 1129.803652
_symmetry_space_group_name_H-M "P 2/M"
_symmetry_group_IT_number 10
_symmetry_cell_setting 'monoclinic'
loop_
_space_group_symop_operation_xyz
x,y,z
-x,y,-z
-x,-y,-z
x,-y,z
loop_
_atom_site_type_symbol
_atom_site_label
_atom_site_fract_x
_atom_site_fract_y
_atom_site_fract_z
Si Si1 0.355678 0.838315 0.468604
Si Si2 0.409878 0.837558 0.160567
Si Si3 0.897119 0.670866 0.608732
Si Si4 0.887243 0.167634 0.022223
Si Si5 0.663100 0.765737 0.268791
Si Si6 0.172698 0.168092 0.784566
Si Si7 0.500000 0.500000 0.000000
O O1 0.467752 0.769691 0.613035
O O2 0.370018 0.845020 0.655643
O O3 0.345053 0.000000 0.396420
O O4 0.235118 0.772595 0.230450
O O5 0.426583 0.000000 0.231897
O O6 0.369742 0.835878 0.932330
O O7 0.301597 0.786846 0.042406
O O8 0.899385 0.500000 0.618549
O O9 0.793777 0.733276 0.503601
O O10 0.872124 0.728937 0.412079
O O11 0.014023 0.740922 0.858552
O O12 0.891968 0.172635 0.193584
O O13 0.894932 0.000000 0.995997
O O14 0.594006 0.622000 0.147030
O O15 0.172494 0.000000 0.740451
#
# Coordination Sequence:
#
# PCOD9149919 Si02
#       7
#     4   4   4   4   4   4   1
#     4  10  20  35  57  83 113 144 180 227 272 326
#     4   9  17  32  57  85 108 134 178 230 273 316
#     4  11  23  38  57  82 109 142 188 232 271 323
#     4  10  22  39  56  80 114 152 185 220 273 327
#     4  11  21  36  57  83 107 142 180 224 277 328
#     4   9  19  36  60  84 109 143 183 229 277 325
#     4  12  20  36  58  78 112 144 178 224 278 332
#
# _framework density 22.127738999999998
#
# number of rings (size 3 to 8) (size 9 to 14) (size 15 to 20)
#    0.000    1.920    2.400    1.440    0.000    7.040 
#    1.440    5.600    0.000    0.000    0.000    5.600 
#    0.000    0.000    0.000    0.000    0.000    0.000 
#
# Total GULP energy -139239.324176 kJ/mol
# GULP energy per Si atom -5569.572967 kJ/mol
# Density = 2.207738 g / cm^3
# Si number density = 22.127739 Si / 1000 Ang^3
#
#
#
# Elastic Constant Matrix: (Units=GPa)
#
#
# Indices 1 2 3 4 5 6 
#
# 1 81.9463 19.5286 30.5576 0.0000 30.6251 0.0000
# 2 19.5286 64.7481 16.7377 0.0000 14.5028 0.0000
# 3 30.5576 16.7377 113.9515 0.0000 52.3895 0.0000
# 4 0.0000 0.0000 0.0000 5.3695 0.0000 -15.8357
# 5 30.6251 14.5028 52.3895 0.0000 59.0291 0.0000
# 6 0.0000 0.0000 0.0000 -15.8357 0.0000 -119.0237
#
#
#
# Elastic Compliance Matrix: (Units=1/GPa)
#
#
# Indices 1 2 3 4 5 6 
#
# 1 0.015723 -0.003046 -0.000613 0.000000 -0.006865 0.000000
# 2 -0.003046 0.016993 -0.000821 0.000000 -0.001866 0.000000
# 3 -0.000613 -0.000821 0.014903 0.000000 -0.012707 0.000000
# 4 0.000000 0.000000 0.000000 0.133755 0.000000 -0.017796
# 5 -0.006865 -0.001866 -0.012707 0.000000 0.032238 0.000000
# 6 0.000000 0.000000 0.000000 -0.017796 0.000000 -0.006034
#
#
# Mechanical properties :
#
#
# Convention : Reuss Voigt Hill
#
# Bulk Modulus (GPa) = 25.86739 43.81040 34.83889
# Shear Modulus (GPa) = 21.79362 1.99645 11.89503
#
# Velocity S-wave (km/s) = 3.14172 0.95089 2.32105
# Velocity P-wave (km/s) = 4.98758 4.58775 4.79183
#
# Compressibility (1/GPa) = 0.03865872
#
# Stress axis : x y z
#
# Youngs Moduli (GPa) = 63.60031 58.84623 67.10280
#
# Poissons Ratio (x) = 0.17925 0.04111
# Poissons Ratio (y) = 0.19374 0.05512
# Poissons Ratio (z) = 0.03896 0.04834
#
# Static dielectric constant tensor:
#      x y z
#    x 1.841140 0.000000 0.006300 
#    y 0.000000 1.732910 0.000000 
#    z 0.006300 0.000000 1.921110 
# 
# From -- ./inp_files/45226.got.cif
#   From: 2010.05.17/outbox.cif.g08.bks.cpg/sg10_23_cif.got.tgz:45226.got - 2010.06.03 11:33:40.
