data_PCOD9149834
_publ_section_title
;
Structure prediction by ZEFSAII (Michael W. Deem and Ramdas Pophale) SiO2 
 PCOD9149834
Probable space group: P 2/M
;
_chemical_formula_sum "Si O2"
_cell_formula_units_Z 32
_cell_length_a 24.819230
_cell_length_b 7.524837
_cell_length_c 15.734101
_cell_angle_alpha 90.000000
_cell_angle_beta 28.904259
_cell_angle_gamma 90.000000
_cell_volume 1420.321867
_symmetry_space_group_name_H-M "P 2/M"
_symmetry_group_IT_number 10
_symmetry_cell_setting 'monoclinic'
loop_
_space_group_symop_operation_xyz
x,y,z
-x,y,-z
-x,-y,-z
x,-y,z
loop_
_atom_site_type_symbol
_atom_site_label
_atom_site_fract_x
_atom_site_fract_y
_atom_site_fract_z
Si Si1 0.029601 0.282716 0.862337
Si Si2 0.395757 0.717150 0.701351
Si Si3 0.143916 0.709616 0.039619
Si Si4 0.911395 0.204726 0.689964
Si Si5 0.277593 0.701517 0.511745
Si Si6 0.697296 0.713337 0.875824
Si Si7 0.378927 0.792277 0.196191
Si Si8 0.503002 0.717041 0.260275
O O1 0.029418 0.500000 0.856555
O O2 0.155728 0.217889 0.674038
O O3 0.943275 0.218848 0.909564
O O4 0.000000 0.236753 0.000000
O O5 0.500000 0.774624 0.500000
O O6 0.393171 0.500000 0.700924
O O7 0.429470 0.767779 0.749939
O O8 0.270435 0.780963 0.855608
O O9 0.152983 0.500000 0.009956
O O10 0.102577 0.725014 0.194668
O O11 0.793799 0.218407 0.803825
O O12 0.000000 0.285598 0.500000
O O13 0.943954 0.000000 0.656607
O O14 0.261365 0.500000 0.566472
O O15 0.330359 0.698070 0.345254
O O16 0.376479 0.783147 0.431489
O O17 0.701461 0.500000 0.873201
O O18 0.703041 0.772174 0.770813
O O19 0.577749 0.773373 0.077492
O O20 0.390760 0.000000 0.200499
O O21 0.500000 0.722128 0.000000
O O22 0.497593 0.500000 0.266101
#
# Coordination Sequence:
#
# PCOD9149834 Si02
#       8
#     4   4   4   4   4   4   4   4
#     4   9  20  36  57  88 120 151 192 250 303 340
#     4   9  17  29  52  85 113 142 182 237 297 344
#     4  10  20  37  59  87 119 152 198 246 292 350
#     4  11  25  42  59  83 117 159 198 239 295 355
#     4  10  20  35  56  82 114 154 199 240 288 346
#     4  11  21  37  60  85 115 148 193 245 293 348
#     4  11  23  37  54  82 120 158 194 235 289 349
#     4   9  17  30  51  82 113 142 183 235 287 337
#
# _framework density 22.530104000000001
#
# number of rings (size 3 to 8) (size 9 to 14) (size 15 to 20)
#    0.000    2.000    2.500    1.125    3.500    1.500 
#    0.000    0.000    0.000    1.875    0.000    0.000 
#    0.000    0.000    0.000    0.000    0.000    0.000 
#
# Total GULP energy -178686.024541 kJ/mol
# GULP energy per Si atom -5583.938267 kJ/mol
# Density = 2.247882 g / cm^3
# Si number density = 22.530104 Si / 1000 Ang^3
#
#
#
# Elastic Constant Matrix: (Units=GPa)
#
#
# Indices 1 2 3 4 5 6 
#
# 1 138.5833 -7.7776 63.4109 0.0000 -42.1348 0.0000
# 2 -7.7776 60.2301 -0.4175 0.0000 -3.8121 0.0000
# 3 63.4109 -0.4175 154.3363 0.0000 -32.7068 0.0000
# 4 0.0000 0.0000 0.0000 -26.8800 0.0000 -61.1429
# 5 -42.1348 -3.8121 -32.7068 0.0000 33.7889 0.0000
# 6 0.0000 0.0000 0.0000 -61.1429 0.0000 -113.0577
#
#
#
# Elastic Compliance Matrix: (Units=1/GPa)
#
#
# Indices 1 2 3 4 5 6 
#
# 1 0.012572 0.002481 -0.002236 0.000000 0.013793 0.000000
# 2 0.002481 0.017251 0.000120 0.000000 0.005156 0.000000
# 3 -0.002236 0.000120 0.008568 0.000000 0.005519 0.000000
# 4 0.000000 0.000000 0.000000 0.161635 0.000000 -0.087414
# 5 0.013793 0.005156 0.005519 0.000000 0.052719 0.000000
# 6 0.000000 0.000000 0.000000 -0.087414 0.000000 0.038430
#
#
# Mechanical properties :
#
#
# Convention : Reuss Voigt Hill
#
# Bulk Modulus (GPa) = 25.56198 51.50904 38.53551
# Shear Modulus (GPa) = 16.47537 -1.36750 7.55393
#
# Velocity S-wave (km/s) = 2.70712 -0.77993 1.83306
# Velocity P-wave (km/s) = 4.59800 4.70116 4.64987
#
# Compressibility (1/GPa) = 0.03912060
#
# Stress axis : x y z
#
# Youngs Moduli (GPa) = 79.54482 57.96924 116.71592
#
# Poissons Ratio (x) = -0.14381 0.26092
# Poissons Ratio (y) = -0.19734 -0.01401
# Poissons Ratio (z) = 0.17782 -0.00696
#
# Static dielectric constant tensor:
#      x y z
#    x 1.814580 0.000000 -0.011720 
#    y 0.000000 1.857550 0.000000 
#    z -0.011720 0.000000 1.842120 
# 
# From -- ./inp_files/71429.got.cif
#   From: 2010.05.17/outbox.cif.g08.bks.cpg/sg10_36_cif.got.tgz:71429.got - 2010.06.03 11:33:40.
