data_PCOD9149736
_publ_section_title
;
Structure prediction by ZEFSAII (Michael W. Deem and Ramdas Pophale) SiO2 
 PCOD9149736
Probable space group: P 2/M
;
_chemical_formula_sum "Si O2"
_cell_formula_units_Z 32
_cell_length_a 30.387568
_cell_length_b 7.492478
_cell_length_c 12.543542
_cell_angle_alpha 90.000000
_cell_angle_beta 151.289043
_cell_angle_gamma 90.000000
_cell_volume 1371.944930
_symmetry_space_group_name_H-M "P 2/M"
_symmetry_group_IT_number 10
_symmetry_cell_setting 'monoclinic'
loop_
_space_group_symop_operation_xyz
x,y,z
-x,y,-z
-x,-y,-z
x,-y,z
loop_
_atom_site_type_symbol
_atom_site_label
_atom_site_fract_x
_atom_site_fract_y
_atom_site_fract_z
Si Si1 0.599942 0.705648 0.214810
Si Si2 0.079563 0.703022 0.595161
Si Si3 0.380047 0.790134 0.980316
Si Si4 0.769999 0.717194 0.706080
Si Si5 0.182554 0.284227 0.612611
Si Si6 0.249004 0.793998 0.093857
Si Si7 0.458247 0.217734 0.525491
Si Si8 0.104781 0.282275 0.221768
O O1 0.588339 0.500000 0.223986
O O2 0.635445 0.706944 0.168929
O O3 0.673185 0.781797 0.452032
O O4 0.500000 0.790952 0.000000
O O5 0.047825 0.500000 0.504695
O O6 0.111282 0.783100 0.549861
O O7 0.000000 0.785534 0.500000
O O8 0.173607 0.699637 0.861804
O O9 0.288708 0.764258 0.856392
O O10 0.391753 0.000000 0.987539
O O11 0.471277 0.721624 0.232951
O O12 0.769881 0.500000 0.709013
O O13 0.783240 0.784033 0.852681
O O14 0.844817 0.773541 0.778665
O O15 0.178388 0.500000 0.606245
O O16 0.154666 0.222391 0.435519
O O17 0.353133 0.722735 0.311964
O O18 0.251754 0.000000 0.064114
O O19 0.500000 0.268062 0.500000
O O20 0.457464 0.000000 0.528742
O O21 0.107257 0.500000 0.228352
O O22 0.000000 0.226424 0.000000
#
# Coordination Sequence:
#
# PCOD9149736 Si02
#       8
#     4   4   4   4   4   4   4   4
#     4  10  20  35  55  81 115 154 193 238 289 341
#     4  10  23  41  64  90 116 151 197 245 292 349
#     4  11  21  34  57  85 115 152 193 239 291 350
#     4  10  20  36  58  83 116 152 192 235 283 347
#     4  10  20  38  61  87 117 148 193 245 291 346
#     4  11  23  39  60  86 120 154 192 241 292 347
#     4   9  19  36  56  79 110 153 197 233 280 344
#     4   9  18  33  59  87 109 146 193 237 286 342
#
# _framework density 23.324552000000001
#
# number of rings (size 3 to 8) (size 9 to 14) (size 15 to 20)
#    0.000    2.000    1.250    2.250    1.750    2.500 
#    0.000    1.875    0.000    5.250    0.000    0.000 
#    0.000    0.000    0.000    0.000    0.000    0.000 
#
# Total GULP energy -178899.631942 kJ/mol
# GULP energy per Si atom -5590.613498 kJ/mol
# Density = 2.327146 g / cm^3
# Si number density = 23.324552 Si / 1000 Ang^3
#
#
#
# Elastic Constant Matrix: (Units=GPa)
#
#
# Indices 1 2 3 4 5 6 
#
# 1 128.2637 -9.5126 14.9127 0.0000 14.3431 0.0000
# 2 -9.5126 70.4109 -5.4268 0.0000 3.7154 0.0000
# 3 14.9127 -5.4268 68.7072 0.0000 13.6758 0.0000
# 4 0.0000 0.0000 0.0000 5.7555 0.0000 -6.8499
# 5 14.3431 3.7154 13.6758 0.0000 44.9124 0.0000
# 6 0.0000 0.0000 0.0000 -6.8499 0.0000 19.0284
#
#
#
# Elastic Compliance Matrix: (Units=1/GPa)
#
#
# Indices 1 2 3 4 5 6 
#
# 1 0.008290 0.001149 -0.001238 0.000000 -0.002366 0.000000
# 2 0.001149 0.014561 0.001292 0.000000 -0.001965 0.000000
# 3 -0.001238 0.001292 0.015827 0.000000 -0.004531 0.000000
# 4 0.000000 0.000000 0.000000 0.303987 0.000000 0.109430
# 5 -0.002366 -0.001965 -0.004531 0.000000 0.024563 0.000000
# 6 0.000000 0.000000 0.000000 0.109430 0.000000 0.091946
#
#
# Mechanical properties :
#
#
# Convention : Reuss Voigt Hill
#
# Bulk Modulus (GPa) = 24.33979 29.70317 27.02148
# Shear Modulus (GPa) = 10.62784 31.76649 21.19717
#
# Velocity S-wave (km/s) = 2.13691 3.69444 3.01789
# Velocity P-wave (km/s) = 4.06773 5.56425 4.87377
#
# Compressibility (1/GPa) = 0.04108498
#
# Stress axis : x y z
#
# Youngs Moduli (GPa) = 120.62531 68.67719 63.18302
#
# Poissons Ratio (x) = -0.07894 0.07820
# Poissons Ratio (y) = -0.13865 -0.08161
# Poissons Ratio (z) = 0.14930 -0.08871
#
# Static dielectric constant tensor:
#      x y z
#    x 1.860030 0.000000 0.035610 
#    y 0.000000 1.910980 0.000000 
#    z 0.035610 0.000000 1.827880 
# 
# From -- ./inp_files/58228.got.cif
#   From: 2010.05.17/outbox.cif.g08.bks.cpg/sg10_30_cif.got.tgz:58228.got - 2010.06.03 11:33:40.
