data_PCOD9149975
_publ_section_title
;
Structure prediction by ZEFSAII (Michael W. Deem and Ramdas Pophale) SiO2 
 PCOD9149975
Probable space group: P 2/M
;
_chemical_formula_sum "Si O2"
_cell_formula_units_Z 32
_cell_length_a 26.687101
_cell_length_b 8.648182
_cell_length_c 15.350987
_cell_angle_alpha 90.000000
_cell_angle_beta 150.369367
_cell_angle_gamma 90.000000
_cell_volume 1751.648025
_symmetry_space_group_name_H-M "P 2/M"
_symmetry_group_IT_number 10
_symmetry_cell_setting 'monoclinic'
loop_
_space_group_symop_operation_xyz
x,y,z
-x,y,-z
-x,-y,-z
x,-y,z
loop_
_atom_site_type_symbol
_atom_site_label
_atom_site_fract_x
_atom_site_fract_y
_atom_site_fract_z
Si Si1 0.602716 0.811569 0.705432
Si Si2 0.992178 0.685350 0.217755
Si Si3 0.215519 0.313812 0.500000
Si Si4 0.057981 0.185522 0.500000
Si Si5 0.438891 0.812830 0.160615
Si Si6 0.672876 0.186392 0.500000
Si Si7 0.725577 0.685350 0.217756
Si Si8 0.778276 0.812830 0.839385
O O1 0.500000 0.763218 0.500000
O O2 0.599235 0.763161 0.800926
O O3 0.701691 0.763161 0.800926
O O4 0.601829 0.000000 0.703658
O O5 0.990305 0.500000 0.217460
O O6 0.097093 0.732520 0.328655
O O7 0.001963 0.749348 0.330403
O O8 0.890328 0.748031 0.021119
O O9 0.218768 0.500000 0.500000
O O10 0.270629 0.245440 0.500000
O O11 0.268437 0.267480 0.671344
O O12 0.171559 0.250651 0.669597
O O13 0.000000 0.230399 0.500000
O O14 0.061334 0.000000 0.499999
O O15 0.555633 0.764230 0.326098
O O16 0.435033 0.000000 0.152535
O O17 0.369209 0.748031 0.978881
O O18 0.729534 0.235770 0.673901
O O19 0.673186 0.000000 0.500000
O O20 0.727156 0.500000 0.217461
O O21 0.782497 0.000000 0.847464
#
# Coordination Sequence:
#
# PCOD9149975 Si02
#       8
#     4   4   4   4   4   4   4   4
#     4   9  16  32  57  80 111 150 183 223 276 334
#     4  10  22  39  57  81 114 150 186 230 282 334
#     4   9  21  41  59  75 106 151 190 228 285 344
#     4  10  21  37  58  83 110 145 188 231 278 334
#     4  10  20  35  57  86 115 147 188 231 279 336
#     4  10  21  36  58  86 113 144 189 243 287 323
#     4  10  22  39  57  81 114 150 186 230 282 334
#     4  10  20  35  57  86 115 147 188 231 279 336
#
# _framework density 18.268511
#
# number of rings (size 3 to 8) (size 9 to 14) (size 15 to 20)
#    0.000    2.250    1.250    1.875    1.750    6.000 
#    0.000    5.000    0.000    0.750    0.000    0.000 
#    0.000    0.000    0.000    0.000    0.000    0.000 
#
# Total GULP energy -178627.462524 kJ/mol
# GULP energy per Si atom -5582.108204 kJ/mol
# Density = 1.822693 g / cm^3
# Si number density = 18.268511 Si / 1000 Ang^3
#
#
#
# Elastic Constant Matrix: (Units=GPa)
#
#
# Indices 1 2 3 4 5 6 
#
# 1 187.6537 36.3021 105.4084 0.0000 5.3033 0.0000
# 2 36.3021 19.7965 36.3695 0.0000 -0.0044 0.0000
# 3 105.4084 36.3695 195.1491 0.0000 -5.8226 0.0000
# 4 0.0000 0.0000 0.0000 -272.5524 0.0000 -1.0982
# 5 5.3033 -0.0044 -5.8226 0.0000 3.7288 0.0000
# 6 0.0000 0.0000 0.0000 -1.0982 0.0000 -287.8368
#
#
#
# Elastic Compliance Matrix: (Units=1/GPa)
#
#
# Indices 1 2 3 4 5 6 
#
# 1 0.010526 -0.011687 -0.004148 0.000000 -0.021462 0.000000
# 2 -0.011687 0.091779 -0.010796 0.000000 -0.000126 0.000000
# 3 -0.004148 -0.010796 0.010019 0.000000 0.021531 0.000000
# 4 0.000000 0.000000 0.000000 -0.003669 0.000000 0.000014
# 5 -0.021462 -0.000126 0.021531 0.000000 0.332324 0.000000
# 6 0.000000 0.000000 0.000000 0.000014 0.000000 -0.003474
#
#
# Mechanical properties :
#
#
# Convention : Reuss Voigt Hill
#
# Bulk Modulus (GPa) = 16.93108 84.30659 50.61883
# Shear Modulus (GPa) = 9.79519 -96.36411 -43.28446
#
# Velocity S-wave (km/s) = 2.31807 -7.27071 -4.87288
# Velocity P-wave (km/s) = 4.05618 4.92297 1.97269
#
# Compressibility (1/GPa) = 0.05906297
#
# Stress axis : x y z
#
# Youngs Moduli (GPa) = 94.99907 10.89572 99.80845
#
# Poissons Ratio (x) = 0.12734 0.41400
# Poissons Ratio (y) = 1.11027 1.07750
# Poissons Ratio (z) = 0.39406 0.11763
#
# Static dielectric constant tensor:
#      x y z
#    x 1.609850 0.000000 -0.000190 
#    y 0.000000 1.621330 0.000000 
#    z -0.000190 0.000000 1.612570 
# 
# From -- ./inp_files/71706.got.cif
#   From: 2010.05.17/outbox.cif.g08.bks.cpg/sg10_36_cif.got.tgz:71706.got - 2010.06.03 11:33:40.
