data_PCOD9149381
_publ_section_title
;
Structure prediction by ZEFSAII (Michael W. Deem and Ramdas Pophale) SiO2 
 PCOD9149381
Probable space group: P 2/M
;
_chemical_formula_sum "Si O2"
_cell_formula_units_Z 20
_cell_length_a 30.753910
_cell_length_b 7.742106
_cell_length_c 8.974194
_cell_angle_alpha 90.000000
_cell_angle_beta 29.194474
_cell_angle_gamma 90.000000
_cell_volume 1042.257091
_symmetry_space_group_name_H-M "P 2/M"
_symmetry_group_IT_number 10
_symmetry_cell_setting 'monoclinic'
loop_
_space_group_symop_operation_xyz
x,y,z
-x,y,-z
-x,-y,-z
x,-y,z
loop_
_atom_site_type_symbol
_atom_site_label
_atom_site_fract_x
_atom_site_fract_y
_atom_site_fract_z
Si Si1 0.415217 0.208194 0.157030
Si Si2 0.591454 0.301107 0.161692
Si Si3 0.097840 0.500000 0.635782
Si Si4 0.097388 0.500000 0.281090
Si Si5 0.784558 0.203204 0.214225
Si Si6 0.789107 0.804944 0.559178
O O1 0.318542 0.244375 0.516500
O O2 0.418222 0.000000 0.125181
O O3 0.500000 0.259493 0.000000
O O4 0.417958 0.294012 0.987947
O O5 0.500000 0.225157 0.500000
O O6 0.598528 0.500000 0.191239
O O7 0.685221 0.211563 0.916267
O O8 0.091855 0.500000 0.475697
O O9 0.152056 0.665875 0.532229
O O10 0.000000 0.500000 0.000000
O O11 0.000000 0.500000 0.500000
O O12 0.150389 0.331814 0.064510
O O13 0.792451 0.227432 0.370216
O O14 0.801062 0.000000 0.134320
O O15 0.819744 0.000000 0.494577
#
# Coordination Sequence:
#
# PCOD9149381 Si02
#       6
#     4   4   2   2   4   4
#     4   9  19  35  55  84 120 161 203 243 293 348
#     4  10  20  34  55  87 124 160 204 247 293 352
#     4  12  26  44  65  92 125 152 199 252 304 370
#     4  12  26  42  65  90 117 158 193 246 310 358
#     4   9  20  40  64  90 120 158 203 248 298 356
#     4  10  21  41  67  90 121 164 204 250 305 357
#
# _framework density 19.189125000000001
#
# number of rings (size 3 to 8) (size 9 to 14) (size 15 to 20)
#    0.000    2.000    1.000    3.600    4.200    5.200 
#    0.000    2.000    0.000    0.000    0.000    0.000 
#    0.000    0.000    0.000    0.000    0.000    0.000 
#
# Total GULP energy -111700.931902 kJ/mol
# GULP energy per Si atom -5585.046595 kJ/mol
# Density = 1.914545 g / cm^3
# Si number density = 19.189125 Si / 1000 Ang^3
#
#
#
# Elastic Constant Matrix: (Units=GPa)
#
#
# Indices 1 2 3 4 5 6 
#
# 1 105.1102 70.0581 70.8143 0.0000 -27.0864 0.0000
# 2 70.0581 102.9540 78.1289 0.0000 -8.7458 0.0000
# 3 70.8143 78.1289 168.5004 0.0000 -12.1769 0.0000
# 4 0.0000 0.0000 0.0000 25.6828 0.0000 14.4505
# 5 -27.0864 -8.7458 -12.1769 0.0000 27.6708 0.0000
# 6 0.0000 0.0000 0.0000 14.4505 0.0000 36.9883
#
#
#
# Elastic Compliance Matrix: (Units=1/GPa)
#
#
# Indices 1 2 3 4 5 6 
#
# 1 0.025503 -0.013327 -0.003139 0.000000 0.019371 0.000000
# 2 -0.013327 0.022031 -0.005220 0.000000 -0.008379 0.000000
# 3 -0.003139 -0.005220 0.009639 0.000000 -0.000480 0.000000
# 4 0.000000 0.000000 0.000000 0.049907 0.000000 -0.019498
# 5 0.019371 -0.008379 -0.000480 0.000000 0.052241 0.000000
# 6 0.000000 0.000000 0.000000 -0.019498 0.000000 0.034653
#
#
# Mechanical properties :
#
#
# Convention : Reuss Voigt Hill
#
# Bulk Modulus (GPa) = 72.45119 90.50747 81.47933
# Shear Modulus (GPa) = 20.66577 28.57258 24.61917
#
# Velocity S-wave (km/s) = 3.28526 3.86294 3.58575
# Velocity P-wave (km/s) = 7.22696 8.19542 7.72637
#
# Compressibility (1/GPa) = 0.01380240
#
# Stress axis : x y z
#
# Youngs Moduli (GPa) = 39.21159 45.39027 103.73984
#
# Poissons Ratio (x) = 0.60490 0.32562
# Poissons Ratio (y) = 0.52256 0.54153
# Poissons Ratio (z) = 0.12308 0.23694
#
# Static dielectric constant tensor:
#      x y z
#    x 1.635170 0.000000 -0.006900 
#    y 0.000000 1.667970 0.000000 
#    z -0.006900 0.000000 1.663410 
# 
# From -- ./inp_files/37817.got.cif
#   From: 2010.05.17/outbox.cif.g08.bks.cpg/sg10_19_cif.got.tgz:37817.got - 2010.06.03 11:33:40.
