data_PCOD9149854
_publ_section_title
;
Structure prediction by ZEFSAII (Michael W. Deem and Ramdas Pophale) SiO2 
 PCOD9149854
Probable space group: P 2/M
;
_chemical_formula_sum "Si O2"
_cell_formula_units_Z 28
_cell_length_a 8.977262
_cell_length_b 12.156962
_cell_length_c 14.560204
_cell_angle_alpha 90.000000
_cell_angle_beta 73.100159
_cell_angle_gamma 90.000000
_cell_volume 1520.421905
_symmetry_space_group_name_H-M "P 2/M"
_symmetry_group_IT_number 10
_symmetry_cell_setting 'monoclinic'
loop_
_space_group_symop_operation_xyz
x,y,z
-x,y,-z
-x,-y,-z
x,-y,z
loop_
_atom_site_type_symbol
_atom_site_label
_atom_site_fract_x
_atom_site_fract_y
_atom_site_fract_z
Si Si1 0.119191 0.869518 0.393643
Si Si2 0.675150 0.500000 0.075732
Si Si3 0.622111 0.872659 0.903898
Si Si4 0.119748 0.280518 0.215196
Si Si5 0.875958 0.702339 0.104040
Si Si6 0.636161 0.126366 0.201467
Si Si7 0.534308 0.133560 0.595801
Si Si8 0.304245 0.500000 0.148944
O O1 0.087187 0.787417 0.314465
O O2 0.291751 0.843981 0.400765
O O3 0.000000 0.857877 0.500000
O O4 0.115718 0.000000 0.365411
O O5 0.756369 0.604992 0.105608
O O6 0.490681 0.500000 0.126806
O O7 0.713530 0.500000 0.959408
O O8 0.774590 0.801503 0.865359
O O9 0.524340 0.870672 0.827198
O O10 0.656489 0.000000 0.921226
O O11 0.500000 0.827497 0.000000
O O12 0.222483 0.391403 0.205059
O O13 0.967660 0.308812 0.183401
O O14 0.772182 0.810961 0.126550
O O15 0.000000 0.703397 0.000000
O O16 0.592261 0.174521 0.308372
O O17 0.681876 0.000000 0.203105
O O18 0.500000 0.173561 0.500000
O O19 0.521431 0.000000 0.597634
#
# Coordination Sequence:
#
# PCOD9149854 Si02
#       8
#     4   2   4   4   4   4   4   2
#     4  10  22  40  64  96 129 163 204 251 309 373
#     4  11  24  45  64  86 116 161 216 264 297 370
#     4  10  20  35  56  83 121 166 206 245 296 366
#     4  12  23  38  63  92 123 163 203 258 315 367
#     4  12  24  39  59  88 128 161 200 258 306 364
#     4  10  21  36  55  86 124 163 202 246 299 362
#     4   9  18  35  59  84 118 159 204 251 292 352
#     4  11  25  42  70  87 112 161 218 260 310 363
#
# _framework density 18.415939999999999
#
# number of rings (size 3 to 8) (size 9 to 14) (size 15 to 20)
#    0.000    1.429    2.857    2.786    4.000    1.429 
#    0.000    0.357    0.000    0.000    0.000    2.000 
#    0.000    0.000    0.000    0.000    0.000    0.000 
#
# Total GULP energy -156358.573674 kJ/mol
# GULP energy per Si atom -5584.234774 kJ/mol
# Density = 1.837402 g / cm^3
# Si number density = 18.415940 Si / 1000 Ang^3
#
#
#
# Elastic Constant Matrix: (Units=GPa)
#
#
# Indices 1 2 3 4 5 6 
#
# 1 93.5656 47.9245 34.0964 0.0000 6.0617 0.0000
# 2 47.9245 86.3996 44.2446 0.0000 -2.8127 0.0000
# 3 34.0964 44.2446 87.4785 0.0000 15.7447 0.0000
# 4 0.0000 0.0000 0.0000 27.7524 0.0000 1.9070
# 5 6.0617 -2.8127 15.7447 0.0000 26.0694 0.0000
# 6 0.0000 0.0000 0.0000 1.9070 0.0000 20.9430
#
#
#
# Elastic Compliance Matrix: (Units=1/GPa)
#
#
# Indices 1 2 3 4 5 6 
#
# 1 0.015536 -0.008066 -0.001312 0.000000 -0.003691 0.000000
# 2 -0.008066 0.021130 -0.009302 0.000000 0.009773 0.000000
# 3 -0.001312 -0.009302 0.018819 0.000000 -0.012064 0.000000
# 4 0.000000 0.000000 0.000000 0.036260 0.000000 -0.003302
# 5 -0.003691 0.009773 -0.012064 0.000000 0.047558 0.000000
# 6 0.000000 0.000000 0.000000 -0.003302 0.000000 0.048049
#
#
# Mechanical properties :
#
#
# Convention : Reuss Voigt Hill
#
# Bulk Modulus (GPa) = 55.17195 57.77497 56.47346
# Shear Modulus (GPa) = 21.66808 24.36484 23.01646
#
# Velocity S-wave (km/s) = 3.43387 3.64129 3.53910
# Velocity P-wave (km/s) = 6.76357 7.00850 6.88712
#
# Compressibility (1/GPa) = 0.01812515
#
# Stress axis : x y z
#
# Youngs Moduli (GPa) = 64.36537 47.32581 53.13833
#
# Poissons Ratio (x) = 0.38174 0.06970
# Poissons Ratio (y) = 0.51919 0.49430
# Poissons Ratio (z) = 0.08442 0.44023
#
# Static dielectric constant tensor:
#      x y z
#    x 1.636820 0.000000 0.017250 
#    y 0.000000 1.901890 0.000000 
#    z 0.017250 0.000000 1.665750 
# 
# From -- ./inp_files/60964.got.cif
#   From: 2010.05.17/outbox.cif.g08.bks.cpg/sg10_31_cif.got.tgz:60964.got - 2010.06.03 11:33:40.
