data_PCOD9149774
_publ_section_title
;
Structure prediction by ZEFSAII (Michael W. Deem and Ramdas Pophale) SiO2 
 PCOD9149774
Probable space group: P 2/M
;
_chemical_formula_sum "Si O2"
_cell_formula_units_Z 24
_cell_length_a 25.979168
_cell_length_b 7.522770
_cell_length_c 8.154462
_cell_angle_alpha 90.000000
_cell_angle_beta 34.340832
_cell_angle_gamma 90.000000
_cell_volume 899.012430
_symmetry_space_group_name_H-M "P 2/M"
_symmetry_group_IT_number 10
_symmetry_cell_setting 'monoclinic'
loop_
_space_group_symop_operation_xyz
x,y,z
-x,y,-z
-x,-y,-z
x,-y,z
loop_
_atom_site_type_symbol
_atom_site_label
_atom_site_fract_x
_atom_site_fract_y
_atom_site_fract_z
Si Si1 0.440075 0.297804 0.514243
Si Si2 0.778984 0.714541 0.616981
Si Si3 0.721354 0.713162 0.272485
Si Si4 0.393539 0.798496 0.104760
Si Si5 0.891233 0.715533 0.651142
Si Si6 0.058581 0.708462 0.016649
O O1 0.500000 0.210583 0.500000
O O2 0.418008 0.500000 0.626457
O O3 0.348165 0.217320 0.683895
O O4 0.514169 0.305891 0.172361
O O5 0.776373 0.500000 0.611898
O O6 0.677104 0.780477 0.860651
O O7 0.828261 0.754863 0.657791
O O8 0.845287 0.783674 0.297103
O O9 0.725694 0.500000 0.240706
O O10 0.669294 0.744509 0.577991
O O11 0.825431 0.775850 0.971864
O O12 0.421921 0.000000 0.052281
O O13 0.901487 0.500000 0.635415
O O14 0.991802 0.781231 0.333906
O O15 0.074658 0.500000 0.014488
O O16 0.000000 0.710693 0.000000
#
# Coordination Sequence:
#
# PCOD9149774 Si02
#       6
#     4   4   4   4   4   4
#     4  10  21  39  63  86 103 125 165 215 264 313
#     4   9  16  31  56  81 105 135 174 219 263 308
#     4  10  20  35  56  79 105 137 171 210 258 312
#     4  12  25  37  50  73 109 147 178 210 251 302
#     4   8  14  28  54  85 107 127 167 221 269 310
#     4   7  11  22  47  82 109 127 159 215 271 309
#
# _framework density 26.695958999999998
#
# number of rings (size 3 to 8) (size 9 to 14) (size 15 to 20)
#    0.000    2.667    0.000    5.000    0.000    5.667 
#    0.000    3.333    0.000   10.500    0.000    0.000 
#    0.000    0.000    0.000    0.000    0.000    0.000 
#
# Total GULP energy -134167.474987 kJ/mol
# GULP energy per Si atom -5590.311458 kJ/mol
# Density = 2.663520 g / cm^3
# Si number density = 26.695959 Si / 1000 Ang^3
#
#
#
# Elastic Constant Matrix: (Units=GPa)
#
#
# Indices 1 2 3 4 5 6 
#
# 1 89.5477 -9.0583 27.5248 0.0000 -13.2432 0.0000
# 2 -9.0583 74.2567 9.0678 0.0000 -4.8761 0.0000
# 3 27.5248 9.0678 196.8810 0.0000 -8.7101 0.0000
# 4 0.0000 0.0000 0.0000 -81.7229 0.0000 29.3336
# 5 -13.2432 -4.8761 -8.7101 0.0000 55.1028 0.0000
# 6 0.0000 0.0000 0.0000 29.3336 0.0000 14.9006
#
#
#
# Elastic Compliance Matrix: (Units=1/GPa)
#
#
# Indices 1 2 3 4 5 6 
#
# 1 0.012298 0.001893 -0.001680 0.000000 0.002858 0.000000
# 2 0.001893 0.013902 -0.000836 0.000000 0.001553 0.000000
# 3 -0.001680 -0.000836 0.005369 0.000000 0.000371 0.000000
# 4 0.000000 0.000000 0.000000 -0.007170 0.000000 0.014115
# 5 0.002858 0.001553 0.000371 0.000000 0.019031 0.000000
# 6 0.000000 0.000000 0.000000 0.014115 0.000000 0.039324
#
#
# Mechanical properties :
#
#
# Convention : Reuss Voigt Hill
#
# Bulk Modulus (GPa) = 32.97948 46.19490 39.58719
# Shear Modulus (GPa) = 53.13080 19.86618 36.49849
#
# Velocity S-wave (km/s) = 4.46603 2.73090 3.70157
# Velocity P-wave (km/s) = 6.24295 5.22354 5.75586
#
# Compressibility (1/GPa) = 0.03032189
#
# Stress axis : x y z
#
# Youngs Moduli (GPa) = 81.31595 71.93318 186.25410
#
# Poissons Ratio (x) = -0.13617 0.31291
# Poissons Ratio (y) = -0.15393 0.15575
# Poissons Ratio (z) = 0.13661 0.06015
#
# Static dielectric constant tensor:
#      x y z
#    x 2.155260 0.000000 0.077450 
#    y 0.000000 2.046260 0.000000 
#    z 0.077450 0.000000 2.112490 
# 
# From -- ./inp_files/37863.got.cif
#   From: 2010.05.17/outbox.cif.g08.bks.cpg/sg10_19_cif.got.tgz:37863.got - 2010.06.03 11:33:40.
