data_PCOD9149017
_publ_section_title
;
Structure prediction by ZEFSAII (Michael W. Deem and Ramdas Pophale) SiO2 
 PCOD9149017
Probable space group: P 2/M
;
_chemical_formula_sum "Si O2"
_cell_formula_units_Z 28
_cell_length_a 15.673506
_cell_length_b 20.281554
_cell_length_c 9.343037
_cell_angle_alpha 90.000000
_cell_angle_beta 28.561719
_cell_angle_gamma 90.000000
_cell_volume 1419.969017
_symmetry_space_group_name_H-M "P 2/M"
_symmetry_group_IT_number 10
_symmetry_cell_setting 'monoclinic'
loop_
_space_group_symop_operation_xyz
x,y,z
-x,y,-z
-x,-y,-z
x,-y,z
loop_
_atom_site_type_symbol
_atom_site_label
_atom_site_fract_x
_atom_site_fract_y
_atom_site_fract_z
Si Si1 0.962393 0.187304 0.889620
Si Si2 0.188359 0.423910 0.134420
Si Si3 0.306517 0.073947 0.711114
Si Si4 0.969011 0.338655 0.876859
Si Si5 0.193098 0.811194 0.290637
Si Si6 0.538437 0.925394 0.110839
Si Si7 0.325234 0.329073 0.160831
O O1 0.821710 0.132028 0.052021
O O2 0.899994 0.263173 0.963826
O O3 0.000000 0.177941 0.000000
O O4 0.140501 0.179751 0.534247
O O5 0.238371 0.500000 0.041911
O O6 0.154772 0.387732 0.032449
O O7 0.320389 0.383839 0.043798
O O8 0.000000 0.421900 0.500000
O O9 0.500000 0.077136 0.500000
O O10 0.358789 0.082302 0.467491
O O11 0.232808 0.000000 0.842387
O O12 0.158148 0.339631 0.514561
O O13 0.000000 0.352938 0.000000
O O14 0.292610 0.741535 0.133672
O O15 0.000000 0.807587 0.500000
O O16 0.317117 0.870848 0.060639
O O17 0.604234 0.000000 0.043110
O O18 0.500000 0.919477 0.000000
O O19 0.500000 0.329021 0.000000
#
# Coordination Sequence:
#
# PCOD9149017 Si02
#       7
#     4   4   4   4   4   4   4
#     4  10  20  34  52  75 104 137 175 217 260 315
#     4   9  18  35  59  84 112 147 182 215 261 324
#     4  10  21  36  52  73 103 137 174 217 266 317
#     4   9  19  36  55  82 112 141 181 223 266 317
#     4  11  21  34  54  78 105 138 181 227 267 317
#     4  10  21  36  53  76 106 138 176 223 272 321
#     4  10  20  35  56  81 110 144 182 224 269 318
#
# _framework density 19.718741999999999
#
# number of rings (size 3 to 8) (size 9 to 14) (size 15 to 20)
#    0.000    2.143    0.000    4.286    0.000    4.000 
#    0.000    0.714    0.000    0.857    0.000    0.000 
#    0.000    0.000    0.000    0.000    0.000    0.000 
#
# Total GULP energy -156281.171855 kJ/mol
# GULP energy per Si atom -5581.470423 kJ/mol
# Density = 1.967386 g / cm^3
# Si number density = 19.718742 Si / 1000 Ang^3
#
#
#
# Elastic Constant Matrix: (Units=GPa)
#
#
# Indices 1 2 3 4 5 6 
#
# 1 100.2185 78.7039 15.5526 0.0000 -0.4235 0.0000
# 2 78.7039 183.8641 44.2933 0.0000 -18.3566 0.0000
# 3 15.5526 44.2933 20.6505 0.0000 2.1587 0.0000
# 4 0.0000 0.0000 0.0000 11.4762 0.0000 1.8486
# 5 -0.4235 -18.3566 2.1587 0.0000 37.4205 0.0000
# 6 0.0000 0.0000 0.0000 1.8486 0.0000 29.0161
#
#
#
# Elastic Compliance Matrix: (Units=1/GPa)
#
#
# Indices 1 2 3 4 5 6 
#
# 1 0.016034 -0.009467 0.008750 0.000000 -0.004967 0.000000
# 2 -0.009467 0.018985 -0.034763 0.000000 0.011211 0.000000
# 3 0.008750 -0.034763 0.118888 0.000000 -0.023813 0.000000
# 4 0.000000 0.000000 0.000000 0.088040 0.000000 -0.005609
# 5 -0.004967 0.011211 -0.023813 0.000000 0.033541 0.000000
# 6 0.000000 0.000000 0.000000 -0.005609 0.000000 0.034821
#
#
# Mechanical properties :
#
#
# Convention : Reuss Voigt Hill
#
# Bulk Modulus (GPa) = 12.05604 64.64810 38.35207
# Shear Modulus (GPa) = 12.22735 26.66145 19.44440
#
# Velocity S-wave (km/s) = 2.49286 3.68106 3.14361
# Velocity P-wave (km/s) = 3.79645 7.13605 5.71561
#
# Compressibility (1/GPa) = 0.08294598
#
# Stress axis : x y z
#
# Youngs Moduli (GPa) = 62.36640 52.67261 8.41128
#
# Poissons Ratio (x) = 0.49867 -0.07360
# Poissons Ratio (y) = 0.59044 0.29240
# Poissons Ratio (z) = -0.54569 1.83107
#
# Static dielectric constant tensor:
#      x y z
#    x 1.735370 0.000000 0.031320 
#    y 0.000000 1.692880 0.000000 
#    z 0.031320 0.000000 1.681470 
# 
# From -- ./inp_files/30369.got.cif
#   From: 2010.05.17/outbox.cif.g08.bks.cpg/sg10_16_cif.got.tgz:30369.got - 2010.06.03 11:33:40.
