data_PCOD9149055
_publ_section_title
;
Structure prediction by ZEFSAII (Michael W. Deem and Ramdas Pophale) SiO2 
 PCOD9149055
Probable space group: P 2/M
;
_chemical_formula_sum "Si O2"
_cell_formula_units_Z 32
_cell_length_a 18.318192
_cell_length_b 10.753612
_cell_length_c 24.436491
_cell_angle_alpha 90.000000
_cell_angle_beta 22.187623
_cell_angle_gamma 90.000000
_cell_volume 1817.835954
_symmetry_space_group_name_H-M "P 2/M"
_symmetry_group_IT_number 10
_symmetry_cell_setting 'monoclinic'
loop_
_space_group_symop_operation_xyz
x,y,z
-x,y,-z
-x,-y,-z
x,-y,z
loop_
_atom_site_type_symbol
_atom_site_label
_atom_site_fract_x
_atom_site_fract_y
_atom_site_fract_z
Si Si1 0.427334 0.740840 0.386924
Si Si2 0.654236 0.854315 0.440097
Si Si3 0.406961 0.648436 0.237182
Si Si4 0.909351 0.352049 0.457335
Si Si5 0.345866 0.650317 0.152061
Si Si6 0.800280 0.634022 0.172081
Si Si7 0.620752 0.138860 0.155576
Si Si8 0.921606 0.858631 0.161124
O O1 0.368674 0.781318 0.488212
O O2 0.242763 0.688316 0.483236
O O3 0.610432 0.648761 0.266510
O O4 0.512607 0.848171 0.288712
O O5 0.500000 0.818833 0.500000
O O6 0.859254 0.840279 0.267303
O O7 0.624127 0.000000 0.472586
O O8 0.449510 0.500000 0.217065
O O9 0.197481 0.673742 0.410622
O O10 0.407344 0.671642 0.172202
O O11 0.547423 0.745664 0.169988
O O12 0.926951 0.500000 0.442649
O O13 0.125576 0.300916 0.299389
O O14 0.338568 0.500000 0.150742
O O15 0.500000 0.696543 0.000000
O O16 0.788109 0.500000 0.209744
O O17 0.815894 0.754691 0.199066
O O18 0.000000 0.634022 0.000000
O O19 0.583715 0.000000 0.158365
O O20 0.849931 0.151129 0.005078
O O21 0.861794 0.000000 0.187387
#
# Coordination Sequence:
#
# PCOD9149055 Si02
#       8
#     4   4   4   4   4   4   4   4
#     4  11  20  34  54  79 106 143 185 226 278 324
#     4  10  20  34  53  73 100 137 184 235 277 321
#     4   9  18  33  56  81 109 141 176 216 268 320
#     4   9  18  32  51  76 107 141 178 220 265 321
#     4   9  17  31  54  83 109 137 177 219 259 315
#     4  11  22  35  53  79 110 141 179 232 282 322
#     4  10  21  35  55  81 109 141 184 229 269 319
#     4  10  21  37  54  76 103 142 187 226 273 326
#
# _framework density 17.603349999999999
#
# number of rings (size 3 to 8) (size 9 to 14) (size 15 to 20)
#    0.000    2.125    2.500    1.125    0.000    4.250 
#    0.000    1.875    0.000    7.125    0.000    0.000 
#    0.000    0.000    0.000    0.000    0.000    0.000 
#
# Total GULP energy -178223.761714 kJ/mol
# GULP energy per Si atom -5569.492554 kJ/mol
# Density = 1.756328 g / cm^3
# Si number density = 17.603350 Si / 1000 Ang^3
#
#
#
# Elastic Constant Matrix: (Units=GPa)
#
#
# Indices 1 2 3 4 5 6 
#
# 1 76.4466 33.9542 30.7134 0.0000 11.7991 0.0000
# 2 33.9542 77.4565 30.3451 0.0000 -3.4740 0.0000
# 3 30.7134 30.3451 63.6608 0.0000 7.6116 0.0000
# 4 0.0000 0.0000 0.0000 5.3229 0.0000 4.6994
# 5 11.7991 -3.4740 7.6116 0.0000 26.1171 0.0000
# 6 0.0000 0.0000 0.0000 4.6994 0.0000 -8.0985
#
#
#
# Elastic Compliance Matrix: (Units=1/GPa)
#
#
# Indices 1 2 3 4 5 6 
#
# 1 0.019472 -0.006897 -0.005124 0.000000 -0.008221 0.000000
# 2 -0.006897 0.018839 -0.006553 0.000000 0.007532 0.000000
# 3 -0.005124 -0.006553 0.021894 0.000000 -0.004938 0.000000
# 4 0.000000 0.000000 0.000000 0.124227 0.000000 0.072085
# 5 -0.008221 0.007532 -0.004938 0.000000 0.044444 0.000000
# 6 0.000000 0.000000 0.000000 0.072085 0.000000 -0.081650
#
#
# Mechanical properties :
#
#
# Convention : Reuss Voigt Hill
#
# Bulk Modulus (GPa) = 43.36987 45.28770 44.32878
# Shear Modulus (GPa) = 26.03362 12.83837 19.43600
#
# Velocity S-wave (km/s) = 3.84982 2.70351 3.32642
# Velocity P-wave (km/s) = 6.66725 5.96053 6.32377
#
# Compressibility (1/GPa) = 0.02305748
#
# Stress axis : x y z
#
# Youngs Moduli (GPa) = 51.35621 53.08133 45.67434
#
# Poissons Ratio (x) = 0.36611 0.23402
# Poissons Ratio (y) = 0.35421 0.29930
# Poissons Ratio (z) = 0.26313 0.34784
#
# Static dielectric constant tensor:
#      x y z
#    x 1.591670 0.000000 0.002810 
#    y 0.000000 1.607540 0.000000 
#    z 0.002810 0.000000 1.639660 
# 
# From -- ./inp_files/90198.got.cif
#   From: 2010.05.17/outbox.cif.g08.bks.cpg/sg10_46_cif.got.tgz:90198.got - 2010.06.03 11:33:40.
