data_PCOD9149630
_publ_section_title
;
Structure prediction by ZEFSAII (Michael W. Deem and Ramdas Pophale) SiO2 
 PCOD9149630
Probable space group: P 2/M
;
_chemical_formula_sum "Si O2"
_cell_formula_units_Z 32
_cell_length_a 9.962547
_cell_length_b 13.384928
_cell_length_c 28.877625
_cell_angle_alpha 90.000000
_cell_angle_beta 150.987647
_cell_angle_gamma 90.000000
_cell_volume 1867.617788
_symmetry_space_group_name_H-M "P 2/M"
_symmetry_group_IT_number 10
_symmetry_cell_setting 'monoclinic'
loop_
_space_group_symop_operation_xyz
x,y,z
-x,y,-z
-x,-y,-z
x,-y,z
loop_
_atom_site_type_symbol
_atom_site_label
_atom_site_fract_x
_atom_site_fract_y
_atom_site_fract_z
Si Si1 0.859589 0.690029 0.316170
Si Si2 0.158045 0.620330 0.001280
Si Si3 0.796038 0.619149 0.193381
Si Si4 0.709653 0.884262 0.432561
Si Si5 0.657498 0.381241 0.787040
Si Si6 0.194379 0.112334 0.428552
Si Si7 0.320461 0.292156 0.306837
Si Si8 0.386564 0.615711 0.515730
O O1 0.873093 0.636779 0.270467
O O2 0.555755 0.679142 0.245261
O O3 0.981454 0.801818 0.349471
O O4 0.061271 0.633673 0.412924
O O5 0.174371 0.500000 0.011076
O O6 0.964652 0.641138 0.898937
O O7 0.476088 0.651626 0.092199
O O8 0.000000 0.656887 0.000000
O O9 0.825874 0.500000 0.191680
O O10 0.003772 0.685293 0.225370
O O11 0.756581 0.882276 0.501726
O O12 0.444030 0.818981 0.338589
O O13 0.000000 0.843792 0.500000
O O14 0.679487 0.000000 0.408737
O O15 0.608983 0.500000 0.778943
O O16 0.623511 0.351218 0.723572
O O17 0.500000 0.126275 0.500000
O O18 0.099695 0.000000 0.387882
O O19 0.488791 0.332100 0.402156
O O20 0.500000 0.651908 0.500000
O O21 0.457443 0.500000 0.540595
#
# Coordination Sequence:
#
# PCOD9149630 Si02
#       8
#     4   4   4   4   4   4   4   4
#     4  12  20  33  54  78 105 148 186 217 265 328
#     4   9  18  36  58  79 104 144 189 228 265 316
#     4  11  21  35  57  80 110 149 188 222 265 332
#     4  10  21  39  57  73 103 149 190 225 265 320
#     4  11  23  36  53  81 114 141 181 230 271 319
#     4  10  20  35  54  77 104 138 185 237 271 304
#     4  12  23  35  53  83 114 142 181 230 277 314
#     4  11  21  32  48  73 114 156 183 203 253 334
#
# _framework density 17.134126999999999
#
# number of rings (size 3 to 8) (size 9 to 14) (size 15 to 20)
#    0.000    1.250    3.750    4.125    0.000    0.500 
#    0.000    3.125    0.000    0.000    0.000    5.250 
#    0.000    0.000    0.000    0.000    0.000    0.000 
#
# Total GULP energy -178548.022300 kJ/mol
# GULP energy per Si atom -5579.625697 kJ/mol
# Density = 1.709513 g / cm^3
# Si number density = 17.134127 Si / 1000 Ang^3
#
#
#
# Elastic Constant Matrix: (Units=GPa)
#
#
# Indices 1 2 3 4 5 6 
#
# 1 86.3746 23.0766 22.0173 0.0000 16.8818 0.0000
# 2 23.0766 86.9383 33.5951 0.0000 11.4512 0.0000
# 3 22.0173 33.5951 83.9355 0.0000 18.6235 0.0000
# 4 0.0000 0.0000 0.0000 9.6367 0.0000 7.3250
# 5 16.8818 11.4512 18.6235 0.0000 33.6543 0.0000
# 6 0.0000 0.0000 0.0000 7.3250 0.0000 20.8932
#
#
#
# Elastic Compliance Matrix: (Units=1/GPa)
#
#
# Indices 1 2 3 4 5 6 
#
# 1 0.013599 -0.002356 -0.001469 0.000000 -0.005207 0.000000
# 2 -0.002356 0.014116 -0.004820 0.000000 -0.000954 0.000000
# 3 -0.001469 -0.004820 0.015619 0.000000 -0.006266 0.000000
# 4 0.000000 0.000000 0.000000 0.141471 0.000000 -0.049599
# 5 -0.005207 -0.000954 -0.006266 0.000000 0.036118 0.000000
# 6 0.000000 0.000000 0.000000 -0.049599 0.000000 0.065251
#
#
# Mechanical properties :
#
#
# Convention : Reuss Voigt Hill
#
# Bulk Modulus (GPa) = 38.39735 46.06960 42.23347
# Shear Modulus (GPa) = 16.01812 24.74080 20.37946
#
# Velocity S-wave (km/s) = 3.06088 3.80405 3.45252
# Velocity P-wave (km/s) = 5.91189 6.80003 6.37146
#
# Compressibility (1/GPa) = 0.02604347
#
# Stress axis : x y z
#
# Youngs Moduli (GPa) = 73.53415 70.84084 64.02536
#
# Poissons Ratio (x) = 0.16692 0.09404
# Poissons Ratio (y) = 0.17327 0.30862
# Poissons Ratio (z) = 0.10800 0.34147
#
# Static dielectric constant tensor:
#      x y z
#    x 1.591150 0.000000 0.029330 
#    y 0.000000 1.600470 0.000000 
#    z 0.029330 0.000000 1.592350 
# 
# From -- ./inp_files/92386.got.cif
#   From: 2010.05.17/outbox.cif.g08.bks.cpg/sg10_47_cif.got.tgz:92386.got - 2010.06.03 11:33:40.
