data_PCOD9149304
_publ_section_title
;
Structure prediction by ZEFSAII (Michael W. Deem and Ramdas Pophale) SiO2 
 PCOD9149304
Probable space group: P 2/M
;
_chemical_formula_sum "Si O2"
_cell_formula_units_Z 28
_cell_length_a 14.141937
_cell_length_b 9.413956
_cell_length_c 20.767795
_cell_angle_alpha 90.000000
_cell_angle_beta 149.044306
_cell_angle_gamma 90.000000
_cell_volume 1422.169549
_symmetry_space_group_name_H-M "P 2/M"
_symmetry_group_IT_number 10
_symmetry_cell_setting 'monoclinic'
loop_
_space_group_symop_operation_xyz
x,y,z
-x,y,-z
-x,-y,-z
x,-y,z
loop_
_atom_site_type_symbol
_atom_site_label
_atom_site_fract_x
_atom_site_fract_y
_atom_site_fract_z
Si Si1 0.918136 0.332226 0.169492
Si Si2 0.693156 0.662982 0.281461
Si Si3 0.684685 0.332236 0.644911
Si Si4 0.735522 0.336593 0.929376
Si Si5 0.770005 0.835431 0.449612
Si Si6 0.348120 0.167483 0.243606
Si Si7 0.851635 0.167344 0.256470
O O1 0.875416 0.500000 0.153123
O O2 0.137881 0.314594 0.296386
O O3 0.831663 0.241002 0.175818
O O4 0.849787 0.290895 0.058446
O O5 0.751419 0.500000 0.306372
O O6 0.477041 0.664808 0.172184
O O7 0.788761 0.734270 0.399085
O O8 0.733090 0.754032 0.241517
O O9 0.500000 0.289728 0.500000
O O10 0.671081 0.500000 0.653232
O O11 0.706541 0.244019 0.722687
O O12 0.785292 0.500000 0.942589
O O13 0.748452 0.239099 0.874322
O O14 0.568968 0.811578 0.362886
O O15 0.936845 0.814891 0.596160
O O16 0.775764 0.000000 0.430814
O O17 0.312432 0.000000 0.224965
O O18 0.811198 0.000000 0.230357
#
# Coordination Sequence:
#
# PCOD9149304 Si02
#       7
#     4   4   4   4   4   4   4
#     4  10  22  39  57  77 105 142 182 222 262 312
#     4  10  20  34  55  80 105 138 181 224 263 311
#     4  10  21  37  58  84 111 139 174 218 267 317
#     4   9  20  39  58  77 105 142 182 221 262 311
#     4   9  19  35  53  78 111 143 175 214 266 322
#     4  10  20  35  58  83 109 142 177 218 265 315
#     4  11  22  35  53  78 110 144 176 218 271 320
#
# _framework density 19.688229
#
# number of rings (size 3 to 8) (size 9 to 14) (size 15 to 20)
#    0.000    2.143    0.000    2.571    0.000    6.571 
#    0.000    5.714    0.000    0.000    0.000    0.000 
#    0.000    0.000    0.000    0.000    0.000    0.000 
#
# Total GULP energy -156450.878853 kJ/mol
# GULP energy per Si atom -5587.531388 kJ/mol
# Density = 1.964342 g / cm^3
# Si number density = 19.688229 Si / 1000 Ang^3
#
#
#
# Elastic Constant Matrix: (Units=GPa)
#
#
# Indices 1 2 3 4 5 6 
#
# 1 84.8439 66.4344 2.2286 0.0000 -33.0889 0.0000
# 2 66.4344 85.9918 17.8296 0.0000 -26.0910 0.0000
# 3 2.2286 17.8296 36.6840 0.0000 -15.6098 0.0000
# 4 0.0000 0.0000 0.0000 48.0626 0.0000 -33.6592
# 5 -33.0889 -26.0910 -15.6098 0.0000 26.2859 0.0000
# 6 0.0000 0.0000 0.0000 -33.6592 0.0000 60.4147
#
#
#
# Elastic Compliance Matrix: (Units=1/GPa)
#
#
# Indices 1 2 3 4 5 6 
#
# 1 0.086354 -0.050570 0.059185 0.000000 0.093656 0.000000
# 2 -0.050570 0.046310 -0.036081 0.000000 -0.039118 0.000000
# 3 0.059185 -0.036081 0.077163 0.000000 0.084512 0.000000
# 4 0.000000 0.000000 0.000000 0.034118 0.000000 0.019008
# 5 0.093656 -0.039118 0.084512 0.000000 0.167297 0.000000
# 6 0.000000 0.000000 0.000000 0.019008 0.000000 0.027143
#
#
# Mechanical properties :
#
#
# Convention : Reuss Voigt Hill
#
# Bulk Modulus (GPa) = 6.45601 42.27830 24.36716
# Shear Modulus (GPa) = 9.17520 35.02111 22.09815
#
# Velocity S-wave (km/s) = 2.16110 4.22214 3.35386
# Velocity P-wave (km/s) = 3.08438 6.72972 5.23462
#
# Compressibility (1/GPa) = 0.15489436
#
# Stress axis : x y z
#
# Youngs Moduli (GPa) = 11.58022 21.59378 12.95964
#
# Poissons Ratio (x) = 1.09199 -0.76702
# Poissons Ratio (y) = 0.58561 0.46760
# Poissons Ratio (z) = -0.68537 0.77914
#
# Static dielectric constant tensor:
#      x y z
#    x 1.661950 0.000000 0.030820 
#    y 0.000000 1.664880 0.000000 
#    z 0.030820 0.000000 1.705600 
# 
# From -- ./inp_files/49627.got.cif
#   From: 2010.05.17/outbox.cif.g08.bks.cpg/sg10_25_cif.got.tgz:49627.got - 2010.06.03 11:33:40.
