data_PCOD9149226
_publ_section_title
;
Structure prediction by ZEFSAII (Michael W. Deem and Ramdas Pophale) SiO2 
 PCOD9149226
Probable space group: P 2/M
;
_chemical_formula_sum "Si O2"
_cell_formula_units_Z 26
_cell_length_a 10.624015
_cell_length_b 20.805183
_cell_length_c 7.682786
_cell_angle_alpha 90.000000
_cell_angle_beta 135.881968
_cell_angle_gamma 90.000000
_cell_volume 1182.155951
_symmetry_space_group_name_H-M "P 2/M"
_symmetry_group_IT_number 10
_symmetry_cell_setting 'monoclinic'
loop_
_space_group_symop_operation_xyz
x,y,z
-x,y,-z
-x,-y,-z
x,-y,z
loop_
_atom_site_type_symbol
_atom_site_label
_atom_site_fract_x
_atom_site_fract_y
_atom_site_fract_z
Si Si1 0.503745 0.827551 0.293411
Si Si2 0.719975 0.429044 0.602407
Si Si3 0.627501 0.691978 0.284242
Si Si4 0.000000 0.323319 0.500000
Si Si5 0.865530 0.429956 0.120583
Si Si6 0.795627 0.928960 0.584129
Si Si7 0.789308 0.928288 0.002580
O O1 0.500000 0.826270 0.500000
O O2 0.528937 0.755609 0.255664
O O3 0.671106 0.871484 0.400551
O O4 0.329846 0.868002 0.059996
O O5 0.642056 0.500000 0.484617
O O6 0.638965 0.367019 0.430049
O O7 0.928596 0.431962 0.746031
O O8 0.736261 0.421454 0.826669
O O9 0.838180 0.710426 0.446114
O O10 0.500000 0.670059 0.000000
O O11 0.123349 0.370701 0.739826
O O12 0.827523 0.500000 0.165179
O O13 0.788202 0.928553 0.789018
O O14 0.732590 0.000000 0.466958
O O15 0.003169 0.921587 0.737443
O O16 0.724953 0.000000 0.991085
#
# Coordination Sequence:
#
# PCOD9149226 Si02
#       7
#     4   4   4   2   4   4   4
#     4  10  20  34  54  80 112 149 188 234 287 342
#     4   8  16  34  59  86 113 143 189 246 296 346
#     4  11  25  40  55  80 116 159 202 242 290 347
#     4  10  21  38  58  82 117 156 188 230 286 348
#     4   8  14  30  60  90 112 140 181 234 298 357
#     4   8  14  27  51  84 114 138 174 227 288 348
#     4   8  14  27  51  84 115 140 175 230 289 343
#
# _framework density 21.993714000000001
#
# number of rings (size 3 to 8) (size 9 to 14) (size 15 to 20)
#    0.000    3.077    0.000    2.538    0.000    5.231 
#    0.000   10.769    0.000    4.154    0.000    4.308 
#    0.000    0.000    0.000    2.769    0.000    0.000 
#
# Total GULP energy -145070.567787 kJ/mol
# GULP energy per Si atom -5579.637223 kJ/mol
# Density = 2.194366 g / cm^3
# Si number density = 21.993714 Si / 1000 Ang^3
#
#
#
# Elastic Constant Matrix: (Units=GPa)
#
#
# Indices 1 2 3 4 5 6 
#
# 1 58.2797 40.8089 26.2695 0.0000 22.3793 0.0000
# 2 40.8089 165.1822 60.4909 0.0000 12.4299 0.0000
# 3 26.2695 60.4909 70.7934 0.0000 8.1815 0.0000
# 4 0.0000 0.0000 0.0000 353.0653 0.0000 -28.3643
# 5 22.3793 12.4299 8.1815 0.0000 29.3130 0.0000
# 6 0.0000 0.0000 0.0000 -28.3643 0.0000 16.8271
#
#
#
# Elastic Compliance Matrix: (Units=1/GPa)
#
#
# Indices 1 2 3 4 5 6 
#
# 1 0.029911 -0.003898 -0.005498 0.000000 -0.019649 0.000000
# 2 -0.003898 0.009401 -0.006685 0.000000 0.000855 0.000000
# 3 -0.005498 -0.006685 0.021767 0.000000 0.000957 0.000000
# 4 0.000000 0.000000 0.000000 0.003276 0.000000 0.005522
# 5 -0.019649 0.000855 0.000957 0.000000 0.048486 0.000000
# 6 0.000000 0.000000 0.000000 0.005522 0.000000 0.068736
#
#
# Mechanical properties :
#
#
# Convention : Reuss Voigt Hill
#
# Bulk Modulus (GPa) = 34.58094 61.04375 47.81234
# Shear Modulus (GPa) = 22.38361 90.95348 56.66855
#
# Velocity S-wave (km/s) = 3.19365 6.43771 5.08151
# Velocity P-wave (km/s) = 5.41815 9.11450 7.49768
#
# Compressibility (1/GPa) = 0.02891767
#
# Stress axis : x y z
#
# Youngs Moduli (GPa) = 33.43235 106.37593 45.94028
#
# Poissons Ratio (x) = 0.41462 0.25258
# Poissons Ratio (y) = 0.13031 0.30711
# Poissons Ratio (z) = 0.18381 0.71113
#
# Static dielectric constant tensor:
#      x y z
#    x 1.886720 0.000000 -0.016460 
#    y 0.000000 1.783700 0.000000 
#    z -0.016460 0.000000 1.796300 
# 
# From -- ./inp_files/26119.got.cif
#   From: 2010.05.17/outbox.cif.g08.bks.cpg/sg10_14_cif.got.tgz:26119.got - 2010.06.03 11:33:40.
