data_PCOD9149926
_publ_section_title
;
Structure prediction by ZEFSAII (Michael W. Deem and Ramdas Pophale) SiO2 
 PCOD9149926
Probable space group: P 2/M
;
_chemical_formula_sum "Si O2"
_cell_formula_units_Z 32
_cell_length_a 14.534783
_cell_length_b 8.823542
_cell_length_c 14.528676
_cell_angle_alpha 90.000000
_cell_angle_beta 87.001963
_cell_angle_gamma 90.000000
_cell_volume 1860.727320
_symmetry_space_group_name_H-M "P 2/M"
_symmetry_group_IT_number 10
_symmetry_cell_setting 'monoclinic'
loop_
_space_group_symop_operation_xyz
x,y,z
-x,y,-z
-x,-y,-z
x,-y,z
loop_
_atom_site_type_symbol
_atom_site_label
_atom_site_fract_x
_atom_site_fract_y
_atom_site_fract_z
Si Si1 0.782612 0.182187 0.858516
Si Si2 0.636854 0.181698 0.719359
Si Si3 0.454767 0.319435 0.807164
Si Si4 0.842373 0.179352 0.192489
Si Si5 0.316551 0.819051 0.950529
Si Si6 0.021257 0.680697 0.103400
Si Si7 0.684577 0.181657 0.335918
Si Si8 0.393512 0.681104 0.479810
O O1 0.731469 0.220838 0.766543
O O2 0.882461 0.252668 0.867382
O O3 0.791294 0.000000 0.863500
O O4 0.716143 0.227752 0.946812
O O5 0.552762 0.241908 0.785843
O O6 0.627666 0.255558 0.619865
O O7 0.630064 0.000000 0.712174
O O8 0.462718 0.500000 0.802896
O O9 0.403234 0.266276 0.902409
O O10 0.389918 0.261168 0.726814
O O11 0.770300 0.208595 0.112999
O O12 0.784555 0.215906 0.287279
O O13 0.935567 0.268516 0.170152
O O14 0.862455 0.000000 0.190883
O O15 0.334933 0.000000 0.948007
O O16 0.027627 0.500000 0.101155
O O17 0.000000 0.734762 0.000000
O O18 0.668503 0.241124 0.438924
O O19 0.671108 0.000000 0.331106
O O20 0.500000 0.714957 0.500000
O O21 0.382139 0.500000 0.482463
#
# Coordination Sequence:
#
# PCOD9149926 Si02
#       8
#     4   4   4   4   4   4   4   4
#     4  10  22  39  58  79 107 148 193 232 273 323
#     4  11  23  38  57  80 108 147 191 232 274 324
#     4  11  21  33  51  78 113 149 183 224 275 329
#     4   9  18  33  56  82 109 142 182 227 273 319
#     4   9  18  34  54  77 107 146 189 228 267 319
#     4  11  22  34  54  85 115 146 182 225 278 330
#     4  10  20  35  57  84 110 142 185 230 273 320
#     4  11  22  36  57  85 113 145 182 224 282 335
#
# _framework density 17.197576999999999
#
# number of rings (size 3 to 8) (size 9 to 14) (size 15 to 20)
#    0.000    1.750    2.500    3.375    0.000    5.500 
#    0.000    2.500    0.000    0.750    0.000    5.250 
#    0.000    0.000    0.000    0.000    0.000    0.000 
#
# Total GULP energy -178719.494032 kJ/mol
# GULP energy per Si atom -5584.984188 kJ/mol
# Density = 1.715843 g / cm^3
# Si number density = 17.197577 Si / 1000 Ang^3
#
#
#
# Elastic Constant Matrix: (Units=GPa)
#
#
# Indices 1 2 3 4 5 6 
#
# 1 98.4731 36.7423 55.3020 0.0000 1.0280 0.0000
# 2 36.7423 44.0108 39.5936 0.0000 2.1455 0.0000
# 3 55.3020 39.5936 100.4778 0.0000 -3.2349 0.0000
# 4 0.0000 0.0000 0.0000 18.5318 0.0000 4.6624
# 5 1.0280 2.1455 -3.2349 0.0000 22.0280 0.0000
# 6 0.0000 0.0000 0.0000 4.6624 0.0000 -20.1770
#
#
#
# Elastic Compliance Matrix: (Units=1/GPa)
#
#
# Indices 1 2 3 4 5 6 
#
# 1 0.016633 -0.008660 -0.005768 0.000000 -0.000780 0.000000
# 2 -0.008660 0.040382 -0.011314 0.000000 -0.005191 0.000000
# 3 -0.005768 -0.011314 0.017713 0.000000 0.003972 0.000000
# 4 0.000000 0.000000 0.000000 0.050997 0.000000 0.011784
# 5 -0.000780 -0.005191 0.003972 0.000000 0.046522 0.000000
# 6 0.000000 0.000000 0.000000 0.011784 0.000000 -0.046838
#
#
# Mechanical properties :
#
#
# Convention : Reuss Voigt Hill
#
# Bulk Modulus (GPa) = 43.01658 56.24859 49.63258
# Shear Modulus (GPa) = 27.07976 11.49814 19.28895
#
# Velocity S-wave (km/s) = 3.97246 2.58852 3.35268
# Velocity P-wave (km/s) = 6.79029 6.45850 6.62647
#
# Compressibility (1/GPa) = 0.02324685
#
# Stress axis : x y z
#
# Youngs Moduli (GPa) = 60.12042 24.76327 56.45569
#
# Poissons Ratio (x) = 0.21444 0.32561
# Poissons Ratio (y) = 0.52061 0.63873
# Poissons Ratio (z) = 0.34675 0.28017
#
# Static dielectric constant tensor:
#      x y z
#    x 1.563050 0.000000 -0.005040 
#    y 0.000000 1.572750 0.000000 
#    z -0.005040 0.000000 1.586310 
# 
# From -- ./inp_files/55396.got.cif
#   From: 2010.05.17/outbox.cif.g08.bks.cpg/sg10_28_cif.got.tgz:55396.got - 2010.06.03 11:33:40.
