data_PCOD9149096
_publ_section_title
;
Structure prediction by ZEFSAII (Michael W. Deem and Ramdas Pophale) SiO2 
 PCOD9149096
Probable space group: P 2/M
;
_chemical_formula_sum "Si O2"
_cell_formula_units_Z 28
_cell_length_a 13.588590
_cell_length_b 14.625926
_cell_length_c 9.128911
_cell_angle_alpha 90.000000
_cell_angle_beta 71.811222
_cell_angle_gamma 90.000000
_cell_volume 1723.675568
_symmetry_space_group_name_H-M "P 2/M"
_symmetry_group_IT_number 10
_symmetry_cell_setting 'monoclinic'
loop_
_space_group_symop_operation_xyz
x,y,z
-x,y,-z
-x,-y,-z
x,-y,z
loop_
_atom_site_type_symbol
_atom_site_label
_atom_site_fract_x
_atom_site_fract_y
_atom_site_fract_z
Si Si1 0.831622 0.899025 0.643382
Si Si2 0.947705 0.101230 0.288936
Si Si3 0.187018 0.609695 0.559797
Si Si4 0.389221 0.390801 0.974914
Si Si5 0.396942 0.611000 0.631822
Si Si6 0.990313 0.295484 0.169673
Si Si7 0.208234 0.293763 0.237525
O O1 0.864204 0.887089 0.458308
O O2 0.770669 0.811790 0.729747
O O3 0.940994 0.899342 0.680405
O O4 0.784744 0.000000 0.683751
O O5 0.948989 0.190433 0.188137
O O6 0.933470 0.000000 0.228461
O O7 0.183013 0.500000 0.552560
O O8 0.292647 0.636718 0.594961
O O9 0.089810 0.647264 0.695871
O O10 0.189436 0.652288 0.397293
O O11 0.367554 0.500000 0.989295
O O12 0.393845 0.361378 0.803043
O O13 0.500000 0.376618 0.000000
O O14 0.300455 0.338669 0.103995
O O15 0.500000 0.643303 0.500000
O O16 0.400829 0.500000 0.629917
O O17 0.102270 0.297231 0.193990
O O18 0.000000 0.330054 0.000000
#
# Coordination Sequence:
#
# PCOD9149096 Si02
#       7
#     4   4   4   4   4   4   4
#     4   8  14  27  49  72  94 124 162 203 245 291
#     4   8  14  28  48  69  95 126 162 204 246 287
#     4  11  22  34  49  70  98 134 172 205 242 293
#     4  10  20  34  53  77 102 128 165 209 247 287
#     4   9  18  34  53  72  96 127 164 207 249 284
#     4  11  22  33  46  71 105 136 166 203 247 301
#     4  11  20  33  52  73  99 132 167 205 249 296
#
# _framework density 16.244356
#
# number of rings (size 3 to 8) (size 9 to 14) (size 15 to 20)
#    0.000    2.286    1.429    3.429    0.000    4.571 
#    0.000    0.000    0.000    0.429    0.000    0.000 
#    0.000    4.000    0.000    0.000    0.000    0.000 
#
# Total GULP energy -156112.525715 kJ/mol
# GULP energy per Si atom -5575.447347 kJ/mol
# Density = 1.620738 g / cm^3
# Si number density = 16.244356 Si / 1000 Ang^3
#
#
#
# Elastic Constant Matrix: (Units=GPa)
#
#
# Indices 1 2 3 4 5 6 
#
# 1 73.1727 43.5477 54.4049 0.0000 -7.3891 0.0000
# 2 43.5477 88.3205 55.6254 0.0000 -11.0212 0.0000
# 3 54.4049 55.6254 140.8078 0.0000 -7.7071 0.0000
# 4 0.0000 0.0000 0.0000 22.0191 0.0000 -4.4692
# 5 -7.3891 -11.0212 -7.7071 0.0000 28.4542 0.0000
# 6 0.0000 0.0000 0.0000 -4.4692 0.0000 3.6955
#
#
#
# Elastic Compliance Matrix: (Units=1/GPa)
#
#
# Indices 1 2 3 4 5 6 
#
# 1 0.022369 -0.007261 -0.005695 0.000000 0.001454 0.000000
# 2 -0.007261 0.017963 -0.004074 0.000000 0.003969 0.000000
# 3 -0.005695 -0.004074 0.010906 0.000000 -0.000103 0.000000
# 4 0.000000 0.000000 0.000000 0.060190 0.000000 0.072791
# 5 0.001454 0.003969 -0.000103 0.000000 0.037031 0.000000
# 6 0.000000 0.000000 0.000000 0.072791 0.000000 0.358626
#
#
# Mechanical properties :
#
#
# Convention : Reuss Voigt Hill
#
# Bulk Modulus (GPa) = 58.21052 67.71742 62.96397
# Shear Modulus (GPa) = 9.14295 20.74863 14.94579
#
# Velocity S-wave (km/s) = 2.37500 3.57779 3.03654
# Velocity P-wave (km/s) = 6.59036 7.67103 7.15114
#
# Compressibility (1/GPa) = 0.01717902
#
# Stress axis : x y z
#
# Youngs Moduli (GPa) = 44.70570 55.66852 91.69452
#
# Poissons Ratio (x) = 0.40422 0.52217
# Poissons Ratio (y) = 0.32461 0.37353
# Poissons Ratio (z) = 0.25458 0.22677
#
# Static dielectric constant tensor:
#      x y z
#    x 1.521220 0.000000 0.011840 
#    y 0.000000 1.565420 0.000000 
#    z 0.011840 0.000000 1.536220 
# 
# From -- ./inp_files/24867.got.cif
#   From: 2010.05.17/outbox.cif.g08.bks.cpg/sg10_13_cif.got.tgz:24867.got - 2010.06.03 11:33:40.
