data_PCOD9149376
_publ_section_title
;
Structure prediction by ZEFSAII (Michael W. Deem and Ramdas Pophale) SiO2 
 PCOD9149376
Probable space group: P 2/M
;
_chemical_formula_sum "Si O2"
_cell_formula_units_Z 32
_cell_length_a 9.696865
_cell_length_b 18.471022
_cell_length_c 12.676157
_cell_angle_alpha 90.000000
_cell_angle_beta 132.737857
_cell_angle_gamma 90.000000
_cell_volume 1667.561234
_symmetry_space_group_name_H-M "P 2/M"
_symmetry_group_IT_number 10
_symmetry_cell_setting 'monoclinic'
loop_
_space_group_symop_operation_xyz
x,y,z
-x,y,-z
-x,-y,-z
x,-y,z
loop_
_atom_site_type_symbol
_atom_site_label
_atom_site_fract_x
_atom_site_fract_y
_atom_site_fract_z
Si Si1 0.408213 0.193852 0.209814
Si Si2 0.820482 0.787526 0.471884
Si Si3 0.548546 0.339434 0.906803
Si Si4 0.111715 0.200252 0.246070
Si Si5 0.213967 0.617403 0.597955
Si Si6 0.700133 0.581935 0.590488
Si Si7 0.038975 0.350268 0.897725
Si Si8 0.133392 0.081747 0.966000
O O1 0.624065 0.174540 0.343846
O O2 0.415834 0.271217 0.153212
O O3 0.287391 0.199904 0.255771
O O4 0.307121 0.132604 0.087780
O O5 0.842261 0.785802 0.608937
O O6 0.801253 0.703869 0.427164
O O7 0.000000 0.816437 0.500000
O O8 0.376277 0.387180 0.770984
O O9 0.500000 0.314489 0.000000
O O10 0.751960 0.377262 0.018685
O O11 0.978276 0.264298 0.133429
O O12 0.996588 0.125653 0.182039
O O13 0.276720 0.582191 0.522169
O O14 0.000000 0.591519 0.500000
O O15 0.500000 0.621266 0.500000
O O16 0.686201 0.500000 0.624943
O O17 0.875155 0.617514 0.739817
O O18 0.000000 0.364160 0.000000
O O19 0.182932 0.000000 0.961287
O O20 0.000000 0.078440 0.000000
#
# Coordination Sequence:
#
# PCOD9149376 Si02
#       8
#     4   4   4   4   4   4   4   4
#     4  10  20  34  55  87 114 151 193 240 297 344
#     4  10  22  34  57  87 116 149 192 250 294 336
#     4  11  22  34  58  92 121 148 194 256 302 340
#     4  11  19  35  58  89 114 147 198 241 292 345
#     4  10  21  39  59  84 114 155 199 237 296 352
#     4  11  25  41  60  85 118 160 193 236 300 358
#     4  12  21  37  61  89 118 150 197 253 293 343
#     4   9  18  34  56  83 118 152 190 240 293 351
#
# _framework density 19.189702
#
# number of rings (size 3 to 8) (size 9 to 14) (size 15 to 20)
#    0.000    1.500    3.750    2.250    5.250    0.500 
#    0.000    1.250    0.000    8.625    0.000    0.000 
#    0.000    0.000    0.000    0.000    0.000    0.000 
#
# Total GULP energy -178426.279722 kJ/mol
# GULP energy per Si atom -5575.821241 kJ/mol
# Density = 1.914603 g / cm^3
# Si number density = 19.189702 Si / 1000 Ang^3
#
#
#
# Elastic Constant Matrix: (Units=GPa)
#
#
# Indices 1 2 3 4 5 6 
#
# 1 123.5611 1.2089 67.9658 0.0000 16.4543 0.0000
# 2 1.2089 28.7880 9.7132 0.0000 15.6323 0.0000
# 3 67.9658 9.7132 126.5001 0.0000 25.9733 0.0000
# 4 0.0000 0.0000 0.0000 20.5187 0.0000 5.9924
# 5 16.4543 15.6323 25.9733 0.0000 37.2235 0.0000
# 6 0.0000 0.0000 0.0000 5.9924 0.0000 15.9597
#
#
#
# Elastic Compliance Matrix: (Units=1/GPa)
#
#
# Indices 1 2 3 4 5 6 
#
# 1 0.011670 0.002669 -0.006053 0.000000 -0.002056 0.000000
# 2 0.002669 0.045635 -0.000888 0.000000 -0.019725 0.000000
# 3 -0.006053 -0.000888 0.012372 0.000000 -0.005584 0.000000
# 4 0.000000 0.000000 0.000000 0.054738 0.000000 -0.020553
# 5 -0.002056 -0.019725 -0.005584 0.000000 0.039954 0.000000
# 6 0.000000 0.000000 0.000000 -0.020553 0.000000 0.070375
#
#
# Mechanical properties :
#
#
# Convention : Reuss Voigt Hill
#
# Bulk Modulus (GPa) = 16.35782 48.51391 32.43586
# Shear Modulus (GPa) = 18.96335 28.07113 23.51724
#
# Velocity S-wave (km/s) = 3.14698 3.82884 3.50453
# Velocity P-wave (km/s) = 4.66342 6.69946 5.77192
#
# Compressibility (1/GPa) = 0.06113285
#
# Stress axis : x y z
#
# Youngs Moduli (GPa) = 85.68728 21.91297 80.82752
#
# Poissons Ratio (x) = -0.05848 0.48925
# Poissons Ratio (y) = -0.22867 0.07177
# Poissons Ratio (z) = 0.51867 0.01946
#
# Static dielectric constant tensor:
#      x y z
#    x 1.732890 0.000000 0.065060 
#    y 0.000000 1.682970 0.000000 
#    z 0.065060 0.000000 1.712430 
# 
# From -- ./inp_files/43611.got.cif
#   From: 2010.05.17/outbox.cif.g08.bks.cpg/sg10_22_cif.got.tgz:43611.got - 2010.06.03 11:33:40.
