data_PCOD9149330
_publ_section_title
;
Structure prediction by ZEFSAII (Michael W. Deem and Ramdas Pophale) SiO2 
 PCOD9149330
Probable space group: P 2/M
;
_chemical_formula_sum "Si O2"
_cell_formula_units_Z 32
_cell_length_a 23.720607
_cell_length_b 15.138915
_cell_length_c 8.050518
_cell_angle_alpha 90.000000
_cell_angle_beta 147.206167
_cell_angle_gamma 90.000000
_cell_volume 1565.803464
_symmetry_space_group_name_H-M "P 2/M"
_symmetry_group_IT_number 10
_symmetry_cell_setting 'monoclinic'
loop_
_space_group_symop_operation_xyz
x,y,z
-x,y,-z
-x,-y,-z
x,-y,z
loop_
_atom_site_type_symbol
_atom_site_label
_atom_site_fract_x
_atom_site_fract_y
_atom_site_fract_z
Si Si1 0.442884 0.902048 0.536124
Si Si2 0.120002 0.287675 0.341937
Si Si3 0.692949 0.598430 0.180484
Si Si4 0.115547 0.718294 0.733116
Si Si5 0.193102 0.903668 0.894703
Si Si6 0.695959 0.599462 0.789873
Si Si7 0.499970 0.713291 0.805975
Si Si8 0.124337 0.094609 0.338356
O O1 0.500000 0.901355 0.500000
O O2 0.486316 0.817013 0.737487
O O3 0.461288 0.000000 0.656246
O O4 0.318176 0.892416 0.203676
O O5 0.198294 0.364180 0.482008
O O6 0.123756 0.282170 0.552460
O O7 0.157785 0.192351 0.363947
O O8 0.000000 0.302310 0.000000
O O9 0.666849 0.500000 0.178402
O O10 0.703112 0.592451 0.006875
O O11 0.604521 0.670384 0.994336
O O12 0.142052 0.818643 0.852692
O O13 0.000000 0.694681 0.500000
O O14 0.201025 0.650654 0.012854
O O15 0.152489 0.906475 0.603861
O O16 0.168356 0.000000 0.908489
O O17 0.685931 0.500000 0.697775
O O18 0.596947 0.659826 0.508301
O O19 0.500000 0.697840 0.000000
O O20 0.164947 0.000000 0.370407
O O21 0.000000 0.094481 0.000000
#
# Coordination Sequence:
#
# PCOD9149330 Si02
#       8
#     4   4   4   4   4   4   4   4
#     4  10  21  38  65  93 117 155 201 239 284 349
#     4   9  19  35  54  82 114 153 189 240 288 347
#     4  10  22  40  63  87 113 152 202 249 294 354
#     4  10  20  34  55  82 114 151 196 238 290 350
#     4   9  17  32  55  82 114 150 191 234 281 346
#     4  10  21  40  62  83 113 154 200 250 298 349
#     4  12  25  39  60  90 122 153 188 243 307 357
#     4   8  14  26  48  78 111 142 177 227 278 326
#
# _framework density 20.436793000000002
#
# number of rings (size 3 to 8) (size 9 to 14) (size 15 to 20)
#    0.000    2.250    1.250    1.500    3.500    4.000 
#    0.000    0.000    0.000    0.000    0.000    0.000 
#    0.000    0.000    0.000    0.000    0.000    0.000 
#
# Total GULP energy -178462.023586 kJ/mol
# GULP energy per Si atom -5576.938237 kJ/mol
# Density = 2.039028 g / cm^3
# Si number density = 20.436793 Si / 1000 Ang^3
#
#
#
# Elastic Constant Matrix: (Units=GPa)
#
#
# Indices 1 2 3 4 5 6 
#
# 1 23.0840 15.7992 8.4937 0.0000 15.0210 0.0000
# 2 15.7992 143.8903 52.6549 0.0000 14.2592 0.0000
# 3 8.4937 52.6549 63.9269 0.0000 19.1573 0.0000
# 4 0.0000 0.0000 0.0000 51.2697 0.0000 7.2392
# 5 15.0210 14.2592 19.1573 0.0000 26.3609 0.0000
# 6 0.0000 0.0000 0.0000 7.2392 0.0000 -8.7362
#
#
#
# Elastic Compliance Matrix: (Units=1/GPa)
#
#
# Indices 1 2 3 4 5 6 
#
# 1 0.074262 -0.007191 0.009680 0.000000 -0.045461 0.000000
# 2 -0.007191 0.010656 -0.009361 0.000000 0.005136 0.000000
# 3 0.009680 -0.009361 0.028384 0.000000 -0.021080 0.000000
# 4 0.000000 0.000000 0.000000 0.017462 0.000000 0.014470
# 5 -0.045461 0.005136 -0.021080 0.000000 0.076381 0.000000
# 6 0.000000 0.000000 0.000000 0.014470 0.000000 -0.102477
#
#
# Mechanical properties :
#
#
# Convention : Reuss Voigt Hill
#
# Bulk Modulus (GPa) = 10.04444 42.75520 26.39982
# Shear Modulus (GPa) = 32.98212 24.04245 28.51228
#
# Velocity S-wave (km/s) = 4.02165 3.43363 3.73922
# Velocity P-wave (km/s) = 5.14688 6.05689 5.62033
#
# Compressibility (1/GPa) = 0.09955760
#
# Stress axis : x y z
#
# Youngs Moduli (GPa) = 13.46584 93.84633 35.23115
#
# Poissons Ratio (x) = 0.67486 -0.34103
# Poissons Ratio (y) = 0.09683 0.32979
# Poissons Ratio (z) = -0.13034 0.87846
#
# Static dielectric constant tensor:
#      x y z
#    x 1.731760 0.000000 0.038470 
#    y 0.000000 1.782390 0.000000 
#    z 0.038470 0.000000 1.774380 
# 
# From -- ./inp_files/37725.got.cif
#   From: 2010.05.17/outbox.cif.g08.bks.cpg/sg10_19_cif.got.tgz:37725.got - 2010.06.03 11:33:40.
