data_PCOD9149277
_publ_section_title
;
Structure prediction by ZEFSAII (Michael W. Deem and Ramdas Pophale) SiO2 
 PCOD9149277
Probable space group: P 2/M
;
_chemical_formula_sum "Si O2"
_cell_formula_units_Z 32
_cell_length_a 12.435587
_cell_length_b 11.537008
_cell_length_c 24.834660
_cell_angle_alpha 90.000000
_cell_angle_beta 27.492725
_cell_angle_gamma 90.000000
_cell_volume 1644.816130
_symmetry_space_group_name_H-M "P 2/M"
_symmetry_group_IT_number 10
_symmetry_cell_setting 'monoclinic'
loop_
_space_group_symop_operation_xyz
x,y,z
-x,y,-z
-x,-y,-z
x,-y,z
loop_
_atom_site_type_symbol
_atom_site_label
_atom_site_fract_x
_atom_site_fract_y
_atom_site_fract_z
Si Si1 0.343652 0.869754 0.928301
Si Si2 0.725477 0.630578 0.108064
Si Si3 0.825005 0.232138 0.735754
Si Si4 0.751555 0.130736 0.384093
Si Si5 0.960351 0.796740 0.183153
Si Si6 0.761748 0.623821 0.863751
Si Si7 0.412161 0.633423 0.709000
Si Si8 0.950811 0.635960 0.458988
O O1 0.315932 0.749247 0.906671
O O2 0.609641 0.856740 0.830821
O O3 0.319533 0.000000 0.914031
O O4 0.144967 0.860111 0.062502
O O5 0.673068 0.500000 0.107833
O O6 0.591547 0.639320 0.224325
O O7 0.000000 0.629145 0.000000
O O8 0.750060 0.336988 0.807494
O O9 0.051808 0.184961 0.665662
O O10 0.897008 0.280857 0.645942
O O11 0.500000 0.191014 0.500000
O O12 0.828786 0.130472 0.287431
O O13 0.725525 0.000000 0.415488
O O14 0.773592 0.723700 0.231728
O O15 0.107724 0.710134 0.154930
O O16 0.880726 0.500000 0.814697
O O17 0.500000 0.618225 0.000000
O O18 0.347336 0.500000 0.724032
O O19 0.674652 0.655060 0.572358
O O20 0.001122 0.500000 0.425306
O O21 0.000000 0.655566 0.500000
#
# Coordination Sequence:
#
# PCOD9149277 Si02
#       8
#     4   4   4   4   4   4   4   4
#     4  12  25  39  59  91 128 167 208 255 313 373
#     4  10  21  39  63  91 122 163 207 252 310 371
#     4  11  22  39  60  85 120 166 203 252 308 373
#     4  10  22  40  61  82 109 152 207 257 303 363
#     4  11  21  37  57  87 120 160 196 252 308 374
#     4  10  20  34  54  86 121 155 199 248 300 359
#     4  10  20  37  61  90 123 157 200 254 312 370
#     4  10  21  38  62  91 121 156 203 257 310 370
#
# _framework density 19.455062999999999
#
# number of rings (size 3 to 8) (size 9 to 14) (size 15 to 20)
#    0.000    1.500    2.500    3.000    0.000    2.750 
#    0.000    1.875    0.000   14.250    0.000    0.000 
#    0.000    0.000    0.000    0.000    0.000    0.000 
#
# Total GULP energy -178419.370714 kJ/mol
# GULP energy per Si atom -5575.605335 kJ/mol
# Density = 1.941078 g / cm^3
# Si number density = 19.455063 Si / 1000 Ang^3
#
#
#
# Elastic Constant Matrix: (Units=GPa)
#
#
# Indices 1 2 3 4 5 6 
#
# 1 65.2883 36.3179 30.0311 0.0000 -3.6667 0.0000
# 2 36.3179 105.0403 27.8748 0.0000 -1.3124 0.0000
# 3 30.0311 27.8748 108.0115 0.0000 -4.6061 0.0000
# 4 0.0000 0.0000 0.0000 58.7189 0.0000 -32.9593
# 5 -3.6667 -1.3124 -4.6061 0.0000 30.5329 0.0000
# 6 0.0000 0.0000 0.0000 -32.9593 0.0000 45.8286
#
#
#
# Elastic Compliance Matrix: (Units=1/GPa)
#
#
# Indices 1 2 3 4 5 6 
#
# 1 0.020654 -0.006028 -0.004119 0.000000 0.001600 0.000000
# 2 -0.006028 0.011980 -0.001434 0.000000 -0.000425 0.000000
# 3 -0.004119 -0.001434 0.010819 0.000000 0.001076 0.000000
# 4 0.000000 0.000000 0.000000 0.028559 0.000000 0.020539
# 5 0.001600 -0.000425 0.001076 0.000000 0.033088 0.000000
# 6 0.000000 0.000000 0.000000 0.020539 0.000000 0.036592
#
#
# Mechanical properties :
#
#
# Convention : Reuss Voigt Hill
#
# Bulk Modulus (GPa) = 49.28062 51.86530 50.57296
# Shear Modulus (GPa) = 29.13451 39.29050 34.21250
#
# Velocity S-wave (km/s) = 3.87399 4.49882 4.19804
# Velocity P-wave (km/s) = 6.73765 7.32821 7.03913
#
# Compressibility (1/GPa) = 0.02029195
#
# Stress axis : x y z
#
# Youngs Moduli (GPa) = 48.41573 83.47524 92.42752
#
# Poissons Ratio (x) = 0.50322 0.38068
# Poissons Ratio (y) = 0.29187 0.13251
# Poissons Ratio (z) = 0.19941 0.11967
#
# Static dielectric constant tensor:
#      x y z
#    x 1.674220 0.000000 -0.020720 
#    y 0.000000 1.717280 0.000000 
#    z -0.020720 0.000000 1.732940 
# 
# From -- ./inp_files/88916.got.cif
#   From: 2010.05.17/outbox.cif.g08.bks.cpg/sg10_45_cif.got.tgz:88916.got - 2010.06.03 11:33:40.
