data_PCOD9149176
_publ_section_title
;
Structure prediction by ZEFSAII (Michael W. Deem and Ramdas Pophale) SiO2 
 PCOD9149176
Probable space group: P 2/M
;
_chemical_formula_sum "Si O2"
_cell_formula_units_Z 24
_cell_length_a 24.692565
_cell_length_b 7.491268
_cell_length_c 18.610315
_cell_angle_alpha 90.000000
_cell_angle_beta 160.587737
_cell_angle_gamma 90.000000
_cell_volume 1144.163099
_symmetry_space_group_name_H-M "P 2/M"
_symmetry_group_IT_number 10
_symmetry_cell_setting 'monoclinic'
loop_
_space_group_symop_operation_xyz
x,y,z
-x,y,-z
-x,-y,-z
x,-y,z
loop_
_atom_site_type_symbol
_atom_site_label
_atom_site_fract_x
_atom_site_fract_y
_atom_site_fract_z
Si Si1 0.828397 0.282002 0.567226
Si Si2 0.171045 0.207081 0.743283
Si Si3 0.662521 0.717409 0.742781
Si Si4 0.846163 0.715828 0.111023
Si Si5 0.506819 0.291555 0.088542
Si Si6 0.988821 0.717533 0.067045
O O1 0.829162 0.500000 0.569790
O O2 0.655822 0.217252 0.321902
O O3 0.978640 0.230294 0.703129
O O4 0.873055 0.224466 0.703841
O O5 0.175915 0.222421 0.835430
O O6 0.000000 0.284766 0.500000
O O7 0.172528 0.000000 0.724328
O O8 0.333481 0.283601 0.910775
O O9 0.500000 0.780803 0.500000
O O10 0.654789 0.500000 0.735129
O O11 0.707612 0.773718 0.880446
O O12 0.817662 0.766400 0.888780
O O13 0.844583 0.500000 0.110520
O O14 0.548889 0.500000 0.132056
O O15 0.500000 0.212826 0.000000
O O16 0.993867 0.500000 0.071144
O O17 0.000000 0.782331 0.000000
#
# Coordination Sequence:
#
# PCOD9149176 Si02
#       6
#     4   4   4   4   4   4
#     4   8  15  28  46  71  99 125 158 199 242 286
#     4  11  24  38  51  71 100 132 166 205 250 299
#     4   8  14  24  41  70 103 130 158 195 241 289
#     4   9  17  32  54  76 101 133 167 205 246 291
#     4  10  20  34  54  77  98 123 159 203 248 296
#     4   8  13  21  35  59  95 131 154 182 231 285
#
# _framework density 20.976030999999999
#
# number of rings (size 3 to 8) (size 9 to 14) (size 15 to 20)
#    0.000    3.000    0.000    3.500    0.000    4.333 
#    0.000    5.833    0.000    0.500    0.000    0.000 
#    0.000    6.000    0.000    0.000    0.000    0.000 
#
# Total GULP energy -133890.404403 kJ/mol
# GULP energy per Si atom -5578.766850 kJ/mol
# Density = 2.092829 g / cm^3
# Si number density = 20.976031 Si / 1000 Ang^3
#
#
#
# Elastic Constant Matrix: (Units=GPa)
#
#
# Indices 1 2 3 4 5 6 
#
# 1 159.0601 -11.7695 94.3831 0.0000 -33.6248 0.0000
# 2 -11.7695 52.2266 -0.0909 0.0000 -2.5013 0.0000
# 3 94.3831 -0.0909 216.5973 0.0000 -31.2363 0.0000
# 4 0.0000 0.0000 0.0000 -62.3923 0.0000 -87.2326
# 5 -33.6248 -2.5013 -31.2363 0.0000 24.6576 0.0000
# 6 0.0000 0.0000 0.0000 -87.2326 0.0000 171.9446
#
#
#
# Elastic Compliance Matrix: (Units=1/GPa)
#
#
# Indices 1 2 3 4 5 6 
#
# 1 0.010620 0.002911 -0.003053 0.000000 0.010910 0.000000
# 2 0.002911 0.020061 -0.000482 0.000000 0.005393 0.000000
# 3 -0.003053 -0.000482 0.006533 0.000000 0.004064 0.000000
# 4 0.000000 0.000000 0.000000 -0.009377 0.000000 -0.004757
# 5 0.010910 0.005393 0.004064 0.000000 0.061128 0.000000
# 6 0.000000 0.000000 0.000000 -0.004757 0.000000 0.003402
#
#
# Mechanical properties :
#
#
# Convention : Reuss Voigt Hill
#
# Bulk Modulus (GPa) = 27.80507 65.88105 46.84306
# Shear Modulus (GPa) = 47.34572 49.86605 48.60589
#
# Velocity S-wave (km/s) = 4.75609 4.88103 4.81896
# Velocity P-wave (km/s) = 6.59127 7.95248 7.30366
#
# Compressibility (1/GPa) = 0.03596466
#
# Stress axis : x y z
#
# Youngs Moduli (GPa) = 94.15837 49.84873 153.06491
#
# Poissons Ratio (x) = -0.14509 0.46735
# Poissons Ratio (y) = -0.27405 0.07379
# Poissons Ratio (z) = 0.28749 0.02403
#
# Static dielectric constant tensor:
#      x y z
#    x 1.702690 0.000000 -0.026250 
#    y 0.000000 1.785990 0.000000 
#    z -0.026250 0.000000 1.716450 
# 
# From -- ./inp_files/60296.got.cif
#   From: 2010.05.17/outbox.cif.g08.bks.cpg/sg10_31_cif.got.tgz:60296.got - 2010.06.03 11:33:40.
