data_PCOD9149573
_publ_section_title
;
Structure prediction by ZEFSAII (Michael W. Deem and Ramdas Pophale) SiO2 
 PCOD9149573
Probable space group: P 2/M
;
_chemical_formula_sum "Si O2"
_cell_formula_units_Z 32
_cell_length_a 21.421228
_cell_length_b 9.258150
_cell_length_c 29.227280
_cell_angle_alpha 90.000000
_cell_angle_beta 165.636924
_cell_angle_gamma 90.000000
_cell_volume 1437.883117
_symmetry_space_group_name_H-M "P 2/M"
_symmetry_group_IT_number 10
_symmetry_cell_setting 'monoclinic'
loop_
_space_group_symop_operation_xyz
x,y,z
-x,y,-z
-x,-y,-z
x,-y,z
loop_
_atom_site_type_symbol
_atom_site_label
_atom_site_fract_x
_atom_site_fract_y
_atom_site_fract_z
Si Si1 0.906343 0.331247 0.365121
Si Si2 0.365760 0.328657 0.510583
Si Si3 0.219809 0.664149 0.823830
Si Si4 0.070145 0.669591 0.126225
Si Si5 0.472706 0.670702 0.785286
Si Si6 0.406548 0.171252 0.040523
Si Si7 0.468141 0.674479 0.276962
Si Si8 0.210481 0.835457 0.313406
O O1 0.821883 0.500000 0.309886
O O2 0.949120 0.307806 0.340832
O O3 0.686859 0.224870 0.224626
O O4 0.170951 0.317128 0.578468
O O5 0.310544 0.500000 0.468928
O O6 0.659457 0.309930 0.704794
O O7 0.359903 0.275367 0.558868
O O8 0.212859 0.244285 0.363639
O O9 0.173557 0.500000 0.806410
O O10 0.500000 0.669172 0.000000
O O11 0.228999 0.765467 0.874391
O O12 0.050927 0.500000 0.123465
O O13 0.063788 0.754373 0.169310
O O14 0.827002 0.705664 0.923463
O O15 0.536371 0.500000 0.832914
O O16 0.620620 0.757328 0.928913
O O17 0.500779 0.723115 0.753103
O O18 0.390707 0.000000 0.031103
O O19 0.500563 0.500000 0.299637
O O20 0.500000 0.834938 0.500000
O O21 0.129009 0.000000 0.260724
#
# Coordination Sequence:
#
# PCOD9149573 Si02
#       8
#     4   4   4   4   4   4   4   4
#     4   9  18  33  54  76  96 124 162 201 242 287
#     4   9  16  29  51  76 100 125 158 203 249 289
#     4   8  15  30  51  74  98 123 156 198 241 286
#     4   9  16  29  51  76  99 125 159 201 247 289
#     4  10  20  35  52  70  97 131 165 201 240 286
#     4  11  21  32  50  76 102 128 160 198 241 289
#     4   9  18  32  51  74  97 125 164 205 243 287
#     4   9  17  29  46  71 101 130 162 199 239 287
#
# _framework density 22.254940000000001
#
# number of rings (size 3 to 8) (size 9 to 14) (size 15 to 20)
#    0.000    2.750    0.000    3.000    0.000    7.250 
#    0.000    3.125    0.000    7.500    0.000    0.000 
#    0.000    0.000    0.000    0.000    0.000    0.000 
#
# Total GULP energy -178761.997386 kJ/mol
# GULP energy per Si atom -5586.312418 kJ/mol
# Density = 2.220429 g / cm^3
# Si number density = 22.254940 Si / 1000 Ang^3
#
#
#
# Elastic Constant Matrix: (Units=GPa)
#
#
# Indices 1 2 3 4 5 6 
#
# 1 130.7172 57.0848 36.0675 0.0000 -32.9214 0.0000
# 2 57.0848 82.4422 39.6436 0.0000 -35.5879 0.0000
# 3 36.0675 39.6436 96.2851 0.0000 -32.7689 0.0000
# 4 0.0000 0.0000 0.0000 3.0280 0.0000 2.8700
# 5 -32.9214 -35.5879 -32.7689 0.0000 54.7780 0.0000
# 6 0.0000 0.0000 0.0000 2.8700 0.0000 -10.1467
#
#
#
# Elastic Compliance Matrix: (Units=1/GPa)
#
#
# Indices 1 2 3 4 5 6 
#
# 1 0.011229 -0.006497 -0.000843 0.000000 0.002024 0.000000
# 2 -0.006497 0.021964 -0.003870 0.000000 0.008050 0.000000
# 3 -0.000843 -0.003870 0.014147 0.000000 0.005442 0.000000
# 4 0.000000 0.000000 0.000000 0.260430 0.000000 0.073663
# 5 0.002024 0.008050 0.005442 0.000000 0.027957 0.000000
# 6 0.000000 0.000000 0.000000 0.073663 0.000000 -0.077718
#
#
# Mechanical properties :
#
#
# Convention : Reuss Voigt Hill
#
# Bulk Modulus (GPa) = 40.12553 63.89289 52.00921
# Shear Modulus (GPa) = 17.31690 21.30844 19.31267
#
# Velocity S-wave (km/s) = 2.79250 3.09766 2.94903
# Velocity P-wave (km/s) = 5.33540 6.44716 5.91745
#
# Compressibility (1/GPa) = 0.02492179
#
# Stress axis : x y z
#
# Youngs Moduli (GPa) = 89.05131 45.52916 70.68593
#
# Poissons Ratio (x) = 0.29578 0.05957
# Poissons Ratio (y) = 0.57853 0.27356
# Poissons Ratio (z) = 0.07505 0.17620
#
# Static dielectric constant tensor:
#      x y z
#    x 1.905200 0.000000 0.057370 
#    y 0.000000 1.729470 0.000000 
#    z 0.057370 0.000000 1.850970 
# 
# From -- ./inp_files/93741.got.cif
#   From: 2010.05.17/outbox.cif.g08.bks.cpg/sg10_47_cif.got.tgz:93741.got - 2010.06.03 11:33:40.
