data_PCOD9149431
_publ_section_title
;
Structure prediction by ZEFSAII (Michael W. Deem and Ramdas Pophale) SiO2 
 PCOD9149431
Probable space group: P 2/M
;
_chemical_formula_sum "Si O2"
_cell_formula_units_Z 28
_cell_length_a 20.648806
_cell_length_b 14.327493
_cell_length_c 9.054855
_cell_angle_alpha 90.000000
_cell_angle_beta 32.789754
_cell_angle_gamma 90.000000
_cell_volume 1450.746507
_symmetry_space_group_name_H-M "P 2/M"
_symmetry_group_IT_number 10
_symmetry_cell_setting 'monoclinic'
loop_
_space_group_symop_operation_xyz
x,y,z
-x,y,-z
-x,-y,-z
x,-y,z
loop_
_atom_site_type_symbol
_atom_site_label
_atom_site_fract_x
_atom_site_fract_y
_atom_site_fract_z
Si Si1 0.735423 0.786832 0.900912
Si Si2 0.965003 0.309204 0.412320
Si Si3 0.564335 0.108965 0.030932
Si Si4 0.356528 0.608697 0.760329
Si Si5 0.780486 0.282797 0.231806
Si Si6 0.134140 0.397837 0.675198
Si Si7 0.332077 0.892133 0.669024
O O1 0.878642 0.778270 0.612982
O O2 0.673093 0.826924 0.874838
O O3 0.692347 0.682535 0.026338
O O4 0.694042 0.850861 0.118547
O O5 0.888331 0.372423 0.449920
O O6 0.000000 0.355163 0.500000
O O7 0.088911 0.286196 0.094389
O O8 0.467860 0.114406 0.349784
O O9 0.600182 0.000000 0.947410
O O10 0.500000 0.135401 0.000000
O O11 0.500000 0.611538 0.500000
O O12 0.318995 0.500000 0.846395
O O13 0.306596 0.652720 0.702337
O O14 0.792391 0.323733 0.371763
O O15 0.737724 0.177014 0.305950
O O16 0.187635 0.500000 0.591256
O O17 0.000000 0.399440 0.000000
O O18 0.297113 0.000000 0.728969
#
# Coordination Sequence:
#
# PCOD9149431 Si02
#       7
#     4   4   4   4   4   4   4
#     4  11  21  37  59  85 119 155 191 246 299 344
#     4  11  21  38  55  88 117 156 198 244 290 353
#     4  10  22  39  62  90 115 148 201 250 293 349
#     4  10  20  34  56  84 114 153 201 240 287 349
#     4  10  20  39  60  82 121 158 195 243 298 353
#     4   9  20  36  58  83 112 156 201 241 288 343
#     4  10  20  36  62  87 113 153 199 239 288 353
#
# _framework density 19.300408999999998
#
# number of rings (size 3 to 8) (size 9 to 14) (size 15 to 20)
#    0.000    1.857    2.857    3.000    2.000    2.571 
#    0.000    2.143    0.000    4.286    0.000    0.000 
#    0.000    0.000    0.000    0.000    0.000    0.000 
#
# Total GULP energy -156146.221819 kJ/mol
# GULP energy per Si atom -5576.650779 kJ/mol
# Density = 1.925648 g / cm^3
# Si number density = 19.300409 Si / 1000 Ang^3
#
#
#
# Elastic Constant Matrix: (Units=GPa)
#
#
# Indices 1 2 3 4 5 6 
#
# 1 144.4149 60.9039 26.4861 0.0000 4.1067 0.0000
# 2 60.9039 133.8424 24.2899 0.0000 -4.7927 0.0000
# 3 26.4861 24.2899 53.5706 0.0000 -2.3555 0.0000
# 4 0.0000 0.0000 0.0000 14.1240 0.0000 0.0084
# 5 4.1067 -4.7927 -2.3555 0.0000 25.6330 0.0000
# 6 0.0000 0.0000 0.0000 0.0084 0.0000 22.1127
#
#
#
# Elastic Compliance Matrix: (Units=1/GPa)
#
#
# Indices 1 2 3 4 5 6 
#
# 1 0.009086 -0.003690 -0.002925 0.000000 -0.002414 0.000000
# 2 -0.003690 0.009676 -0.002467 0.000000 0.002174 0.000000
# 3 -0.002925 -0.002467 0.021318 0.000000 0.001966 0.000000
# 4 0.000000 0.000000 0.000000 0.070801 0.000000 -0.000027
# 5 -0.002414 0.002174 0.001966 0.000000 0.039986 0.000000
# 6 0.000000 0.000000 0.000000 -0.000027 0.000000 0.045223
#
#
# Mechanical properties :
#
#
# Convention : Reuss Voigt Hill
#
# Bulk Modulus (GPa) = 45.63035 61.68752 53.65894
# Shear Modulus (GPa) = 22.56713 27.05048 24.80881
#
# Velocity S-wave (km/s) = 3.42315 3.74779 3.58914
# Velocity P-wave (km/s) = 6.27036 7.12454 6.71105
#
# Compressibility (1/GPa) = 0.02191524
#
# Stress axis : x y z
#
# Youngs Moduli (GPa) = 110.06149 103.34625 46.90775
#
# Poissons Ratio (x) = 0.38135 0.13721
# Poissons Ratio (y) = 0.40613 0.11574
# Poissons Ratio (z) = 0.32195 0.25500
#
# Static dielectric constant tensor:
#      x y z
#    x 1.694960 0.000000 0.015870 
#    y 0.000000 1.665980 0.000000 
#    z 0.015870 0.000000 1.707530 
# 
# From -- ./inp_files/35262.got.cif
#   From: 2010.05.17/outbox.cif.g08.bks.cpg/sg10_18_cif.got.tgz:35262.got - 2010.06.03 11:33:40.
