data_PCOD9149016
_publ_section_title
;
Structure prediction by ZEFSAII (Michael W. Deem and Ramdas Pophale) SiO2 
 PCOD9149016
Probable space group: P 2/M
;
_chemical_formula_sum "Si O2"
_cell_formula_units_Z 32
_cell_length_a 10.347140
_cell_length_b 15.108916
_cell_length_c 12.932369
_cell_angle_alpha 90.000000
_cell_angle_beta 132.731176
_cell_angle_gamma 90.000000
_cell_volume 1485.081926
_symmetry_space_group_name_H-M "P 2/M"
_symmetry_group_IT_number 10
_symmetry_cell_setting 'monoclinic'
loop_
_space_group_symop_operation_xyz
x,y,z
-x,y,-z
-x,-y,-z
x,-y,z
loop_
_atom_site_type_symbol
_atom_site_label
_atom_site_fract_x
_atom_site_fract_y
_atom_site_fract_z
Si Si1 0.194697 0.394998 0.883707
Si Si2 0.905668 0.859497 0.845633
Si Si3 0.435576 0.394841 0.204383
Si Si4 0.122492 0.650094 0.161207
Si Si5 0.510896 0.900001 0.616433
Si Si6 0.774927 0.893693 0.121420
Si Si7 0.188088 0.608582 0.646281
Si Si8 0.558704 0.891499 0.197009
O O1 0.225250 0.500000 0.897625
O O2 0.221729 0.361748 0.782761
O O3 0.990842 0.379314 0.802655
O O4 0.323737 0.358460 0.044138
O O5 0.873636 0.755367 0.840444
O O6 0.719478 0.905642 0.742362
O O7 0.034423 0.869787 0.818000
O O8 0.000000 0.892310 0.000000
O O9 0.445801 0.500000 0.193622
O O10 0.317682 0.380609 0.241689
O O11 0.635632 0.362815 0.317978
O O12 0.000000 0.615801 0.000000
O O13 0.500000 0.852034 0.500000
O O14 0.434763 0.860400 0.680985
O O15 0.434829 0.000000 0.564418
O O16 0.712950 0.864358 0.201783
O O17 0.766461 0.000000 0.118587
O O18 0.624662 0.864699 0.957765
O O19 0.180881 0.500000 0.642168
O O20 0.000000 0.638766 0.500000
O O21 0.556889 0.000000 0.200791
#
# Coordination Sequence:
#
# PCOD9149016 Si02
#       8
#     4   4   4   4   4   4   4   4
#     4   9  16  30  52  72  95 131 171 210 252 303
#     4  11  20  32  51  74 102 130 169 216 260 307
#     4   9  16  30  52  74  98 132 169 206 256 309
#     4   9  19  32  48  74 104 128 168 216 255 299
#     4  10  20  34  52  75 104 137 173 211 253 306
#     4   9  16  28  51  78 100 127 166 210 252 300
#     4   9  17  29  48  76 103 125 161 213 258 300
#     4   8  15  29  49  75 102 127 163 208 251 298
#
# _framework density 21.547632
#
# number of rings (size 3 to 8) (size 9 to 14) (size 15 to 20)
#    0.000    2.750    1.250    1.875    0.000    3.500 
#    0.000    3.750    2.750    6.000    0.000    0.000 
#    0.000    0.000    0.000    0.000    0.000    0.125 
#
# Total GULP energy -178374.075895 kJ/mol
# GULP energy per Si atom -5574.189872 kJ/mol
# Density = 2.149859 g / cm^3
# Si number density = 21.547632 Si / 1000 Ang^3
#
#
#
# Elastic Constant Matrix: (Units=GPa)
#
#
# Indices 1 2 3 4 5 6 
#
# 1 153.6445 3.6617 34.1964 0.0000 4.4349 0.0000
# 2 3.6617 34.1341 5.0981 0.0000 -0.3250 0.0000
# 3 34.1964 5.0981 58.2687 0.0000 -0.7972 0.0000
# 4 0.0000 0.0000 0.0000 -2.0276 0.0000 -26.9344
# 5 4.4349 -0.3250 -0.7972 0.0000 35.9267 0.0000
# 6 0.0000 0.0000 0.0000 -26.9344 0.0000 -138.0086
#
#
#
# Elastic Compliance Matrix: (Units=1/GPa)
#
#
# Indices 1 2 3 4 5 6 
#
# 1 0.007525 -0.000157 -0.004416 0.000000 -0.001028 0.000000
# 2 -0.000157 0.029689 -0.002502 0.000000 0.000233 0.000000
# 3 -0.004416 -0.002502 0.019986 0.000000 0.000966 0.000000
# 4 0.000000 0.000000 0.000000 0.309691 0.000000 -0.060441
# 5 -0.001028 0.000233 0.000966 0.000000 0.027985 0.000000
# 6 0.000000 0.000000 0.000000 -0.060441 0.000000 0.004550
#
#
# Mechanical properties :
#
#
# Convention : Reuss Voigt Hill
#
# Bulk Modulus (GPa) = 23.22986 36.88441 30.05713
# Shear Modulus (GPa) = 11.68424 -7.28249 2.20087
#
# Velocity S-wave (km/s) = 2.33116 -1.84040 1.01174
# Velocity P-wave (km/s) = 4.24851 3.55510 3.91718
#
# Compressibility (1/GPa) = 0.04304805
#
# Stress axis : x y z
#
# Youngs Moduli (GPa) = 132.89154 33.68255 50.03523
#
# Poissons Ratio (x) = 0.00530 0.22098
# Poissons Ratio (y) = 0.02092 0.12519
# Poissons Ratio (z) = 0.58691 0.08427
#
# Static dielectric constant tensor:
#      x y z
#    x 1.846890 0.000000 0.162290 
#    y 0.000000 1.790210 0.000000 
#    z 0.162290 0.000000 2.560180 
# 
# From -- ./inp_files/26058.got.cif
#   From: 2010.05.17/outbox.cif.g08.bks.cpg/sg10_14_cif.got.tgz:26058.got - 2010.06.03 11:33:40.
