data_PCOD9149567
_publ_section_title
;
Structure prediction by ZEFSAII (Michael W. Deem and Ramdas Pophale) SiO2 
 PCOD9149567
Probable space group: P 2/M
;
_chemical_formula_sum "Si O2"
_cell_formula_units_Z 18
_cell_length_a 9.689679
_cell_length_b 7.451657
_cell_length_c 19.197246
_cell_angle_alpha 90.000000
_cell_angle_beta 50.171726
_cell_angle_gamma 90.000000
_cell_volume 1064.496032
_symmetry_space_group_name_H-M "P 2/M"
_symmetry_group_IT_number 10
_symmetry_cell_setting 'monoclinic'
loop_
_space_group_symop_operation_xyz
x,y,z
-x,y,-z
-x,-y,-z
x,-y,z
loop_
_atom_site_type_symbol
_atom_site_label
_atom_site_fract_x
_atom_site_fract_y
_atom_site_fract_z
Si Si1 0.590959 0.000000 0.046644
Si Si2 0.101565 0.713342 0.038053
Si Si3 0.984929 0.711388 0.226639
Si Si4 0.290028 0.286127 0.565482
Si Si5 0.781396 0.000000 0.772690
Si Si6 0.057914 0.000000 0.561095
O O1 0.431730 0.000000 0.154388
O O2 0.500000 0.000000 0.000000
O O3 0.718473 0.172123 0.012926
O O4 0.138388 0.500000 0.024760
O O5 0.982154 0.751006 0.145495
O O6 0.000000 0.761579 0.000000
O O7 0.021828 0.500000 0.222704
O O8 0.141296 0.828651 0.210644
O O9 0.806153 0.751066 0.328995
O O10 0.500000 0.238341 0.500000
O O11 0.276207 0.500000 0.556377
O O12 0.178063 0.170831 0.545899
O O13 0.879045 0.000000 0.666807
O O14 0.000000 0.000000 0.500000
#
# Coordination Sequence:
#
# PCOD9149567 Si02
#       6
#     2   4   4   4   2   2
#     4  12  21  34  55  79 101 135 178 216 245 298
#     4  10  21  36  53  76 108 139 168 210 261 303
#     4   9  17  32  54  75 102 137 171 208 253 302
#     4   9  18  34  57  79  99 132 178 216 248 300
#     4  10  20  35  51  76 103 135 175 206 250 307
#     4  10  21  37  53  75 109 138 162 208 269 312
#
# _framework density 16.909410000000001
#
# number of rings (size 3 to 8) (size 9 to 14) (size 15 to 20)
#    0.000    2.222    2.222    0.667    0.000    1.778 
#    4.000    0.000    0.000    0.000    0.000    0.000 
#    0.000    0.000    0.000    0.000    0.000    0.000 
#
# Total GULP energy -100368.633978 kJ/mol
# GULP energy per Si atom -5576.035221 kJ/mol
# Density = 1.687092 g / cm^3
# Si number density = 16.909410 Si / 1000 Ang^3
#
#
#
# Elastic Constant Matrix: (Units=GPa)
#
#
# Indices 1 2 3 4 5 6 
#
# 1 129.9580 55.5852 94.3019 0.0000 9.8064 0.0000
# 2 55.5852 65.9918 54.2878 0.0000 0.0981 0.0000
# 3 94.3019 54.2878 142.1598 0.0000 2.3735 0.0000
# 4 0.0000 0.0000 0.0000 31.3779 0.0000 -19.4038
# 5 9.8064 0.0981 2.3735 0.0000 37.3495 0.0000
# 6 0.0000 0.0000 0.0000 -19.4038 0.0000 47.0505
#
#
#
# Elastic Compliance Matrix: (Units=1/GPa)
#
#
# Indices 1 2 3 4 5 6 
#
# 1 0.017555 -0.007664 -0.008651 0.000000 -0.004039 0.000000
# 2 -0.007664 0.025449 -0.004672 0.000000 0.002242 0.000000
# 3 -0.008651 -0.004672 0.014534 0.000000 0.001360 0.000000
# 4 0.000000 0.000000 0.000000 0.042779 0.000000 0.017642
# 5 -0.004039 0.002242 0.001360 0.000000 0.027742 0.000000
# 6 0.000000 0.000000 0.000000 0.017642 0.000000 0.028530
#
#
# Mechanical properties :
#
#
# Convention : Reuss Voigt Hill
#
# Bulk Modulus (GPa) = 64.24894 82.93995 73.59444
# Shear Modulus (GPa) = 24.53970 32.08456 28.31213
#
# Velocity S-wave (km/s) = 3.81365 4.36069 4.09631
# Velocity P-wave (km/s) = 7.58092 8.63193 8.12344
#
# Compressibility (1/GPa) = 0.01556446
#
# Stress axis : x y z
#
# Youngs Moduli (GPa) = 56.96354 39.29463 68.80240
#
# Poissons Ratio (x) = 0.30115 0.59521
# Poissons Ratio (y) = 0.43657 0.32143
# Poissons Ratio (z) = 0.49279 0.18358
#
# Static dielectric constant tensor:
#      x y z
#    x 1.519140 0.000000 0.004920 
#    y 0.000000 1.589860 0.000000 
#    z 0.004920 0.000000 1.591530 
# 
# From -- ./inp_files/74128.got.cif
#   From: 2010.05.17/outbox.cif.g08.bks.cpg/sg10_38_cif.got.tgz:74128.got - 2010.06.03 11:33:40.
