data_PCOD9149294
_publ_section_title
;
Structure prediction by ZEFSAII (Michael W. Deem and Ramdas Pophale) SiO2 
 PCOD9149294
Probable space group: P 2/M
;
_chemical_formula_sum "Si O2"
_cell_formula_units_Z 26
_cell_length_a 19.871637
_cell_length_b 10.065772
_cell_length_c 13.721202
_cell_angle_alpha 90.000000
_cell_angle_beta 31.046825
_cell_angle_gamma 90.000000
_cell_volume 1415.475577
_symmetry_space_group_name_H-M "P 2/M"
_symmetry_group_IT_number 10
_symmetry_cell_setting 'monoclinic'
loop_
_space_group_symop_operation_xyz
x,y,z
-x,y,-z
-x,-y,-z
x,-y,z
loop_
_atom_site_type_symbol
_atom_site_label
_atom_site_fract_x
_atom_site_fract_y
_atom_site_fract_z
Si Si1 0.821617 0.649348 0.276869
Si Si2 0.500000 0.787067 0.500000
Si Si3 0.475033 0.653990 0.319831
Si Si4 0.108412 0.339137 0.441500
Si Si5 0.402809 0.662697 0.032945
Si Si6 0.795848 0.850603 0.133952
Si Si7 0.965886 0.652676 0.817497
O O1 0.822500 0.500000 0.229663
O O2 0.681149 0.662315 0.503069
O O3 0.829957 0.765762 0.188096
O O4 0.937743 0.654406 0.209450
O O5 0.498973 0.709561 0.398147
O O6 0.639319 0.858201 0.325308
O O7 0.511501 0.500000 0.279522
O O8 0.548423 0.710261 0.133981
O O9 0.113364 0.500000 0.427620
O O10 0.255089 0.293366 0.238227
O O11 0.000000 0.290807 0.500000
O O12 0.053813 0.310212 0.616101
O O13 0.405032 0.500000 0.028481
O O14 0.500000 0.702184 0.000000
O O15 0.849765 0.000000 0.066852
O O16 0.852395 0.758307 0.977761
O O17 0.918069 0.500000 0.863616
#
# Coordination Sequence:
#
# PCOD9149294 Si02
#       7
#     4   2   4   4   4   4   4
#     4   9  18  34  53  80 111 139 171 216 268 316
#     4  10  22  36  50  72 103 140 179 220 269 322
#     4   9  17  29  50  78 110 141 176 218 263 317
#     4   9  18  30  46  75 110 140 173 216 266 314
#     4   9  16  27  46  73 106 143 179 217 263 315
#     4  11  23  37  54  76 104 140 181 221 266 319
#     4  10  20  34  55  79 109 141 172 215 269 320
#
# _framework density 18.368385
#
# number of rings (size 3 to 8) (size 9 to 14) (size 15 to 20)
#    0.000    2.462    0.000    2.308    2.154    8.000 
#    0.000    0.000    0.000    0.462    0.000    0.000 
#    0.000    8.308    0.000    0.000    0.000    0.000 
#
# Total GULP energy -144871.352935 kJ/mol
# GULP energy per Si atom -5571.975113 kJ/mol
# Density = 1.832658 g / cm^3
# Si number density = 18.368385 Si / 1000 Ang^3
#
#
#
# Elastic Constant Matrix: (Units=GPa)
#
#
# Indices 1 2 3 4 5 6 
#
# 1 80.7190 25.7771 62.2968 0.0000 1.3051 0.0000
# 2 25.7771 73.0266 50.1183 0.0000 7.1858 0.0000
# 3 62.2968 50.1183 154.2569 0.0000 14.3540 0.0000
# 4 0.0000 0.0000 0.0000 5.1313 0.0000 -3.3102
# 5 1.3051 7.1858 14.3540 0.0000 29.9248 0.0000
# 6 0.0000 0.0000 0.0000 -3.3102 0.0000 -8.6559
#
#
#
# Elastic Compliance Matrix: (Units=1/GPa)
#
#
# Indices 1 2 3 4 5 6 
#
# 1 0.018439 -0.001936 -0.007103 0.000000 0.003068 0.000000
# 2 -0.001936 0.017896 -0.004857 0.000000 -0.001883 0.000000
# 3 -0.007103 -0.004857 0.011296 0.000000 -0.003942 0.000000
# 4 0.000000 0.000000 0.000000 0.156317 0.000000 -0.059779
# 5 0.003068 -0.001883 -0.003942 0.000000 0.035626 0.000000
# 6 0.000000 0.000000 0.000000 -0.059779 0.000000 -0.092668
#
#
# Mechanical properties :
#
#
# Convention : Reuss Voigt Hill
#
# Bulk Modulus (GPa) = 50.40636 64.93188 57.66912
# Shear Modulus (GPa) = 27.57652 16.60074 22.08863
#
# Velocity S-wave (km/s) = 3.87887 3.00953 3.47152
# Velocity P-wave (km/s) = 6.89654 6.89224 6.89439
#
# Compressibility (1/GPa) = 0.01983876
#
# Stress axis : x y z
#
# Youngs Moduli (GPa) = 54.23183 55.87892 88.52351
#
# Poissons Ratio (x) = 0.10816 0.62881
# Poissons Ratio (y) = 0.10497 0.43000
# Poissons Ratio (z) = 0.38523 0.27143
#
# Static dielectric constant tensor:
#      x y z
#    x 1.650100 0.000000 0.008940 
#    y 0.000000 1.610020 0.000000 
#    z 0.008940 0.000000 1.672000 
# 
# From -- ./inp_files/69909.got.cif
#   From: 2010.05.17/outbox.cif.g08.bks.cpg/sg10_35_cif.got.tgz:69909.got - 2010.06.03 11:33:40.
