data_PCOD9149385
_publ_section_title
;
Structure prediction by ZEFSAII (Michael W. Deem and Ramdas Pophale) SiO2 
 PCOD9149385
Probable space group: P 2/M
;
_chemical_formula_sum "Si O2"
_cell_formula_units_Z 28
_cell_length_a 8.430483
_cell_length_b 12.905293
_cell_length_c 14.120216
_cell_angle_alpha 90.000000
_cell_angle_beta 62.359775
_cell_angle_gamma 90.000000
_cell_volume 1360.929512
_symmetry_space_group_name_H-M "P 2/M"
_symmetry_group_IT_number 10
_symmetry_cell_setting 'monoclinic'
loop_
_space_group_symop_operation_xyz
x,y,z
-x,y,-z
-x,-y,-z
x,-y,z
loop_
_atom_site_type_symbol
_atom_site_label
_atom_site_fract_x
_atom_site_fract_y
_atom_site_fract_z
Si Si1 0.784949 0.617252 0.166317
Si Si2 0.495544 0.672413 0.395338
Si Si3 0.708288 0.113713 0.353442
Si Si4 0.207984 0.181319 0.458105
Si Si5 0.682746 0.116896 0.771311
Si Si6 0.042536 0.796529 0.166205
Si Si7 0.364723 0.233291 0.950818
O O1 0.844090 0.500000 0.132135
O O2 0.618714 0.615880 0.286140
O O3 0.707713 0.673957 0.094416
O O4 0.943181 0.688619 0.167122
O O5 0.500000 0.628613 0.500000
O O6 0.581417 0.788367 0.373444
O O7 0.292913 0.703104 0.429394
O O8 0.764487 0.128951 0.447332
O O9 0.878003 0.128461 0.237073
O O10 0.630370 0.000000 0.362035
O O11 0.289610 0.119444 0.347742
O O12 0.000000 0.187537 0.500000
O O13 0.828877 0.194438 0.777465
O O14 0.486633 0.157220 0.854257
O O15 0.711452 0.000000 0.799878
O O16 0.186566 0.818937 0.043935
O O17 0.500000 0.263842 0.000000
#
# Coordination Sequence:
#
# PCOD9149385 Si02
#       7
#     4   4   4   4   4   4   4
#     4  11  23  44  70  92 120 160 210 270 325 369
#     4   9  21  39  60  91 126 165 199 252 311 383
#     4  10  20  34  55  88 127 165 206 250 303 368
#     4  11  20  34  60  88 124 163 208 253 301 359
#     4  11  22  38  61  91 131 173 208 249 309 372
#     4  10  22  38  59  89 125 160 209 253 301 368
#     4  10  23  42  64  91 127 161 208 260 310 376
#
# _framework density 20.574172999999998
#
# number of rings (size 3 to 8) (size 9 to 14) (size 15 to 20)
#    0.000    1.714    2.857    1.286    0.000    8.571 
#    0.000    2.857    0.000    9.857    0.000    0.000 
#    0.000    0.000    0.000    0.000    0.000    0.000 
#
# Total GULP energy -156173.457335 kJ/mol
# GULP energy per Si atom -5577.623476 kJ/mol
# Density = 2.052735 g / cm^3
# Si number density = 20.574173 Si / 1000 Ang^3
#
#
#
# Elastic Constant Matrix: (Units=GPa)
#
#
# Indices 1 2 3 4 5 6 
#
# 1 79.3352 49.5831 40.7968 0.0000 2.8216 0.0000
# 2 49.5831 97.3654 32.7804 0.0000 3.5615 0.0000
# 3 40.7968 32.7804 138.1502 0.0000 -14.0293 0.0000
# 4 0.0000 0.0000 0.0000 -10.8706 0.0000 -0.7832
# 5 2.8216 3.5615 -14.0293 0.0000 26.4454 0.0000
# 6 0.0000 0.0000 0.0000 -0.7832 0.0000 11.5031
#
#
#
# Elastic Compliance Matrix: (Units=1/GPa)
#
#
# Indices 1 2 3 4 5 6 
#
# 1 0.020452 -0.008859 -0.004268 0.000000 -0.003253 0.000000
# 2 -0.008859 0.015241 -0.001176 0.000000 -0.001731 0.000000
# 3 -0.004268 -0.001176 0.009344 0.000000 0.005571 0.000000
# 4 0.000000 0.000000 0.000000 -0.091542 0.000000 -0.006233
# 5 -0.003253 -0.001731 0.005571 0.000000 0.041349 0.000000
# 6 0.000000 0.000000 0.000000 -0.006233 0.000000 0.086509
#
#
# Mechanical properties :
#
#
# Convention : Reuss Voigt Hill
#
# Bulk Modulus (GPa) = 60.86213 62.35237 61.60725
# Shear Modulus (GPa) = 43.31404 18.19495 30.75450
#
# Velocity S-wave (km/s) = 4.59329 2.97704 3.87047
# Velocity P-wave (km/s) = 7.60113 6.49530 7.06987
#
# Compressibility (1/GPa) = 0.01643058
#
# Stress axis : x y z
#
# Youngs Moduli (GPa) = 48.89503 65.61062 107.02527
#
# Poissons Ratio (x) = 0.58126 0.45677
# Poissons Ratio (y) = 0.43317 0.12587
# Poissons Ratio (z) = 0.20868 0.07717
#
# Static dielectric constant tensor:
#      x y z
#    x 1.792200 0.000000 -0.014100 
#    y 0.000000 1.708890 0.000000 
#    z -0.014100 0.000000 1.775610 
# 
# From -- ./inp_files/61123.got.cif
#   From: 2010.05.17/outbox.cif.g08.bks.cpg/sg10_31_cif.got.tgz:61123.got - 2010.06.03 11:33:40.
