data_PCOD9149222
_publ_section_title
;
Structure prediction by ZEFSAII (Michael W. Deem and Ramdas Pophale) SiO2 
 PCOD9149222
Probable space group: P 2/M
;
_chemical_formula_sum "Si O2"
_cell_formula_units_Z 28
_cell_length_a 20.804048
_cell_length_b 8.446320
_cell_length_c 23.984028
_cell_angle_alpha 90.000000
_cell_angle_beta 19.815511
_cell_angle_gamma 90.000000
_cell_volume 1428.656252
_symmetry_space_group_name_H-M "P 2/M"
_symmetry_group_IT_number 10
_symmetry_cell_setting 'monoclinic'
loop_
_space_group_symop_operation_xyz
x,y,z
-x,y,-z
-x,-y,-z
x,-y,z
loop_
_atom_site_type_symbol
_atom_site_label
_atom_site_fract_x
_atom_site_fract_y
_atom_site_fract_z
Si Si1 0.796568 0.183987 0.137311
Si Si2 0.783789 0.190808 0.019499
Si Si3 0.441716 0.192108 0.902710
Si Si4 0.470500 0.679902 0.463305
Si Si5 0.924792 0.687084 0.729859
Si Si6 0.882535 0.191431 0.541222
Si Si7 0.146678 0.812047 0.651969
O O1 0.784728 0.236362 0.082785
O O2 0.675747 0.308183 0.269816
O O3 0.724346 0.000000 0.199544
O O4 0.000000 0.179727 0.000000
O O5 0.627630 0.246029 0.102415
O O6 0.770540 0.000000 0.030604
O O7 0.983325 0.232305 0.829125
O O8 0.661532 0.242868 0.728813
O O9 0.438134 0.000000 0.907628
O O10 0.277511 0.246149 0.080726
O O11 0.500000 0.756221 0.500000
O O12 0.402128 0.500000 0.526373
O O13 0.337956 0.764899 0.526580
O O14 0.902762 0.500000 0.743764
O O15 0.005729 0.751505 0.605167
O O16 0.085237 0.729889 0.644923
O O17 0.000000 0.239728 0.500000
O O18 0.878788 0.000000 0.541558
O O19 0.141912 0.000000 0.645980
#
# Coordination Sequence:
#
# PCOD9149222 Si02
#       7
#     4   4   4   4   4   4   4
#     4  10  20  34  54  80 108 143 192 244 292 348
#     4   8  16  32  55  82 106 137 186 243 294 340
#     4   9  19  38  62  87 119 161 209 254 303 363
#     4  11  24  38  52  78 117 155 191 238 299 359
#     4  11  23  39  61  92 129 163 200 250 316 379
#     4  10  22  40  64  93 124 163 213 263 305 357
#     4  10  20  38  63  85 110 149 198 246 292 351
#
# _framework density 19.598835999999999
#
# number of rings (size 3 to 8) (size 9 to 14) (size 15 to 20)
#    0.000    2.143    0.000    3.857    2.000    4.000 
#    0.000    6.429    0.000    0.000    0.000    0.000 
#    0.000    0.000    0.000    0.000    0.000    0.000 
#
# Total GULP energy -156030.683139 kJ/mol
# GULP energy per Si atom -5572.524398 kJ/mol
# Density = 1.955423 g / cm^3
# Si number density = 19.598836 Si / 1000 Ang^3
#
#
#
# Elastic Constant Matrix: (Units=GPa)
#
#
# Indices 1 2 3 4 5 6 
#
# 1 145.4141 24.2163 87.6901 0.0000 14.6229 0.0000
# 2 24.2163 28.6340 22.5109 0.0000 -0.9060 0.0000
# 3 87.6901 22.5109 110.0109 0.0000 -7.0486 0.0000
# 4 0.0000 0.0000 0.0000 14.2803 0.0000 -7.5088
# 5 14.6229 -0.9060 -7.0486 0.0000 37.2583 0.0000
# 6 0.0000 0.0000 0.0000 -7.5088 0.0000 3.8329
#
#
#
# Elastic Compliance Matrix: (Units=1/GPa)
#
#
# Indices 1 2 3 4 5 6 
#
# 1 0.015899 -0.003957 -0.012420 0.000000 -0.008686 0.000000
# 2 -0.003957 0.042617 -0.005467 0.000000 0.001555 0.000000
# 3 -0.012420 -0.005467 0.020663 0.000000 0.008651 0.000000
# 4 0.000000 0.000000 0.000000 -2.326870 0.000000 -4.558454
# 5 -0.008686 0.001555 0.008651 0.000000 0.031923 0.000000
# 6 0.000000 0.000000 0.000000 -4.558454 0.000000 -8.669336
#
#
# Mechanical properties :
#
#
# Convention : Reuss Voigt Hill
#
# Bulk Modulus (GPa) = 28.17569 61.43261 44.80415
# Shear Modulus (GPa) = -0.46170 21.05041 10.29436
#
# Velocity S-wave (km/s) = -0.48589 3.28085 2.29433
# Velocity P-wave (km/s) = 3.75402 6.76499 5.47072
#
# Compressibility (1/GPa) = 0.03549159
#
# Stress axis : x y z
#
# Youngs Moduli (GPa) = 62.89679 23.46485 48.39574
#
# Poissons Ratio (x) = 0.09285 0.60108
# Poissons Ratio (y) = 0.24887 0.26457
# Poissons Ratio (z) = 0.78118 0.12828
#
# Static dielectric constant tensor:
#      x y z
#    x 1.732720 0.000000 -0.016000 
#    y 0.000000 1.695620 0.000000 
#    z -0.016000 0.000000 1.681690 
# 
# From -- ./inp_files/86538.got.cif
#   From: 2010.05.17/outbox.cif.g08.bks.cpg/sg10_44_cif.got.tgz:86538.got - 2010.06.03 11:33:40.
