data_PCOD9149416
_publ_section_title
;
Structure prediction by ZEFSAII (Michael W. Deem and Ramdas Pophale) SiO2 
 PCOD9149416
Probable space group: P 2/M
;
_chemical_formula_sum "Si O2"
_cell_formula_units_Z 32
_cell_length_a 18.589535
_cell_length_b 14.789253
_cell_length_c 13.675815
_cell_angle_alpha 90.000000
_cell_angle_beta 158.462332
_cell_angle_gamma 90.000000
_cell_volume 1380.281121
_symmetry_space_group_name_H-M "P 2/M"
_symmetry_group_IT_number 10
_symmetry_cell_setting 'monoclinic'
loop_
_space_group_symop_operation_xyz
x,y,z
-x,y,-z
-x,-y,-z
x,-y,z
loop_
_atom_site_type_symbol
_atom_site_label
_atom_site_fract_x
_atom_site_fract_y
_atom_site_fract_z
Si Si1 0.364903 0.898888 0.427358
Si Si2 0.281926 0.889744 0.599807
Si Si3 0.033090 0.395656 0.251995
Si Si4 0.052423 0.202059 0.922568
Si Si5 0.542111 0.396904 0.157317
Si Si6 0.266883 0.895382 0.793086
Si Si7 0.160223 0.648231 0.787839
Si Si8 0.737362 0.842964 0.009861
O O1 0.500000 0.897012 0.500000
O O2 0.523058 0.879642 0.711620
O O3 0.284927 0.000000 0.337920
O O4 0.188579 0.830480 0.182981
O O5 0.205804 0.854957 0.611532
O O6 0.164110 0.838846 0.365968
O O7 0.262124 0.000000 0.562395
O O8 0.511126 0.865209 0.900242
O O9 0.013427 0.500000 0.190049
O O10 0.260514 0.364279 0.542517
O O11 0.934989 0.310950 0.071993
O O12 0.947275 0.395051 0.254498
O O13 0.148665 0.154780 0.947859
O O14 0.602273 0.500000 0.210531
O O15 0.500000 0.350534 0.000000
O O16 0.346132 0.399186 0.973044
O O17 0.283106 0.000000 0.789576
O O18 0.169404 0.889791 0.776621
O O19 0.000000 0.663677 0.500000
O O20 0.255193 0.739668 0.947794
#
# Coordination Sequence:
#
# PCOD9149416 Si02
#       8
#     4   4   4   4   4   4   4   4
#     4   9  18  37  62  84 113 151 196 251 304 357
#     4   9  19  34  52  79 113 150 186 230 291 355
#     4  10  22  38  57  88 122 158 203 249 301 362
#     4  10  21  36  59  85 111 148 199 250 295 353
#     4  10  20  34  56  83 116 162 202 242 306 361
#     4   9  19  34  51  74 114 154 182 227 294 355
#     4  11  22  35  56  85 124 158 203 254 294 354
#     4  10  22  34  54  84 114 148 195 240 301 353
#
# _framework density 23.183682999999998
#
# number of rings (size 3 to 8) (size 9 to 14) (size 15 to 20)
#    0.000    2.250    1.250    1.875    5.250    2.000 
#    0.000    1.875    0.000   12.375    0.000    1.750 
#    0.000    0.000    0.000    0.000    0.000    0.000 
#
# Total GULP energy -178493.751965 kJ/mol
# GULP energy per Si atom -5577.929749 kJ/mol
# Density = 2.313092 g / cm^3
# Si number density = 23.183683 Si / 1000 Ang^3
#
#
#
# Elastic Constant Matrix: (Units=GPa)
#
#
# Indices 1 2 3 4 5 6 
#
# 1 81.0505 1.1196 29.8282 0.0000 -7.7274 0.0000
# 2 1.1196 71.4894 40.2738 0.0000 -12.5659 0.0000
# 3 29.8282 40.2738 100.5721 0.0000 -20.3232 0.0000
# 4 0.0000 0.0000 0.0000 24.7372 0.0000 -5.4357
# 5 -7.7274 -12.5659 -20.3232 0.0000 51.7812 0.0000
# 6 0.0000 0.0000 0.0000 -5.4357 0.0000 -19.4220
#
#
#
# Elastic Compliance Matrix: (Units=1/GPa)
#
#
# Indices 1 2 3 4 5 6 
#
# 1 0.014296 0.002857 -0.005228 0.000000 0.000775 0.000000
# 2 0.002857 0.018769 -0.007991 0.000000 0.001845 0.000000
# 3 -0.005228 -0.007991 0.015362 0.000000 0.003310 0.000000
# 4 0.000000 0.000000 0.000000 0.038083 0.000000 -0.010658
# 5 0.000775 0.001845 0.003310 0.000000 0.021175 0.000000
# 6 0.000000 0.000000 0.000000 -0.010658 0.000000 -0.048505
#
#
# Mechanical properties :
#
#
# Convention : Reuss Voigt Hill
#
# Bulk Modulus (GPa) = 36.09347 43.95057 40.02202
# Shear Modulus (GPa) = 56.09304 23.54532 39.81918
#
# Velocity S-wave (km/s) = 4.92418 3.19030 4.14883
# Velocity P-wave (km/s) = 6.92332 5.70696 6.34436
#
# Compressibility (1/GPa) = 0.02770584
#
# Stress axis : x y z
#
# Youngs Moduli (GPa) = 69.94820 53.27875 65.09431
#
# Poissons Ratio (x) = -0.15224 0.34029
# Poissons Ratio (y) = -0.19987 0.52015
# Poissons Ratio (z) = 0.36567 0.42573
#
# Static dielectric constant tensor:
#      x y z
#    x 2.030200 0.000000 0.067810 
#    y 0.000000 1.858480 0.000000 
#    z 0.067810 0.000000 1.892190 
# 
# From -- ./inp_files/70770.got.cif
#   From: 2010.05.17/outbox.cif.g08.bks.cpg/sg10_36_cif.got.tgz:70770.got - 2010.06.03 11:33:40.
