data_PCOD9149697
_publ_section_title
;
Structure prediction by ZEFSAII (Michael W. Deem and Ramdas Pophale) SiO2 
 PCOD9149697
Probable space group: P 2/M
;
_chemical_formula_sum "Si O2"
_cell_formula_units_Z 28
_cell_length_a 17.996995
_cell_length_b 8.883581
_cell_length_c 18.161668
_cell_angle_alpha 90.000000
_cell_angle_beta 31.617307
_cell_angle_gamma 90.000000
_cell_volume 1522.216995
_symmetry_space_group_name_H-M "P 2/M"
_symmetry_group_IT_number 10
_symmetry_cell_setting 'monoclinic'
loop_
_space_group_symop_operation_xyz
x,y,z
-x,y,-z
-x,-y,-z
x,-y,z
loop_
_atom_site_type_symbol
_atom_site_label
_atom_site_fract_x
_atom_site_fract_y
_atom_site_fract_z
Si Si1 0.721681 0.325841 0.183571
Si Si2 0.455703 0.826616 0.123956
Si Si3 0.100943 0.824740 0.085772
Si Si4 0.160700 0.679760 0.340997
Si Si5 0.547104 0.168201 0.545838
Si Si6 0.181770 0.323633 0.730693
Si Si7 0.251398 0.321867 0.094705
O O1 0.747240 0.500000 0.141924
O O2 0.779492 0.211128 0.075149
O O3 0.556258 0.290099 0.331803
O O4 0.794464 0.297866 0.201847
O O5 0.296908 0.759123 0.264418
O O6 0.457840 0.000000 0.147267
O O7 0.500000 0.825566 0.000000
O O8 0.585032 0.732431 0.049613
O O9 0.064057 0.000000 0.117984
O O10 0.157555 0.769027 0.116164
O O11 0.971022 0.725136 0.166946
O O12 0.170112 0.500000 0.346874
O O13 0.190889 0.703772 0.228356
O O14 0.000000 0.727188 0.500000
O O15 0.500000 0.161401 0.500000
O O16 0.706310 0.225277 0.408825
O O17 0.531904 0.000000 0.589575
O O18 0.208015 0.500000 0.696653
O O19 0.244297 0.500000 0.086007
#
# Coordination Sequence:
#
# PCOD9149697 Si02
#       7
#     4   4   4   4   4   4   4
#     4  10  20  35  55  78 104 138 182 227 272 327
#     4   9  17  31  53  80 108 137 170 207 250 304
#     4  12  24  36  52  76 108 142 180 228 277 323
#     4   9  18  34  58  86 111 137 173 215 258 310
#     4   9  17  31  52  77 103 131 168 217 269 317
#     4  10  20  35  55  78 105 140 183 227 273 326
#     4  10  20  36  56  77 106 142 178 216 264 321
#
# _framework density 18.394223
#
# number of rings (size 3 to 8) (size 9 to 14) (size 15 to 20)
#    0.000    2.143    0.000    3.857    0.000    7.714 
#    0.000    1.429    0.000    1.714    0.000    0.000 
#    0.000    0.000    0.000    0.000    0.000    0.000 
#
# Total GULP energy -156141.356774 kJ/mol
# GULP energy per Si atom -5576.477028 kJ/mol
# Density = 1.835236 g / cm^3
# Si number density = 18.394223 Si / 1000 Ang^3
#
#
#
# Elastic Constant Matrix: (Units=GPa)
#
#
# Indices 1 2 3 4 5 6 
#
# 1 53.4035 11.0050 21.4524 0.0000 -41.5718 0.0000
# 2 11.0050 62.5147 5.7286 0.0000 11.5877 0.0000
# 3 21.4524 5.7286 100.9054 0.0000 -34.0036 0.0000
# 4 0.0000 0.0000 0.0000 28.3461 0.0000 -3.1946
# 5 -41.5718 11.5877 -34.0036 0.0000 65.5959 0.0000
# 6 0.0000 0.0000 0.0000 -3.1946 0.0000 20.2610
#
#
#
# Elastic Compliance Matrix: (Units=1/GPa)
#
#
# Indices 1 2 3 4 5 6 
#
# 1 0.046896 -0.014642 0.002118 0.000000 0.033405 0.000000
# 2 -0.014642 0.021574 -0.003057 0.000000 -0.014675 0.000000
# 3 0.002118 -0.003057 0.012441 0.000000 0.008332 0.000000
# 4 0.000000 0.000000 0.000000 0.035916 0.000000 0.005663
# 5 0.033405 -0.014675 0.008332 0.000000 0.043327 0.000000
# 6 0.000000 0.000000 0.000000 0.005663 0.000000 0.050249
#
#
# Mechanical properties :
#
#
# Convention : Reuss Voigt Hill
#
# Bulk Modulus (GPa) = 20.10062 32.57728 26.33895
# Shear Modulus (GPa) = 19.36877 34.74978 27.05928
#
# Velocity S-wave (km/s) = 3.24849 4.35117 3.83962
# Velocity P-wave (km/s) = 5.00216 6.55688 5.83156
#
# Compressibility (1/GPa) = 0.04974972
#
# Stress axis : x y z
#
# Youngs Moduli (GPa) = 21.32391 46.35197 80.37820
#
# Poissons Ratio (x) = 0.67866 -0.17026
# Poissons Ratio (y) = 0.31221 0.24574
# Poissons Ratio (z) = -0.04517 0.14171
#
# Static dielectric constant tensor:
#      x y z
#    x 1.623590 0.000000 0.005820 
#    y 0.000000 1.610080 0.000000 
#    z 0.005820 0.000000 1.626710 
# 
# From -- ./inp_files/85611.got.cif
#   From: 2010.05.17/outbox.cif.g08.bks.cpg/sg10_43_cif.got.tgz:85611.got - 2010.06.03 11:33:40.
