data_PCOD9149256
_publ_section_title
;
Structure prediction by ZEFSAII (Michael W. Deem and Ramdas Pophale) SiO2 
 PCOD9149256
Probable space group: P 2/M
;
_chemical_formula_sum "Si O2"
_cell_formula_units_Z 18
_cell_length_a 11.225044
_cell_length_b 10.817500
_cell_length_c 11.574966
_cell_angle_alpha 90.000000
_cell_angle_beta 34.437175
_cell_angle_gamma 90.000000
_cell_volume 794.820407
_symmetry_space_group_name_H-M "P 2/M"
_symmetry_group_IT_number 10
_symmetry_cell_setting 'monoclinic'
loop_
_space_group_symop_operation_xyz
x,y,z
-x,y,-z
-x,-y,-z
x,-y,z
loop_
_atom_site_type_symbol
_atom_site_label
_atom_site_fract_x
_atom_site_fract_y
_atom_site_fract_z
Si Si1 0.692050 0.634525 0.758095
Si Si2 0.845092 0.141953 0.782588
Si Si3 0.000000 0.293538 0.000000
Si Si4 0.252054 0.858611 0.605654
Si Si5 0.605070 0.271765 0.187397
O O1 0.795527 0.500000 0.682877
O O2 0.807215 0.756058 0.714459
O O3 0.579584 0.650485 0.725145
O O4 0.500000 0.627911 0.000000
O O5 0.086691 0.145208 0.631051
O O6 0.792544 0.000000 0.792003
O O7 0.704677 0.184235 0.006800
O O8 0.129281 0.215048 0.802818
O O9 0.197426 0.347158 0.916046
O O10 0.475522 0.805922 0.385770
O O11 0.272027 0.000000 0.625446
#
# Coordination Sequence:
#
# PCOD9149256 Si02
#       5
#     4   4   2   4   4
#     4   9  19  37  60  85 115 150 187 231 284 338
#     4   9  19  35  56  85 118 149 184 228 280 337
#     4  10  21  36  53  78 114 152 192 234 280 334
#     4  10  20  34  54  82 115 150 187 231 283 336
#     4  10  20  34  55  81 113 151 190 231 279 333
#
# _framework density 22.646623000000002
#
# number of rings (size 3 to 8) (size 9 to 14) (size 15 to 20)
#    0.000    2.444    0.000    1.667    0.000    9.333 
#    0.000    5.000    0.000    5.333    0.000    0.000 
#    0.000    0.000    0.000    0.000    0.000    0.000 
#
# Total GULP energy -100311.922242 kJ/mol
# GULP energy per Si atom -5572.884569 kJ/mol
# Density = 2.259508 g / cm^3
# Si number density = 22.646623 Si / 1000 Ang^3
#
#
#
# Elastic Constant Matrix: (Units=GPa)
#
#
# Indices 1 2 3 4 5 6 
#
# 1 115.6242 54.5067 23.9730 0.0000 -8.7960 0.0000
# 2 54.5067 134.3652 24.3442 0.0000 -3.3906 0.0000
# 3 23.9730 24.3442 128.2733 0.0000 -14.7147 0.0000
# 4 0.0000 0.0000 0.0000 79.5078 0.0000 2.1529
# 5 -8.7960 -3.3906 -14.7147 0.0000 37.4546 0.0000
# 6 0.0000 0.0000 0.0000 2.1529 0.0000 32.6854
#
#
#
# Elastic Compliance Matrix: (Units=1/GPa)
#
#
# Indices 1 2 3 4 5 6 
#
# 1 0.010994 -0.004225 -0.001048 0.000000 0.001788 0.000000
# 2 -0.004225 0.009332 -0.001045 0.000000 -0.000558 0.000000
# 3 -0.001048 -0.001045 0.008536 0.000000 0.003013 0.000000
# 4 0.000000 0.000000 0.000000 0.012600 0.000000 -0.000830
# 5 0.001788 -0.000558 0.003013 0.000000 0.028252 0.000000
# 6 0.000000 0.000000 0.000000 -0.000830 0.000000 0.030649
#
#
# Mechanical properties :
#
#
# Convention : Reuss Voigt Hill
#
# Bulk Modulus (GPa) = 61.63338 64.87894 63.25616
# Shear Modulus (GPa) = 42.22762 48.29215 45.25989
#
# Velocity S-wave (km/s) = 4.32282 4.62282 4.47534
# Velocity P-wave (km/s) = 7.22427 7.56337 7.39576
#
# Compressibility (1/GPa) = 0.01622498
#
# Stress axis : x y z
#
# Youngs Moduli (GPa) = 90.96275 107.16355 117.15545
#
# Poissons Ratio (x) = 0.45273 0.12275
# Poissons Ratio (y) = 0.38429 0.12248
# Poissons Ratio (z) = 0.09530 0.11203
#
# Static dielectric constant tensor:
#      x y z
#    x 2.032090 0.000000 0.010910 
#    y 0.000000 1.842610 0.000000 
#    z 0.010910 0.000000 1.788130 
# 
# From -- ./inp_files/45778.got.cif
#   From: 2010.05.17/outbox.cif.g08.bks.cpg/sg10_23_cif.got.tgz:45778.got - 2010.06.03 11:33:40.
