data_PCOD9149382
_publ_section_title
;
Structure prediction by ZEFSAII (Michael W. Deem and Ramdas Pophale) SiO2 
 PCOD9149382
Probable space group: P 2/M
;
_chemical_formula_sum "Si O2"
_cell_formula_units_Z 24
_cell_length_a 17.039162
_cell_length_b 13.930515
_cell_length_c 13.163303
_cell_angle_alpha 90.000000
_cell_angle_beta 25.442561
_cell_angle_gamma 90.000000
_cell_volume 1342.303307
_symmetry_space_group_name_H-M "P 2/M"
_symmetry_group_IT_number 10
_symmetry_cell_setting 'monoclinic'
loop_
_space_group_symop_operation_xyz
x,y,z
-x,y,-z
-x,-y,-z
x,-y,z
loop_
_atom_site_type_symbol
_atom_site_label
_atom_site_fract_x
_atom_site_fract_y
_atom_site_fract_z
Si Si1 0.520713 0.607896 0.355163
Si Si2 0.212066 0.391903 0.287930
Si Si3 0.563942 0.113606 0.808181
Si Si4 0.297196 0.254013 0.011400
Si Si5 0.105786 0.254014 0.585616
Si Si6 0.896590 0.392105 0.227532
O O1 0.500000 0.620830 0.500000
O O2 0.598309 0.500000 0.247273
O O3 0.318885 0.609981 0.543347
O O4 0.635168 0.690724 0.167736
O O5 0.279878 0.500000 0.220122
O O6 0.313298 0.332116 0.082969
O O7 0.209561 0.332118 0.394166
O O8 0.000000 0.396872 0.500000
O O9 0.758187 0.165060 0.563701
O O10 0.573157 0.000000 0.780521
O O11 0.500000 0.129392 0.000000
O O12 0.419924 0.165056 0.901967
O O13 0.084861 0.227673 0.245420
O O14 0.061927 0.309282 0.740972
O O15 0.943886 0.500000 0.210533
O O16 0.000000 0.379164 0.000000
#
# Coordination Sequence:
#
# PCOD9149382 Si02
#       6
#     4   4   4   4   4   4
#     4  10  20  34  55  87 124 161 197 232 277 342
#     4   9  18  31  51  82 119 153 184 224 276 344
#     4  11  24  42  62  86 114 146 198 255 302 353
#     4  11  21  37  59  85 116 153 194 237 294 348
#     4  11  21  37  59  85 116 153 194 237 294 348
#     4  10  20  34  55  87 124 161 197 232 277 342
#
# _framework density 17.879715000000001
#
# number of rings (size 3 to 8) (size 9 to 14) (size 15 to 20)
#    0.000    1.667    3.333    2.000    0.000    4.000 
#    0.000    2.500    0.000    1.000    0.000    0.000 
#    0.000    0.000    0.000    0.000    0.000    0.000 
#
# Total GULP energy -134051.343679 kJ/mol
# GULP energy per Si atom -5585.472653 kJ/mol
# Density = 1.783902 g / cm^3
# Si number density = 17.879715 Si / 1000 Ang^3
#
#
#
# Elastic Constant Matrix: (Units=GPa)
#
#
# Indices 1 2 3 4 5 6 
#
# 1 70.3548 55.6331 31.8589 0.0000 -7.5454 0.0000
# 2 55.6331 142.5325 56.1599 0.0000 -3.3381 0.0000
# 3 31.8589 56.1599 73.1192 0.0000 -9.7988 0.0000
# 4 0.0000 0.0000 0.0000 19.9863 0.0000 1.1558
# 5 -7.5454 -3.3381 -9.7988 0.0000 33.9240 0.0000
# 6 0.0000 0.0000 0.0000 1.1558 0.0000 20.1745
#
#
#
# Elastic Compliance Matrix: (Units=1/GPa)
#
#
# Indices 1 2 3 4 5 6 
#
# 1 0.021714 -0.006937 -0.003721 0.000000 0.003072 0.000000
# 2 -0.006937 0.012332 -0.006754 0.000000 -0.002281 0.000000
# 3 -0.003721 -0.006754 0.021102 0.000000 0.004603 0.000000
# 4 0.000000 0.000000 0.000000 0.050201 0.000000 -0.002876
# 5 0.003072 -0.002281 0.004603 0.000000 0.031266 0.000000
# 6 0.000000 0.000000 0.000000 -0.002876 0.000000 0.049732
#
#
# Mechanical properties :
#
#
# Convention : Reuss Voigt Hill
#
# Bulk Modulus (GPa) = 49.20703 63.70113 56.45408
# Shear Modulus (GPa) = 21.93503 24.30728 23.12115
#
# Velocity S-wave (km/s) = 3.50639 3.69113 3.59994
# Velocity P-wave (km/s) = 6.63128 7.33967 6.99445
#
# Compressibility (1/GPa) = 0.02032230
#
# Stress axis : x y z
#
# Youngs Moduli (GPa) = 46.05382 81.09264 47.38829
#
# Poissons Ratio (x) = 0.56255 0.17633
# Poissons Ratio (y) = 0.31948 0.32008
# Poissons Ratio (z) = 0.17137 0.54773
#
# Static dielectric constant tensor:
#      x y z
#    x 1.622650 0.000000 -0.016520 
#    y 0.000000 1.580720 0.000000 
#    z -0.016520 0.000000 1.625300 
# 
# From -- ./inp_files/37471.got.cif
#   From: 2010.05.17/outbox.cif.g08.bks.cpg/sg10_19_cif.got.tgz:37471.got - 2010.06.03 11:33:40.
