data_PCOD9149427
_publ_section_title
;
Structure prediction by ZEFSAII (Michael W. Deem and Ramdas Pophale) SiO2 
 PCOD9149427
Probable space group: P 2/M
;
_chemical_formula_sum "Si O2"
_cell_formula_units_Z 26
_cell_length_a 14.434132
_cell_length_b 16.707123
_cell_length_c 4.936800
_cell_angle_alpha 90.000000
_cell_angle_beta 98.197078
_cell_angle_gamma 90.000000
_cell_volume 1178.360259
_symmetry_space_group_name_H-M "P 2/M"
_symmetry_group_IT_number 10
_symmetry_cell_setting 'monoclinic'
loop_
_space_group_symop_operation_xyz
x,y,z
-x,y,-z
-x,-y,-z
x,-y,z
loop_
_atom_site_type_symbol
_atom_site_label
_atom_site_fract_x
_atom_site_fract_y
_atom_site_fract_z
Si Si1 0.898388 0.416887 0.332111
Si Si2 0.393789 0.830954 0.565587
Si Si3 0.429565 0.000000 0.723335
Si Si4 0.725660 0.412610 0.663346
Si Si5 0.766089 0.240601 0.847073
Si Si6 0.566765 0.337628 0.268219
Si Si7 0.894371 0.760100 0.366908
O O1 0.883412 0.500000 0.162601
O O2 0.822455 0.416271 0.539002
O O3 0.900632 0.327317 0.220622
O O4 0.000000 0.422497 0.500000
O O5 0.500000 0.835619 0.500000
O O6 0.373578 0.916701 0.689759
O O7 0.321484 0.810641 0.297280
O O8 0.392820 0.752315 0.757508
O O9 0.500000 0.000000 0.500000
O O10 0.500000 0.000000 0.000000
O O11 0.705821 0.500000 0.778877
O O12 0.728863 0.333739 0.855262
O O13 0.649085 0.394613 0.400231
O O14 0.837099 0.244059 0.621125
O O15 0.823421 0.201229 0.118990
O O16 0.500000 0.331523 0.500000
O O17 0.500000 0.364217 0.000000
O O18 0.000000 0.784995 0.500000
#
# Coordination Sequence:
#
# PCOD9149427 Si02
#       7
#     4   4   2   4   4   4   4
#     4   8  15  29  48  70  97 128 166 218 274 317
#     4   9  20  36  56  83 114 142 172 211 260 318
#     4  10  20  34  56  84 113 144 173 208 258 316
#     4   9  19  33  50  73 102 138 180 221 262 313
#     4  10  21  35  54  78 106 141 177 217 269 314
#     4  10  21  36  53  74 104 141 178 217 258 302
#     4  10  20  35  54  77 103 136 181 225 264 313
#
# _framework density 22.064558000000002
#
# number of rings (size 3 to 8) (size 9 to 14) (size 15 to 20)
#    0.000    2.615    0.000    0.923    0.000   14.769 
#    0.000    3.077    0.000    9.231    0.000    3.231 
#    0.000    0.000    0.000    0.000    0.000    0.000 
#
# Total GULP energy -144965.865082 kJ/mol
# GULP energy per Si atom -5575.610195 kJ/mol
# Density = 2.201434 g / cm^3
# Si number density = 22.064558 Si / 1000 Ang^3
#
#
#
# Elastic Constant Matrix: (Units=GPa)
#
#
# Indices 1 2 3 4 5 6 
#
# 1 71.4671 30.0860 30.8315 0.0000 14.6115 0.0000
# 2 30.0860 98.6731 25.0818 0.0000 17.5636 0.0000
# 3 30.8315 25.0818 145.5671 0.0000 24.1533 0.0000
# 4 0.0000 0.0000 0.0000 10.0289 0.0000 -0.3690
# 5 14.6115 17.5636 24.1533 0.0000 35.2986 0.0000
# 6 0.0000 0.0000 0.0000 -0.3690 0.0000 2.1826
#
#
#
# Elastic Compliance Matrix: (Units=1/GPa)
#
#
# Indices 1 2 3 4 5 6 
#
# 1 0.017477 -0.004084 -0.002408 0.000000 -0.003555 0.000000
# 2 -0.004084 0.012240 -0.000580 0.000000 -0.004003 0.000000
# 3 -0.002408 -0.000580 0.008197 0.000000 -0.004324 0.000000
# 4 0.000000 0.000000 0.000000 0.100336 0.000000 0.016966
# 5 -0.003555 -0.004003 -0.004324 0.000000 0.034751 0.000000
# 6 0.000000 0.000000 0.000000 0.016966 0.000000 0.461047
#
#
# Mechanical properties :
#
#
# Convention : Reuss Voigt Hill
#
# Bulk Modulus (GPa) = 42.07008 54.18956 48.12982
# Shear Modulus (GPa) = 7.62061 24.81589 16.21825
#
# Velocity S-wave (km/s) = 1.86045 3.35728 2.71410
# Velocity P-wave (km/s) = 4.87065 6.29614 5.62870
#
# Compressibility (1/GPa) = 0.02376986
#
# Stress axis : x y z
#
# Youngs Moduli (GPa) = 57.21655 81.70204 121.99533
#
# Poissons Ratio (x) = 0.33368 0.29380
# Poissons Ratio (y) = 0.23368 0.07073
# Poissons Ratio (z) = 0.13779 0.04737
#
# Static dielectric constant tensor:
#      x y z
#    x 1.810070 0.000000 0.010190 
#    y 0.000000 1.935660 0.000000 
#    z 0.010190 0.000000 1.815230 
# 
# From -- ./inp_files/9726.got.cif
#   From: 2010.05.17/outbox.cif.g08.bks.cpg/sg10_5_cif.got.tgz:9726.got - 2010.06.03 11:33:40.
