data_PCOD9149267
_publ_section_title
;
Structure prediction by ZEFSAII (Michael W. Deem and Ramdas Pophale) SiO2 
 PCOD9149267
Probable space group: P 2/M
;
_chemical_formula_sum "Si O2"
_cell_formula_units_Z 26
_cell_length_a 9.003521
_cell_length_b 7.694306
_cell_length_c 22.877479
_cell_angle_alpha 90.000000
_cell_angle_beta 132.232878
_cell_angle_gamma 90.000000
_cell_volume 1173.458050
_symmetry_space_group_name_H-M "P 2/M"
_symmetry_group_IT_number 10
_symmetry_cell_setting 'monoclinic'
loop_
_space_group_symop_operation_xyz
x,y,z
-x,y,-z
-x,-y,-z
x,-y,z
loop_
_atom_site_type_symbol
_atom_site_label
_atom_site_fract_x
_atom_site_fract_y
_atom_site_fract_z
Si Si1 0.500000 0.242404 0.500000
Si Si2 0.339251 0.794027 0.114871
Si Si3 0.166271 0.804768 0.316456
Si Si4 0.229970 0.794588 0.725192
Si Si5 0.231020 0.500000 0.634114
Si Si6 0.291039 0.788006 0.972910
Si Si7 0.245861 0.500000 0.506803
Si Si8 0.143873 0.211254 0.183053
O O1 0.647779 0.177123 0.590410
O O2 0.338433 0.340905 0.496545
O O3 0.580144 0.780892 0.181820
O O4 0.267727 0.724710 0.033608
O O5 0.249828 0.722413 0.151869
O O6 0.288103 0.000000 0.100900
O O7 0.217212 0.728027 0.266383
O O8 0.974602 0.726340 0.299152
O O9 0.091909 0.000000 0.283679
O O10 0.278493 0.673044 0.682995
O O11 0.209307 0.000000 0.703340
O O12 0.317311 0.500000 0.592175
O O13 0.991281 0.500000 0.561069
O O14 0.300052 0.000000 0.977257
O O15 0.500000 0.728431 0.000000
O O16 0.091670 0.745905 0.884227
O O17 0.171256 0.000000 0.188030
#
# Coordination Sequence:
#
# PCOD9149267 Si02
#       8
#     2   4   4   4   2   4   2   4
#     4  11  21  40  58  82 111 155 192 255 301 358
#     4   9  17  29  48  79 116 152 199 247 291 350
#     4  10  20  34  54  83 118 155 200 247 302 362
#     4  10  21  38  60  88 120 159 200 244 297 359
#     4  11  22  44  62  88 118 158 194 254 301 361
#     4   9  15  25  44  73 113 158 197 240 296 350
#     4  10  24  40  62  82 112 148 202 244 306 363
#     4   9  17  28  46  76 116 155 195 248 296 349
#
# _framework density 22.156737
#
# number of rings (size 3 to 8) (size 9 to 14) (size 15 to 20)
#    0.000    2.308    1.538    1.615    2.154    5.538 
#    0.000    2.308    0.000    0.000    0.000    9.154 
#    0.000    0.000    0.000    0.000    0.000    0.000 
#
# Total GULP energy -144894.066500 kJ/mol
# GULP energy per Si atom -5572.848712 kJ/mol
# Density = 2.210631 g / cm^3
# Si number density = 22.156737 Si / 1000 Ang^3
#
#
#
# Elastic Constant Matrix: (Units=GPa)
#
#
# Indices 1 2 3 4 5 6 
#
# 1 98.7409 4.4144 54.2246 0.0000 -16.9386 0.0000
# 2 4.4144 41.7590 22.4028 0.0000 -7.0230 0.0000
# 3 54.2246 22.4028 138.5717 0.0000 -32.8224 0.0000
# 4 0.0000 0.0000 0.0000 8.5015 0.0000 -6.0392
# 5 -16.9386 -7.0230 -32.8224 0.0000 43.4107 0.0000
# 6 0.0000 0.0000 0.0000 -6.0392 0.0000 3.7317
#
#
#
# Elastic Compliance Matrix: (Units=1/GPa)
#
#
# Indices 1 2 3 4 5 6 
#
# 1 0.013071 0.001563 -0.004994 0.000000 0.001577 0.000000
# 2 0.001563 0.026465 -0.004546 0.000000 0.001454 0.000000
# 3 -0.004994 -0.004546 0.011292 0.000000 0.005854 0.000000
# 4 0.000000 0.000000 0.000000 -0.786131 0.000000 -1.272231
# 5 0.001577 0.001454 0.005854 0.000000 0.028313 0.000000
# 6 0.000000 0.000000 0.000000 -1.272231 0.000000 -1.790939
#
#
# Mechanical properties :
#
#
# Convention : Reuss Voigt Hill
#
# Bulk Modulus (GPa) = 28.67456 49.01726 38.84591
# Shear Modulus (GPa) = -2.02400 24.33077 11.15338
#
# Velocity S-wave (km/s) = -0.95681 3.31739 2.24606
# Velocity P-wave (km/s) = 3.42770 6.06996 4.92917
#
# Compressibility (1/GPa) = 0.03487412
#
# Stress axis : x y z
#
# Youngs Moduli (GPa) = 76.50792 37.78584 88.55822
#
# Poissons Ratio (x) = -0.05904 0.44223
# Poissons Ratio (y) = -0.11955 0.40254
# Poissons Ratio (z) = 0.38206 0.17176
#
# Static dielectric constant tensor:
#      x y z
#    x 1.820030 0.000000 -0.026090 
#    y 0.000000 1.871810 0.000000 
#    z -0.026090 0.000000 1.798820 
# 
# From -- ./inp_files/82293.got.cif
#   From: 2010.05.17/outbox.cif.g08.bks.cpg/sg10_42_cif.got.tgz:82293.got - 2010.06.03 11:33:40.
