data_PCOD9149965
_publ_section_title
;
Structure prediction by ZEFSAII (Michael W. Deem and Ramdas Pophale) SiO2 
 PCOD9149965
Probable space group: P 2/M
;
_chemical_formula_sum "Si O2"
_cell_formula_units_Z 26
_cell_length_a 7.423327
_cell_length_b 9.609524
_cell_length_c 19.464871
_cell_angle_alpha 90.000000
_cell_angle_beta 125.970713
_cell_angle_gamma 90.000000
_cell_volume 1123.752942
_symmetry_space_group_name_H-M "P 2/M"
_symmetry_group_IT_number 10
_symmetry_cell_setting 'monoclinic'
loop_
_space_group_symop_operation_xyz
x,y,z
-x,y,-z
-x,-y,-z
x,-y,z
loop_
_atom_site_type_symbol
_atom_site_label
_atom_site_fract_x
_atom_site_fract_y
_atom_site_fract_z
Si Si1 0.500000 0.239436 0.000000
Si Si2 0.501513 0.158019 0.611343
Si Si3 0.217505 0.844633 0.687433
Si Si4 0.853406 0.342640 0.766501
Si Si5 0.638167 0.649945 0.170956
Si Si6 0.991505 0.844047 0.079679
Si Si7 0.858232 0.341488 0.539277
O O1 0.494630 0.327761 0.928910
O O2 0.266378 0.158802 0.952802
O O3 0.348194 0.146735 0.645181
O O4 0.709923 0.245981 0.684507
O O5 0.354216 0.247873 0.525961
O O6 0.551426 0.000000 0.599682
O O7 0.376086 0.776718 0.779855
O O8 0.014508 0.740409 0.627160
O O9 0.145350 0.000000 0.691174
O O10 0.763009 0.500000 0.749561
O O11 0.104431 0.350790 0.794789
O O12 0.878617 0.269293 0.846287
O O13 0.585527 0.500000 0.190984
O O14 0.081393 0.000000 0.112417
O O15 0.000000 0.817586 0.000000
O O16 0.808140 0.500000 0.549793
O O17 0.000000 0.350116 0.500000
#
# Coordination Sequence:
#
# PCOD9149965 Si02
#       7
#     2   4   4   4   4   4   4
#     4  10  22  40  62  88 118 160 200 252 306 356
#     4  10  20  35  57  85 118 152 188 237 290 344
#     4  10  21  35  56  86 116 149 192 237 288 349
#     4  10  22  39  57  82 114 151 192 238 293 348
#     4  10  22  40  60  82 114 151 193 242 293 350
#     4  10  22  39  60  86 118 155 200 250 301 362
#     4   9  17  32  55  83 115 151 191 235 286 343
#
# _framework density 23.136756999999999
#
# number of rings (size 3 to 8) (size 9 to 14) (size 15 to 20)
#    0.000    2.154    0.000    2.308    2.154    8.308 
#    0.000    0.769    0.000    4.615    0.000    0.000 
#    0.000    0.000    0.000    0.000    0.000    0.000 
#
# Total GULP energy -145412.230142 kJ/mol
# GULP energy per Si atom -5592.778082 kJ/mol
# Density = 2.308410 g / cm^3
# Si number density = 23.136757 Si / 1000 Ang^3
#
#
#
# Elastic Constant Matrix: (Units=GPa)
#
#
# Indices 1 2 3 4 5 6 
#
# 1 57.3135 30.9741 17.5889 0.0000 -8.6911 0.0000
# 2 30.9741 192.2894 47.3046 0.0000 10.5498 0.0000
# 3 17.5889 47.3046 79.0596 0.0000 9.5353 0.0000
# 4 0.0000 0.0000 0.0000 4.1013 0.0000 -1.7454
# 5 -8.6911 10.5498 9.5353 0.0000 34.9246 0.0000
# 6 0.0000 0.0000 0.0000 -1.7454 0.0000 13.9798
#
#
#
# Elastic Compliance Matrix: (Units=1/GPa)
#
#
# Indices 1 2 3 4 5 6 
#
# 1 0.021288 -0.002868 -0.003891 0.000000 0.007227 0.000000
# 2 -0.002868 0.006511 -0.003034 0.000000 -0.001852 0.000000
# 3 -0.003891 -0.003034 0.015858 0.000000 -0.004382 0.000000
# 4 0.000000 0.000000 0.000000 0.257508 0.000000 0.032150
# 5 0.007227 -0.001852 -0.004382 0.000000 0.032187 0.000000
# 6 0.000000 0.000000 0.000000 0.032150 0.000000 0.075546
#
#
# Mechanical properties :
#
#
# Convention : Reuss Voigt Hill
#
# Bulk Modulus (GPa) = 41.54654 57.82197 49.68425
# Shear Modulus (GPa) = 11.45452 26.12079 18.78765
#
# Velocity S-wave (km/s) = 2.22745 3.36367 2.85270
# Velocity P-wave (km/s) = 4.96098 6.33493 5.68958
#
# Compressibility (1/GPa) = 0.02406939
#
# Stress axis : x y z
#
# Youngs Moduli (GPa) = 46.97467 153.59768 63.05848
#
# Poissons Ratio (x) = 0.44055 0.24539
# Poissons Ratio (y) = 0.13473 0.19132
# Poissons Ratio (z) = 0.18280 0.46602
#
# Static dielectric constant tensor:
#      x y z
#    x 1.906450 0.000000 -0.011750 
#    y 0.000000 1.861200 0.000000 
#    z -0.011750 0.000000 1.846160 
# 
# From -- ./inp_files/82222.got.cif
#   From: 2010.05.17/outbox.cif.g08.bks.cpg/sg10_42_cif.got.tgz:82222.got - 2010.06.03 11:33:40.
