data_PCOD9149622
_publ_section_title
;
Structure prediction by ZEFSAII (Michael W. Deem and Ramdas Pophale) SiO2 
 PCOD9149622
Probable space group: P 2/M
;
_chemical_formula_sum "Si O2"
_cell_formula_units_Z 32
_cell_length_a 14.736734
_cell_length_b 8.672268
_cell_length_c 21.311579
_cell_angle_alpha 90.000000
_cell_angle_beta 136.581515
_cell_angle_gamma 90.000000
_cell_volume 1872.016775
_symmetry_space_group_name_H-M "P 2/M"
_symmetry_group_IT_number 10
_symmetry_cell_setting 'monoclinic'
loop_
_space_group_symop_operation_xyz
x,y,z
-x,y,-z
-x,-y,-z
x,-y,z
loop_
_atom_site_type_symbol
_atom_site_label
_atom_site_fract_x
_atom_site_fract_y
_atom_site_fract_z
Si Si1 0.412721 0.313495 0.137692
Si Si2 0.419997 0.313961 0.281050
Si Si3 0.864002 0.315167 0.813149
Si Si4 0.580232 0.312275 0.102439
Si Si5 0.579384 0.183924 0.477915
Si Si6 0.855149 0.183152 0.048069
Si Si7 0.856656 0.686650 0.189870
Si Si8 0.150850 0.684377 0.342793
O O1 0.409110 0.500000 0.133952
O O2 0.458610 0.267076 0.230116
O O3 0.507309 0.259339 0.128739
O O4 0.265380 0.254142 0.051067
O O5 0.423523 0.500000 0.286813
O O6 0.267909 0.266953 0.217156
O O7 0.511382 0.249075 0.381641
O O8 0.879847 0.500000 0.826510
O O9 0.841269 0.280362 0.727798
O O10 0.000465 0.237612 0.901876
O O11 0.577167 0.500000 0.101716
O O12 0.732436 0.266623 0.169675
O O13 0.500000 0.263594 0.000000
O O14 0.500000 0.240462 0.500000
O O15 0.730398 0.235013 0.561889
O O16 0.570982 0.000000 0.472509
O O17 0.840899 0.244754 0.112381
O O18 0.847728 0.000000 0.043777
O O19 0.854714 0.500000 0.182119
O O20 0.002025 0.728941 0.287513
O O21 0.165013 0.500000 0.356741
#
# Coordination Sequence:
#
# PCOD9149622 Si02
#       8
#     4   4   4   4   4   4   4   4
#     4  10  20  35  54  76 102 136 176 213 255 306
#     4  10  21  36  55  76 100 134 176 217 254 300
#     4   9  18  33  51  72 100 136 173 211 251 297
#     4   9  15  28  55  81 102 131 168 215 260 299
#     4  11  22  34  52  77 105 135 166 207 259 311
#     4  11  21  31  47  73 106 141 173 210 250 299
#     4   9  17  32  53  78 104 134 170 211 258 301
#     4   9  17  30  52  76 100 129 169 213 250 298
#
# _framework density 17.093864
#
# number of rings (size 3 to 8) (size 9 to 14) (size 15 to 20)
#    0.000    2.250    2.500    2.250    0.000    4.000 
#    0.000    3.750    0.000    0.750    0.000    5.250 
#    0.000    0.000    0.000    0.000    0.000    0.000 
#
# Total GULP energy -178518.233444 kJ/mol
# GULP energy per Si atom -5578.694795 kJ/mol
# Density = 1.705496 g / cm^3
# Si number density = 17.093864 Si / 1000 Ang^3
#
#
#
# Elastic Constant Matrix: (Units=GPa)
#
#
# Indices 1 2 3 4 5 6 
#
# 1 120.8754 25.1068 77.8257 0.0000 3.2620 0.0000
# 2 25.1068 13.0551 26.3240 0.0000 -1.9770 0.0000
# 3 77.8257 26.3240 124.8878 0.0000 0.4926 0.0000
# 4 0.0000 0.0000 0.0000 -14.5211 0.0000 -7.6459
# 5 3.2620 -1.9770 0.4926 0.0000 23.4586 0.0000
# 6 0.0000 0.0000 0.0000 -7.6459 0.0000 3.6584
#
#
#
# Elastic Compliance Matrix: (Units=1/GPa)
#
#
# Indices 1 2 3 4 5 6 
#
# 1 0.016386 -0.020062 -0.005967 0.000000 -0.003844 0.000000
# 2 -0.020062 0.161139 -0.021529 0.000000 0.016822 0.000000
# 3 -0.005967 -0.021529 0.016269 0.000000 -0.001326 0.000000
# 4 0.000000 0.000000 0.000000 -0.032786 0.000000 -0.068522
# 5 -0.003844 0.016822 -0.001326 0.000000 0.044608 0.000000
# 6 0.000000 0.000000 0.000000 -0.068522 0.000000 0.130137
#
#
# Mechanical properties :
#
#
# Convention : Reuss Voigt Hill
#
# Bulk Modulus (GPa) = 10.13412 57.48124 33.80768
# Shear Modulus (GPa) = 10.78138 11.15664 10.96901
#
# Velocity S-wave (km/s) = 2.51413 2.55751 2.53591
# Velocity P-wave (km/s) = 3.79067 6.51314 5.32870
#
# Compressibility (1/GPa) = 0.09867655
#
# Stress axis : x y z
#
# Youngs Moduli (GPa) = 61.02877 6.20581 61.46701
#
# Poissons Ratio (x) = 0.12450 0.36678
# Poissons Ratio (y) = 1.22437 1.32335
# Poissons Ratio (z) = 0.36417 0.13361
#
# Static dielectric constant tensor:
#      x y z
#    x 1.597720 0.000000 0.007970 
#    y 0.000000 1.570200 0.000000 
#    z 0.007970 0.000000 1.556200 
# 
# From -- ./inp_files/65997.got.cif
#   From: 2010.05.17/outbox.cif.g08.bks.cpg/sg10_33_cif.got.tgz:65997.got - 2010.06.03 11:33:40.
