data_PCOD9149405
_publ_section_title
;
Structure prediction by ZEFSAII (Michael W. Deem and Ramdas Pophale) SiO2 
 PCOD9149405
Probable space group: P 2/M
;
_chemical_formula_sum "Si O2"
_cell_formula_units_Z 32
_cell_length_a 5.400145
_cell_length_b 9.766473
_cell_length_c 29.685439
_cell_angle_alpha 90.000000
_cell_angle_beta 78.299037
_cell_angle_gamma 90.000000
_cell_volume 1533.086505
_symmetry_space_group_name_H-M "P 2/M"
_symmetry_group_IT_number 10
_symmetry_cell_setting 'monoclinic'
loop_
_space_group_symop_operation_xyz
x,y,z
-x,y,-z
-x,-y,-z
x,-y,z
loop_
_atom_site_type_symbol
_atom_site_label
_atom_site_fract_x
_atom_site_fract_y
_atom_site_fract_z
Si Si1 0.293845 0.653282 0.750668
Si Si2 0.781518 0.336389 0.971541
Si Si3 0.985700 0.152820 0.296265
Si Si4 0.593936 0.150782 0.389018
Si Si5 0.533511 0.839324 0.179341
Si Si6 0.322486 0.348362 0.344326
Si Si7 0.779494 0.164750 0.476072
Si Si8 0.101331 0.160204 0.120560
O O1 0.216678 0.500000 0.768432
O O2 0.075795 0.761616 0.746126
O O3 0.470255 0.731644 0.779660
O O4 0.438870 0.635002 0.698050
O O5 0.790018 0.500000 0.963118
O O6 0.836469 0.255161 0.923952
O O7 0.500000 0.303341 0.000000
O O8 0.000000 0.304149 0.000000
O O9 0.736686 0.135724 0.336429
O O10 0.155095 0.244077 0.322267
O O11 0.083539 0.000000 0.283418
O O12 0.402024 0.273564 0.387321
O O13 0.787752 0.184929 0.421945
O O14 0.477598 0.000000 0.403812
O O15 0.307957 0.815830 0.152284
O O16 0.812170 0.817978 0.147176
O O17 0.524454 0.000000 0.194027
O O18 0.211070 0.500000 0.354719
O O19 0.500000 0.214118 0.500000
O O20 0.000000 0.219722 0.500000
O O21 0.780523 0.000000 0.481971
O O22 0.124142 0.000000 0.107090
#
# Coordination Sequence:
#
# PCOD9149405 Si02
#       8
#     4   4   4   4   4   4   4   4
#     4  10  22  38  55  80 111 148 194 238 286 345
#     4  10  21  37  59  87 118 151 192 241 292 347
#     4  10  20  34  56  82 109 142 186 236 286 340
#     4   9  19  34  54  81 108 141 185 231 285 340
#     4  10  22  39  58  84 118 155 195 241 288 344
#     4  10  21  36  55  80 111 145 187 236 286 341
#     4   9  18  31  52  82 114 143 179 232 287 340
#     4  10  22  39  59  86 118 153 196 240 289 346
#
# _framework density 20.872926
#
# number of rings (size 3 to 8) (size 9 to 14) (size 15 to 20)
#    0.000    2.250    0.000    1.875    3.500    3.500 
#    0.000    0.000    0.000    0.750    0.000    0.000 
#    0.000    0.000    0.000    0.000    0.000    0.000 
#
# Total GULP energy -178464.972866 kJ/mol
# GULP energy per Si atom -5577.030402 kJ/mol
# Density = 2.082542 g / cm^3
# Si number density = 20.872926 Si / 1000 Ang^3
#
#
#
# Elastic Constant Matrix: (Units=GPa)
#
#
# Indices 1 2 3 4 5 6 
#
# 1 103.4824 37.3937 33.8352 0.0000 21.0316 0.0000
# 2 37.3937 126.5234 43.0904 0.0000 27.2678 0.0000
# 3 33.8352 43.0904 91.7377 0.0000 15.4616 0.0000
# 4 0.0000 0.0000 0.0000 113.8488 0.0000 44.4047
# 5 21.0316 27.2678 15.4616 0.0000 36.6133 0.0000
# 6 0.0000 0.0000 0.0000 44.4047 0.0000 26.6637
#
#
#
# Elastic Compliance Matrix: (Units=1/GPa)
#
#
# Indices 1 2 3 4 5 6 
#
# 1 0.012129 -0.001602 -0.002958 0.000000 -0.004525 0.000000
# 2 -0.001602 0.010792 -0.003530 0.000000 -0.005626 0.000000
# 3 -0.002958 -0.003530 0.013910 0.000000 -0.001546 0.000000
# 4 0.000000 0.000000 0.000000 0.025063 0.000000 -0.041740
# 5 -0.004525 -0.005626 -0.001546 0.000000 0.034755 0.000000
# 6 0.000000 0.000000 0.000000 -0.041740 0.000000 0.107016
#
#
# Mechanical properties :
#
#
# Convention : Reuss Voigt Hill
#
# Bulk Modulus (GPa) = 48.42435 61.15357 54.78896
# Shear Modulus (GPa) = 22.05265 49.25344 35.65304
#
# Velocity S-wave (km/s) = 3.25394 4.86292 4.13740
# Velocity P-wave (km/s) = 6.11289 7.80335 7.00927
#
# Compressibility (1/GPa) = 0.02065077
#
# Stress axis : x y z
#
# Youngs Moduli (GPa) = 82.44476 92.66177 71.88853
#
# Poissons Ratio (x) = 0.14845 0.21268
# Poissons Ratio (y) = 0.13208 0.25376
# Poissons Ratio (z) = 0.24391 0.32709
#
# Static dielectric constant tensor:
#      x y z
#    x 1.819750 0.000000 -0.035400 
#    y 0.000000 1.800640 0.000000 
#    z -0.035400 0.000000 1.753260 
# 
# From -- ./inp_files/94341.got.cif
#   From: 2010.05.17/outbox.cif.g08.bks.cpg/sg10_48_cif.got.tgz:94341.got - 2010.06.03 11:33:40.
