data_PCOD9149542
_publ_section_title
;
Structure prediction by ZEFSAII (Michael W. Deem and Ramdas Pophale) SiO2 
 PCOD9149542
Probable space group: P 2/M
;
_chemical_formula_sum "Si O2"
_cell_formula_units_Z 30
_cell_length_a 11.916521
_cell_length_b 7.396926
_cell_length_c 21.806620
_cell_angle_alpha 90.000000
_cell_angle_beta 40.710348
_cell_angle_gamma 90.000000
_cell_volume 1253.699416
_symmetry_space_group_name_H-M "P 2/M"
_symmetry_group_IT_number 10
_symmetry_cell_setting 'monoclinic'
loop_
_space_group_symop_operation_xyz
x,y,z
-x,y,-z
-x,-y,-z
x,-y,z
loop_
_atom_site_type_symbol
_atom_site_label
_atom_site_fract_x
_atom_site_fract_y
_atom_site_fract_z
Si Si1 0.027562 0.206734 0.289511
Si Si2 0.559841 0.794464 0.040739
Si Si3 0.750549 0.720576 0.144989
Si Si4 0.530479 0.291274 0.655201
Si Si5 0.090072 0.719450 0.526824
Si Si6 0.344092 0.781883 0.609146
Si Si7 0.897106 0.717535 0.952404
Si Si8 0.326916 0.500000 0.169247
O O1 0.183586 0.341629 0.213489
O O2 0.997143 0.208439 0.375762
O O3 0.845568 0.270804 0.335340
O O4 0.060173 0.000000 0.256205
O O5 0.765883 0.787616 0.956807
O O6 0.472877 0.658089 0.123747
O O7 0.502907 0.000000 0.071024
O O8 0.500000 0.717440 0.000000
O O9 0.748607 0.500000 0.146335
O O10 0.569422 0.787104 0.245254
O O11 0.809239 0.774202 0.053177
O O12 0.906423 0.777351 0.125477
O O13 0.568625 0.500000 0.654548
O O14 0.712736 0.215369 0.558820
O O15 0.397867 0.283329 0.653922
O O16 0.083324 0.500000 0.535591
O O17 0.000000 0.766311 0.500000
O O18 0.500000 0.721358 0.500000
O O19 0.346000 0.000000 0.608524
O O20 0.897634 0.500000 0.948928
#
# Coordination Sequence:
#
# PCOD9149542 Si02
#       8
#     4   4   4   4   4   4   4   2
#     4  11  24  42  65  95 129 172 223 271 327 388
#     4  11  25  45  69  98 131 169 217 267 323 395
#     4   8  17  34  59  97 130 163 212 268 325 388
#     4  10  20  34  59  91 124 166 220 268 319 389
#     4  10  21  38  58  90 132 180 227 275 322 378
#     4  10  21  38  60  84 121 165 211 272 328 376
#     4   9  17  37  66  92 129 171 208 261 333 394
#     4  12  25  44  66  93 130 175 213 265 321 387
#
# _framework density 23.929181
#
# number of rings (size 3 to 8) (size 9 to 14) (size 15 to 20)
#    0.000    2.000    2.667    1.400    0.933    2.667 
#    4.800    4.000    0.000    0.000    0.000    0.000 
#    0.000    0.000    0.000    0.000    0.000    0.000 
#
# Total GULP energy -167226.488169 kJ/mol
# GULP energy per Si atom -5574.216272 kJ/mol
# Density = 2.387472 g / cm^3
# Si number density = 23.929181 Si / 1000 Ang^3
#
#
#
# Elastic Constant Matrix: (Units=GPa)
#
#
# Indices 1 2 3 4 5 6 
#
# 1 83.9800 -2.7511 -3.7725 0.0000 -13.2836 0.0000
# 2 -2.7511 120.8000 13.9552 0.0000 -11.9667 0.0000
# 3 -3.7725 13.9552 69.3483 0.0000 -5.9627 0.0000
# 4 0.0000 0.0000 0.0000 -3.3015 0.0000 6.8782
# 5 -13.2836 -11.9667 -5.9627 0.0000 29.7668 0.0000
# 6 0.0000 0.0000 0.0000 6.8782 0.0000 -1.8456
#
#
#
# Elastic Compliance Matrix: (Units=1/GPa)
#
#
# Indices 1 2 3 4 5 6 
#
# 1 0.012984 0.000797 0.001090 0.000000 0.006333 0.000000
# 2 0.000797 0.008819 -0.001420 0.000000 0.003616 0.000000
# 3 0.001090 -0.001420 0.015016 0.000000 0.002924 0.000000
# 4 0.000000 0.000000 0.000000 0.044778 0.000000 0.166881
# 5 0.006333 0.003616 0.002924 0.000000 0.038460 0.000000
# 6 0.000000 0.000000 0.000000 0.166881 0.000000 0.080103
#
#
# Mechanical properties :
#
#
# Convention : Reuss Voigt Hill
#
# Bulk Modulus (GPa) = 26.48712 32.11017 29.29865
# Shear Modulus (GPa) = 23.60597 22.70373 23.15485
#
# Velocity S-wave (km/s) = 3.14426 3.08358 3.11407
# Velocity P-wave (km/s) = 4.92695 5.11135 5.02000
#
# Compressibility (1/GPa) = 0.03775420
#
# Stress axis : x y z
#
# Youngs Moduli (GPa) = 77.01503 113.39639 66.59355
#
# Poissons Ratio (x) = -0.09039 -0.07262
# Poissons Ratio (y) = -0.06139 0.09458
# Poissons Ratio (z) = -0.08398 0.16106
#
# Static dielectric constant tensor:
#      x y z
#    x 1.924790 0.000000 0.025200 
#    y 0.000000 1.853560 0.000000 
#    z 0.025200 0.000000 1.940250 
# 
# From -- ./inp_files/88684.got.cif
#   From: 2010.05.17/outbox.cif.g08.bks.cpg/sg10_45_cif.got.tgz:88684.got - 2010.06.03 11:33:40.
