data_PCOD9149347
_publ_section_title
;
Structure prediction by ZEFSAII (Michael W. Deem and Ramdas Pophale) SiO2 
 PCOD9149347
Probable space group: P 2/M
;
_chemical_formula_sum "Si O2"
_cell_formula_units_Z 21
_cell_length_a 11.166774
_cell_length_b 11.647049
_cell_length_c 14.162057
_cell_angle_alpha 90.000000
_cell_angle_beta 151.671797
_cell_angle_gamma 90.000000
_cell_volume 874.029137
_symmetry_space_group_name_H-M "P 2/M"
_symmetry_group_IT_number 10
_symmetry_cell_setting 'monoclinic'
loop_
_space_group_symop_operation_xyz
x,y,z
-x,y,-z
-x,-y,-z
x,-y,z
loop_
_atom_site_type_symbol
_atom_site_label
_atom_site_fract_x
_atom_site_fract_y
_atom_site_fract_z
Si Si1 0.827259 0.867461 0.459571
Si Si2 0.841976 0.500000 0.241788
Si Si3 0.404341 0.670930 0.297421
Si Si4 0.253169 0.866959 0.074786
Si Si5 0.396356 0.500000 0.721041
Si Si6 0.000000 0.500000 0.000000
Si Si7 0.949616 0.289436 0.721650
O O1 0.536070 0.866022 0.227330
O O2 0.888021 0.798854 0.594652
O O3 0.000000 0.813022 0.500000
O O4 0.898949 0.000000 0.523735
O O5 0.113567 0.500000 0.483835
O O6 0.864971 0.388135 0.190177
O O7 0.359706 0.500000 0.810105
O O8 0.312419 0.800177 0.213591
O O9 0.464511 0.606950 0.236191
O O10 0.169438 0.598571 0.169104
O O11 0.664549 0.662224 0.534251
O O12 0.176138 0.000000 0.030485
O O13 0.071718 0.788376 0.886867
#
# Coordination Sequence:
#
# PCOD9149347 Si02
#       7
#     4   2   4   4   2   1   4
#     4   9  19  34  53  77 111 159 203 237 273 318
#     4   9  18  28  51  77 109 152 191 223 278 325
#     4   9  20  38  62  84 112 142 187 237 301 347
#     4  10  21  37  57  83 118 155 193 238 281 334
#     4   8  16  33  52  76 109 146 182 236 281 333
#     4  10  20  44  70  92 110 142 180 244 302 362
#     4  10  20  34  55  83 117 154 192 233 280 340
#
# _framework density 24.026658999999999
#
# number of rings (size 3 to 8) (size 9 to 14) (size 15 to 20)
#    0.000    2.667    0.000    1.143    8.000    3.048 
#    0.000    7.143    0.000    1.143    0.000    0.000 
#    0.000    0.000    0.000    0.000    0.000    0.000 
#
# Total GULP energy -117016.520614 kJ/mol
# GULP energy per Si atom -5572.215267 kJ/mol
# Density = 2.397197 g / cm^3
# Si number density = 24.026659 Si / 1000 Ang^3
#
#
#
# Elastic Constant Matrix: (Units=GPa)
#
#
# Indices 1 2 3 4 5 6 
#
# 1 96.0189 35.3144 40.3967 0.0000 -1.0210 0.0000
# 2 35.3144 172.1389 64.2279 0.0000 -5.8050 0.0000
# 3 40.3967 64.2279 150.6411 0.0000 -10.4635 0.0000
# 4 0.0000 0.0000 0.0000 37.8153 0.0000 -12.2832
# 5 -1.0210 -5.8050 -10.4635 0.0000 21.1846 0.0000
# 6 0.0000 0.0000 0.0000 -12.2832 0.0000 60.6441
#
#
#
# Elastic Compliance Matrix: (Units=1/GPa)
#
#
# Indices 1 2 3 4 5 6 
#
# 1 0.012086 -0.001521 -0.002673 0.000000 -0.001154 0.000000
# 2 -0.001521 0.007104 -0.002579 0.000000 0.000599 0.000000
# 3 -0.002673 -0.002579 0.008695 0.000000 0.003459 0.000000
# 4 0.000000 0.000000 0.000000 0.028307 0.000000 0.005733
# 5 -0.001154 0.000599 0.003459 0.000000 0.049021 0.000000
# 6 0.000000 0.000000 0.000000 0.005733 0.000000 0.017651
#
#
# Mechanical properties :
#
#
# Convention : Reuss Voigt Hill
#
# Bulk Modulus (GPa) = 69.74095 77.63076 73.68586
# Shear Modulus (GPa) = 35.41330 42.51947 38.96638
#
# Velocity S-wave (km/s) = 3.84333 4.21132 4.03152
# Velocity P-wave (km/s) = 6.98458 7.48514 7.23919
#
# Compressibility (1/GPa) = 0.01433878
#
# Stress axis : x y z
#
# Youngs Moduli (GPa) = 82.73847 140.76721 115.00851
#
# Poissons Ratio (x) = 0.21414 0.30739
# Poissons Ratio (y) = 0.12586 0.29664
# Poissons Ratio (z) = 0.22114 0.36308
#
# Static dielectric constant tensor:
#      x y z
#    x 2.131810 0.000000 0.093560 
#    y 0.000000 1.907180 0.000000 
#    z 0.093560 0.000000 1.912450 
# 
# From -- ./inp_files/8901.got.cif
#   From: 2010.05.17/outbox.cif.g08.bks.cpg/sg10_5_cif.got.tgz:8901.got - 2010.06.03 11:33:40.
