data_PCOD9149595
_publ_section_title
;
Structure prediction by ZEFSAII (Michael W. Deem and Ramdas Pophale) SiO2 
 PCOD9149595
Probable space group: P 2/M
;
_chemical_formula_sum "Si O2"
_cell_formula_units_Z 32
_cell_length_a 24.747369
_cell_length_b 14.008914
_cell_length_c 9.067527
_cell_angle_alpha 90.000000
_cell_angle_beta 147.069846
_cell_angle_gamma 90.000000
_cell_volume 1708.892703
_symmetry_space_group_name_H-M "P 2/M"
_symmetry_group_IT_number 10
_symmetry_cell_setting 'monoclinic'
loop_
_space_group_symop_operation_xyz
x,y,z
-x,y,-z
-x,-y,-z
x,-y,z
loop_
_atom_site_type_symbol
_atom_site_label
_atom_site_fract_x
_atom_site_fract_y
_atom_site_fract_z
Si Si1 0.139750 0.104949 0.206090
Si Si2 0.071828 0.611387 0.332465
Si Si3 0.258245 0.611960 0.560827
Si Si4 0.447911 0.389338 0.148184
Si Si5 0.146603 0.713733 0.765831
Si Si6 0.867682 0.702775 0.933638
Si Si7 0.910979 0.106768 0.569853
Si Si8 0.352247 0.387474 0.257173
O O1 0.183754 0.200768 0.242216
O O2 0.136468 0.113626 0.375533
O O3 0.180175 0.000000 0.261821
O O4 0.028188 0.109619 0.880408
O O5 0.054474 0.500000 0.261790
O O6 0.168111 0.646611 0.461136
O O7 0.102302 0.626646 0.570949
O O8 0.969454 0.670369 0.084774
O O9 0.265089 0.500000 0.609634
O O10 0.215208 0.625154 0.298649
O O11 0.365916 0.653301 0.849085
O O12 0.463490 0.500000 0.141382
O O13 0.395658 0.387799 0.189501
O O14 0.559255 0.353414 0.431550
O O15 0.123146 0.809238 0.617461
O O16 0.105275 0.717511 0.835523
O O17 0.261333 0.685235 0.049530
O O18 0.890389 0.000000 0.462770
O O19 0.326832 0.500000 0.228798
#
# Coordination Sequence:
#
# PCOD9149595 Si02
#       8
#     4   4   4   4   4   4   4   4
#     4   9  19  36  55  73  96 132 177 220 252 289
#     4  11  22  35  49  68 103 148 183 208 240 292
#     4  10  20  35  53  73  98 138 186 222 249 290
#     4   8  15  31  54  75  94 129 182 227 258 287
#     4  12  22  33  49  77 110 140 167 204 261 314
#     4  12  24  32  47  76 110 143 171 204 252 312
#     4   9  19  36  57  76  97 131 175 218 256 299
#     4   9  17  31  52  77 103 133 173 219 260 299
#
# _framework density 18.725577000000001
#
# number of rings (size 3 to 8) (size 9 to 14) (size 15 to 20)
#    0.000    2.000    2.500    3.750    1.750    4.000 
#    0.000    1.875    0.000    2.250    0.000    2.625 
#    0.000    2.000    0.000    0.000    0.000    0.000 
#
# Total GULP energy -178227.824732 kJ/mol
# GULP energy per Si atom -5569.619523 kJ/mol
# Density = 1.868296 g / cm^3
# Si number density = 18.725577 Si / 1000 Ang^3
#
#
#
# Elastic Constant Matrix: (Units=GPa)
#
#
# Indices 1 2 3 4 5 6 
#
# 1 29.1679 19.2266 24.3773 0.0000 -7.7955 0.0000
# 2 19.2266 81.1116 32.5453 0.0000 2.5842 0.0000
# 3 24.3773 32.5453 137.8340 0.0000 -1.2903 0.0000
# 4 0.0000 0.0000 0.0000 12.5723 0.0000 3.0257
# 5 -7.7955 2.5842 -1.2903 0.0000 25.5715 0.0000
# 6 0.0000 0.0000 0.0000 3.0257 0.0000 2.6772
#
#
#
# Elastic Compliance Matrix: (Units=1/GPa)
#
#
# Indices 1 2 3 4 5 6 
#
# 1 0.050483 -0.009894 -0.006442 0.000000 0.016065 0.000000
# 2 -0.009894 0.015619 -0.001982 0.000000 -0.004694 0.000000
# 3 -0.006442 -0.001982 0.008850 0.000000 -0.001317 0.000000
# 4 0.000000 0.000000 0.000000 0.109258 0.000000 -0.123485
# 5 0.016065 -0.004694 -0.001317 0.000000 0.044411 0.000000
# 6 0.000000 0.000000 0.000000 -0.123485 0.000000 0.513095
#
#
# Mechanical properties :
#
#
# Convention : Reuss Voigt Hill
#
# Bulk Modulus (GPa) = 26.09816 44.49021 35.29418
# Shear Modulus (GPa) = 6.32012 19.62848 12.97430
#
# Velocity S-wave (km/s) = 1.83914 3.24113 2.63509
# Velocity P-wave (km/s) = 4.29853 6.14957 5.30540
#
# Compressibility (1/GPa) = 0.03831688
#
# Stress axis : x y z
#
# Youngs Moduli (GPa) = 19.80851 64.02586 112.99282
#
# Poissons Ratio (x) = 0.63344 0.72791
# Poissons Ratio (y) = 0.19598 0.22396
# Poissons Ratio (z) = 0.12761 0.12690
#
# Static dielectric constant tensor:
#      x y z
#    x 1.714210 0.000000 -0.007300 
#    y 0.000000 1.678310 0.000000 
#    z -0.007300 0.000000 1.706970 
# 
# From -- ./inp_files/37723.got.cif
#   From: 2010.05.17/outbox.cif.g08.bks.cpg/sg10_19_cif.got.tgz:37723.got - 2010.06.03 11:33:40.
