data_PCOD9149200
_publ_section_title
;
Structure prediction by ZEFSAII (Michael W. Deem and Ramdas Pophale) SiO2 
 PCOD9149200
Probable space group: P 2/M
;
_chemical_formula_sum "Si O2"
_cell_formula_units_Z 28
_cell_length_a 14.198682
_cell_length_b 7.554513
_cell_length_c 14.017178
_cell_angle_alpha 90.000000
_cell_angle_beta 120.240198
_cell_angle_gamma 90.000000
_cell_volume 1298.941119
_symmetry_space_group_name_H-M "P 2/M"
_symmetry_group_IT_number 10
_symmetry_cell_setting 'monoclinic'
loop_
_space_group_symop_operation_xyz
x,y,z
-x,y,-z
-x,-y,-z
x,-y,z
loop_
_atom_site_type_symbol
_atom_site_label
_atom_site_fract_x
_atom_site_fract_y
_atom_site_fract_z
Si Si1 0.049428 0.713800 0.740871
Si Si2 0.618747 0.288024 0.590374
Si Si3 0.766646 0.288033 0.311641
Si Si4 0.811240 0.717049 0.549702
Si Si5 0.335667 0.787104 0.165918
Si Si6 0.098213 0.210474 0.985368
Si Si7 0.522594 0.787259 0.118452
O O1 0.049133 0.500000 0.736418
O O2 0.144021 0.779210 0.718146
O O3 0.073610 0.763529 0.861793
O O4 0.930116 0.773863 0.646320
O O5 0.500000 0.218363 0.500000
O O6 0.616080 0.500000 0.576168
O O7 0.715998 0.222422 0.572325
O O8 0.642088 0.252561 0.712637
O O9 0.779499 0.500000 0.321667
O O10 0.787943 0.223740 0.429886
O O11 0.644501 0.251663 0.214903
O O12 0.811104 0.500000 0.549960
O O13 0.432493 0.719973 0.147258
O O14 0.334268 0.000000 0.155009
O O15 0.217181 0.718298 0.073872
O O16 0.102674 0.000000 0.005980
O O17 0.000000 0.283358 0.000000
O O18 0.512281 0.000000 0.110116
O O19 0.500000 0.720425 0.000000
#
# Coordination Sequence:
#
# PCOD9149200 Si02
#       7
#     4   4   4   4   4   4   4
#     4  10  20  34  55  81 106 137 175 214 260 310
#     4  10  20  34  54  79 106 138 174 213 258 306
#     4  10  20  35  56  80 105 135 175 219 258 304
#     4   9  18  34  54  77 108 141 171 209 260 313
#     4  10  21  36  54  77 105 138 174 213 260 311
#     4  10  21  37  56  78 106 140 176 215 259 306
#     4  10  21  37  55  75 104 141 175 211 261 315
#
# _framework density 21.556018000000002
#
# number of rings (size 3 to 8) (size 9 to 14) (size 15 to 20)
#    0.000    2.143    0.000    3.000    0.000    6.571 
#    0.000    1.429    0.000    1.714    0.000    0.000 
#    0.000    0.000    0.000    0.000    0.000    0.000 
#
# Total GULP energy -156535.947137 kJ/mol
# GULP energy per Si atom -5590.569541 kJ/mol
# Density = 2.150696 g / cm^3
# Si number density = 21.556018 Si / 1000 Ang^3
#
#
#
# Elastic Constant Matrix: (Units=GPa)
#
#
# Indices 1 2 3 4 5 6 
#
# 1 275.1468 3.8079 150.8533 0.0000 -0.0124 0.0000
# 2 3.8079 47.5623 -16.1810 0.0000 1.3464 0.0000
# 3 150.8533 -16.1810 222.6580 0.0000 4.7138 0.0000
# 4 0.0000 0.0000 0.0000 31.1435 0.0000 -0.9198
# 5 -0.0124 1.3464 4.7138 0.0000 49.1113 0.0000
# 6 0.0000 0.0000 0.0000 -0.9198 0.0000 11.0848
#
#
#
# Elastic Compliance Matrix: (Units=1/GPa)
#
#
# Indices 1 2 3 4 5 6 
#
# 1 0.005954 -0.001913 -0.004183 0.000000 0.000455 0.000000
# 2 -0.001913 0.022199 0.002928 0.000000 -0.000890 0.000000
# 3 -0.004183 0.002928 0.007555 0.000000 -0.000806 0.000000
# 4 0.000000 0.000000 0.000000 0.032188 0.000000 0.002671
# 5 0.000455 -0.000890 -0.000806 0.000000 0.020464 0.000000
# 6 0.000000 0.000000 0.000000 0.002671 0.000000 0.090435
#
#
# Mechanical properties :
#
#
# Convention : Reuss Voigt Hill
#
# Bulk Modulus (GPa) = 34.04384 91.36970 62.70677
# Shear Modulus (GPa) = 25.65140 45.39372 35.52256
#
# Velocity S-wave (km/s) = 3.45336 4.59393 4.06386
# Velocity P-wave (km/s) = 5.63280 8.40345 7.15355
#
# Compressibility (1/GPa) = 0.02937389
#
# Stress axis : x y z
#
# Youngs Moduli (GPa) = 167.95216 45.04611 132.36635
#
# Poissons Ratio (x) = 0.08615 0.55363
# Poissons Ratio (y) = 0.32121 -0.38755
# Poissons Ratio (z) = 0.70247 -0.13189
#
# Static dielectric constant tensor:
#      x y z
#    x 1.763350 0.000000 0.001120 
#    y 0.000000 1.830790 0.000000 
#    z 0.001120 0.000000 1.710270 
# 
# From -- ./inp_files/49487.got.cif
#   From: 2010.05.17/outbox.cif.g08.bks.cpg/sg10_25_cif.got.tgz:49487.got - 2010.06.03 11:33:40.
