data_PCOD9149306
_publ_section_title
;
Structure prediction by ZEFSAII (Michael W. Deem and Ramdas Pophale) SiO2 
 PCOD9149306
Probable space group: P 2/M
;
_chemical_formula_sum "Si O2"
_cell_formula_units_Z 32
_cell_length_a 24.161312
_cell_length_b 8.866446
_cell_length_c 17.318054
_cell_angle_alpha 90.000000
_cell_angle_beta 157.891281
_cell_angle_gamma 90.000000
_cell_volume 1396.299873
_symmetry_space_group_name_H-M "P 2/M"
_symmetry_group_IT_number 10
_symmetry_cell_setting 'monoclinic'
loop_
_space_group_symop_operation_xyz
x,y,z
-x,y,-z
-x,-y,-z
x,-y,z
loop_
_atom_site_type_symbol
_atom_site_label
_atom_site_fract_x
_atom_site_fract_y
_atom_site_fract_z
Si Si1 0.532569 0.320998 0.438342
Si Si2 0.157762 0.828811 0.815134
Si Si3 0.080843 0.318570 0.286809
Si Si4 0.864291 0.676649 0.466128
Si Si5 0.231505 0.827054 0.093602
Si Si6 0.555210 0.327518 0.854074
Si Si7 0.596829 0.833129 0.049798
Si Si8 0.832197 0.683560 0.765241
O O1 0.532903 0.500000 0.455540
O O2 0.393549 0.250236 0.304283
O O3 0.497039 0.303053 0.300758
O O4 0.702071 0.261624 0.654372
O O5 0.993920 0.771324 0.595393
O O6 0.176172 0.000000 0.812488
O O7 0.194608 0.828817 0.954116
O O8 0.271948 0.713520 0.925652
O O9 0.069912 0.500000 0.270084
O O10 0.140912 0.277576 0.449458
O O11 0.180705 0.274186 0.342340
O O12 0.914013 0.256037 0.062301
O O13 0.900035 0.500000 0.510878
O O14 0.718712 0.712414 0.231320
O O15 0.240781 0.000000 0.132553
O O16 0.524327 0.500000 0.834064
O O17 0.503549 0.219173 0.855341
O O18 0.659746 0.000000 0.118390
O O19 0.500000 0.841640 0.000000
O O20 0.824860 0.500000 0.760604
O O21 0.000000 0.727981 0.000000
#
# Coordination Sequence:
#
# PCOD9149306 Si02
#       8
#     4   4   4   4   4   4   4   4
#     4   9  18  33  57  84 111 143 182 226 273 325
#     4   9  17  32  54  78 108 138 175 220 268 320
#     4   9  18  33  57  84 111 143 182 226 273 325
#     4  10  20  34  55  80 106 137 178 224 271 316
#     4   9  17  31  53  81 111 145 184 224 269 323
#     4  10  20  34  55  80 106 137 178 224 271 316
#     4  11  25  40  51  70 105 143 183 223 264 317
#     4   9  18  34  57  86 115 142 178 225 273 325
#
# _framework density 22.917715000000001
#
# number of rings (size 3 to 8) (size 9 to 14) (size 15 to 20)
#    0.000    2.500    0.000    1.875    1.750    5.500 
#    0.000    3.750    0.000    5.250    0.000    0.000 
#    0.000    0.000    0.000    0.000    0.000    0.000 
#
# Total GULP energy -178602.403435 kJ/mol
# GULP energy per Si atom -5581.325107 kJ/mol
# Density = 2.286555 g / cm^3
# Si number density = 22.917715 Si / 1000 Ang^3
#
#
#
# Elastic Constant Matrix: (Units=GPa)
#
#
# Indices 1 2 3 4 5 6 
#
# 1 103.8868 -1.3078 21.5068 0.0000 16.3492 0.0000
# 2 -1.3078 14.0852 4.5683 0.0000 2.4426 0.0000
# 3 21.5068 4.5683 85.4078 0.0000 11.9280 0.0000
# 4 0.0000 0.0000 0.0000 14.6578 0.0000 6.7306
# 5 16.3492 2.4426 11.9280 0.0000 40.1747 0.0000
# 6 0.0000 0.0000 0.0000 6.7306 0.0000 20.2740
#
#
#
# Elastic Compliance Matrix: (Units=1/GPa)
#
#
# Indices 1 2 3 4 5 6 
#
# 1 0.010735 0.002406 -0.002297 0.000000 -0.003833 0.000000
# 2 0.002406 0.073234 -0.003927 0.000000 -0.004266 0.000000
# 3 -0.002297 -0.003927 0.012867 0.000000 -0.002647 0.000000
# 4 0.000000 0.000000 0.000000 0.080494 0.000000 -0.026722
# 5 -0.003833 -0.004266 -0.002647 0.000000 0.027496 0.000000
# 6 0.000000 0.000000 0.000000 -0.026722 0.000000 0.058196
#
#
# Mechanical properties :
#
#
# Convention : Reuss Voigt Hill
#
# Bulk Modulus (GPa) = 11.21078 28.10157 19.65618
# Shear Modulus (GPa) = 16.64508 26.92879 21.78694
#
# Velocity S-wave (km/s) = 2.69791 3.43158 3.08662
# Velocity P-wave (km/s) = 3.82196 5.29051 4.61502
#
# Compressibility (1/GPa) = 0.08919983
#
# Stress axis : x y z
#
# Youngs Moduli (GPa) = 93.15487 13.65493 77.72100
#
# Poissons Ratio (x) = -0.03286 0.17849
# Poissons Ratio (y) = -0.22416 0.30523
# Poissons Ratio (z) = 0.21394 0.05363
#
# Static dielectric constant tensor:
#      x y z
#    x 1.939820 0.000000 -0.025110 
#    y 0.000000 1.776120 0.000000 
#    z -0.025110 0.000000 1.880950 
# 
# From -- ./inp_files/87023.got.cif
#   From: 2010.05.17/outbox.cif.g08.bks.cpg/sg10_44_cif.got.tgz:87023.got - 2010.06.03 11:33:40.
