data_PCOD9149619
_publ_section_title
;
Structure prediction by ZEFSAII (Michael W. Deem and Ramdas Pophale) SiO2 
 PCOD9149619
Probable space group: P 2/M
;
_chemical_formula_sum "Si O2"
_cell_formula_units_Z 32
_cell_length_a 9.104223
_cell_length_b 14.821015
_cell_length_c 21.557287
_cell_angle_alpha 90.000000
_cell_angle_beta 151.528004
_cell_angle_gamma 90.000000
_cell_volume 1386.713247
_symmetry_space_group_name_H-M "P 2/M"
_symmetry_group_IT_number 10
_symmetry_cell_setting 'monoclinic'
loop_
_space_group_symop_operation_xyz
x,y,z
-x,y,-z
-x,-y,-z
x,-y,z
loop_
_atom_site_type_symbol
_atom_site_label
_atom_site_fract_x
_atom_site_fract_y
_atom_site_fract_z
Si Si1 0.203677 0.096897 0.153355
Si Si2 0.513245 0.101447 0.078746
Si Si3 0.270825 0.295925 0.552808
Si Si4 0.366228 0.713337 0.188790
Si Si5 0.222416 0.397831 0.322410
Si Si6 0.273415 0.097561 0.550469
Si Si7 0.159166 0.603784 0.948225
Si Si8 0.731186 0.287472 0.205172
O O1 0.288389 0.183287 0.144491
O O2 0.407486 0.096748 0.292097
O O3 0.273024 0.000000 0.148716
O O4 0.845016 0.103807 0.035043
O O5 0.702995 0.181439 0.181044
O O6 0.633635 0.000000 0.135125
O O7 0.500000 0.116638 0.000000
O O8 0.521701 0.278609 0.699398
O O9 0.433870 0.367391 0.569039
O O10 0.225475 0.197496 0.503830
O O11 0.000000 0.324744 0.500000
O O12 0.626499 0.686849 0.236235
O O13 0.078828 0.647274 0.090970
O O14 0.217110 0.500000 0.343891
O O15 0.011775 0.396127 0.181528
O O16 0.055175 0.328638 0.305936
O O17 0.000000 0.096308 0.500000
O O18 0.254614 0.000000 0.509606
O O19 0.234438 0.500000 0.991206
O O20 0.463395 0.664376 0.064686
#
# Coordination Sequence:
#
# PCOD9149619 Si02
#       8
#     4   4   4   4   4   4   4   4
#     4   9  17  31  50  72 106 145 183 221 259 313
#     4  10  21  33  49  76 110 152 191 219 258 317
#     4   9  19  38  61  80 104 138 176 224 272 325
#     4  10  21  34  51  82 108 137 182 220 267 320
#     4  10  22  38  57  81 104 137 183 223 269 325
#     4   8  14  26  49  80 104 126 166 220 266 300
#     4  10  20  35  54  75 104 142 182 220 259 310
#     4  12  22  33  52  77 112 146 174 222 269 315
#
# _framework density 23.076148
#
# number of rings (size 3 to 8) (size 9 to 14) (size 15 to 20)
#    0.000    2.250    1.250    1.875    3.500    3.250 
#    0.000    1.875    0.000    0.750    0.000    0.000 
#    0.000   11.000    0.000    0.000    0.000    0.000 
#
# Total GULP energy -178543.295171 kJ/mol
# GULP energy per Si atom -5579.477974 kJ/mol
# Density = 2.302363 g / cm^3
# Si number density = 23.076148 Si / 1000 Ang^3
#
#
#
# Elastic Constant Matrix: (Units=GPa)
#
#
# Indices 1 2 3 4 5 6 
#
# 1 81.1074 38.6949 3.8737 0.0000 16.7874 0.0000
# 2 38.6949 128.7834 18.2646 0.0000 22.9661 0.0000
# 3 3.8737 18.2646 36.4964 0.0000 1.8686 0.0000
# 4 0.0000 0.0000 0.0000 35.7132 0.0000 -16.6990
# 5 16.7874 22.9661 1.8686 0.0000 35.8763 0.0000
# 6 0.0000 0.0000 0.0000 -16.6990 0.0000 69.1996
#
#
#
# Elastic Compliance Matrix: (Units=1/GPa)
#
#
# Indices 1 2 3 4 5 6 
#
# 1 0.015068 -0.003770 0.000526 0.000000 -0.004665 0.000000
# 2 -0.003770 0.010370 -0.004552 0.000000 -0.004637 0.000000
# 3 0.000526 -0.004552 0.029565 0.000000 0.001128 0.000000
# 4 0.000000 0.000000 0.000000 0.031562 0.000000 0.007616
# 5 -0.004665 -0.004637 0.001128 0.000000 0.032966 0.000000
# 6 0.000000 0.000000 0.000000 0.007616 0.000000 0.016289
#
#
# Mechanical properties :
#
#
# Convention : Reuss Voigt Hill
#
# Bulk Modulus (GPa) = 25.37370 40.89485 33.13427
# Shear Modulus (GPa) = 30.38588 40.52808 35.45698
#
# Velocity S-wave (km/s) = 3.63266 4.19534 3.92410
# Velocity P-wave (km/s) = 5.34925 6.42090 5.90942
#
# Compressibility (1/GPa) = 0.03941089
#
# Stress axis : x y z
#
# Youngs Moduli (GPa) = 66.36379 96.42815 33.82430
#
# Poissons Ratio (x) = 0.36357 -0.01780
# Poissons Ratio (y) = 0.25021 0.15398
# Poissons Ratio (z) = -0.03493 0.43897
#
# Static dielectric constant tensor:
#      x y z
#    x 1.850430 0.000000 -0.029980 
#    y 0.000000 1.889460 0.000000 
#    z -0.029980 0.000000 1.948040 
# 
# From -- ./inp_files/61824.got.cif
#   From: 2010.05.17/outbox.cif.g08.bks.cpg/sg10_31_cif.got.tgz:61824.got - 2010.06.03 11:33:40.
