data_PCOD9149170
_publ_section_title
;
Structure prediction by ZEFSAII (Michael W. Deem and Ramdas Pophale) SiO2 
 PCOD9149170
Probable space group: P 2/M
;
_chemical_formula_sum "Si O2"
_cell_formula_units_Z 26
_cell_length_a 7.014713
_cell_length_b 10.114433
_cell_length_c 16.478698
_cell_angle_alpha 90.000000
_cell_angle_beta 86.187082
_cell_angle_gamma 90.000000
_cell_volume 1166.573126
_symmetry_space_group_name_H-M "P 2/M"
_symmetry_group_IT_number 10
_symmetry_cell_setting 'monoclinic'
loop_
_space_group_symop_operation_xyz
x,y,z
-x,y,-z
-x,-y,-z
x,-y,z
loop_
_atom_site_type_symbol
_atom_site_label
_atom_site_fract_x
_atom_site_fract_y
_atom_site_fract_z
Si Si1 0.386624 0.857352 0.919602
Si Si2 0.899825 0.352139 0.838039
Si Si3 0.157642 0.847891 0.300174
Si Si4 0.355683 0.650587 0.789075
Si Si5 0.217284 0.839581 0.476252
Si Si6 0.301155 0.152812 0.649582
Si Si7 0.000000 0.770621 0.000000
O O1 0.432614 0.730777 0.864242
O O2 0.162539 0.850952 0.948636
O O3 0.424374 0.000000 0.877827
O O4 0.500000 0.853794 0.000000
O O5 0.825399 0.500000 0.828700
O O6 0.814583 0.247387 0.776996
O O7 0.126526 0.354965 0.810827
O O8 0.893356 0.312013 0.932763
O O9 0.256359 0.803264 0.381929
O O10 0.929030 0.849139 0.327075
O O11 0.208533 0.000000 0.280164
O O12 0.420007 0.500000 0.777516
O O13 0.383554 0.744702 0.711285
O O14 0.329332 0.804607 0.555190
O O15 0.000000 0.794985 0.500000
O O16 0.217544 0.000000 0.475984
O O17 0.365005 0.000000 0.657225
#
# Coordination Sequence:
#
# PCOD9149170 Si02
#       7
#     4   4   4   4   4   4   2
#     4  10  21  36  54  76 100 127 163 204 242 285
#     4   9  17  28  42  61  88 123 161 200 242 288
#     4   8  13  21  34  54  81 114 155 200 243 288
#     4   9  17  28  42  63  92 124 158 197 242 289
#     4   7  10  17  30  50  77 111 151 194 239 285
#     4   8  12  20  36  55  79 116 158 197 239 286
#     4  10  20  34  54  74  98 130 164 200 244 290
#
# _framework density 22.287502
#
# number of rings (size 3 to 8) (size 9 to 14) (size 15 to 20)
#    0.000    3.385    0.000    2.769    0.000    5.231 
#    0.000    0.769    0.000    4.615    0.000    0.000 
#    0.000    1.231    0.000   12.000    0.000   28.308 
#
# Total GULP energy -145154.238438 kJ/mol
# GULP energy per Si atom -5582.855325 kJ/mol
# Density = 2.223677 g / cm^3
# Si number density = 22.287502 Si / 1000 Ang^3
#
#
#
# Elastic Constant Matrix: (Units=GPa)
#
#
# Indices 1 2 3 4 5 6 
#
# 1 69.6686 10.6866 13.6729 0.0000 -3.7998 0.0000
# 2 10.6866 165.2380 110.7608 0.0000 12.8448 0.0000
# 3 13.6729 110.7608 188.1936 0.0000 17.8193 0.0000
# 4 0.0000 0.0000 0.0000 -1.2233 0.0000 -2.2022
# 5 -3.7998 12.8448 17.8193 0.0000 35.6488 0.0000
# 6 0.0000 0.0000 0.0000 -2.2022 0.0000 5.0333
#
#
#
# Elastic Compliance Matrix: (Units=1/GPa)
#
#
# Indices 1 2 3 4 5 6 
#
# 1 0.014745 -0.000442 -0.001024 0.000000 0.002242 0.000000
# 2 -0.000442 0.010025 -0.005796 0.000000 -0.000762 0.000000
# 3 -0.001024 -0.005796 0.009040 0.000000 -0.002539 0.000000
# 4 0.000000 0.000000 0.000000 -0.457290 0.000000 -0.200076
# 5 0.002242 -0.000762 -0.002539 0.000000 0.029834 0.000000
# 6 0.000000 0.000000 0.000000 -0.200076 0.000000 0.111137
#
#
# Mechanical properties :
#
#
# Convention : Reuss Voigt Hill
#
# Bulk Modulus (GPa) = 51.84938 77.03787 64.44362
# Shear Modulus (GPa) = -19.11613 27.09043 3.98715
#
# Velocity S-wave (km/s) = -2.93184 3.49018 1.33897
# Velocity P-wave (km/s) = 3.44289 7.13319 5.60071
#
# Compressibility (1/GPa) = 0.01928663
#
# Stress axis : x y z
#
# Youngs Moduli (GPa) = 67.82133 99.75451 110.62536
#
# Poissons Ratio (x) = 0.04407 0.11323
# Poissons Ratio (y) = 0.02996 0.64115
# Poissons Ratio (z) = 0.06942 0.57815
#
# Static dielectric constant tensor:
#      x y z
#    x 1.920560 0.000000 0.014480 
#    y 0.000000 1.766520 0.000000 
#    z 0.014480 0.000000 1.812320 
# 
# From -- ./inp_files/74445.got.cif
#   From: 2010.05.17/outbox.cif.g08.bks.cpg/sg10_38_cif.got.tgz:74445.got - 2010.06.03 11:33:40.
