data_PCOD9149040
_publ_section_title
;
Structure prediction by ZEFSAII (Michael W. Deem and Ramdas Pophale) SiO2 
 PCOD9149040
Probable space group: P 2/M
;
_chemical_formula_sum "Si O2"
_cell_formula_units_Z 32
_cell_length_a 12.430734
_cell_length_b 13.667264
_cell_length_c 25.356914
_cell_angle_alpha 90.000000
_cell_angle_beta 154.547081
_cell_angle_gamma 90.000000
_cell_volume 1851.442052
_symmetry_space_group_name_H-M "P 2/M"
_symmetry_group_IT_number 10
_symmetry_cell_setting 'monoclinic'
loop_
_space_group_symop_operation_xyz
x,y,z
-x,y,-z
-x,-y,-z
x,-y,z
loop_
_atom_site_type_symbol
_atom_site_label
_atom_site_fract_x
_atom_site_fract_y
_atom_site_fract_z
Si Si1 0.131254 0.614720 0.702103
Si Si2 0.958964 0.772398 0.803451
Si Si3 0.736456 0.109755 0.144449
Si Si4 0.563047 0.753789 0.911888
Si Si5 0.502502 0.886444 0.210055
Si Si6 0.546693 0.115324 0.687979
Si Si7 0.022651 0.222836 0.448879
Si Si8 0.769294 0.385039 0.642092
O O1 0.122629 0.500000 0.684459
O O2 0.414692 0.654075 0.834780
O O3 0.011162 0.685621 0.604979
O O4 0.977718 0.627235 0.688659
O O5 0.047681 0.840445 0.794103
O O6 0.767377 0.831725 0.754635
O O7 0.838412 0.677749 0.723445
O O8 0.202492 0.744630 0.945648
O O9 0.642582 0.177119 0.150251
O O10 0.799302 0.000000 0.189482
O O11 0.500000 0.104169 0.000000
O O12 0.633227 0.812779 0.890070
O O13 0.417223 0.876194 0.232825
O O14 0.793014 0.852347 0.337903
O O15 0.475349 0.000000 0.182276
O O16 0.284783 0.167568 0.558180
O O17 0.535999 0.000000 0.670829
O O18 0.000000 0.254522 0.500000
O O19 0.500000 0.354477 0.500000
O O20 0.754824 0.500000 0.648472
#
# Coordination Sequence:
#
# PCOD9149040 Si02
#       8
#     4   4   4   4   4   4   4   4
#     4  10  20  35  56  80 106 138 182 232 273 318
#     4  11  21  34  53  77 110 142 176 225 270 318
#     4   9  17  30  48  71 101 138 173 205 251 310
#     4  10  20  34  52  77 107 143 181 221 268 317
#     4   9  18  33  55  80 107 143 184 223 264 318
#     4  10  20  34  54  81 112 146 183 221 265 321
#     4   9  18  34  56  82 109 141 180 224 273 322
#     4  10  21  37  57  78 103 139 180 223 274 327
#
# _framework density 17.283825
#
# number of rings (size 3 to 8) (size 9 to 14) (size 15 to 20)
#    0.000    2.250    1.250    1.875    0.000    4.250 
#    0.000    2.500    0.000    4.500    0.000    8.750 
#    0.000    0.000    0.000    0.000    0.000    0.000 
#
# Total GULP energy -178514.345851 kJ/mol
# GULP energy per Si atom -5578.573308 kJ/mol
# Density = 1.724449 g / cm^3
# Si number density = 17.283825 Si / 1000 Ang^3
#
#
#
# Elastic Constant Matrix: (Units=GPa)
#
#
# Indices 1 2 3 4 5 6 
#
# 1 78.6649 48.7271 38.8394 0.0000 2.5052 0.0000
# 2 48.7271 107.7894 53.2285 0.0000 -5.5411 0.0000
# 3 38.8394 53.2285 90.5632 0.0000 -6.7237 0.0000
# 4 0.0000 0.0000 0.0000 18.7495 0.0000 -5.9149
# 5 2.5052 -5.5411 -6.7237 0.0000 20.3224 0.0000
# 6 0.0000 0.0000 0.0000 -5.9149 0.0000 26.8171
#
#
#
# Elastic Compliance Matrix: (Units=1/GPa)
#
#
# Indices 1 2 3 4 5 6 
#
# 1 0.019431 -0.006699 -0.004828 0.000000 -0.005819 0.000000
# 2 -0.006699 0.015402 -0.005953 0.000000 0.003056 0.000000
# 3 -0.004828 -0.005953 0.016951 0.000000 0.004580 0.000000
# 4 0.000000 0.000000 0.000000 0.057324 0.000000 0.012644
# 5 -0.005819 0.003056 0.004580 0.000000 0.052273 0.000000
# 6 0.000000 0.000000 0.000000 0.012644 0.000000 0.040078
#
#
# Mechanical properties :
#
#
# Convention : Reuss Voigt Hill
#
# Bulk Modulus (GPa) = 59.43522 62.06751 60.75136
# Shear Modulus (GPa) = 20.65887 22.25930 21.45908
#
# Velocity S-wave (km/s) = 3.46102 3.59258 3.52741
# Velocity P-wave (km/s) = 7.10169 7.29367 7.19832
#
# Compressibility (1/GPa) = 0.01682504
#
# Stress axis : x y z
#
# Youngs Moduli (GPa) = 51.46540 64.92510 58.99192
#
# Poissons Ratio (x) = 0.43492 0.28481
# Poissons Ratio (y) = 0.34475 0.35118
# Poissons Ratio (z) = 0.24847 0.38650
#
# Static dielectric constant tensor:
#      x y z
#    x 1.583920 0.000000 -0.005850 
#    y 0.000000 1.569260 0.000000 
#    z -0.005850 0.000000 1.582920 
# 
# From -- ./inp_files/88945.got.cif
#   From: 2010.05.17/outbox.cif.g08.bks.cpg/sg10_45_cif.got.tgz:88945.got - 2010.06.03 11:33:40.
