data_PCOD9149438
_publ_section_title
;
Structure prediction by ZEFSAII (Michael W. Deem and Ramdas Pophale) SiO2 
 PCOD9149438
Probable space group: P 2/M
;
_chemical_formula_sum "Si O2"
_cell_formula_units_Z 32
_cell_length_a 26.119314
_cell_length_b 7.936560
_cell_length_c 15.296020
_cell_angle_alpha 90.000000
_cell_angle_beta 150.486179
_cell_angle_gamma 90.000000
_cell_volume 1562.055462
_symmetry_space_group_name_H-M "P 2/M"
_symmetry_group_IT_number 10
_symmetry_cell_setting 'monoclinic'
loop_
_space_group_symop_operation_xyz
x,y,z
-x,y,-z
-x,-y,-z
x,-y,z
loop_
_atom_site_type_symbol
_atom_site_label
_atom_site_fract_x
_atom_site_fract_y
_atom_site_fract_z
Si Si1 0.483732 0.205300 0.253953
Si Si2 0.203406 0.301675 0.685906
Si Si3 0.831806 0.695950 0.994611
Si Si4 0.064365 0.296008 0.320501
Si Si5 0.747451 0.197854 0.048912
Si Si6 0.112160 0.797288 0.200588
Si Si7 0.565618 0.204038 0.014261
Si Si8 0.298248 0.199213 0.355018
O O1 0.586706 0.267572 0.455455
O O2 0.479908 0.000000 0.253354
O O3 0.371655 0.263373 0.122678
O O4 0.487708 0.248900 0.157140
O O5 0.185395 0.500000 0.671701
O O6 0.121525 0.235904 0.493176
O O7 0.204404 0.220468 0.783241
O O8 0.318114 0.274219 0.816605
O O9 0.831858 0.500000 0.971290
O O10 0.742708 0.778728 0.803810
O O11 0.809694 0.715149 0.064039
O O12 0.945577 0.766732 0.140789
O O13 0.062516 0.500000 0.321314
O O14 0.121318 0.244375 0.316263
O O15 0.744624 0.000000 0.024365
O O16 0.208009 0.731940 0.284996
O O17 0.110422 0.000000 0.188629
O O18 0.000000 0.732744 0.000000
O O19 0.573562 0.000000 0.028909
O O20 0.500000 0.260609 0.000000
O O21 0.304998 0.000000 0.383466
#
# Coordination Sequence:
#
# PCOD9149438 Si02
#       8
#     4   4   4   4   4   4   4   4
#     4   8  17  34  55  80 110 145 182 222 277 333
#     4  10  21  38  57  81 113 148 187 230 278 333
#     4  11  23  39  58  81 110 148 189 231 281 336
#     4  10  23  39  56  80 115 155 188 222 278 344
#     4  10  21  40  62  83 109 144 186 235 285 333
#     4  10  20  34  56  85 114 144 185 237 278 316
#     4   9  18  33  55  82 112 148 189 229 274 330
#     4  10  20  36  57  83 114 147 185 228 276 331
#
# _framework density 20.485828999999999
#
# number of rings (size 3 to 8) (size 9 to 14) (size 15 to 20)
#    0.000    2.250    1.250    1.875    1.750    3.500 
#    0.000    8.125    0.000    0.000    0.000    0.000 
#    0.000    0.000    0.000    0.000    0.000    0.000 
#
# Total GULP energy -178648.819449 kJ/mol
# GULP energy per Si atom -5582.775608 kJ/mol
# Density = 2.043920 g / cm^3
# Si number density = 20.485829 Si / 1000 Ang^3
#
#
#
# Elastic Constant Matrix: (Units=GPa)
#
#
# Indices 1 2 3 4 5 6 
#
# 1 66.8592 -8.9684 -11.6641 0.0000 -10.3637 0.0000
# 2 -8.9684 17.0709 0.2194 0.0000 4.5821 0.0000
# 3 -11.6641 0.2194 79.2730 0.0000 -24.5040 0.0000
# 4 0.0000 0.0000 0.0000 -48.8955 0.0000 1.6618
# 5 -10.3637 4.5821 -24.5040 0.0000 12.7169 0.0000
# 6 0.0000 0.0000 0.0000 1.6618 0.0000 -14.6181
#
#
#
# Elastic Compliance Matrix: (Units=1/GPa)
#
#
# Indices 1 2 3 4 5 6 
#
# 1 0.038261 -0.010988 0.040857 0.000000 0.113865 0.000000
# 2 -0.010988 0.080881 -0.033672 0.000000 -0.102979 0.000000
# 3 0.040857 -0.033672 0.081016 0.000000 0.201536 0.000000
# 4 0.000000 0.000000 0.000000 -0.020531 0.000000 -0.002334
# 5 0.113865 -0.102979 0.201536 0.000000 0.596869 0.000000
# 6 0.000000 0.000000 0.000000 -0.002334 0.000000 -0.068674
#
#
# Mechanical properties :
#
#
# Convention : Reuss Voigt Hill
#
# Bulk Modulus (GPa) = 5.19342 13.59744 9.39543
# Shear Modulus (GPa) = 6.41345 2.08174 4.24760
#
# Velocity S-wave (km/s) = 1.77129 1.00915 1.44150
# Velocity P-wave (km/s) = 2.59305 2.83015 2.71419
#
# Compressibility (1/GPa) = 0.19255117
#
# Stress axis : x y z
#
# Youngs Moduli (GPa) = 26.13654 12.36391 12.34325
#
# Poissons Ratio (x) = 0.13585 -0.50430
# Poissons Ratio (y) = 0.28718 0.41562
# Poissons Ratio (z) = -1.06785 0.41632
#
# Static dielectric constant tensor:
#      x y z
#    x 1.698410 0.000000 0.008930 
#    y 0.000000 1.741000 0.000000 
#    z 0.008930 0.000000 1.731600 
# 
# From -- ./inp_files/66484.got.cif
#   From: 2010.05.17/outbox.cif.g08.bks.cpg/sg10_34_cif.got.tgz:66484.got - 2010.06.03 11:33:40.
