data_PCOD9149727
_publ_section_title
;
Structure prediction by ZEFSAII (Michael W. Deem and Ramdas Pophale) SiO2 
 PCOD9149727
Probable space group: P 2/M
;
_chemical_formula_sum "Si O2"
_cell_formula_units_Z 32
_cell_length_a 28.220316
_cell_length_b 8.571388
_cell_length_c 10.956007
_cell_angle_alpha 90.000000
_cell_angle_beta 144.343821
_cell_angle_gamma 90.000000
_cell_volume 1544.807046
_symmetry_space_group_name_H-M "P 2/M"
_symmetry_group_IT_number 10
_symmetry_cell_setting 'monoclinic'
loop_
_space_group_symop_operation_xyz
x,y,z
-x,y,-z
-x,-y,-z
x,-y,z
loop_
_atom_site_type_symbol
_atom_site_label
_atom_site_fract_x
_atom_site_fract_y
_atom_site_fract_z
Si Si1 0.682678 0.312224 0.449551
Si Si2 0.528262 0.181937 0.243976
Si Si3 0.219134 0.317498 0.100736
Si Si4 0.620576 0.312697 0.945139
Si Si5 0.043942 0.815370 0.715516
Si Si6 0.389100 0.684445 0.343867
Si Si7 0.775999 0.690187 0.400223
Si Si8 0.962217 0.688834 0.790266
O O1 0.674667 0.500000 0.432248
O O2 0.592716 0.244729 0.280677
O O3 0.732152 0.263378 0.434210
O O4 0.738113 0.270811 0.682553
O O5 0.441225 0.262767 0.078631
O O6 0.571841 0.220429 0.464699
O O7 0.516642 0.000000 0.202442
O O8 0.195782 0.500000 0.062286
O O9 0.139387 0.221127 0.905975
O O10 0.291623 0.306529 0.154828
O O11 0.621566 0.500000 0.943236
O O12 0.590250 0.261502 0.748622
O O13 0.712119 0.258921 0.163602
O O14 0.000000 0.755573 0.500000
O O15 0.010485 0.742737 0.771414
O O16 0.030139 0.000000 0.693388
O O17 0.411330 0.500000 0.406886
O O18 0.778641 0.500000 0.404625
O O19 0.868513 0.743450 0.584797
O O20 0.963010 0.500000 0.792775
O O21 0.000000 0.739339 0.000000
#
# Coordination Sequence:
#
# PCOD9149727 Si02
#       8
#     4   4   4   4   4   4   4   4
#     4   9  18  37  61  84 110 141 184 234 282 335
#     4  11  22  35  53  80 112 149 190 229 275 333
#     4   9  18  34  59  85 108 143 189 239 288 333
#     4  10  20  35  55  80 111 146 184 230 282 336
#     4  11  25  40  55  84 125 164 198 236 290 358
#     4   9  19  35  57  82 109 143 187 235 281 335
#     4   9  19  35  60  88 111 140 184 236 288 338
#     4  10  21  40  67  94 118 149 197 254 303 353
#
# _framework density 20.714562000000001
#
# number of rings (size 3 to 8) (size 9 to 14) (size 15 to 20)
#    0.000    2.250    0.000    3.375    1.750    7.750 
#    0.000    4.375    0.000    0.000    0.000    0.000 
#    0.000    0.000    0.000    0.000    0.000    0.000 
#
# Total GULP energy -178685.788370 kJ/mol
# GULP energy per Si atom -5583.930887 kJ/mol
# Density = 2.066741 g / cm^3
# Si number density = 20.714562 Si / 1000 Ang^3
#
#
#
# Elastic Constant Matrix: (Units=GPa)
#
#
# Indices 1 2 3 4 5 6 
#
# 1 81.0393 3.2682 24.5560 0.0000 -3.8527 0.0000
# 2 3.2682 5.5513 6.3607 0.0000 -4.1779 0.0000
# 3 24.5560 6.3607 87.1992 0.0000 7.5793 0.0000
# 4 0.0000 0.0000 0.0000 -15.7117 0.0000 -11.2940
# 5 -3.8527 -4.1779 7.5793 0.0000 35.8136 0.0000
# 6 0.0000 0.0000 0.0000 -11.2940 0.0000 1.6050
#
#
#
# Elastic Compliance Matrix: (Units=1/GPa)
#
#
# Indices 1 2 3 4 5 6 
#
# 1 0.013698 -0.002066 -0.003885 0.000000 0.002055 0.000000
# 2 -0.002066 0.224993 -0.018431 0.000000 0.029925 0.000000
# 3 -0.003885 -0.018431 0.014395 0.000000 -0.005614 0.000000
# 4 0.000000 0.000000 0.000000 -0.010506 0.000000 -0.073927
# 5 0.002055 0.029925 -0.005614 0.000000 0.032823 0.000000
# 6 0.000000 0.000000 0.000000 -0.073927 0.000000 0.102844
#
#
# Mechanical properties :
#
#
# Convention : Reuss Voigt Hill
#
# Bulk Modulus (GPa) = 4.89427 26.90662 15.90044
# Shear Modulus (GPa) = 10.09859 13.64838 11.87348
#
# Velocity S-wave (km/s) = 2.21036 2.56965 2.39675
# Velocity P-wave (km/s) = 2.98029 4.67135 3.91814
#
# Compressibility (1/GPa) = 0.20432068
#
# Stress axis : x y z
#
# Youngs Moduli (GPa) = 73.00322 4.44458 69.47045
#
# Poissons Ratio (x) = 0.00918 0.26992
# Poissons Ratio (y) = 0.15083 1.28042
# Poissons Ratio (z) = 0.28365 0.08192
#
# Static dielectric constant tensor:
#      x y z
#    x 1.738480 0.000000 -0.016690 
#    y 0.000000 1.708690 0.000000 
#    z -0.016690 0.000000 1.763400 
# 
# From -- ./inp_files/58232.got.cif
#   From: 2010.05.17/outbox.cif.g08.bks.cpg/sg10_30_cif.got.tgz:58232.got - 2010.06.03 11:33:40.
