data_PCOD9149564
_publ_section_title
;
Structure prediction by ZEFSAII (Michael W. Deem and Ramdas Pophale) SiO2 
 PCOD9149564
Probable space group: P 2/M
;
_chemical_formula_sum "Si O2"
_cell_formula_units_Z 28
_cell_length_a 14.842789
_cell_length_b 11.958479
_cell_length_c 9.669549
_cell_angle_alpha 90.000000
_cell_angle_beta 70.858387
_cell_angle_gamma 90.000000
_cell_volume 1621.424213
_symmetry_space_group_name_H-M "P 2/M"
_symmetry_group_IT_number 10
_symmetry_cell_setting 'monoclinic'
loop_
_space_group_symop_operation_xyz
x,y,z
-x,y,-z
-x,-y,-z
x,-y,z
loop_
_atom_site_type_symbol
_atom_site_label
_atom_site_fract_x
_atom_site_fract_y
_atom_site_fract_z
Si Si1 0.096851 0.135064 0.633802
Si Si2 0.273041 0.737583 0.646704
Si Si3 0.678990 0.869548 0.886627
Si Si4 0.588641 0.263306 0.174843
Si Si5 0.882987 0.865011 0.701572
Si Si6 0.588108 0.129712 0.627542
Si Si7 0.660041 0.500000 0.461342
Si Si8 0.519786 0.500000 0.263117
O O1 0.170843 0.203741 0.687999
O O2 0.119182 0.161549 0.460985
O O3 0.985947 0.166208 0.710162
O O4 0.107671 0.000000 0.645867
O O5 0.317152 0.731487 0.777443
O O6 0.344291 0.812474 0.517985
O O7 0.278940 0.612793 0.580749
O O8 0.787807 0.825939 0.825683
O O9 0.639908 0.865472 0.750439
O O10 0.678077 0.000000 0.930778
O O11 0.613776 0.800316 0.022557
O O12 0.509799 0.196171 0.302912
O O13 0.546481 0.386448 0.172439
O O14 0.879722 0.000000 0.707674
O O15 0.571996 0.000000 0.601734
O O16 0.587569 0.500000 0.366147
O O17 0.588940 0.500000 0.628270
#
# Coordination Sequence:
#
# PCOD9149564 Si02
#       8
#     4   4   4   4   4   4   2   2
#     4   9  16  29  53  81 100 125 169 211 249 299
#     4  11  20  33  54  77  99 130 173 218 250 292
#     4  10  20  35  51  73 107 142 166 195 254 313
#     4  11  22  34  51  73 104 136 170 212 251 296
#     4   8  15  30  52  74 101 136 167 199 246 308
#     4  11  21  33  50  75 106 138 167 200 250 307
#     4   9  18  34  53  70  98 135 174 211 255 294
#     4   9  18  36  52  68  95 139 181 208 244 295
#
# _framework density 17.268768000000001
#
# number of rings (size 3 to 8) (size 9 to 14) (size 15 to 20)
#    0.000    2.143    2.857    2.571    0.000    4.000 
#    0.000    2.857    0.000    5.143    0.000    3.000 
#    0.000    0.000    0.000    0.000    0.000    0.000 
#
# Total GULP energy -156206.073069 kJ/mol
# GULP energy per Si atom -5578.788324 kJ/mol
# Density = 1.722946 g / cm^3
# Si number density = 17.268768 Si / 1000 Ang^3
#
#
#
# Elastic Constant Matrix: (Units=GPa)
#
#
# Indices 1 2 3 4 5 6 
#
# 1 81.7512 23.2448 -3.2304 0.0000 -4.1685 0.0000
# 2 23.2448 95.8369 11.7731 0.0000 1.4855 0.0000
# 3 -3.2304 11.7731 34.4698 0.0000 0.3723 0.0000
# 4 0.0000 0.0000 0.0000 9.3724 0.0000 2.1936
# 5 -4.1685 1.4855 0.3723 0.0000 10.6975 0.0000
# 6 0.0000 0.0000 0.0000 2.1936 0.0000 49.1991
#
#
#
# Elastic Compliance Matrix: (Units=1/GPa)
#
#
# Indices 1 2 3 4 5 6 
#
# 1 0.013680 -0.003713 0.002488 0.000000 0.005760 0.000000
# 2 -0.003713 0.011920 -0.004387 0.000000 -0.002949 0.000000
# 3 0.002488 -0.004387 0.030737 0.000000 0.000509 0.000000
# 4 0.000000 0.000000 0.000000 0.107821 0.000000 -0.004807
# 5 0.005760 -0.002949 0.000509 0.000000 0.096116 0.000000
# 6 0.000000 0.000000 0.000000 -0.004807 0.000000 0.020540
#
#
# Mechanical properties :
#
#
# Convention : Reuss Voigt Hill
#
# Bulk Modulus (GPa) = 22.16692 30.62588 26.39640
# Shear Modulus (GPa) = 16.28267 25.87184 21.07726
#
# Velocity S-wave (km/s) = 3.07399 3.87484 3.49742
# Velocity P-wave (km/s) = 5.04614 6.14756 5.62388
#
# Compressibility (1/GPa) = 0.04511226
#
# Stress axis : x y z
#
# Youngs Moduli (GPa) = 73.09967 83.89528 32.53401
#
# Poissons Ratio (x) = 0.31150 -0.08094
# Poissons Ratio (y) = 0.27141 0.14273
# Poissons Ratio (z) = -0.18187 0.36807
#
# Static dielectric constant tensor:
#      x y z
#    x 1.617090 0.000000 0.010950 
#    y 0.000000 1.576140 0.000000 
#    z 0.010950 0.000000 1.570710 
# 
# From -- ./inp_files/28265.got.cif
#   From: 2010.05.17/outbox.cif.g08.bks.cpg/sg10_15_cif.got.tgz:28265.got - 2010.06.03 11:33:40.
