data_PCOD9149060
_publ_section_title
;
Structure prediction by ZEFSAII (Michael W. Deem and Ramdas Pophale) SiO2 
 PCOD9149060
Probable space group: P 2/M
;
_chemical_formula_sum "Si O2"
_cell_formula_units_Z 20
_cell_length_a 5.177728
_cell_length_b 15.745540
_cell_length_c 15.951234
_cell_angle_alpha 90.000000
_cell_angle_beta 110.163598
_cell_angle_gamma 90.000000
_cell_volume 1220.741042
_symmetry_space_group_name_H-M "P 2/M"
_symmetry_group_IT_number 10
_symmetry_cell_setting 'monoclinic'
loop_
_space_group_symop_operation_xyz
x,y,z
-x,y,-z
-x,-y,-z
x,-y,z
loop_
_atom_site_type_symbol
_atom_site_label
_atom_site_fract_x
_atom_site_fract_y
_atom_site_fract_z
Si Si1 0.804102 0.600614 0.058189
Si Si2 0.545800 0.404166 0.406300
Si Si3 0.697095 0.250931 0.317848
Si Si4 0.319789 0.903063 0.560615
Si Si5 0.869730 0.681975 0.753693
O O1 0.783606 0.500000 0.074483
O O2 0.939221 0.644671 0.153312
O O3 0.500000 0.631370 0.000000
O O4 0.000000 0.611159 0.000000
O O5 0.500000 0.393273 0.500000
O O6 0.648502 0.500000 0.402587
O O7 0.730076 0.328306 0.388965
O O8 0.261161 0.389231 0.323010
O O9 0.655152 0.164164 0.362534
O O10 0.951832 0.255153 0.283962
O O11 0.406782 0.274499 0.241746
O O12 0.500000 0.876987 0.500000
O O13 0.000000 0.903568 0.500000
O O14 0.400593 0.000000 0.591609
#
# Coordination Sequence:
#
# PCOD9149060 Si02
#       5
#     4   4   4   4   4
#     4  10  20  34  53  73  98 133 175 222 269 311
#     4   9  20  33  47  69 100 144 178 204 239 290
#     4  10  21  32  52  71 104 136 172 212 255 296
#     4  10  20  34  54  77 103 138 180 220 261 307
#     4  10  21  34  50  73 102 134 172 213 258 299
#
# _framework density 16.383492
#
# number of rings (size 3 to 8) (size 9 to 14) (size 15 to 20)
#    1.200    1.000    0.000    3.600    2.800    1.600 
#    0.000    2.000    0.000    0.000    0.000    0.000 
#    0.000   16.000    0.000    0.000    0.000    0.000 
#
# Total GULP energy -111386.741743 kJ/mol
# GULP energy per Si atom -5569.337087 kJ/mol
# Density = 1.634620 g / cm^3
# Si number density = 16.383492 Si / 1000 Ang^3
#
#
#
# Elastic Constant Matrix: (Units=GPa)
#
#
# Indices 1 2 3 4 5 6 
#
# 1 44.9824 -5.8792 -9.8984 0.0000 7.3247 0.0000
# 2 -5.8792 47.2520 17.4578 0.0000 2.4771 0.0000
# 3 -9.8984 17.4578 58.8065 0.0000 21.6501 0.0000
# 4 0.0000 0.0000 0.0000 -3.3141 0.0000 27.1135
# 5 7.3247 2.4771 21.6501 0.0000 23.9994 0.0000
# 6 0.0000 0.0000 0.0000 27.1135 0.0000 0.0375
#
#
#
# Elastic Compliance Matrix: (Units=1/GPa)
#
#
# Indices 1 2 3 4 5 6 
#
# 1 0.027926 0.000161 0.011674 0.000000 -0.019071 0.000000
# 2 0.000161 0.024334 -0.009364 0.000000 0.005887 0.000000
# 3 0.011674 -0.009364 0.033997 0.000000 -0.033265 0.000000
# 4 0.000000 0.000000 0.000000 -0.000051 0.000000 0.036876
# 5 -0.019071 0.005887 -0.033265 0.000000 0.076889 0.000000
# 6 0.000000 0.000000 0.000000 0.036876 0.000000 0.004507
#
#
# Mechanical properties :
#
#
# Convention : Reuss Voigt Hill
#
# Bulk Modulus (GPa) = 10.96501 17.15570 14.06036
# Shear Modulus (GPa) = 25.89860 14.10194 20.00027
#
# Velocity S-wave (km/s) = 3.98021 2.93702 3.49772
# Velocity P-wave (km/s) = 5.27541 4.68994 4.99127
#
# Compressibility (1/GPa) = 0.09119915
#
# Stress axis : x y z
#
# Youngs Moduli (GPa) = 35.80865 41.09427 29.41465
#
# Poissons Ratio (x) = -0.00663 -0.34338
# Poissons Ratio (y) = -0.00578 0.27544
# Poissons Ratio (z) = -0.41802 0.38481
#
# Static dielectric constant tensor:
#      x y z
#    x 1.587530 0.000000 0.004380 
#    y 0.000000 1.550910 0.000000 
#    z 0.004380 0.000000 1.528100 
# 
# From -- ./inp_files/6814.got.cif
#   From: 2010.05.17/outbox.cif.g08.bks.cpg/sg10_4_cif.got.tgz:6814.got - 2010.06.03 11:33:40.
