data_PCOD9149032
_publ_section_title
;
Structure prediction by ZEFSAII (Michael W. Deem and Ramdas Pophale) SiO2 
 PCOD9149032
Probable space group: P 2/M
;
_chemical_formula_sum "Si O2"
_cell_formula_units_Z 32
_cell_length_a 24.733202
_cell_length_b 13.761493
_cell_length_c 9.642578
_cell_angle_alpha 90.000000
_cell_angle_beta 149.524539
_cell_angle_gamma 90.000000
_cell_volume 1664.531465
_symmetry_space_group_name_H-M "P 2/M"
_symmetry_group_IT_number 10
_symmetry_cell_setting 'monoclinic'
loop_
_space_group_symop_operation_xyz
x,y,z
-x,y,-z
-x,-y,-z
x,-y,z
loop_
_atom_site_type_symbol
_atom_site_label
_atom_site_fract_x
_atom_site_fract_y
_atom_site_fract_z
Si Si1 0.742622 0.114839 0.962094
Si Si2 0.942555 0.116037 0.596308
Si Si3 0.294332 0.388835 0.383644
Si Si4 0.171274 0.794624 0.110228
Si Si5 0.490687 0.686653 0.644814
Si Si6 0.588467 0.888062 0.872891
Si Si7 0.788670 0.816611 0.483665
Si Si8 0.688628 0.611067 0.257334
O O1 0.849516 0.143649 0.282477
O O2 0.747256 0.000000 0.953597
O O3 0.748987 0.163184 0.827974
O O4 0.643607 0.132940 0.845308
O O5 0.891773 0.144316 0.631728
O O6 0.959291 0.000000 0.624499
O O7 0.052696 0.170317 0.815226
O O8 0.267740 0.500000 0.299518
O O9 0.191343 0.320262 0.151776
O O10 0.381840 0.353482 0.467634
O O11 0.339982 0.380583 0.642046
O O12 0.200016 0.829733 0.327814
O O13 0.500000 0.673031 0.500000
O O14 0.507069 0.800869 0.717353
O O15 0.587205 0.631489 0.936290
O O16 0.550612 0.000000 0.792192
O O17 0.686187 0.873411 0.196380
O O18 0.768556 0.701683 0.408545
O O19 0.727467 0.500000 0.321571
#
# Coordination Sequence:
#
# PCOD9149032 Si02
#       8
#     4   4   4   4   4   4   4   4
#     4   9  18  33  53  76 104 139 172 203 247 302
#     4  10  20  34  52  76 108 142 170 203 253 305
#     4  10  22  39  55  73 102 137 170 210 262 310
#     4  11  20  32  53  78 102 132 177 219 247 291
#     4  11  21  34  56  82 103 129 172 217 252 300
#     4   9  19  36  53  72 106 143 167 200 256 310
#     4   9  19  33  53  79 105 133 170 213 255 298
#     4   9  19  37  58  77 101 134 169 209 260 310
#
# _framework density 19.224629
#
# number of rings (size 3 to 8) (size 9 to 14) (size 15 to 20)
#    0.000    2.250    0.000    3.750    0.000    5.750 
#    0.000    1.875    0.000   15.000    0.000    0.000 
#    0.000    0.000    0.000    0.000    0.000    0.000 
#
# Total GULP energy -178641.473834 kJ/mol
# GULP energy per Si atom -5582.546057 kJ/mol
# Density = 1.918087 g / cm^3
# Si number density = 19.224629 Si / 1000 Ang^3
#
#
#
# Elastic Constant Matrix: (Units=GPa)
#
#
# Indices 1 2 3 4 5 6 
#
# 1 68.3021 37.9622 9.5225 0.0000 -9.6859 0.0000
# 2 37.9622 70.2689 19.6176 0.0000 -0.0954 0.0000
# 3 9.5225 19.6176 27.1451 0.0000 2.6406 0.0000
# 4 0.0000 0.0000 0.0000 22.6879 0.0000 -0.0274
# 5 -9.6859 -0.0954 2.6406 0.0000 18.7921 0.0000
# 6 0.0000 0.0000 0.0000 -0.0274 0.0000 24.3230
#
#
#
# Elastic Compliance Matrix: (Units=1/GPa)
#
#
# Indices 1 2 3 4 5 6 
#
# 1 0.023337 -0.012502 -0.000320 0.000000 0.012010 0.000000
# 2 -0.012502 0.024595 -0.012951 0.000000 -0.004499 0.000000
# 3 -0.000320 -0.012951 0.046975 0.000000 -0.006831 0.000000
# 4 0.000000 0.000000 0.000000 0.044076 0.000000 0.000050
# 5 0.012010 -0.004499 -0.006831 0.000000 0.060341 0.000000
# 6 0.000000 0.000000 0.000000 0.000050 0.000000 0.041113
#
#
# Mechanical properties :
#
#
# Convention : Reuss Voigt Hill
#
# Bulk Modulus (GPa) = 23.06193 33.32450 28.19322
# Shear Modulus (GPa) = 16.31650 19.73486 18.02568
#
# Velocity S-wave (km/s) = 2.91646 3.20744 3.06540
# Velocity P-wave (km/s) = 4.83353 5.57574 5.21785
#
# Compressibility (1/GPa) = 0.04336150
#
# Stress axis : x y z
#
# Youngs Moduli (GPa) = 42.84994 40.65902 21.28772
#
# Poissons Ratio (x) = 0.50833 0.00681
# Poissons Ratio (y) = 0.53572 0.27570
# Poissons Ratio (z) = 0.01370 0.52658
#
# Static dielectric constant tensor:
#      x y z
#    x 1.669980 0.000000 -0.012830 
#    y 0.000000 1.675890 0.000000 
#    z -0.012830 0.000000 1.691120 
# 
# From -- ./inp_files/36381.got.cif
#   From: 2010.05.17/outbox.cif.g08.bks.cpg/sg10_19_cif.got.tgz:36381.got - 2010.06.03 11:33:40.
