data_PCOD9149101
_publ_section_title
;
Structure prediction by ZEFSAII (Michael W. Deem and Ramdas Pophale) SiO2 
 PCOD9149101
Probable space group: P 2/M
;
_chemical_formula_sum "Si O2"
_cell_formula_units_Z 32
_cell_length_a 29.177274
_cell_length_b 8.455120
_cell_length_c 23.276072
_cell_angle_alpha 90.000000
_cell_angle_beta 161.703871
_cell_angle_gamma 90.000000
_cell_volume 1802.621988
_symmetry_space_group_name_H-M "P 2/M"
_symmetry_group_IT_number 10
_symmetry_cell_setting 'monoclinic'
loop_
_space_group_symop_operation_xyz
x,y,z
-x,y,-z
-x,-y,-z
x,-y,z
loop_
_atom_site_type_symbol
_atom_site_label
_atom_site_fract_x
_atom_site_fract_y
_atom_site_fract_z
Si Si1 0.293215 0.689255 0.489001
Si Si2 0.653674 0.192650 0.207520
Si Si3 0.544133 0.191070 0.489105
Si Si4 0.198472 0.810490 0.500098
Si Si5 0.094422 0.310354 0.790826
Si Si6 0.043387 0.191333 0.488088
Si Si7 0.594845 0.690989 0.790424
Si Si8 0.153758 0.191182 0.208959
O O1 0.291925 0.500000 0.487997
O O2 0.248120 0.750720 0.497459
O O3 0.455781 0.742887 0.663193
O O4 0.185343 0.748571 0.310589
O O5 0.692333 0.241491 0.318574
O O6 0.792262 0.239822 0.333719
O O7 0.649460 0.000000 0.202224
O O8 0.500000 0.250053 0.000000
O O9 0.500000 0.246170 0.500000
O O10 0.436380 0.250150 0.311060
O O11 0.707272 0.241246 0.664267
O O12 0.541497 0.000000 0.485929
O O13 0.038520 0.750744 0.328126
O O14 0.195536 0.000000 0.496495
O O15 0.092741 0.500000 0.789490
O O16 0.061281 0.252525 0.686897
O O17 0.250975 0.254792 0.000610
O O18 0.000000 0.244754 0.500000
O O19 0.038552 0.000000 0.481183
O O20 0.595102 0.500000 0.790141
O O21 0.152530 0.000000 0.208825
O O22 0.000000 0.245334 0.000000
#
# Coordination Sequence:
#
# PCOD9149101 Si02
#       8
#     4   4   4   4   4   4   4   4
#     4  10  20  35  53  74 103 135 169 209 251 299
#     4   8  15  29  48  70  96 125 159 202 248 293
#     4   9  18  32  50  73  99 128 164 206 250 294
#     4  10  20  34  53  77 103 132 169 211 255 302
#     4  10  20  35  53  74 103 137 172 209 252 301
#     4   9  18  32  50  73 100 130 167 209 251 297
#     4   9  20  36  52  73 102 136 171 207 248 298
#     4   9  18  33  51  72 100 131 165 206 249 295
#
# _framework density 17.751918
#
# number of rings (size 3 to 8) (size 9 to 14) (size 15 to 20)
#    0.000    2.750    0.000    1.875    0.000    4.250 
#    0.000    2.500    0.000    9.375    0.000    0.000 
#    0.000    0.000    0.000    0.000    0.000    0.000 
#
# Total GULP energy -178453.270896 kJ/mol
# GULP energy per Si atom -5576.664715 kJ/mol
# Density = 1.771151 g / cm^3
# Si number density = 17.751918 Si / 1000 Ang^3
#
#
#
# Elastic Constant Matrix: (Units=GPa)
#
#
# Indices 1 2 3 4 5 6 
#
# 1 191.4179 24.4163 105.1845 0.0000 -22.1413 0.0000
# 2 24.4163 14.1938 25.2747 0.0000 -2.2861 0.0000
# 3 105.1845 25.2747 199.4320 0.0000 -16.8777 0.0000
# 4 0.0000 0.0000 0.0000 36.8328 0.0000 -7.1465
# 5 -22.1413 -2.2861 -16.8777 0.0000 8.8396 0.0000
# 6 0.0000 0.0000 0.0000 -7.1465 0.0000 15.5425
#
#
#
# Elastic Compliance Matrix: (Units=1/GPa)
#
#
# Indices 1 2 3 4 5 6 
#
# 1 0.009840 -0.009692 -0.002490 0.000000 0.017386 0.000000
# 2 -0.009692 0.100558 -0.008929 0.000000 -0.015319 0.000000
# 3 -0.002490 -0.008929 0.008034 0.000000 0.006794 0.000000
# 4 0.000000 0.000000 0.000000 0.029809 0.000000 0.013706
# 5 0.017386 -0.015319 0.006794 0.000000 0.165685 0.000000
# 6 0.000000 0.000000 0.000000 0.013706 0.000000 0.070642
#
#
# Mechanical properties :
#
#
# Convention : Reuss Voigt Hill
#
# Bulk Modulus (GPa) = 13.12163 79.42162 46.27163
# Shear Modulus (GPa) = 11.05723 28.92085 19.98904
#
# Velocity S-wave (km/s) = 2.49845 4.04067 3.35926
# Velocity P-wave (km/s) = 3.96620 8.16127 6.41627
#
# Compressibility (1/GPa) = 0.07621006
#
# Stress axis : x y z
#
# Youngs Moduli (GPa) = 101.62871 9.94450 124.47116
#
# Poissons Ratio (x) = 0.09639 0.30993
# Poissons Ratio (y) = 0.98502 1.11134
# Poissons Ratio (z) = 0.25306 0.08879
#
# Static dielectric constant tensor:
#      x y z
#    x 1.584250 0.000000 0.009900 
#    y 0.000000 1.603300 0.000000 
#    z 0.009900 0.000000 1.597440 
# 
# From -- ./inp_files/87050.got.cif
#   From: 2010.05.17/outbox.cif.g08.bks.cpg/sg10_44_cif.got.tgz:87050.got - 2010.06.03 11:33:40.
