data_PCOD9149139
_publ_section_title
;
Structure prediction by ZEFSAII (Michael W. Deem and Ramdas Pophale) SiO2 
 PCOD9149139
Probable space group: P 2/M
;
_chemical_formula_sum "Si O2"
_cell_formula_units_Z 32
_cell_length_a 29.741868
_cell_length_b 8.786246
_cell_length_c 12.837088
_cell_angle_alpha 90.000000
_cell_angle_beta 149.998176
_cell_angle_gamma 90.000000
_cell_volume 1677.382350
_symmetry_space_group_name_H-M "P 2/M"
_symmetry_group_IT_number 10
_symmetry_cell_setting 'monoclinic'
loop_
_space_group_symop_operation_xyz
x,y,z
-x,y,-z
-x,-y,-z
x,-y,z
loop_
_atom_site_type_symbol
_atom_site_label
_atom_site_fract_x
_atom_site_fract_y
_atom_site_fract_z
Si Si1 0.528109 0.684245 0.174838
Si Si2 0.346070 0.681582 0.903177
Si Si3 0.181881 0.817944 0.969578
Si Si4 0.279159 0.816875 0.376493
Si Si5 0.002489 0.320066 0.338089
Si Si6 0.791772 0.316034 0.195652
Si Si7 0.947728 0.328375 0.787184
Si Si8 0.225507 0.823184 0.493023
O O1 0.533431 0.500000 0.185588
O O2 0.622814 0.750498 0.401837
O O3 0.500000 0.729741 0.000000
O O4 0.448613 0.733787 0.094453
O O5 0.348560 0.500000 0.918447
O O6 0.281927 0.738763 0.867835
O O7 0.298338 0.724244 0.699318
O O8 0.224982 0.747610 0.952679
O O9 0.077782 0.766164 0.766664
O O10 0.185619 0.000000 0.972685
O O11 0.232925 0.764280 0.176874
O O12 0.220602 0.780063 0.361846
O O13 0.285767 0.000000 0.383642
O O14 0.994382 0.500000 0.346111
O O15 0.105269 0.272962 0.568214
O O16 0.992406 0.298227 0.193502
O O17 0.789681 0.500000 0.190447
O O18 0.909079 0.500000 0.693510
O O19 0.867957 0.209927 0.638252
O O20 0.000000 0.327791 0.000000
O O21 0.249912 0.000000 0.549336
#
# Coordination Sequence:
#
# PCOD9149139 Si02
#       8
#     4   4   4   4   4   4   4   4
#     4  10  20  35  62  93 115 143 188 237 282 337
#     4  10  20  38  60  86 117 144 180 234 288 336
#     4  11  24  40  57  81 115 153 197 242 281 329
#     4  10  23  40  56  81 120 158 187 229 289 344
#     4  10  20  36  58  84 112 149 193 236 287 339
#     4  10  21  39  61  82 113 152 191 236 286 339
#     4  10  20  34  53  79 113 153 191 230 282 340
#     4  11  21  33  54  82 114 151 187 225 280 340
#
# _framework density 19.077344
#
# number of rings (size 3 to 8) (size 9 to 14) (size 15 to 20)
#    0.000    1.750    2.500    1.875    0.000    5.500 
#    0.000    0.625    0.000    3.750    0.000    0.000 
#    0.000    0.000    0.000    0.000    0.000    0.000 
#
# Total GULP energy -178594.447001 kJ/mol
# GULP energy per Si atom -5581.076469 kJ/mol
# Density = 1.903392 g / cm^3
# Si number density = 19.077344 Si / 1000 Ang^3
#
#
#
# Elastic Constant Matrix: (Units=GPa)
#
#
# Indices 1 2 3 4 5 6 
#
# 1 129.4986 23.9757 42.8508 0.0000 -8.3072 0.0000
# 2 23.9757 -6.2385 10.7693 0.0000 2.6792 0.0000
# 3 42.8508 10.7693 57.6018 0.0000 0.0973 0.0000
# 4 0.0000 0.0000 0.0000 11.3582 0.0000 -14.4780
# 5 -8.3072 2.6792 0.0973 0.0000 31.7417 0.0000
# 6 0.0000 0.0000 0.0000 -14.4780 0.0000 13.3568
#
#
#
# Elastic Compliance Matrix: (Units=1/GPa)
#
#
# Indices 1 2 3 4 5 6 
#
# 1 0.007801 0.015342 -0.008673 0.000000 0.000773 0.000000
# 2 0.015342 -0.087824 0.004988 0.000000 0.011413 0.000000
# 3 -0.008673 0.004988 0.022885 0.000000 -0.002761 0.000000
# 4 0.000000 0.000000 0.000000 -0.230669 0.000000 -0.250033
# 5 0.000773 0.011413 -0.002761 0.000000 0.030752 0.000000
# 6 0.000000 0.000000 0.000000 -0.250033 0.000000 -0.196154
#
#
# Mechanical properties :
#
#
# Convention : Reuss Voigt Hill
#
# Bulk Modulus (GPa) = -29.56363 37.33929 3.88783
# Shear Modulus (GPa) = -10.25017 18.17573 3.96278
#
# Velocity S-wave (km/s) = -2.32048 3.09000 1.44282
# Velocity P-wave (km/s) = 4.76549 5.68734 2.19499
#
# Compressibility (1/GPa) = -0.03382535
#
# Stress axis : x y z
#
# Youngs Moduli (GPa) = 128.18542 -11.38647 43.69720
#
# Poissons Ratio (x) = 0.17469 0.37899
# Poissons Ratio (y) = -1.96657 -0.21794
# Poissons Ratio (z) = 1.11176 0.05679
#
# Static dielectric constant tensor:
#      x y z
#    x 1.684070 0.000000 -0.005090 
#    y 0.000000 1.653480 0.000000 
#    z -0.005090 0.000000 1.663940 
# 
# From -- ./inp_files/58256.got.cif
#   From: 2010.05.17/outbox.cif.g08.bks.cpg/sg10_30_cif.got.tgz:58256.got - 2010.06.03 11:33:40.
