data_PCOD9149069
_publ_section_title
;
Structure prediction by ZEFSAII (Michael W. Deem and Ramdas Pophale) SiO2 
 PCOD9149069
Probable space group: P 2/M
;
_chemical_formula_sum "Si O2"
_cell_formula_units_Z 32
_cell_length_a 10.337968
_cell_length_b 21.727330
_cell_length_c 17.998284
_cell_angle_alpha 90.000000
_cell_angle_beta 25.673347
_cell_angle_gamma 90.000000
_cell_volume 1751.463389
_symmetry_space_group_name_H-M "P 2/M"
_symmetry_group_IT_number 10
_symmetry_cell_setting 'monoclinic'
loop_
_space_group_symop_operation_xyz
x,y,z
-x,y,-z
-x,-y,-z
x,-y,z
loop_
_atom_site_type_symbol
_atom_site_label
_atom_site_fract_x
_atom_site_fract_y
_atom_site_fract_z
Si Si1 0.139048 0.425621 0.346918
Si Si2 0.093597 0.894203 0.776120
Si Si3 0.721598 0.930253 0.100713
Si Si4 0.760577 0.072066 0.466457
Si Si5 0.330715 0.638630 0.008106
Si Si6 0.795481 0.845357 0.666232
Si Si7 0.825316 0.573791 0.354041
Si Si8 0.676976 0.220698 0.986476
O O1 0.184175 0.500000 0.321822
O O2 0.000000 0.410575 0.500000
O O3 0.928721 0.409217 0.384511
O O4 0.448679 0.391151 0.166736
O O5 0.138169 0.922058 0.671788
O O6 0.417909 0.903476 0.646314
O O7 0.838609 0.928398 0.955503
O O8 0.962259 0.824868 0.838495
O O9 0.416964 0.894342 0.265084
O O10 0.686386 0.000000 0.144423
O O11 0.000000 0.900717 0.000000
O O12 0.988946 0.115374 0.392256
O O13 0.772241 0.000000 0.481991
O O14 0.049262 0.597397 0.174894
O O15 0.500000 0.640285 0.000000
O O16 0.244245 0.708935 0.036890
O O17 0.566319 0.802849 0.828511
O O18 0.000000 0.811912 0.500000
O O19 0.500000 0.596809 0.500000
O O20 0.826733 0.500000 0.352096
O O21 0.500000 0.216867 0.000000
#
# Coordination Sequence:
#
# PCOD9149069 Si02
#       8
#     4   4   4   4   4   4   4   4
#     4   9  17  31  54  85 117 149 186 231 279 321
#     4  10  20  35  53  75 103 135 167 215 266 322
#     4  10  20  34  53  75 103 132 164 207 266 331
#     4  11  21  35  56  80 103 129 172 221 274 333
#     4   9  18  33  56  78 105 148 192 223 258 319
#     4  11  23  36  54  77 104 135 171 219 269 322
#     4   9  17  32  54  84 117 146 183 231 276 320
#     4  10  20  39  54  74 105 141 183 219 262 316
#
# _framework density 18.270437000000001
#
# number of rings (size 3 to 8) (size 9 to 14) (size 15 to 20)
#    0.000    2.125    1.250    3.000    0.000    4.000 
#    2.250    2.500    0.000   10.500    0.000    0.000 
#    0.000    0.000    0.000    0.000    0.000    0.000 
#
# Total GULP energy -178373.680832 kJ/mol
# GULP energy per Si atom -5574.177526 kJ/mol
# Density = 1.822885 g / cm^3
# Si number density = 18.270437 Si / 1000 Ang^3
#
#
#
# Elastic Constant Matrix: (Units=GPa)
#
#
# Indices 1 2 3 4 5 6 
#
# 1 55.8460 14.3816 24.3614 0.0000 3.6505 0.0000
# 2 14.3816 36.9825 19.0986 0.0000 6.0473 0.0000
# 3 24.3614 19.0986 99.6957 0.0000 17.9739 0.0000
# 4 0.0000 0.0000 0.0000 10.8526 0.0000 -11.8523
# 5 3.6505 6.0473 17.9739 0.0000 35.3069 0.0000
# 6 0.0000 0.0000 0.0000 -11.8523 0.0000 13.5124
#
#
#
# Elastic Compliance Matrix: (Units=1/GPa)
#
#
# Indices 1 2 3 4 5 6 
#
# 1 0.021281 -0.006282 -0.004177 0.000000 0.001002 0.000000
# 2 -0.006282 0.032055 -0.004110 0.000000 -0.002748 0.000000
# 3 -0.004177 -0.004110 0.012810 0.000000 -0.005385 0.000000
# 4 0.000000 0.000000 0.000000 2.191167 0.000000 1.921974
# 5 0.001002 -0.002748 -0.005385 0.000000 0.031432 0.000000
# 6 0.000000 0.000000 0.000000 1.921974 0.000000 1.759859
#
#
# Mechanical properties :
#
#
# Convention : Reuss Voigt Hill
#
# Bulk Modulus (GPa) = 27.02273 34.24524 30.63399
# Shear Modulus (GPa) = 1.22247 20.91322 11.06784
#
# Velocity S-wave (km/s) = 0.81887 3.38693 2.46393
# Velocity P-wave (km/s) = 3.96442 5.83775 4.98979
#
# Compressibility (1/GPa) = 0.03700589
#
# Stress axis : x y z
#
# Youngs Moduli (GPa) = 46.99038 31.19659 78.06686
#
# Poissons Ratio (x) = 0.19598 0.32611
# Poissons Ratio (y) = 0.29520 0.32086
# Poissons Ratio (z) = 0.19630 0.12822
#
# Static dielectric constant tensor:
#      x y z
#    x 1.678550 0.000000 0.012200 
#    y 0.000000 1.616290 0.000000 
#    z 0.012200 0.000000 1.628640 
# 
# From -- ./inp_files/84242.got.cif
#   From: 2010.05.17/outbox.cif.g08.bks.cpg/sg10_43_cif.got.tgz:84242.got - 2010.06.03 11:33:40.
