data_PCOD9149390
_publ_section_title
;
Structure prediction by ZEFSAII (Michael W. Deem and Ramdas Pophale) SiO2 
 PCOD9149390
Probable space group: P 2/M
;
_chemical_formula_sum "Si O2"
_cell_formula_units_Z 28
_cell_length_a 7.380971
_cell_length_b 8.503353
_cell_length_c 26.637126
_cell_angle_alpha 90.000000
_cell_angle_beta 52.404581
_cell_angle_gamma 90.000000
_cell_volume 1324.651970
_symmetry_space_group_name_H-M "P 2/M"
_symmetry_group_IT_number 10
_symmetry_cell_setting 'monoclinic'
loop_
_space_group_symop_operation_xyz
x,y,z
-x,y,-z
-x,-y,-z
x,-y,z
loop_
_atom_site_type_symbol
_atom_site_label
_atom_site_fract_x
_atom_site_fract_y
_atom_site_fract_z
Si Si1 0.785410 0.321427 0.126818
Si Si2 0.046692 0.687873 0.644430
Si Si3 0.507900 0.690807 0.620038
Si Si4 0.305168 0.666705 0.075876
Si Si5 0.870732 0.000000 0.073939
Si Si6 0.699883 0.000000 0.923878
Si Si7 0.747111 0.817949 0.486446
Si Si8 0.551598 0.690050 0.726730
O O1 0.715993 0.500000 0.122452
O O2 0.653064 0.279889 0.200606
O O3 0.056967 0.332793 0.091315
O O4 0.746937 0.168904 0.098841
O O5 0.050385 0.500000 0.648897
O O6 0.799469 0.746789 0.703470
O O7 0.264612 0.746847 0.638498
O O8 0.084211 0.727800 0.579478
O O9 0.513735 0.500000 0.617939
O O10 0.702885 0.750561 0.549152
O O11 0.521960 0.746294 0.674810
O O12 0.323106 0.500000 0.101060
O O13 0.318803 0.834052 0.101060
O O14 0.500000 0.666582 0.000000
O O15 0.059600 0.000000 0.086785
O O16 0.000000 0.000000 0.000000
O O17 0.500000 0.000000 0.000000
O O18 0.500000 0.805402 0.500000
O O19 0.811195 0.000000 0.478150
O O20 0.563034 0.500000 0.721561
#
# Coordination Sequence:
#
# PCOD9149390 Si02
#       8
#     4   4   4   4   2   2   4   4
#     4   9  18  34  54  76 109 141 172 217 267 319
#     4   9  17  31  52  73 100 138 179 220 266 316
#     4   9  17  31  52  74  99 135 181 221 263 320
#     4   8  13  23  44  71  94 122 159 198 244 299
#     4  10  20  34  56  80 102 135 173 210 262 323
#     4   8  14  26  46  68  94 126 149 192 242 286
#     4   9  17  30  47  72 104 137 172 226 273 307
#     4   9  18  33  53  75 103 140 173 216 267 316
#
# _framework density 21.137626999999998
#
# number of rings (size 3 to 8) (size 9 to 14) (size 15 to 20)
#    0.000    3.143    0.000    0.429    0.000    2.571 
#    2.571    2.857   12.571    0.000    0.000    0.000 
#    0.000    0.000    0.000    0.000    0.000    0.000 
#
# Total GULP energy -155946.643445 kJ/mol
# GULP energy per Si atom -5569.522980 kJ/mol
# Density = 2.108952 g / cm^3
# Si number density = 21.137627 Si / 1000 Ang^3
#
#
#
# Elastic Constant Matrix: (Units=GPa)
#
#
# Indices 1 2 3 4 5 6 
#
# 1 59.5413 2.3049 15.3904 0.0000 -10.9702 0.0000
# 2 2.3049 122.8125 7.1688 0.0000 9.9760 0.0000
# 3 15.3904 7.1688 66.8986 0.0000 -10.3458 0.0000
# 4 0.0000 0.0000 0.0000 -26.5378 0.0000 20.7177
# 5 -10.9702 9.9760 -10.3458 0.0000 25.2766 0.0000
# 6 0.0000 0.0000 0.0000 20.7177 0.0000 -10.1974
#
#
#
# Elastic Compliance Matrix: (Units=1/GPa)
#
#
# Indices 1 2 3 4 5 6 
#
# 1 0.018976 -0.000760 -0.003165 0.000000 0.007240 0.000000
# 2 -0.000760 0.008588 -0.001410 0.000000 -0.004296 0.000000
# 3 -0.003165 -0.001410 0.016762 0.000000 0.006044 0.000000
# 4 0.000000 0.000000 0.000000 0.064294 0.000000 0.130623
# 5 0.007240 -0.004296 0.006044 0.000000 0.046874 0.000000
# 6 0.000000 0.000000 0.000000 0.130623 0.000000 0.167318
#
#
# Mechanical properties :
#
#
# Convention : Reuss Voigt Hill
#
# Bulk Modulus (GPa) = 29.71046 33.22006 31.46526
# Shear Modulus (GPa) = 14.50540 12.66750 13.58645
#
# Velocity S-wave (km/s) = 2.62245 2.45069 2.53802
# Velocity P-wave (km/s) = 4.82244 4.87422 4.84840
#
# Compressibility (1/GPa) = 0.03365818
#
# Stress axis : x y z
#
# Youngs Moduli (GPa) = 52.69684 116.44112 59.65961
#
# Poissons Ratio (x) = 0.08844 0.18879
# Poissons Ratio (y) = 0.04003 0.08412
# Poissons Ratio (z) = 0.16676 0.16418
#
# Static dielectric constant tensor:
#      x y z
#    x 1.792210 0.000000 -0.038100 
#    y 0.000000 1.810830 0.000000 
#    z -0.038100 0.000000 1.722220 
# 
# From -- ./inp_files/92010.got.cif
#   From: 2010.05.17/outbox.cif.g08.bks.cpg/sg10_47_cif.got.tgz:92010.got - 2010.06.03 11:33:40.
