data_PCOD9149396
_publ_section_title
;
Structure prediction by ZEFSAII (Michael W. Deem and Ramdas Pophale) SiO2 
 PCOD9149396
Probable space group: P 2/M
;
_chemical_formula_sum "Si O2"
_cell_formula_units_Z 22
_cell_length_a 8.181895
_cell_length_b 10.971879
_cell_length_c 19.783758
_cell_angle_alpha 90.000000
_cell_angle_beta 140.513902
_cell_angle_gamma 90.000000
_cell_volume 1129.344303
_symmetry_space_group_name_H-M "P 2/M"
_symmetry_group_IT_number 10
_symmetry_cell_setting 'monoclinic'
loop_
_space_group_symop_operation_xyz
x,y,z
-x,y,-z
-x,-y,-z
x,-y,z
loop_
_atom_site_type_symbol
_atom_site_label
_atom_site_fract_x
_atom_site_fract_y
_atom_site_fract_z
Si Si1 0.125667 0.366111 0.263817
Si Si2 0.805824 0.137145 0.494311
Si Si3 0.691499 0.864931 0.906437
Si Si4 0.537568 0.365654 0.092764
Si Si5 0.704901 0.866753 0.757171
Si Si6 0.500000 0.287558 0.500000
O O1 0.147531 0.500000 0.237652
O O2 0.143970 0.252520 0.218417
O O3 0.349201 0.356028 0.391782
O O4 0.842043 0.359872 0.204962
O O5 0.535575 0.127497 0.369426
O O6 0.726444 0.209355 0.536025
O O7 0.000000 0.190997 0.500000
O O8 0.899504 0.000000 0.540780
O O9 0.595849 0.750842 0.917789
O O10 0.603274 0.853439 0.800658
O O11 0.614629 0.000000 0.907442
O O12 0.000000 0.862574 0.000000
O O13 0.442752 0.500000 0.085391
O O14 0.500000 0.361613 0.000000
O O15 0.840626 0.000000 0.797066
#
# Coordination Sequence:
#
# PCOD9149396 Si02
#       6
#     4   4   4   4   4   2
#     4  10  21  37  57  80 112 147 185 231 279 331
#     4   9  18  32  52  79 112 146 187 234 278 337
#     4  10  21  36  56  83 113 142 178 229 283 333
#     4  10  22  38  56  81 110 145 188 228 271 333
#     4   9  19  35  54  79 108 141 182 224 276 333
#     4  10  20  34  56  80 113 152 191 232 293 332
#
# _framework density 19.480331
#
# number of rings (size 3 to 8) (size 9 to 14) (size 15 to 20)
#    0.000    2.364    0.000    1.636    2.545    2.909 
#    0.000    0.000    0.000    2.727    0.000    0.000 
#    0.000    0.000    0.000    0.000    0.000    0.000 
#
# Total GULP energy -122536.477091 kJ/mol
# GULP energy per Si atom -5569.839868 kJ/mol
# Density = 1.943599 g / cm^3
# Si number density = 19.480331 Si / 1000 Ang^3
#
#
#
# Elastic Constant Matrix: (Units=GPa)
#
#
# Indices 1 2 3 4 5 6 
#
# 1 71.1334 80.9680 -11.8586 0.0000 -0.4910 0.0000
# 2 80.9680 206.6896 14.4967 0.0000 -7.3067 0.0000
# 3 -11.8586 14.4967 36.0611 0.0000 -4.2441 0.0000
# 4 0.0000 0.0000 0.0000 -56.7704 0.0000 27.8040
# 5 -0.4910 -7.3067 -4.2441 0.0000 23.5712 0.0000
# 6 0.0000 0.0000 0.0000 27.8040 0.0000 23.8900
#
#
#
# Elastic Compliance Matrix: (Units=1/GPa)
#
#
# Indices 1 2 3 4 5 6 
#
# 1 0.032650 -0.013956 0.016263 0.000000 -0.000718 0.000000
# 2 -0.013956 0.010978 -0.008823 0.000000 0.001524 0.000000
# 3 0.016263 -0.008823 0.037131 0.000000 0.004289 0.000000
# 4 0.000000 0.000000 0.000000 -0.011220 0.000000 0.013058
# 5 -0.000718 0.001524 0.004289 0.000000 0.043654 0.000000
# 6 0.000000 0.000000 0.000000 0.013058 0.000000 0.026661
#
#
# Mechanical properties :
#
#
# Convention : Reuss Voigt Hill
#
# Bulk Modulus (GPa) = 14.76554 53.45514 34.11034
# Shear Modulus (GPa) = 28.49593 13.49003 20.99298
#
# Velocity S-wave (km/s) = 3.82881 2.63438 3.28632
# Velocity P-wave (km/s) = 5.20985 6.06246 5.65226
#
# Compressibility (1/GPa) = 0.06772525
#
# Stress axis : x y z
#
# Youngs Moduli (GPa) = 30.62774 91.09061 26.93199
#
# Poissons Ratio (x) = 1.27129 -0.43799
# Poissons Ratio (y) = 0.42745 0.23763
# Poissons Ratio (z) = -0.49810 0.80373
#
# Static dielectric constant tensor:
#      x y z
#    x 1.676380 0.000000 -0.007940 
#    y 0.000000 1.732750 0.000000 
#    z -0.007940 0.000000 1.782760 
# 
# From -- ./inp_files/27030.got.cif
#   From: 2010.05.17/outbox.cif.g08.bks.cpg/sg10_14_cif.got.tgz:27030.got - 2010.06.03 11:33:40.
