data_PCOD9149232
_publ_section_title
;
Structure prediction by ZEFSAII (Michael W. Deem and Ramdas Pophale) SiO2 
 PCOD9149232
Probable space group: P 2/M
;
_chemical_formula_sum "Si O2"
_cell_formula_units_Z 24
_cell_length_a 20.048645
_cell_length_b 8.841219
_cell_length_c 8.247469
_cell_angle_alpha 90.000000
_cell_angle_beta 56.824182
_cell_angle_gamma 90.000000
_cell_volume 1223.604052
_symmetry_space_group_name_H-M "P 2/M"
_symmetry_group_IT_number 10
_symmetry_cell_setting 'monoclinic'
loop_
_space_group_symop_operation_xyz
x,y,z
-x,y,-z
-x,-y,-z
x,-y,z
loop_
_atom_site_type_symbol
_atom_site_label
_atom_site_fract_x
_atom_site_fract_y
_atom_site_fract_z
Si Si1 0.170970 0.679230 0.767646
Si Si2 0.907076 0.682576 0.782394
Si Si3 0.513626 0.662759 0.668962
Si Si4 0.413422 0.829177 0.022565
Si Si5 0.084926 0.181838 0.567929
Si Si6 0.329777 0.822959 0.451449
O O1 0.157660 0.500000 0.765529
O O2 0.127019 0.764517 0.677703
O O3 0.263075 0.722024 0.621715
O O4 0.141160 0.719931 0.988616
O O5 0.910825 0.500000 0.762268
O O6 0.877760 0.752241 0.649624
O O7 0.995522 0.750588 0.689501
O O8 0.500000 0.648305 0.500000
O O9 0.539278 0.500000 0.706058
O O10 0.430833 0.712645 0.859197
O O11 0.583355 0.784195 0.595854
O O12 0.401900 0.000000 0.978716
O O13 0.500000 0.827049 0.000000
O O14 0.343881 0.792623 0.241071
O O15 0.083521 0.000000 0.561650
O O16 0.311197 0.000000 0.495179
#
# Coordination Sequence:
#
# PCOD9149232 Si02
#       6
#     4   4   4   4   4   4
#     4  11  23  39  60  86 119 158 196 240 295 350
#     4  10  21  39  62  87 118 156 199 244 288 343
#     4  10  20  34  54  81 109 142 185 228 275 336
#     4   8  16  32  53  75 100 133 175 220 268 323
#     4  11  22  37  61  90 119 154 197 242 291 348
#     4  10  21  37  56  80 110 144 184 233 285 340
#
# _framework density 19.614187999999999
#
# number of rings (size 3 to 8) (size 9 to 14) (size 15 to 20)
#    0.000    2.000    0.000    6.000    0.000    9.667 
#    3.000    0.000    0.000    0.000    0.000    0.000 
#    0.000    0.000    0.000    0.000    0.000    0.000 
#
# Total GULP energy -133772.240865 kJ/mol
# GULP energy per Si atom -5573.843369 kJ/mol
# Density = 1.956954 g / cm^3
# Si number density = 19.614188 Si / 1000 Ang^3
#
#
#
# Elastic Constant Matrix: (Units=GPa)
#
#
# Indices 1 2 3 4 5 6 
#
# 1 17.7273 7.2711 34.7351 0.0000 3.5459 0.0000
# 2 7.2711 85.2825 73.0394 0.0000 11.7004 0.0000
# 3 34.7351 73.0394 156.4073 0.0000 8.6601 0.0000
# 4 0.0000 0.0000 0.0000 25.7870 0.0000 -4.9488
# 5 3.5459 11.7004 8.6601 0.0000 23.0169 0.0000
# 6 0.0000 0.0000 0.0000 -4.9488 0.0000 45.4798
#
#
#
# Elastic Compliance Matrix: (Units=1/GPa)
#
#
# Indices 1 2 3 4 5 6 
#
# 1 0.124408 0.024334 -0.038039 0.000000 -0.017224 0.000000
# 2 0.024334 0.025347 -0.016667 0.000000 -0.010363 0.000000
# 3 -0.038039 -0.016667 0.022295 0.000000 0.005944 0.000000
# 4 0.000000 0.000000 0.000000 0.039606 0.000000 0.004310
# 5 -0.017224 -0.010363 0.005944 0.000000 0.049131 0.000000
# 6 0.000000 0.000000 0.000000 0.004310 0.000000 0.022457
#
#
# Mechanical properties :
#
#
# Convention : Reuss Voigt Hill
#
# Bulk Modulus (GPa) = 8.98413 54.38981 31.68697
# Shear Modulus (GPa) = 13.12025 28.48152 20.80088
#
# Velocity S-wave (km/s) = 2.58915 3.81476 3.26007
# Velocity P-wave (km/s) = 3.67813 6.86973 5.51007
#
# Compressibility (1/GPa) = 0.11130733
#
# Stress axis : x y z
#
# Youngs Moduli (GPa) = 8.03806 39.45228 44.85251
#
# Poissons Ratio (x) = -0.96003 1.70613
# Poissons Ratio (y) = -0.19560 0.74756
# Poissons Ratio (z) = 0.30576 0.65755
#
# Static dielectric constant tensor:
#      x y z
#    x 1.697780 0.000000 0.016680 
#    y 0.000000 1.702350 0.000000 
#    z 0.016680 0.000000 1.738840 
# 
# From -- ./inp_files/33442.got.cif
#   From: 2010.05.17/outbox.cif.g08.bks.cpg/sg10_17_cif.got.tgz:33442.got - 2010.06.03 11:33:40.
