data_PCOD9149932
_publ_section_title
;
Structure prediction by ZEFSAII (Michael W. Deem and Ramdas Pophale) SiO2 
 PCOD9149932
Probable space group: P 2/M
;
_chemical_formula_sum "Si O2"
_cell_formula_units_Z 24
_cell_length_a 12.658921
_cell_length_b 13.082055
_cell_length_c 20.971180
_cell_angle_alpha 90.000000
_cell_angle_beta 159.622753
_cell_angle_gamma 90.000000
_cell_volume 1209.272174
_symmetry_space_group_name_H-M "P 2/M"
_symmetry_group_IT_number 10
_symmetry_cell_setting 'monoclinic'
loop_
_space_group_symop_operation_xyz
x,y,z
-x,y,-z
-x,-y,-z
x,-y,z
loop_
_atom_site_type_symbol
_atom_site_label
_atom_site_fract_x
_atom_site_fract_y
_atom_site_fract_z
Si Si1 0.159140 0.880418 0.523678
Si Si2 0.631932 0.386469 0.010528
Si Si3 0.564587 0.697050 0.710242
Si Si4 0.777452 0.689670 0.609797
Si Si5 0.786887 0.378986 0.963928
Si Si6 0.147186 0.885755 0.782776
O O1 0.439160 0.807798 0.661541
O O2 0.000000 0.849565 0.500000
O O3 0.916330 0.873118 0.328646
O O4 0.249415 0.000000 0.580333
O O5 0.495398 0.500000 0.929562
O O6 0.986715 0.388756 0.226982
O O7 0.500000 0.336921 0.000000
O O8 0.615337 0.341408 0.930505
O O9 0.337837 0.662069 0.526091
O O10 0.585813 0.632118 0.786942
O O11 0.904465 0.685278 0.873430
O O12 0.500000 0.698856 0.500000
O O13 0.952229 0.797755 0.705435
O O14 0.862976 0.500000 0.015450
O O15 0.037561 0.000000 0.738016
O O16 0.500000 0.881568 0.000000
#
# Coordination Sequence:
#
# PCOD9149932 Si02
#       6
#     4   4   4   4   4   4
#     4   9  19  36  57  83 116 151 190 235 285 338
#     4  10  22  39  59  83 113 150 191 239 289 343
#     4  10  20  35  57  84 111 151 194 232 286 343
#     4  11  21  35  55  85 115 147 188 238 284 340
#     4  10  21  39  59  80 115 154 192 237 292 347
#     4   9  19  36  57  80 111 151 189 227 280 338
#
# _framework density 19.846647999999998
#
# number of rings (size 3 to 8) (size 9 to 14) (size 15 to 20)
#    0.000    2.167    1.667    1.500    0.000    6.000 
#    0.000    1.667    0.000    5.000    0.000    0.000 
#    0.000    0.000    0.000    0.000    0.000    0.000 
#
# Total GULP energy -133709.693085 kJ/mol
# GULP energy per Si atom -5571.237212 kJ/mol
# Density = 1.980148 g / cm^3
# Si number density = 19.846648 Si / 1000 Ang^3
#
#
#
# Elastic Constant Matrix: (Units=GPa)
#
#
# Indices 1 2 3 4 5 6 
#
# 1 144.9024 28.6087 26.0945 0.0000 1.8013 0.0000
# 2 28.6087 77.0208 22.2008 0.0000 5.9888 0.0000
# 3 26.0945 22.2008 63.9733 0.0000 -4.2472 0.0000
# 4 0.0000 0.0000 0.0000 30.5997 0.0000 -31.1751
# 5 1.8013 5.9888 -4.2472 0.0000 32.6719 0.0000
# 6 0.0000 0.0000 0.0000 -31.1751 0.0000 99.0652
#
#
#
# Elastic Compliance Matrix: (Units=1/GPa)
#
#
# Indices 1 2 3 4 5 6 
#
# 1 0.007771 -0.002154 -0.002446 0.000000 -0.000351 0.000000
# 2 -0.002154 0.015391 -0.004682 0.000000 -0.003311 0.000000
# 3 -0.002446 -0.004682 0.018479 0.000000 0.003395 0.000000
# 4 0.000000 0.000000 0.000000 0.048102 0.000000 0.015137
# 5 -0.000351 -0.003311 0.003395 0.000000 0.031675 0.000000
# 6 0.000000 0.000000 0.000000 0.015137 0.000000 0.014858
#
#
# Mechanical properties :
#
#
# Convention : Reuss Voigt Hill
#
# Bulk Modulus (GPa) = 43.33273 48.85604 46.09438
# Shear Modulus (GPa) = 30.76296 46.40019 38.58158
#
# Velocity S-wave (km/s) = 3.94132 4.84047 4.41385
# Velocity P-wave (km/s) = 6.52634 7.47732 7.01796
#
# Compressibility (1/GPa) = 0.02307725
#
# Stress axis : x y z
#
# Youngs Moduli (GPa) = 128.67833 64.97405 54.11442
#
# Poissons Ratio (x) = 0.13998 0.13234
# Poissons Ratio (y) = 0.27721 0.25337
# Poissons Ratio (z) = 0.31470 0.30422
#
# Static dielectric constant tensor:
#      x y z
#    x 1.713620 0.000000 -0.016720 
#    y 0.000000 1.717270 0.000000 
#    z -0.016720 0.000000 1.683210 
# 
# From -- ./inp_files/84162.got.cif
#   From: 2010.05.17/outbox.cif.g08.bks.cpg/sg10_43_cif.got.tgz:84162.got - 2010.06.03 11:33:40.
