data_PCOD9149221
_publ_section_title
;
Structure prediction by ZEFSAII (Michael W. Deem and Ramdas Pophale) SiO2 
 PCOD9149221
Probable space group: P 2/M
;
_chemical_formula_sum "Si O2"
_cell_formula_units_Z 32
_cell_length_a 12.395070
_cell_length_b 23.828516
_cell_length_c 7.539371
_cell_angle_alpha 90.000000
_cell_angle_beta 142.279213
_cell_angle_gamma 90.000000
_cell_volume 1362.387172
_symmetry_space_group_name_H-M "P 2/M"
_symmetry_group_IT_number 10
_symmetry_cell_setting 'monoclinic'
loop_
_space_group_symop_operation_xyz
x,y,z
-x,y,-z
-x,-y,-z
x,-y,z
loop_
_atom_site_type_symbol
_atom_site_label
_atom_site_fract_x
_atom_site_fract_y
_atom_site_fract_z
Si Si1 0.451871 0.938861 0.149589
Si Si2 0.543997 0.438467 0.345560
Si Si3 0.802872 0.147189 0.311010
Si Si4 0.791901 0.262539 0.236705
Si Si5 0.794900 0.619579 0.183980
Si Si6 0.206861 0.341322 0.231651
Si Si7 0.299532 0.780739 0.271279
Si Si8 0.813134 0.896507 0.711097
O O1 0.628182 0.928476 0.493264
O O2 0.374819 0.000000 0.090808
O O3 0.500000 0.939759 0.000000
O O4 0.317517 0.886856 0.983393
O O5 0.500000 0.440210 0.500000
O O6 0.614634 0.500000 0.388618
O O7 0.684028 0.387699 0.516396
O O8 0.359262 0.426293 0.005280
O O9 0.733431 0.209082 0.274118
O O10 0.817533 0.112319 0.507133
O O11 0.000000 0.154652 0.500000
O O12 0.726088 0.324207 0.194383
O O13 0.000000 0.272726 0.500000
O O14 0.760502 0.238384 0.000399
O O15 0.000000 0.605091 0.500000
O O16 0.785190 0.639890 0.965049
O O17 0.281357 0.278169 0.354141
O O18 0.000000 0.340037 0.000000
O O19 0.500000 0.796789 0.500000
O O20 0.199364 0.834586 0.216749
O O21 0.000000 0.923718 0.000000
#
# Coordination Sequence:
#
# PCOD9149221 Si02
#       8
#     4   4   4   4   4   4   4   4
#     4   9  20  38  56  76 107 147 187 225 267 319
#     4   9  18  34  54  75 103 142 185 223 266 323
#     4  10  20  36  58  83 112 145 181 221 271 331
#     4   9  17  31  52  76 108 140 168 209 265 325
#     4   9  18  33  54  79 105 140 180 220 269 321
#     4  10  20  34  54  80 108 141 179 219 270 328
#     4  11  21  35  56  81 112 143 177 224 272 321
#     4  11  22  35  57  86 112 141 181 225 271 320
#
# _framework density 23.488181999999998
#
# number of rings (size 3 to 8) (size 9 to 14) (size 15 to 20)
#    0.000    2.250    0.000    4.500    0.000    4.000 
#    0.000    0.625    0.000   15.375    0.000    0.000 
#    0.000    0.000    0.000    0.000    0.000    0.000 
#
# Total GULP energy -178548.589981 kJ/mol
# GULP energy per Si atom -5579.643437 kJ/mol
# Density = 2.343472 g / cm^3
# Si number density = 23.488182 Si / 1000 Ang^3
#
#
#
# Elastic Constant Matrix: (Units=GPa)
#
#
# Indices 1 2 3 4 5 6 
#
# 1 36.0784 9.9863 5.9947 0.0000 13.3269 0.0000
# 2 9.9863 102.6376 35.2691 0.0000 11.7943 0.0000
# 3 5.9947 35.2691 138.6653 0.0000 10.0314 0.0000
# 4 0.0000 0.0000 0.0000 9.7065 0.0000 6.6669
# 5 13.3269 11.7943 10.0314 0.0000 31.5505 0.0000
# 6 0.0000 0.0000 0.0000 6.6669 0.0000 14.4573
#
#
#
# Elastic Compliance Matrix: (Units=1/GPa)
#
#
# Indices 1 2 3 4 5 6 
#
# 1 0.033119 -0.001674 -0.000040 0.000000 -0.013351 0.000000
# 2 -0.001674 0.011086 -0.002558 0.000000 -0.002624 0.000000
# 3 -0.000040 -0.002558 0.007977 0.000000 -0.001563 0.000000
# 4 0.000000 0.000000 0.000000 0.150782 0.000000 -0.069532
# 5 -0.013351 -0.002624 -0.001563 0.000000 0.038812 0.000000
# 6 0.000000 0.000000 0.000000 -0.069532 0.000000 0.101233
#
#
# Mechanical properties :
#
#
# Convention : Reuss Voigt Hill
#
# Bulk Modulus (GPa) = 22.91566 42.20904 32.56235
# Shear Modulus (GPa) = 13.65744 26.21828 19.93786
#
# Velocity S-wave (km/s) = 2.41396 3.34463 2.91666
# Velocity P-wave (km/s) = 4.18892 5.73801 5.02354
#
# Compressibility (1/GPa) = 0.04363827
#
# Stress axis : x y z
#
# Youngs Moduli (GPa) = 30.19398 90.20146 125.36136
#
# Poissons Ratio (x) = 0.15104 0.00502
# Poissons Ratio (y) = 0.05056 0.32062
# Poissons Ratio (z) = 0.00121 0.23070
#
# Static dielectric constant tensor:
#      x y z
#    x 1.965400 0.000000 -0.066450 
#    y 0.000000 1.961050 0.000000 
#    z -0.066450 0.000000 1.906940 
# 
# From -- ./inp_files/30604.got.cif
#   From: 2010.05.17/outbox.cif.g08.bks.cpg/sg10_16_cif.got.tgz:30604.got - 2010.06.03 11:33:40.
