data_PCOD9149938
_publ_section_title
;
Structure prediction by ZEFSAII (Michael W. Deem and Ramdas Pophale) SiO2 
 PCOD9149938
Probable space group: P 2/M
;
_chemical_formula_sum "Si O2"
_cell_formula_units_Z 32
_cell_length_a 11.150090
_cell_length_b 7.473592
_cell_length_c 22.657134
_cell_angle_alpha 90.000000
_cell_angle_beta 51.229507
_cell_angle_gamma 90.000000
_cell_volume 1472.035542
_symmetry_space_group_name_H-M "P 2/M"
_symmetry_group_IT_number 10
_symmetry_cell_setting 'monoclinic'
loop_
_space_group_symop_operation_xyz
x,y,z
-x,y,-z
-x,-y,-z
x,-y,z
loop_
_atom_site_type_symbol
_atom_site_label
_atom_site_fract_x
_atom_site_fract_y
_atom_site_fract_z
Si Si1 0.173570 0.209712 0.453912
Si Si2 0.110322 0.785329 0.911478
Si Si3 0.744326 0.283426 0.703051
Si Si4 0.565529 0.709566 0.139916
Si Si5 0.649596 0.793735 0.487038
Si Si6 0.342801 0.709627 0.013641
Si Si7 0.052266 0.717426 0.678756
Si Si8 0.955434 0.708893 0.835767
O O1 0.250856 0.224868 0.366249
O O2 0.280055 0.285414 0.473676
O O3 0.000000 0.286166 0.500000
O O4 0.152314 0.000000 0.475706
O O5 0.285124 0.723800 0.865501
O O6 0.051649 0.723546 0.865987
O O7 0.106006 0.000000 0.913908
O O8 0.000000 0.722847 0.000000
O O9 0.741923 0.500000 0.703838
O O10 0.591024 0.218432 0.783782
O O11 0.900857 0.229055 0.688146
O O12 0.532156 0.500000 0.138192
O O13 0.624354 0.791006 0.060214
O O14 0.500000 0.714529 0.500000
O O15 0.793352 0.788408 0.398294
O O16 0.606952 0.000000 0.514100
O O17 0.298748 0.500000 0.017200
O O18 0.500000 0.713259 0.000000
O O19 0.208245 0.789378 0.094750
O O20 0.062549 0.500000 0.673249
O O21 0.030171 0.779902 0.753018
O O22 0.928921 0.500000 0.829605
#
# Coordination Sequence:
#
# PCOD9149938 Si02
#       8
#     4   4   4   4   4   4   4   4
#     4  10  20  37  61  86 113 155 205 238 277 350
#     4  11  23  38  55  77 111 152 195 240 284 332
#     4  10  21  36  58  90 121 146 184 242 298 342
#     4  10  20  35  57  84 112 146 189 233 281 341
#     4  10  22  40  61  85 116 155 198 239 284 346
#     4   9  16  29  53  81 108 142 184 227 272 329
#     4  10  21  37  58  88 121 147 183 238 294 345
#     4  10  20  35  58  84 111 149 192 231 280 342
#
# _framework density 21.738605
#
# number of rings (size 3 to 8) (size 9 to 14) (size 15 to 20)
#    0.000    2.000    2.500    1.125    0.000    6.500 
#    0.000    2.500    0.000    3.000    0.000    0.000 
#    0.000    0.000    0.000    0.000    0.000    0.000 
#
# Total GULP energy -178644.216624 kJ/mol
# GULP energy per Si atom -5582.631769 kJ/mol
# Density = 2.168913 g / cm^3
# Si number density = 21.738605 Si / 1000 Ang^3
#
#
#
# Elastic Constant Matrix: (Units=GPa)
#
#
# Indices 1 2 3 4 5 6 
#
# 1 133.1173 -6.0503 62.0651 0.0000 1.1908 0.0000
# 2 -6.0503 66.0726 -9.2359 0.0000 -0.8324 0.0000
# 3 62.0651 -9.2359 127.0408 0.0000 7.3893 0.0000
# 4 0.0000 0.0000 0.0000 35.2183 0.0000 22.0006
# 5 1.1908 -0.8324 7.3893 0.0000 40.8305 0.0000
# 6 0.0000 0.0000 0.0000 22.0006 0.0000 12.6617
#
#
#
# Elastic Compliance Matrix: (Units=1/GPa)
#
#
# Indices 1 2 3 4 5 6 
#
# 1 0.009745 0.000232 -0.004778 0.000000 0.000585 0.000000
# 2 0.000232 0.015296 0.000991 0.000000 0.000126 0.000000
# 3 -0.004778 0.000991 0.010378 0.000000 -0.001719 0.000000
# 4 0.000000 0.000000 0.000000 -0.332281 0.000000 0.577363
# 5 0.000585 0.000126 -0.001719 0.000000 0.024788 0.000000
# 6 0.000000 0.000000 0.000000 0.577363 0.000000 -0.924234
#
#
# Mechanical properties :
#
#
# Convention : Reuss Voigt Hill
#
# Bulk Modulus (GPa) = 35.32362 46.64318 40.98340
# Shear Modulus (GPa) = -4.23815 36.37222 16.06704
#
# Velocity S-wave (km/s) = -1.39779 4.09487 2.72159
# Velocity P-wave (km/s) = 3.69857 6.62271 5.36375
#
# Compressibility (1/GPa) = 0.02830967
#
# Stress axis : x y z
#
# Youngs Moduli (GPa) = 102.61384 65.37539 96.35876
#
# Poissons Ratio (x) = -0.01516 0.46042
# Poissons Ratio (y) = -0.02379 -0.09554
# Poissons Ratio (z) = 0.49031 -0.06482
#
# Static dielectric constant tensor:
#      x y z
#    x 1.807770 0.000000 0.014930 
#    y 0.000000 1.831240 0.000000 
#    z 0.014930 0.000000 1.781020 
# 
# From -- ./inp_files/83558.got.cif
#   From: 2010.05.17/outbox.cif.g08.bks.cpg/sg10_42_cif.got.tgz:83558.got - 2010.06.03 11:33:40.
