data_PCOD9149744
_publ_section_title
;
Structure prediction by ZEFSAII (Michael W. Deem and Ramdas Pophale) SiO2 
 PCOD9149744
Probable space group: P 2/M
;
_chemical_formula_sum "Si O2"
_cell_formula_units_Z 32
_cell_length_a 5.204200
_cell_length_b 24.397653
_cell_length_c 13.572101
_cell_angle_alpha 90.000000
_cell_angle_beta 102.159875
_cell_angle_gamma 90.000000
_cell_volume 1684.589754
_symmetry_space_group_name_H-M "P 2/M"
_symmetry_group_IT_number 10
_symmetry_cell_setting 'monoclinic'
loop_
_space_group_symop_operation_xyz
x,y,z
-x,y,-z
-x,-y,-z
x,-y,z
loop_
_atom_site_type_symbol
_atom_site_label
_atom_site_fract_x
_atom_site_fract_y
_atom_site_fract_z
Si Si1 0.550659 0.771934 0.109495
Si Si2 0.106874 0.857551 0.744152
Si Si3 0.711021 0.815794 0.432468
Si Si4 0.792123 0.436789 0.567133
Si Si5 0.714722 0.764542 0.721021
Si Si6 0.391205 0.354128 0.886408
Si Si7 0.207634 0.065784 0.933574
Si Si8 0.161628 0.642874 0.245445
O O1 0.736555 0.810956 0.184475
O O2 0.304785 0.765999 0.161870
O O3 0.656401 0.711112 0.102607
O O4 0.500000 0.796705 0.000000
O O5 0.233277 0.862512 0.645851
O O6 0.129526 0.907644 0.821759
O O7 0.838563 0.823724 0.705207
O O8 0.500000 0.830058 0.500000
O O9 0.565830 0.766953 0.358918
O O10 0.000000 0.801072 0.500000
O O11 0.500000 0.435665 0.500000
O O12 0.855561 0.500000 0.599187
O O13 0.798080 0.397559 0.660913
O O14 0.000000 0.419704 0.500000
O O15 0.847569 0.705797 0.713164
O O16 0.603111 0.359932 0.815750
O O17 0.108208 0.374382 0.829555
O O18 0.500000 0.375248 0.000000
O O19 0.189186 0.000000 0.922451
O O20 0.500000 0.077543 0.000000
O O21 0.000000 0.084375 0.000000
#
# Coordination Sequence:
#
# PCOD9149744 Si02
#       8
#     4   4   4   4   4   4   4   4
#     4   9  19  31  49  83 118 155 189 233 280 351
#     4  11  21  36  60  84 117 155 199 241 285 358
#     4  11  23  40  56  80 116 158 193 241 294 352
#     4  10  22  42  64  88 113 150 203 253 304 355
#     4  10  22  35  54  88 119 153 199 236 292 366
#     4  10  20  35  55  82 122 158 191 232 289 350
#     4  10  24  42  62  92 125 157 195 242 298 351
#     4  11  21  38  57  85 120 153 198 246 297 350
#
# _framework density 18.995723999999999
#
# number of rings (size 3 to 8) (size 9 to 14) (size 15 to 20)
#    0.000    1.750    2.500    1.500    5.250    0.500 
#    2.250    0.000    0.000    3.000    0.000    0.000 
#    0.000    0.000    0.000    0.000    0.000    0.000 
#
# Total GULP energy -178187.135121 kJ/mol
# GULP energy per Si atom -5568.347973 kJ/mol
# Density = 1.895249 g / cm^3
# Si number density = 18.995724 Si / 1000 Ang^3
#
#
#
# Elastic Constant Matrix: (Units=GPa)
#
#
# Indices 1 2 3 4 5 6 
#
# 1 110.2296 22.4227 53.2060 0.0000 5.2924 0.0000
# 2 22.4227 58.2836 46.8190 0.0000 1.0277 0.0000
# 3 53.2060 46.8190 141.7157 0.0000 -2.3869 0.0000
# 4 0.0000 0.0000 0.0000 40.4287 0.0000 7.6548
# 5 5.2924 1.0277 -2.3869 0.0000 26.1528 0.0000
# 6 0.0000 0.0000 0.0000 7.6548 0.0000 25.2091
#
#
#
# Elastic Compliance Matrix: (Units=1/GPa)
#
#
# Indices 1 2 3 4 5 6 
#
# 1 0.011321 -0.001171 -0.003907 0.000000 -0.002602 0.000000
# 2 -0.001171 0.023546 -0.007362 0.000000 -0.001360 0.000000
# 3 -0.003907 -0.007362 0.010991 0.000000 0.002083 0.000000
# 4 0.000000 0.000000 0.000000 0.026244 0.000000 -0.007969
# 5 -0.002602 -0.001360 0.002083 0.000000 0.039007 0.000000
# 6 0.000000 0.000000 0.000000 -0.007969 0.000000 0.042088
#
#
# Mechanical properties :
#
#
# Convention : Reuss Voigt Hill
#
# Bulk Modulus (GPa) = 47.67149 61.68048 54.67599
# Shear Modulus (GPa) = 27.01683 30.87686 28.94685
#
# Velocity S-wave (km/s) = 3.77538 4.03608 3.90790
# Velocity P-wave (km/s) = 6.64492 7.36621 7.01485
#
# Compressibility (1/GPa) = 0.02097690
#
# Stress axis : x y z
#
# Youngs Moduli (GPa) = 88.33069 42.47005 90.98517
#
# Poissons Ratio (x) = 0.04972 0.35552
# Poissons Ratio (y) = 0.10341 0.66986
# Poissons Ratio (z) = 0.34515 0.31268
#
# Static dielectric constant tensor:
#      x y z
#    x 1.887330 0.000000 0.058090 
#    y 0.000000 1.659750 0.000000 
#    z 0.058090 0.000000 1.734760 
# 
# From -- ./inp_files/40006.got.cif
#   From: 2010.05.17/outbox.cif.g08.bks.cpg/sg10_21_cif.got.tgz:40006.got - 2010.06.03 11:33:40.
