data_PCOD9149028
_publ_section_title
;
Structure prediction by ZEFSAII (Michael W. Deem and Ramdas Pophale) SiO2 
 PCOD9149028
Probable space group: P 2/M
;
_chemical_formula_sum "Si O2"
_cell_formula_units_Z 32
_cell_length_a 24.792305
_cell_length_b 10.799026
_cell_length_c 17.914818
_cell_angle_alpha 90.000000
_cell_angle_beta 159.407907
_cell_angle_gamma 90.000000
_cell_volume 1686.947841
_symmetry_space_group_name_H-M "P 2/M"
_symmetry_group_IT_number 10
_symmetry_cell_setting 'monoclinic'
loop_
_space_group_symop_operation_xyz
x,y,z
-x,y,-z
-x,-y,-z
x,-y,z
loop_
_atom_site_type_symbol
_atom_site_label
_atom_site_fract_x
_atom_site_fract_y
_atom_site_fract_z
Si Si1 0.760636 0.349716 0.702331
Si Si2 0.571601 0.359146 0.925181
Si Si3 0.444244 0.650434 0.345927
Si Si4 0.244779 0.644989 0.553545
Si Si5 0.986926 0.650692 0.861086
Si Si6 0.003902 0.863670 0.415863
Si Si7 0.339044 0.199474 0.817680
Si Si8 0.803932 0.645818 0.088139
O O1 0.759327 0.500000 0.700067
O O2 0.585544 0.309018 0.476368
O O3 0.865777 0.314066 0.769055
O O4 0.849077 0.312071 0.893207
O O5 0.591664 0.500000 0.979506
O O6 0.388251 0.340967 0.682079
O O7 0.631737 0.266330 0.065703
O O8 0.669460 0.350530 0.976823
O O9 0.500000 0.690057 0.500000
O O10 0.440708 0.500000 0.342528
O O11 0.280814 0.682958 0.098691
O O12 0.222690 0.500000 0.537487
O O13 0.089079 0.695146 0.314233
O O14 0.300392 0.704008 0.701861
O O15 0.990340 0.500000 0.861351
O O16 0.181213 0.871723 0.622285
O O17 0.000000 0.841046 0.500000
O O18 0.926345 0.747138 0.273717
O O19 0.931356 0.000000 0.307883
O O20 0.500000 0.139918 0.000000
O O21 0.856073 0.500000 0.151575
#
# Coordination Sequence:
#
# PCOD9149028 Si02
#       8
#     4   4   4   4   4   4   4   4
#     4   8  13  22  36  55  88 133 176 211 252 308
#     4   9  16  28  46  72 107 143 178 219 270 323
#     4   9  17  28  43  70 107 141 173 217 268 315
#     4   9  16  25  42  71 108 141 172 216 273 324
#     4   8  13  21  35  58  89 132 175 210 252 313
#     4  11  24  42  60  80 109 145 184 228 276 326
#     4  10  20  34  52  76 103 136 175 224 270 321
#     4  10  20  34  57  83 108 144 187 228 270 321
#
# _framework density 18.969169999999998
#
# number of rings (size 3 to 8) (size 9 to 14) (size 15 to 20)
#    0.000    2.750    1.250    1.875    0.000    7.000 
#    0.000    2.500    0.000    0.375    0.000    0.000 
#    0.000    0.000    0.000    8.625    0.000    4.125 
#
# Total GULP energy -178155.053634 kJ/mol
# GULP energy per Si atom -5567.345426 kJ/mol
# Density = 1.892600 g / cm^3
# Si number density = 18.969170 Si / 1000 Ang^3
#
#
#
# Elastic Constant Matrix: (Units=GPa)
#
#
# Indices 1 2 3 4 5 6 
#
# 1 52.6864 14.1220 24.5089 0.0000 0.9565 0.0000
# 2 14.1220 57.8982 50.2951 0.0000 -3.9124 0.0000
# 3 24.5089 50.2951 119.1545 0.0000 -4.2288 0.0000
# 4 0.0000 0.0000 0.0000 1.2558 0.0000 2.6572
# 5 0.9565 -3.9124 -4.2288 0.0000 33.1711 0.0000
# 6 0.0000 0.0000 0.0000 2.6572 0.0000 4.6063
#
#
#
# Elastic Compliance Matrix: (Units=1/GPa)
#
#
# Indices 1 2 3 4 5 6 
#
# 1 0.021218 -0.002262 -0.003456 0.000000 -0.001319 0.000000
# 2 -0.002262 0.027615 -0.011123 0.000000 0.001904 0.000000
# 3 -0.003456 -0.011123 0.013818 0.000000 0.000549 0.000000
# 4 0.000000 0.000000 0.000000 -3.609609 0.000000 2.082272
# 5 -0.001319 0.001904 0.000549 0.000000 0.030479 0.000000
# 6 0.000000 0.000000 0.000000 2.082272 0.000000 -0.984104
#
#
# Mechanical properties :
#
#
# Convention : Reuss Voigt Hill
#
# Bulk Modulus (GPa) = 34.52125 45.28790 39.90458
# Shear Modulus (GPa) = -1.12177 17.19418 8.03620
#
# Velocity S-wave (km/s) = -0.76984 3.01396 2.06050
# Velocity P-wave (km/s) = 4.17707 6.00319 5.17137
#
# Compressibility (1/GPa) = 0.02896766
#
# Stress axis : x y z
#
# Youngs Moduli (GPa) = 47.12895 36.21255 72.36901
#
# Poissons Ratio (x) = 0.08191 0.25014
# Poissons Ratio (y) = 0.10660 0.80498
# Poissons Ratio (z) = 0.16290 0.40280
#
# Static dielectric constant tensor:
#      x y z
#    x 1.728850 0.000000 0.015630 
#    y 0.000000 1.615260 0.000000 
#    z 0.015630 0.000000 1.702660 
# 
# From -- ./inp_files/80563.got.cif
#   From: 2010.05.17/outbox.cif.g08.bks.cpg/sg10_41_cif.got.tgz:80563.got - 2010.06.03 11:33:40.
