data_PCOD9149538
_publ_section_title
;
Structure prediction by ZEFSAII (Michael W. Deem and Ramdas Pophale) SiO2 
 PCOD9149538
Probable space group: P 2/M
;
_chemical_formula_sum "Si O2"
_cell_formula_units_Z 24
_cell_length_a 9.030072
_cell_length_b 17.492144
_cell_length_c 18.073855
_cell_angle_alpha 90.000000
_cell_angle_beta 151.532206
_cell_angle_gamma 90.000000
_cell_volume 1360.811726
_symmetry_space_group_name_H-M "P 2/M"
_symmetry_group_IT_number 10
_symmetry_cell_setting 'monoclinic'
loop_
_space_group_symop_operation_xyz
x,y,z
-x,y,-z
-x,-y,-z
x,-y,z
loop_
_atom_site_type_symbol
_atom_site_label
_atom_site_fract_x
_atom_site_fract_y
_atom_site_fract_z
Si Si1 0.322487 0.689058 0.098155
Si Si2 0.667295 0.219812 0.372496
Si Si3 0.430728 0.822373 0.885252
Si Si4 0.629933 0.085781 0.829495
Si Si5 0.310801 0.588657 0.840817
Si Si6 0.823809 0.277517 0.599755
O O1 0.567159 0.721816 0.264616
O O2 0.341446 0.752008 0.040289
O O3 0.448898 0.611597 0.118569
O O4 0.000000 0.685089 0.000000
O O5 0.439103 0.148224 0.264349
O O6 0.712906 0.265678 0.467107
O O7 0.000000 0.184925 0.500000
O O8 0.485541 0.883630 0.843805
O O9 0.081080 0.788261 0.728904
O O10 0.500000 0.846143 0.000000
O O11 0.520500 0.000000 0.765024
O O12 0.000000 0.084478 0.000000
O O13 0.221910 0.500000 0.799139
O O14 0.016788 0.645092 0.702033
O O15 0.500000 0.602610 0.000000
O O16 0.500000 0.272985 0.500000
#
# Coordination Sequence:
#
# PCOD9149538 Si02
#       6
#     4   4   4   4   4   4
#     4  10  20  34  59  85 112 147 196 236 278 335
#     4  11  19  37  57  87 110 146 190 239 279 331
#     4  10  20  36  56  84 115 151 192 236 276 331
#     4  10  22  39  60  84 115 154 188 229 285 341
#     4  10  22  41  58  80 118 155 187 229 285 345
#     4  11  23  35  58  87 112 147 192 234 287 331
#
# _framework density 17.636531999999999
#
# number of rings (size 3 to 8) (size 9 to 14) (size 15 to 20)
#    0.000    1.667    5.000    4.000    7.000    1.333 
#    0.000    1.667    0.000    1.000    0.000    0.000 
#    0.000    0.000    0.000    0.000    0.000    0.000 
#
# Total GULP energy -133662.744981 kJ/mol
# GULP energy per Si atom -5569.281041 kJ/mol
# Density = 1.759639 g / cm^3
# Si number density = 17.636532 Si / 1000 Ang^3
#
#
#
# Elastic Constant Matrix: (Units=GPa)
#
#
# Indices 1 2 3 4 5 6 
#
# 1 86.0358 31.8548 41.3825 0.0000 12.4958 0.0000
# 2 31.8548 97.5183 44.5588 0.0000 -9.6239 0.0000
# 3 41.3825 44.5588 85.3170 0.0000 -2.3994 0.0000
# 4 0.0000 0.0000 0.0000 -103.9541 0.0000 82.8821
# 5 12.4958 -9.6239 -2.3994 0.0000 44.2528 0.0000
# 6 0.0000 0.0000 0.0000 82.8821 0.0000 -45.4922
#
#
#
# Elastic Compliance Matrix: (Units=1/GPa)
#
#
# Indices 1 2 3 4 5 6 
#
# 1 0.016814 -0.002969 -0.006767 0.000000 -0.005760 0.000000
# 2 -0.002969 0.014287 -0.005920 0.000000 0.003624 0.000000
# 3 -0.006767 -0.005920 0.018140 0.000000 0.001607 0.000000
# 4 0.000000 0.000000 0.000000 0.021255 0.000000 0.038724
# 5 -0.005760 0.003624 0.001607 0.000000 0.025099 0.000000
# 6 0.000000 0.000000 0.000000 0.038724 0.000000 0.048569
#
#
# Mechanical properties :
#
#
# Convention : Reuss Voigt Hill
#
# Bulk Modulus (GPa) = 55.77268 56.05148 55.91208
# Shear Modulus (GPa) = 27.55568 -10.96702 8.29433
#
# Velocity S-wave (km/s) = 3.95703 -2.49637 2.17098
# Velocity P-wave (km/s) = 7.25048 4.85194 6.16891
#
# Compressibility (1/GPa) = 0.01792993
#
# Stress axis : x y z
#
# Youngs Moduli (GPa) = 59.47535 69.99469 55.12643
#
# Poissons Ratio (x) = 0.20780 0.37303
# Poissons Ratio (y) = 0.17657 0.32633
# Poissons Ratio (z) = 0.40246 0.41435
#
# Static dielectric constant tensor:
#      x y z
#    x 1.686060 0.000000 -0.001570 
#    y 0.000000 1.601990 0.000000 
#    z -0.001570 0.000000 1.617560 
# 
# From -- ./inp_files/32960.got.cif
#   From: 2010.05.17/outbox.cif.g08.bks.cpg/sg10_17_cif.got.tgz:32960.got - 2010.06.03 11:33:40.
