data_PCOD9149424
_publ_section_title
;
Structure prediction by ZEFSAII (Michael W. Deem and Ramdas Pophale) SiO2 
 PCOD9149424
Probable space group: P 2/M
;
_chemical_formula_sum "Si O2"
_cell_formula_units_Z 32
_cell_length_a 28.994745
_cell_length_b 7.582638
_cell_length_c 11.049123
_cell_angle_alpha 90.000000
_cell_angle_beta 34.902496
_cell_angle_gamma 90.000000
_cell_volume 1389.956836
_symmetry_space_group_name_H-M "P 2/M"
_symmetry_group_IT_number 10
_symmetry_cell_setting 'monoclinic'
loop_
_space_group_symop_operation_xyz
x,y,z
-x,y,-z
-x,-y,-z
x,-y,z
loop_
_atom_site_type_symbol
_atom_site_label
_atom_site_fract_x
_atom_site_fract_y
_atom_site_fract_z
Si Si1 0.377267 0.784143 0.690825
Si Si2 0.778152 0.796027 0.095741
Si Si3 0.527845 0.787770 0.754994
Si Si4 0.685994 0.708841 0.537456
Si Si5 0.374122 0.786897 0.964840
Si Si6 0.040081 0.783373 0.287314
Si Si7 0.963151 0.204374 0.203145
Si Si8 0.779781 0.293591 0.571390
O O1 0.286207 0.721578 0.860447
O O2 0.429551 0.730527 0.462768
O O3 0.402613 0.730859 0.770122
O O4 0.378910 0.000000 0.685033
O O5 0.731966 0.788675 0.323119
O O6 0.789100 0.000000 0.037511
O O7 0.867237 0.721641 0.914232
O O8 0.590308 0.738586 0.725664
O O9 0.436495 0.723363 0.933625
O O10 0.524982 0.000000 0.764782
O O11 0.698085 0.500000 0.506670
O O12 0.729859 0.777496 0.563077
O O13 0.374731 0.000000 0.965100
O O14 0.283460 0.728771 0.184351
O O15 0.000000 0.728775 0.500000
O O16 0.995206 0.721935 0.261717
O O17 0.038132 0.000000 0.290393
O O18 0.866578 0.210208 0.404499
O O19 0.989776 0.000000 0.146549
O O20 0.000000 0.283437 0.000000
O O21 0.795009 0.500000 0.519472
#
# Coordination Sequence:
#
# PCOD9149424 Si02
#       8
#     4   4   4   4   4   4   4   4
#     4   8  15  29  54  84 111 140 175 218 271 328
#     4   9  17  32  57  84 108 137 176 224 274 327
#     4   9  18  34  57  84 110 139 180 229 278 329
#     4  10  21  37  55  75 104 145 189 227 269 325
#     4  10  20  34  56  84 112 143 181 227 276 327
#     4   9  18  31  54  87 116 140 174 227 286 336
#     4  10  21  38  62  88 111 142 190 240 281 333
#     4  11  25  40  54  77 111 151 188 226 275 330
#
# _framework density 23.022297999999999
#
# number of rings (size 3 to 8) (size 9 to 14) (size 15 to 20)
#    0.000    2.500    0.000    2.625    1.750    5.750 
#    0.000    5.625    0.000    4.500    0.000    0.000 
#    0.000    0.000    0.000    0.000    0.000    0.000 
#
# Total GULP energy -178651.141255 kJ/mol
# GULP energy per Si atom -5582.848164 kJ/mol
# Density = 2.296990 g / cm^3
# Si number density = 23.022298 Si / 1000 Ang^3
#
#
#
# Elastic Constant Matrix: (Units=GPa)
#
#
# Indices 1 2 3 4 5 6 
#
# 1 150.0160 2.9328 47.0266 0.0000 -7.3511 0.0000
# 2 2.9328 51.6965 -8.8899 0.0000 -0.5686 0.0000
# 3 47.0266 -8.8899 89.2683 0.0000 -15.4821 0.0000
# 4 0.0000 0.0000 0.0000 -30.4739 0.0000 10.2410
# 5 -7.3511 -0.5686 -15.4821 0.0000 40.0504 0.0000
# 6 0.0000 0.0000 0.0000 10.2410 0.0000 11.9966
#
#
#
# Elastic Compliance Matrix: (Units=1/GPa)
#
#
# Indices 1 2 3 4 5 6 
#
# 1 0.008060 -0.001218 -0.004409 0.000000 -0.000242 0.000000
# 2 -0.001218 0.019911 0.002824 0.000000 0.001151 0.000000
# 3 -0.004409 0.002824 0.014655 0.000000 0.004896 0.000000
# 4 0.000000 0.000000 0.000000 -0.025500 0.000000 0.021768
# 5 -0.000242 0.001151 0.004896 0.000000 0.026833 0.000000
# 6 0.000000 0.000000 0.000000 0.021768 0.000000 0.064774
#
#
# Mechanical properties :
#
#
# Convention : Reuss Voigt Hill
#
# Bulk Modulus (GPa) = 27.01255 41.45776 34.23516
# Shear Modulus (GPa) = 39.46914 20.97539 30.22226
#
# Velocity S-wave (km/s) = 4.14501 3.02170 3.62710
# Velocity P-wave (km/s) = 5.88785 5.49736 5.69595
#
# Compressibility (1/GPa) = 0.03701983
#
# Stress axis : x y z
#
# Youngs Moduli (GPa) = 124.06711 50.22329 68.23392
#
# Poissons Ratio (x) = 0.06118 0.30087
# Poissons Ratio (y) = 0.15114 -0.19271
# Poissons Ratio (z) = 0.54707 -0.14184
#
# Static dielectric constant tensor:
#      x y z
#    x 1.873070 0.000000 0.001980 
#    y 0.000000 1.872020 0.000000 
#    z 0.001980 0.000000 1.833640 
# 
# From -- ./inp_files/58144.got.cif
#   From: 2010.05.17/outbox.cif.g08.bks.cpg/sg10_30_cif.got.tgz:58144.got - 2010.06.03 11:33:40.
