data_PCOD9149141
_publ_section_title
;
Structure prediction by ZEFSAII (Michael W. Deem and Ramdas Pophale) SiO2 
 PCOD9149141
Probable space group: P 2/M
;
_chemical_formula_sum "Si O2"
_cell_formula_units_Z 20
_cell_length_a 11.932993
_cell_length_b 13.064224
_cell_length_c 18.020707
_cell_angle_alpha 90.000000
_cell_angle_beta 19.795934
_cell_angle_gamma 90.000000
_cell_volume 951.443562
_symmetry_space_group_name_H-M "P 2/M"
_symmetry_group_IT_number 10
_symmetry_cell_setting 'monoclinic'
loop_
_space_group_symop_operation_xyz
x,y,z
-x,y,-z
-x,-y,-z
x,-y,z
loop_
_atom_site_type_symbol
_atom_site_label
_atom_site_fract_x
_atom_site_fract_y
_atom_site_fract_z
Si Si1 0.646396 0.785106 0.480766
Si Si2 0.658703 0.609374 0.255991
Si Si3 0.769055 0.381806 0.898309
Si Si4 0.383661 0.115985 0.786589
Si Si5 0.620101 0.313922 0.715566
O O1 0.500000 0.840922 0.500000
O O2 0.367620 0.698956 0.669965
O O3 0.621035 0.856818 0.568593
O O4 0.970631 0.712694 0.272610
O O5 0.626900 0.500000 0.311789
O O6 0.399192 0.626922 0.351207
O O7 0.000000 0.614688 0.000000
O O8 0.900245 0.500000 0.812744
O O9 0.500000 0.372343 0.000000
O O10 0.584258 0.368656 0.092334
O O11 0.462623 0.202795 0.797295
O O12 0.437272 0.000000 0.778334
O O13 0.000000 0.125037 0.000000
O O14 0.000000 0.303894 0.500000
#
# Coordination Sequence:
#
# PCOD9149141 Si02
#       5
#     4   4   4   4   4
#     4  11  21  35  56  84 117 145 183 236 287 336
#     4  10  20  34  53  79 113 155 197 231 271 331
#     4  11  23  37  55  84 121 157 189 226 279 339
#     4  10  22  42  65  85 109 147 194 241 290 344
#     4  11  22  38  60  83 114 153 196 242 284 336
#
# _framework density 21.020689999999998
#
# number of rings (size 3 to 8) (size 9 to 14) (size 15 to 20)
#    0.000    1.400    0.000    8.400    0.000    7.200 
#    0.000    1.000    0.000    2.400    0.000    0.000 
#    0.000    0.000    0.000    0.000    0.000    0.000 
#
# Total GULP energy -111654.969075 kJ/mol
# GULP energy per Si atom -5582.748454 kJ/mol
# Density = 2.097285 g / cm^3
# Si number density = 21.020690 Si / 1000 Ang^3
#
#
#
# Elastic Constant Matrix: (Units=GPa)
#
#
# Indices 1 2 3 4 5 6 
#
# 1 71.1000 -14.7779 5.6086 0.0000 -5.7381 0.0000
# 2 -14.7779 72.2115 1.9712 0.0000 -8.1787 0.0000
# 3 5.6086 1.9712 84.6980 0.0000 -9.4776 0.0000
# 4 0.0000 0.0000 0.0000 34.5031 0.0000 -39.5575
# 5 -5.7381 -8.1787 -9.4776 0.0000 35.9693 0.0000
# 6 0.0000 0.0000 0.0000 -39.5575 0.0000 44.0310
#
#
#
# Elastic Compliance Matrix: (Units=1/GPa)
#
#
# Indices 1 2 3 4 5 6 
#
# 1 0.015081 0.003446 -0.000744 0.000000 0.002993 0.000000
# 2 0.003446 0.015002 -0.000138 0.000000 0.003924 0.000000
# 3 -0.000744 -0.000138 0.012202 0.000000 0.003065 0.000000
# 4 0.000000 0.000000 0.000000 -0.965839 0.000000 -0.867711
# 5 0.002993 0.003924 0.003065 0.000000 0.029979 0.000000
# 6 0.000000 0.000000 0.000000 -0.867711 0.000000 -0.756841
#
#
# Mechanical properties :
#
#
# Convention : Reuss Voigt Hill
#
# Bulk Modulus (GPa) = 21.09172 23.73482 22.41327
# Shear Modulus (GPa) = -3.04926 38.58119 17.76596
#
# Velocity S-wave (km/s) = -1.20572 4.28879 2.91033
# Velocity P-wave (km/s) = 2.84908 5.98671 4.68817
#
# Compressibility (1/GPa) = 0.04741197
#
# Stress axis : x y z
#
# Youngs Moduli (GPa) = 66.30804 66.65956 81.95305
#
# Poissons Ratio (x) = -0.22968 0.06097
# Poissons Ratio (y) = -0.22847 0.01132
# Poissons Ratio (z) = 0.04933 0.00921
#
# Static dielectric constant tensor:
#      x y z
#    x 1.881160 0.000000 -0.001340 
#    y 0.000000 1.736250 0.000000 
#    z -0.001340 0.000000 1.789770 
# 
# From -- ./inp_files/18533.got.cif
#   From: 2010.05.17/outbox.cif.g08.bks.cpg/sg10_10_cif.got.tgz:18533.got - 2010.06.03 11:33:40.
