data_PCOD9149138
_publ_section_title
;
Structure prediction by ZEFSAII (Michael W. Deem and Ramdas Pophale) SiO2 
 PCOD9149138
Probable space group: P 2/M
;
_chemical_formula_sum "Si O2"
_cell_formula_units_Z 32
_cell_length_a 23.012200
_cell_length_b 8.247028
_cell_length_c 15.577803
_cell_angle_alpha 90.000000
_cell_angle_beta 148.719312
_cell_angle_gamma 90.000000
_cell_volume 1535.049897
_symmetry_space_group_name_H-M "P 2/M"
_symmetry_group_IT_number 10
_symmetry_cell_setting 'monoclinic'
loop_
_space_group_symop_operation_xyz
x,y,z
-x,y,-z
-x,-y,-z
x,-y,z
loop_
_atom_site_type_symbol
_atom_site_label
_atom_site_fract_x
_atom_site_fract_y
_atom_site_fract_z
Si Si1 0.173284 0.681921 0.152725
Si Si2 0.153940 0.190732 0.940212
Si Si3 0.559778 0.685342 0.488730
Si Si4 0.684272 0.805338 0.999619
Si Si5 0.917079 0.310843 0.611349
Si Si6 0.124532 0.303674 0.629221
Si Si7 0.195998 0.189844 0.364340
Si Si8 0.555319 0.815706 0.304652
O O1 0.130595 0.500000 0.084354
O O2 0.308014 0.680811 0.328591
O O3 0.142207 0.738815 0.209503
O O4 0.149525 0.782356 0.036956
O O5 0.266380 0.245318 0.031709
O O6 0.049800 0.286829 0.769188
O O7 0.139613 0.000000 0.904747
O O8 0.500000 0.732824 0.500000
O O9 0.525189 0.500000 0.421906
O O10 0.536414 0.808431 0.383201
O O11 0.779899 0.762655 0.188411
O O12 0.670592 0.000000 0.978987
O O13 0.562131 0.739291 0.873775
O O14 0.892639 0.500000 0.594278
O O15 0.860267 0.255999 0.451157
O O16 0.878757 0.215891 0.646936
O O17 0.126242 0.500000 0.635160
O O18 0.000000 0.250342 0.500000
O O19 0.320220 0.260212 0.544554
O O20 0.212502 0.000000 0.367131
O O21 0.563853 0.000000 0.282323
#
# Coordination Sequence:
#
# PCOD9149138 Si02
#       8
#     4   4   4   4   4   4   4   4
#     4  10  20  34  53  79 113 152 192 232 277 328
#     4  11  22  35  55  86 118 148 188 233 281 335
#     4   9  17  29  47  74 107 145 188 230 273 324
#     4  10  21  36  58  88 119 148 184 230 281 337
#     4  11  23  40  61  83 111 146 187 234 284 338
#     4  10  21  39  61  86 114 145 182 227 285 342
#     4  10  21  39  60  81 112 152 194 234 275 326
#     4   9  19  35  54  79 111 148 185 226 275 326
#
# _framework density 20.846229000000001
#
# number of rings (size 3 to 8) (size 9 to 14) (size 15 to 20)
#    0.000    2.000    1.250    2.250    0.000    4.000 
#    0.000    3.125    0.000    3.750    0.000    0.000 
#    0.000    0.000    0.000    0.000    0.000    0.000 
#
# Total GULP energy -178468.163253 kJ/mol
# GULP energy per Si atom -5577.130102 kJ/mol
# Density = 2.079878 g / cm^3
# Si number density = 20.846229 Si / 1000 Ang^3
#
#
#
# Elastic Constant Matrix: (Units=GPa)
#
#
# Indices 1 2 3 4 5 6 
#
# 1 54.4005 -1.0895 3.5102 0.0000 -9.2510 0.0000
# 2 -1.0895 17.5115 -2.3408 0.0000 -4.0286 0.0000
# 3 3.5102 -2.3408 78.7207 0.0000 -0.4109 0.0000
# 4 0.0000 0.0000 0.0000 27.2302 0.0000 -2.5331
# 5 -9.2510 -4.0286 -0.4109 0.0000 30.7359 0.0000
# 6 0.0000 0.0000 0.0000 -2.5331 0.0000 19.4675
#
#
#
# Elastic Compliance Matrix: (Units=1/GPa)
#
#
# Indices 1 2 3 4 5 6 
#
# 1 0.019537 0.002541 -0.000763 0.000000 0.006203 0.000000
# 2 0.002541 0.059465 0.001700 0.000000 0.008581 0.000000
# 3 -0.000763 0.001700 0.012789 0.000000 0.000164 0.000000
# 4 0.000000 0.000000 0.000000 0.037174 0.000000 0.004837
# 5 0.006203 0.008581 0.000164 0.000000 0.035529 0.000000
# 6 0.000000 0.000000 0.000000 0.004837 0.000000 0.051997
#
#
# Mechanical properties :
#
#
# Convention : Reuss Voigt Hill
#
# Bulk Modulus (GPa) = 10.12712 16.75471 13.44091
# Shear Modulus (GPa) = 20.62266 25.52356 23.07311
#
# Velocity S-wave (km/s) = 3.14869 3.50290 3.33051
# Velocity P-wave (km/s) = 4.25294 4.94117 4.60992
#
# Compressibility (1/GPa) = 0.09874477
#
# Stress axis : x y z
#
# Youngs Moduli (GPa) = 51.18444 16.81666 78.19477
#
# Poissons Ratio (x) = -0.04272 0.05968
# Poissons Ratio (y) = -0.13004 -0.13291
# Poissons Ratio (z) = 0.03907 -0.02858
#
# Static dielectric constant tensor:
#      x y z
#    x 1.748700 0.000000 0.031170 
#    y 0.000000 1.751270 0.000000 
#    z 0.031170 0.000000 1.778830 
# 
# From -- ./inp_files/71433.got.cif
#   From: 2010.05.17/outbox.cif.g08.bks.cpg/sg10_36_cif.got.tgz:71433.got - 2010.06.03 11:33:40.
