data_PCOD9149598
_publ_section_title
;
Structure prediction by ZEFSAII (Michael W. Deem and Ramdas Pophale) SiO2 
 PCOD9149598
Probable space group: P 2/M
;
_chemical_formula_sum "Si O2"
_cell_formula_units_Z 28
_cell_length_a 12.311367
_cell_length_b 7.270846
_cell_length_c 16.516544
_cell_angle_alpha 90.000000
_cell_angle_beta 86.301535
_cell_angle_gamma 90.000000
_cell_volume 1475.383678
_symmetry_space_group_name_H-M "P 2/M"
_symmetry_group_IT_number 10
_symmetry_cell_setting 'monoclinic'
loop_
_space_group_symop_operation_xyz
x,y,z
-x,y,-z
-x,-y,-z
x,-y,z
loop_
_atom_site_type_symbol
_atom_site_label
_atom_site_fract_x
_atom_site_fract_y
_atom_site_fract_z
Si Si1 0.754284 0.275658 0.468647
Si Si2 0.238062 0.280331 0.795303
Si Si3 0.067955 0.278340 0.660562
Si Si4 0.583838 0.723284 0.338802
Si Si5 0.335071 0.276149 0.355310
Si Si6 0.156614 0.000000 0.923479
Si Si7 0.150404 0.278454 0.245071
Si Si8 0.099039 0.000000 0.108953
O O1 0.756268 0.500000 0.469272
O O2 0.867607 0.214974 0.422259
O O3 0.657207 0.221085 0.412052
O O4 0.725916 0.216078 0.560048
O O5 0.236481 0.500000 0.806261
O O6 0.649895 0.226518 0.254736
O O7 0.212866 0.174459 0.878334
O O8 0.144298 0.233183 0.733907
O O9 0.065525 0.500000 0.655262
O O10 0.946262 0.222287 0.688106
O O11 0.582878 0.500000 0.340886
O O12 0.459877 0.785752 0.348088
O O13 0.336940 0.500000 0.357486
O O14 0.264192 0.226622 0.280817
O O15 0.159166 0.000000 0.019963
O O16 0.029673 0.000000 0.903585
O O17 0.145510 0.500000 0.235424
O O18 0.128760 0.175237 0.162569
#
# Coordination Sequence:
#
# PCOD9149598 Si02
#       8
#     4   4   4   4   4   2   4   2
#     4   8  13  22  42  75 109 137 178 227 251 279
#     4   9  17  32  54  80 108 132 164 213 259 307
#     4   8  14  26  45  71 103 139 172 207 254 295
#     4   8  14  26  47  76 108 140 177 218 253 289
#     4   9  16  26  46  75 106 147 184 209 249 298
#     4  11  22  36  59  84  99 125 168 207 271 329
#     4  10  20  35  53  74 108 145 173 205 254 314
#     4  11  24  38  55  81 106 127 162 217 264 320
#
# _framework density 18.978114999999999
#
# number of rings (size 3 to 8) (size 9 to 14) (size 15 to 20)
#    0.000    3.000    1.429    2.143    0.000    2.857 
#    0.000    5.000    0.000    6.857    0.000    9.000 
#    0.000    0.000    0.000    0.000    0.000    0.000 
#
# Total GULP energy -156227.892310 kJ/mol
# GULP energy per Si atom -5579.567582 kJ/mol
# Density = 1.893492 g / cm^3
# Si number density = 18.978115 Si / 1000 Ang^3
#
#
#
# Elastic Constant Matrix: (Units=GPa)
#
#
# Indices 1 2 3 4 5 6 
#
# 1 32.0944 9.8103 36.8992 0.0000 -5.7935 0.0000
# 2 9.8103 87.8711 25.2355 0.0000 -5.2332 0.0000
# 3 36.8992 25.2355 105.0216 0.0000 -16.3016 0.0000
# 4 0.0000 0.0000 0.0000 21.0009 0.0000 -4.4162
# 5 -5.7935 -5.2332 -16.3016 0.0000 25.5974 0.0000
# 6 0.0000 0.0000 0.0000 -4.4162 0.0000 -1.3457
#
#
#
# Elastic Compliance Matrix: (Units=1/GPa)
#
#
# Indices 1 2 3 4 5 6 
#
# 1 0.052304 -0.000602 -0.018215 0.000000 0.000115 0.000000
# 2 -0.000602 0.012242 -0.002622 0.000000 0.000697 0.000000
# 3 -0.018215 -0.002622 0.017565 0.000000 0.006527 0.000000
# 4 0.000000 0.000000 0.000000 0.028175 0.000000 -0.092458
# 5 0.000115 0.000697 0.006527 0.000000 0.043392 0.000000
# 6 0.000000 0.000000 0.000000 -0.092458 0.000000 -0.439681
#
#
# Mechanical properties :
#
#
# Convention : Reuss Voigt Hill
#
# Bulk Modulus (GPa) = 25.48782 40.98637 33.23709
# Shear Modulus (GPa) = -21.73455 19.25332 -1.24061
#
# Velocity S-wave (km/s) = -3.38782 3.18858 -0.80940
# Velocity P-wave (km/s) = 1.35786 5.93292 4.08386
#
# Compressibility (1/GPa) = 0.03923443
#
# Stress axis : x y z
#
# Youngs Moduli (GPa) = 19.11891 81.68603 56.93208
#
# Poissons Ratio (x) = 0.04914 1.03700
# Poissons Ratio (y) = 0.01150 0.14928
# Poissons Ratio (z) = 0.34824 0.21419
#
# Static dielectric constant tensor:
#      x y z
#    x 1.658760 0.000000 -0.007850 
#    y 0.000000 1.735580 0.000000 
#    z -0.007850 0.000000 1.608130 
# 
# From -- ./inp_files/63543.got.cif
#   From: 2010.05.17/outbox.cif.g08.bks.cpg/sg10_32_cif.got.tgz:63543.got - 2010.06.03 11:33:40.
