data_PCOD9149512
_publ_section_title
;
Structure prediction by ZEFSAII (Michael W. Deem and Ramdas Pophale) SiO2 
 PCOD9149512
Probable space group: P 2/M
;
_chemical_formula_sum "Si O2"
_cell_formula_units_Z 30
_cell_length_a 7.343013
_cell_length_b 15.775567
_cell_length_c 21.725296
_cell_angle_alpha 90.000000
_cell_angle_beta 145.381280
_cell_angle_gamma 90.000000
_cell_volume 1429.747810
_symmetry_space_group_name_H-M "P 2/M"
_symmetry_group_IT_number 10
_symmetry_cell_setting 'monoclinic'
loop_
_space_group_symop_operation_xyz
x,y,z
-x,y,-z
-x,-y,-z
x,-y,z
loop_
_atom_site_type_symbol
_atom_site_label
_atom_site_fract_x
_atom_site_fract_y
_atom_site_fract_z
Si Si1 0.561425 0.228449 0.417805
Si Si2 0.618220 0.408804 0.379804
Si Si3 0.771294 0.902907 0.752841
Si Si4 0.000000 0.659851 0.000000
Si Si5 0.362537 0.904343 0.819151
Si Si6 0.977508 0.767658 0.347634
Si Si7 0.788321 0.194284 0.031452
Si Si8 0.625593 0.407019 0.236080
O O1 0.491982 0.321477 0.371699
O O2 0.508519 0.154233 0.354068
O O3 0.897525 0.231683 0.547660
O O4 0.285823 0.214104 0.391613
O O5 0.497120 0.500000 0.370818
O O6 0.554433 0.407724 0.289318
O O7 0.000000 0.408317 0.500000
O O8 0.058076 0.906151 0.781388
O O9 0.933269 0.854239 0.854755
O O10 0.681477 0.000000 0.740976
O O11 0.306352 0.607071 0.107514
O O12 0.903432 0.720791 0.030023
O O13 0.274770 0.839983 0.740221
O O14 0.424882 0.000000 0.816242
O O15 0.646540 0.866013 0.938919
O O16 0.845487 0.675924 0.290982
O O17 0.500000 0.211014 0.000000
O O18 0.767677 0.500000 0.261164
#
# Coordination Sequence:
#
# PCOD9149512 Si02
#       8
#     4   4   4   2   4   4   4   4
#     4  10  20  34  58  84 113 150 193 236 288 343
#     4  10  20  36  58  80 106 146 192 236 288 347
#     4   9  18  33  55  85 118 153 190 234 288 344
#     4  12  23  40  65  86 118 158 193 242 299 354
#     4   9  17  33  56  82 115 153 192 237 287 342
#     4  10  20  35  56  86 115 149 190 239 289 343
#     4  10  20  36  62  89 116 154 201 242 290 344
#     4  11  23  40  60  83 114 151 190 236 296 354
#
# _framework density 20.982721000000002
#
# number of rings (size 3 to 8) (size 9 to 14) (size 15 to 20)
#    0.000    2.000    2.667    1.400    0.000    2.667 
#    0.000    5.333    0.000    1.200    0.000    0.000 
#    0.000    0.000    0.000    0.000    0.000    0.000 
#
# Total GULP energy -167545.362447 kJ/mol
# GULP energy per Si atom -5584.845415 kJ/mol
# Density = 2.093496 g / cm^3
# Si number density = 20.982721 Si / 1000 Ang^3
#
#
#
# Elastic Constant Matrix: (Units=GPa)
#
#
# Indices 1 2 3 4 5 6 
#
# 1 45.9343 18.9188 13.9495 0.0000 -0.7515 0.0000
# 2 18.9188 127.2322 49.5767 0.0000 -16.8482 0.0000
# 3 13.9495 49.5767 132.6341 0.0000 -21.9069 0.0000
# 4 0.0000 0.0000 0.0000 38.3508 0.0000 -9.7214
# 5 -0.7515 -16.8482 -21.9069 0.0000 26.4486 0.0000
# 6 0.0000 0.0000 0.0000 -9.7214 0.0000 34.2529
#
#
#
# Elastic Compliance Matrix: (Units=1/GPa)
#
#
# Indices 1 2 3 4 5 6 
#
# 1 0.023572 -0.003196 -0.001749 0.000000 -0.002815 0.000000
# 2 -0.003196 0.009920 -0.002714 0.000000 0.003980 0.000000
# 3 -0.001749 -0.002714 0.009783 0.000000 0.006324 0.000000
# 4 0.000000 0.000000 0.000000 0.028096 0.000000 0.007974
# 5 -0.002815 0.003980 0.006324 0.000000 0.045503 0.000000
# 6 0.000000 0.000000 0.000000 0.007974 0.000000 0.031458
#
#
# Mechanical properties :
#
#
# Convention : Reuss Voigt Hill
#
# Bulk Modulus (GPa) = 35.77269 52.29898 44.03583
# Shear Modulus (GPa) = 28.90697 34.70081 31.80389
#
# Velocity S-wave (km/s) = 3.71571 4.07108 3.89745
# Velocity P-wave (km/s) = 5.95771 6.86128 6.42540
#
# Compressibility (1/GPa) = 0.02795428
#
# Stress axis : x y z
#
# Youngs Moduli (GPa) = 42.42355 100.81095 102.22208
#
# Poissons Ratio (x) = 0.32221 0.17883
# Poissons Ratio (y) = 0.13559 0.27746
# Poissons Ratio (z) = 0.07422 0.27363
#
# Static dielectric constant tensor:
#      x y z
#    x 1.797090 0.000000 0.005530 
#    y 0.000000 1.741150 0.000000 
#    z 0.005530 0.000000 1.736110 
# 
# From -- ./inp_files/82766.got.cif
#   From: 2010.05.17/outbox.cif.g08.bks.cpg/sg10_42_cif.got.tgz:82766.got - 2010.06.03 11:33:40.
