data_PCOD9149997
_publ_section_title
;
Structure prediction by ZEFSAII (Michael W. Deem and Ramdas Pophale) SiO2 
 PCOD9149997
Probable space group: P 2/M
;
_chemical_formula_sum "Si O2"
_cell_formula_units_Z 24
_cell_length_a 17.480519
_cell_length_b 11.285550
_cell_length_c 12.578599
_cell_angle_alpha 90.000000
_cell_angle_beta 147.077911
_cell_angle_gamma 90.000000
_cell_volume 1348.675158
_symmetry_space_group_name_H-M "P 2/M"
_symmetry_group_IT_number 10
_symmetry_cell_setting 'monoclinic'
loop_
_space_group_symop_operation_xyz
x,y,z
-x,y,-z
-x,-y,-z
x,-y,z
loop_
_atom_site_type_symbol
_atom_site_label
_atom_site_fract_x
_atom_site_fract_y
_atom_site_fract_z
Si Si1 0.831293 0.865065 0.825810
Si Si2 0.338407 0.500000 0.671649
Si Si3 0.651219 0.139362 0.214607
Si Si4 0.847553 0.727957 0.279820
Si Si5 0.328123 0.500000 0.916521
Si Si6 0.771607 0.253328 0.547587
Si Si7 0.929716 0.141149 0.164944
O O1 0.763211 0.775506 0.662698
O O2 0.783139 0.000000 0.748567
O O3 0.823537 0.839640 0.942125
O O4 0.000000 0.864380 0.000000
O O5 0.313541 0.500000 0.770196
O O6 0.270249 0.384362 0.538103
O O7 0.508168 0.500000 0.860768
O O8 0.769833 0.204222 0.284689
O O9 0.672307 0.168027 0.362337
O O10 0.659621 0.000000 0.205138
O O11 0.500000 0.185089 0.000000
O O12 0.752081 0.616622 0.137764
O O13 0.869605 0.815135 0.206310
O O14 0.000000 0.688152 0.500000
O O15 0.929225 0.215511 0.695829
O O16 0.963399 0.000000 0.206305
#
# Coordination Sequence:
#
# PCOD9149997 Si02
#       7
#     4   2   4   4   2   4   4
#     4   8  16  32  55  82 114 149 185 233 291 341
#     4  11  22  38  58  77 109 157 201 234 275 332
#     4  11  22  34  53  83 116 150 187 232 287 344
#     4  12  22  35  58  85 117 149 192 236 291 338
#     4  11  23  40  55  77 114 157 193 234 284 341
#     4  11  19  34  57  82 112 150 197 233 279 337
#     4  10  20  35  57  88 121 148 180 237 301 344
#
# _framework density 17.795241999999998
#
# number of rings (size 3 to 8) (size 9 to 14) (size 15 to 20)
#    0.000    1.500    3.333    4.250    0.000    1.333 
#    0.000    4.583    0.000    5.000    0.000   11.667 
#    0.000    0.000    0.000    0.000    0.000    0.000 
#
# Total GULP energy -133922.612168 kJ/mol
# GULP energy per Si atom -5580.108840 kJ/mol
# Density = 1.775474 g / cm^3
# Si number density = 17.795242 Si / 1000 Ang^3
#
#
#
# Elastic Constant Matrix: (Units=GPa)
#
#
# Indices 1 2 3 4 5 6 
#
# 1 47.6735 29.3307 37.6964 0.0000 -7.2630 0.0000
# 2 29.3307 102.4209 52.3794 0.0000 0.2646 0.0000
# 3 37.6964 52.3794 103.2650 0.0000 -10.6745 0.0000
# 4 0.0000 0.0000 0.0000 35.2960 0.0000 -6.7167
# 5 -7.2630 0.2646 -10.6745 0.0000 31.2458 0.0000
# 6 0.0000 0.0000 0.0000 -6.7167 0.0000 16.7990
#
#
#
# Elastic Compliance Matrix: (Units=1/GPa)
#
#
# Indices 1 2 3 4 5 6 
#
# 1 0.031285 -0.004537 -0.008670 0.000000 0.004349 0.000000
# 2 -0.004537 0.014030 -0.005786 0.000000 -0.003150 0.000000
# 3 -0.008670 -0.005786 0.016151 0.000000 0.003551 0.000000
# 4 0.000000 0.000000 0.000000 0.030665 0.000000 0.012261
# 5 0.004349 -0.003150 0.003551 0.000000 0.034255 0.000000
# 6 0.000000 0.000000 0.000000 0.012261 0.000000 0.064430
#
#
# Mechanical properties :
#
#
# Convention : Reuss Voigt Hill
#
# Bulk Modulus (GPa) = 42.58801 54.68581 48.63691
# Shear Modulus (GPa) = 21.13030 25.59835 23.36432
#
# Velocity S-wave (km/s) = 3.44962 3.79686 3.62740
# Velocity P-wave (km/s) = 6.31274 7.07240 6.70334
#
# Compressibility (1/GPa) = 0.02348079
#
# Stress axis : x y z
#
# Youngs Moduli (GPa) = 31.96423 71.27593 61.91697
#
# Poissons Ratio (x) = 0.32335 0.53681
# Poissons Ratio (y) = 0.14501 0.35825
# Poissons Ratio (z) = 0.27712 0.41241
#
# Static dielectric constant tensor:
#      x y z
#    x 1.607850 0.000000 -0.009970 
#    y 0.000000 1.605080 0.000000 
#    z -0.009970 0.000000 1.628660 
# 
# From -- ./inp_files/36219.got.cif
#   From: 2010.05.17/outbox.cif.g08.bks.cpg/sg10_19_cif.got.tgz:36219.got - 2010.06.03 11:33:40.
