data_PCOD9149761
_publ_section_title
;
Structure prediction by ZEFSAII (Michael W. Deem and Ramdas Pophale) SiO2 
 PCOD9149761
Probable space group: P 2/M
;
_chemical_formula_sum "Si O2"
_cell_formula_units_Z 20
_cell_length_a 9.391226
_cell_length_b 8.712706
_cell_length_c 27.158281
_cell_angle_alpha 90.000000
_cell_angle_beta 150.409554
_cell_angle_gamma 90.000000
_cell_volume 1097.301478
_symmetry_space_group_name_H-M "P 2/M"
_symmetry_group_IT_number 10
_symmetry_cell_setting 'monoclinic'
loop_
_space_group_symop_operation_xyz
x,y,z
-x,y,-z
-x,-y,-z
x,-y,z
loop_
_atom_site_type_symbol
_atom_site_label
_atom_site_fract_x
_atom_site_fract_y
_atom_site_fract_z
Si Si1 0.168352 0.687127 0.402847
Si Si2 0.306472 0.323094 0.991757
Si Si3 0.135659 0.313717 0.789390
Si Si4 0.803641 0.181693 0.783900
Si Si5 0.166529 0.685711 0.599790
O O1 0.500000 0.738515 0.500000
O O2 0.172248 0.500000 0.404050
O O3 0.992213 0.734081 0.301393
O O4 0.012815 0.735377 0.406203
O O5 0.226505 0.500000 0.977707
O O6 0.022703 0.229035 0.893490
O O7 0.500000 0.322311 0.000000
O O8 0.532653 0.266598 0.100744
O O9 0.131307 0.500000 0.791136
O O10 0.938340 0.251276 0.774241
O O11 0.487604 0.249176 0.696968
O O12 0.792778 0.000000 0.776297
O O13 0.183362 0.500000 0.605140
O O14 0.000000 0.731583 0.500000
#
# Coordination Sequence:
#
# PCOD9149761 Si02
#       5
#     4   4   4   4   4
#     4   9  17  31  54  81 102 124 163 213 259 301
#     4   8  15  29  50  74 100 132 171 212 250 292
#     4   9  17  32  54  78 103 132 170 214 254 295
#     4  11  21  32  50  76 106 138 170 206 249 300
#     4  10  20  35  56  78 101 132 168 208 254 302
#
# _framework density 18.226531000000001
#
# number of rings (size 3 to 8) (size 9 to 14) (size 15 to 20)
#    0.000    2.600    0.000    4.200    0.000    7.200 
#    0.000    2.000    0.000    8.400    0.000    0.000 
#    0.000    0.000    0.000    0.000    0.000    0.000 
#
# Total GULP energy -111545.270415 kJ/mol
# GULP energy per Si atom -5577.263521 kJ/mol
# Density = 1.818505 g / cm^3
# Si number density = 18.226531 Si / 1000 Ang^3
#
#
#
# Elastic Constant Matrix: (Units=GPa)
#
#
# Indices 1 2 3 4 5 6 
#
# 1 116.4081 26.4576 103.0593 0.0000 -3.2423 0.0000
# 2 26.4576 23.1020 38.6941 0.0000 3.2850 0.0000
# 3 103.0593 38.6941 210.6530 0.0000 -5.8813 0.0000
# 4 0.0000 0.0000 0.0000 -11.8518 0.0000 -3.5162
# 5 -3.2423 3.2850 -5.8813 0.0000 32.8338 0.0000
# 6 0.0000 0.0000 0.0000 -3.5162 0.0000 1.4239
#
#
#
# Elastic Compliance Matrix: (Units=1/GPa)
#
#
# Indices 1 2 3 4 5 6 
#
# 1 0.016062 -0.007896 -0.006373 0.000000 0.001234 0.000000
# 2 -0.007896 0.068769 -0.009028 0.000000 -0.009277 0.000000
# 3 -0.006373 -0.009028 0.009579 0.000000 0.001990 0.000000
# 4 0.000000 0.000000 0.000000 -0.048697 0.000000 -0.120257
# 5 0.001234 -0.009277 0.001990 0.000000 0.031863 0.000000
# 6 0.000000 0.000000 0.000000 -0.120257 0.000000 0.405340
#
#
# Mechanical properties :
#
#
# Convention : Reuss Voigt Hill
#
# Bulk Modulus (GPa) = 20.91341 76.28721 48.60031
# Shear Modulus (GPa) = 9.16676 16.61133 12.88904
#
# Velocity S-wave (km/s) = 2.24505 3.02218 2.66213
# Velocity P-wave (km/s) = 4.26842 7.35690 6.01429
#
# Compressibility (1/GPa) = 0.04781621
#
# Stress axis : x y z
#
# Youngs Moduli (GPa) = 62.25950 14.54134 104.39416
#
# Poissons Ratio (x) = 0.11481 0.66533
# Poissons Ratio (y) = 0.49158 0.94249
# Poissons Ratio (z) = 0.39680 0.13128
#
# Static dielectric constant tensor:
#      x y z
#    x 1.603310 0.000000 -0.020420 
#    y 0.000000 1.601900 0.000000 
#    z -0.020420 0.000000 1.639950 
# 
# From -- ./inp_files/26781.got.cif
#   From: 2010.05.17/outbox.cif.g08.bks.cpg/sg10_14_cif.got.tgz:26781.got - 2010.06.03 11:33:40.
