data_PCOD9149419
_publ_section_title
;
Structure prediction by ZEFSAII (Michael W. Deem and Ramdas Pophale) SiO2 
 PCOD9149419
Probable space group: P 2/M
;
_chemical_formula_sum "Si O2"
_cell_formula_units_Z 28
_cell_length_a 22.548431
_cell_length_b 8.391824
_cell_length_c 19.939355
_cell_angle_alpha 90.000000
_cell_angle_beta 160.507507
_cell_angle_gamma 90.000000
_cell_volume 1258.978567
_symmetry_space_group_name_H-M "P 2/M"
_symmetry_group_IT_number 10
_symmetry_cell_setting 'monoclinic'
loop_
_space_group_symop_operation_xyz
x,y,z
-x,y,-z
-x,-y,-z
x,-y,z
loop_
_atom_site_type_symbol
_atom_site_label
_atom_site_fract_x
_atom_site_fract_y
_atom_site_fract_z
Si Si1 0.931965 0.000000 0.352352
Si Si2 0.509349 0.333810 0.929631
Si Si3 0.865110 0.306009 0.984165
Si Si4 0.250592 0.688091 0.416169
Si Si5 0.309833 0.811726 0.331936
Si Si6 0.377663 0.307097 0.155078
Si Si7 0.508724 0.000000 0.927588
Si Si8 0.868747 0.679580 0.234256
O O1 0.987061 0.832222 0.377862
O O2 0.000000 0.000000 0.500000
O O3 0.715451 0.000000 0.124994
O O4 0.432936 0.500000 0.821060
O O5 0.429668 0.167638 0.820353
O O6 0.500000 0.336076 0.000000
O O7 0.716723 0.332767 0.129699
O O8 0.864384 0.500000 0.979382
O O9 0.052045 0.249972 0.214486
O O10 0.832976 0.237566 0.876359
O O11 0.709573 0.253185 0.868427
O O12 0.241787 0.500000 0.421281
O O13 0.289114 0.714710 0.378251
O O14 0.421896 0.755512 0.637263
O O15 0.500000 0.778624 0.500000
O O16 0.297899 0.000000 0.333860
O O17 0.388801 0.500000 0.170188
O O18 0.244496 0.276742 0.952511
O O19 0.500000 0.000000 0.000000
O O20 0.946164 0.500000 0.309809
#
# Coordination Sequence:
#
# PCOD9149419 Si02
#       8
#     2   4   4   4   4   4   2   4
#     4  10  20  34  56  84 108 141 181 226 276 334
#     4   8  13  23  44  73  99 126 167 211 255 313
#     4  10  20  35  58  82 109 147 193 241 289 340
#     4  10  20  35  58  83 108 145 194 240 289 344
#     4  11  22  35  52  81 113 152 194 239 292 341
#     4   9  18  35  57  79 111 150 184 232 286 343
#     4   8  14  26  46  68  96 132 157 200 254 303
#     4   9  18  34  56  80 111 150 185 224 284 342
#
# _framework density 22.240252000000002
#
# number of rings (size 3 to 8) (size 9 to 14) (size 15 to 20)
#    0.000    2.571    1.429    0.857    0.000    3.143 
#    2.571    0.000   12.571    0.000    0.000    0.000 
#    0.000    0.000    0.000    0.000    0.000    0.000 
#
# Total GULP energy -156092.976626 kJ/mol
# GULP energy per Si atom -5574.749165 kJ/mol
# Density = 2.218963 g / cm^3
# Si number density = 22.240252 Si / 1000 Ang^3
#
#
#
# Elastic Constant Matrix: (Units=GPa)
#
#
# Indices 1 2 3 4 5 6 
#
# 1 27.9238 -9.6327 -1.5803 0.0000 -0.2111 0.0000
# 2 -9.6327 126.1454 21.1028 0.0000 -11.0105 0.0000
# 3 -1.5803 21.1028 78.5944 0.0000 -1.4582 0.0000
# 4 0.0000 0.0000 0.0000 11.4987 0.0000 -6.5197
# 5 -0.2111 -11.0105 -1.4582 0.0000 28.2411 0.0000
# 6 0.0000 0.0000 0.0000 -6.5197 0.0000 1.7588
#
#
#
# Elastic Compliance Matrix: (Units=1/GPa)
#
#
# Indices 1 2 3 4 5 6 
#
# 1 0.036836 0.002941 -0.000023 0.000000 0.001421 0.000000
# 2 0.002941 0.008820 -0.002247 0.000000 0.003345 0.000000
# 3 -0.000023 -0.002247 0.013323 0.000000 -0.000188 0.000000
# 4 0.000000 0.000000 0.000000 -0.078936 0.000000 -0.292601
# 5 0.001421 0.003345 -0.000188 0.000000 0.036714 0.000000
# 6 0.000000 0.000000 0.000000 -0.292601 0.000000 -0.516061
#
#
# Mechanical properties :
#
#
# Convention : Reuss Voigt Hill
#
# Bulk Modulus (GPa) = 16.57813 28.04926 22.31369
# Shear Modulus (GPa) = -10.40497 23.15132 6.37317
#
# Velocity S-wave (km/s) = -2.16532 3.22990 1.69465
# Velocity P-wave (km/s) = 1.10401 5.15257 3.72611
#
# Compressibility (1/GPa) = 0.06032044
#
# Stress axis : x y z
#
# Youngs Moduli (GPa) = 27.14769 113.38224 75.05860
#
# Poissons Ratio (x) = -0.33341 0.00169
# Poissons Ratio (y) = -0.07983 0.16865
# Poissons Ratio (z) = 0.00061 0.25476
#
# Static dielectric constant tensor:
#      x y z
#    x 1.702370 0.000000 -0.004740 
#    y 0.000000 1.884390 0.000000 
#    z -0.004740 0.000000 1.807670 
# 
# From -- ./inp_files/86568.got.cif
#   From: 2010.05.17/outbox.cif.g08.bks.cpg/sg10_44_cif.got.tgz:86568.got - 2010.06.03 11:33:40.
