data_PCOD9149292
_publ_section_title
;
Structure prediction by ZEFSAII (Michael W. Deem and Ramdas Pophale) SiO2 
 PCOD9149292
Probable space group: P 2/M
;
_chemical_formula_sum "Si O2"
_cell_formula_units_Z 28
_cell_length_a 17.854737
_cell_length_b 10.615334
_cell_length_c 12.312367
_cell_angle_alpha 90.000000
_cell_angle_beta 35.207708
_cell_angle_gamma 90.000000
_cell_volume 1345.425966
_symmetry_space_group_name_H-M "P 2/M"
_symmetry_group_IT_number 10
_symmetry_cell_setting 'monoclinic'
loop_
_space_group_symop_operation_xyz
x,y,z
-x,y,-z
-x,-y,-z
x,-y,z
loop_
_atom_site_type_symbol
_atom_site_label
_atom_site_fract_x
_atom_site_fract_y
_atom_site_fract_z
Si Si1 0.976862 0.357583 0.304359
Si Si2 0.383750 0.858560 0.311724
Si Si3 0.671184 0.850115 0.989659
Si Si4 0.268350 0.632642 0.563301
Si Si5 0.877276 0.249561 0.075353
Si Si6 0.622909 0.146580 0.288030
Si Si7 0.152659 0.147829 0.409262
O O1 0.010673 0.500000 0.302223
O O2 0.839172 0.368848 0.404292
O O3 0.951545 0.246308 0.420787
O O4 0.072067 0.308057 0.096913
O O5 0.530745 0.836604 0.099168
O O6 0.351684 0.755240 0.439856
O O7 0.275565 0.853142 0.346644
O O8 0.379160 0.000000 0.363722
O O9 0.652114 0.798155 0.133565
O O10 0.696459 0.000000 0.968906
O O11 0.786176 0.804892 0.776422
O O12 0.341207 0.500000 0.475590
O O13 0.188017 0.647437 0.768949
O O14 0.758808 0.156768 0.190590
O O15 0.000000 0.197958 0.000000
O O16 0.500000 0.201745 0.500000
O O17 0.591303 0.000000 0.307551
O O18 0.109261 0.000000 0.455747
#
# Coordination Sequence:
#
# PCOD9149292 Si02
#       7
#     4   4   4   4   4   4   4
#     4   9  18  33  53  77 106 140 179 224 272 320
#     4   9  16  28  50  79 108 140 181 226 268 316
#     4   9  17  31  51  74 106 148 183 215 269 335
#     4   9  17  30  50  77 107 139 177 223 275 326
#     4  10  20  34  55  79 104 142 189 229 267 320
#     4  10  21  36  55  82 115 147 178 220 278 333
#     4   9  17  30  51  80 109 139 182 230 268 312
#
# _framework density 20.811252
#
# number of rings (size 3 to 8) (size 9 to 14) (size 15 to 20)
#    0.000    2.714    0.000    1.714    0.000    6.000 
#    0.000    4.286    0.000   16.286    0.000    0.000 
#    0.000    0.000    0.000    0.000    0.000    0.000 
#
# Total GULP energy -155991.960952 kJ/mol
# GULP energy per Si atom -5571.141463 kJ/mol
# Density = 2.076388 g / cm^3
# Si number density = 20.811252 Si / 1000 Ang^3
#
#
#
# Elastic Constant Matrix: (Units=GPa)
#
#
# Indices 1 2 3 4 5 6 
#
# 1 85.8951 28.3796 57.1370 0.0000 2.6573 0.0000
# 2 28.3796 82.2107 74.3178 0.0000 23.4635 0.0000
# 3 57.1370 74.3178 121.5310 0.0000 29.8933 0.0000
# 4 0.0000 0.0000 0.0000 3.0620 0.0000 -2.1453
# 5 2.6573 23.4635 29.8933 0.0000 42.9589 0.0000
# 6 0.0000 0.0000 0.0000 -2.1453 0.0000 4.3444
#
#
#
# Elastic Compliance Matrix: (Units=1/GPa)
#
#
# Indices 1 2 3 4 5 6 
#
# 1 0.018276 0.002488 -0.011463 0.000000 0.005488 0.000000
# 2 0.002488 0.028109 -0.017548 0.000000 -0.003296 0.000000
# 3 -0.011463 -0.017548 0.026322 0.000000 -0.008023 0.000000
# 4 0.000000 0.000000 0.000000 0.499361 0.000000 0.246593
# 5 0.005488 -0.003296 -0.008023 0.000000 0.030321 0.000000
# 6 0.000000 0.000000 0.000000 0.246593 0.000000 0.351952
#
#
# Mechanical properties :
#
#
# Convention : Reuss Voigt Hill
#
# Bulk Modulus (GPa) = 50.86595 67.70061 59.28328
# Shear Modulus (GPa) = 4.93125 18.72654 11.82890
#
# Velocity S-wave (km/s) = 1.54099 3.00297 2.38668
# Velocity P-wave (km/s) = 5.25936 6.68021 6.01190
#
# Compressibility (1/GPa) = 0.01965952
#
# Stress axis : x y z
#
# Youngs Moduli (GPa) = 54.71742 35.57603 37.99133
#
# Poissons Ratio (x) = -0.08850 0.43550
# Poissons Ratio (y) = -0.13611 0.66666
# Poissons Ratio (z) = 0.62724 0.62428
#
# Static dielectric constant tensor:
#      x y z
#    x 1.793990 0.000000 0.007270 
#    y 0.000000 1.748270 0.000000 
#    z 0.007270 0.000000 1.747980 
# 
# From -- ./inp_files/78879.got.cif
#   From: 2010.05.17/outbox.cif.g08.bks.cpg/sg10_40_cif.got.tgz:78879.got - 2010.06.03 11:33:40.
