data_PCOD9149204
_publ_section_title
;
Structure prediction by ZEFSAII (Michael W. Deem and Ramdas Pophale) SiO2 
 PCOD9149204
Probable space group: P 2/M
;
_chemical_formula_sum "Si O2"
_cell_formula_units_Z 32
_cell_length_a 28.563247
_cell_length_b 9.138654
_cell_length_c 10.771542
_cell_angle_alpha 90.000000
_cell_angle_beta 150.191016
_cell_angle_gamma 90.000000
_cell_volume 1397.720089
_symmetry_space_group_name_H-M "P 2/M"
_symmetry_group_IT_number 10
_symmetry_cell_setting 'monoclinic'
loop_
_space_group_symop_operation_xyz
x,y,z
-x,y,-z
-x,-y,-z
x,-y,z
loop_
_atom_site_type_symbol
_atom_site_label
_atom_site_fract_x
_atom_site_fract_y
_atom_site_fract_z
Si Si1 0.142260 0.826129 0.240129
Si Si2 0.195885 0.667459 0.984744
Si Si3 0.631253 0.329859 0.981397
Si Si4 0.312766 0.332412 0.514986
Si Si5 0.478936 0.169411 0.772279
Si Si6 0.360696 0.832677 0.243957
Si Si7 0.855481 0.329152 0.505621
Si Si8 0.027765 0.324412 0.755859
O O1 0.246085 0.761408 0.450656
O O2 0.113231 0.772664 0.309286
O O3 0.141541 0.000000 0.228105
O O4 0.076855 0.753205 0.985506
O O5 0.194966 0.500000 0.932872
O O6 0.254211 0.662035 0.249740
O O7 0.257388 0.774762 0.043371
O O8 0.090953 0.716334 0.782207
O O9 0.607848 0.500000 0.937500
O O10 0.577365 0.244816 0.965859
O O11 0.601638 0.266368 0.780076
O O12 0.743827 0.311774 0.238791
O O13 0.323126 0.500000 0.582734
O O14 0.411691 0.256416 0.711727
O O15 0.422235 0.174078 0.510326
O O16 0.489506 0.000000 0.831049
O O17 0.358294 0.000000 0.194884
O O18 0.873265 0.500000 0.579040
O O19 0.917185 0.297907 0.524584
O O20 0.041581 0.500000 0.795092
#
# Coordination Sequence:
#
# PCOD9149204 Si02
#       8
#     4   4   4   4   4   4   4   4
#     4  11  21  33  54  84 112 138 172 216 266 317
#     4   8  15  29  52  80 104 130 169 215 260 306
#     4  11  23  37  54  76 104 141 183 223 262 310
#     4   9  17  32  55  81 108 138 174 216 260 309
#     4  10  20  35  56  82 110 138 172 217 268 319
#     4  10  20  34  54  79 107 139 172 212 265 319
#     4  10  22  39  55  74 104 143 184 222 262 310
#     4   9  18  35  58  80 105 139 178 220 263 310
#
# _framework density 22.894425999999999
#
# number of rings (size 3 to 8) (size 9 to 14) (size 15 to 20)
#    0.000    2.250    0.000    4.125    0.000    9.000 
#    0.000    1.250    0.000    7.500    0.000    0.000 
#    0.000    0.000    0.000    0.000    0.000    0.000 
#
# Total GULP energy -179004.061700 kJ/mol
# GULP energy per Si atom -5593.876928 kJ/mol
# Density = 2.284232 g / cm^3
# Si number density = 22.894426 Si / 1000 Ang^3
#
#
#
# Elastic Constant Matrix: (Units=GPa)
#
#
# Indices 1 2 3 4 5 6 
#
# 1 122.8297 32.4682 32.1143 0.0000 32.0053 0.0000
# 2 32.4682 43.8218 34.9870 0.0000 17.7086 0.0000
# 3 32.1143 34.9870 75.1751 0.0000 25.9238 0.0000
# 4 0.0000 0.0000 0.0000 -7.8775 0.0000 1.7057
# 5 32.0053 17.7086 25.9238 0.0000 51.0512 0.0000
# 6 0.0000 0.0000 0.0000 1.7057 0.0000 17.3151
#
#
#
# Elastic Compliance Matrix: (Units=1/GPa)
#
#
# Indices 1 2 3 4 5 6 
#
# 1 0.011035 -0.006064 -0.000281 0.000000 -0.004672 0.000000
# 2 -0.006064 0.040670 -0.015498 0.000000 -0.002436 0.000000
# 3 -0.000281 -0.015498 0.022694 0.000000 -0.005972 0.000000
# 4 0.000000 0.000000 0.000000 -0.124293 0.000000 0.012244
# 5 -0.004672 -0.002436 -0.005972 0.000000 0.026395 0.000000
# 6 0.000000 0.000000 0.000000 0.012244 0.000000 0.056547
#
#
# Mechanical properties :
#
#
# Convention : Reuss Voigt Hill
#
# Bulk Modulus (GPa) = 32.55697 48.99616 40.77657
# Shear Modulus (GPa) = 57.49037 21.58159 39.53598
#
# Velocity S-wave (km/s) = 5.01653 3.07360 4.16009
# Velocity P-wave (km/s) = 6.91415 5.83467 6.39722
#
# Compressibility (1/GPa) = 0.03071539
#
# Stress axis : x y z
#
# Youngs Moduli (GPa) = 90.62040 24.58807 44.06369
#
# Poissons Ratio (x) = 0.14910 0.01237
# Poissons Ratio (y) = 0.54950 0.68288
# Poissons Ratio (z) = 0.02545 0.38105
#
# Static dielectric constant tensor:
#      x y z
#    x 1.865550 0.000000 -0.017370 
#    y 0.000000 1.765770 0.000000 
#    z -0.017370 0.000000 1.929710 
# 
# From -- ./inp_files/58242.got.cif
#   From: 2010.05.17/outbox.cif.g08.bks.cpg/sg10_30_cif.got.tgz:58242.got - 2010.06.03 11:33:40.
