data_PCOD9149307
_publ_section_title
;
Structure prediction by ZEFSAII (Michael W. Deem and Ramdas Pophale) SiO2 
 PCOD9149307
Probable space group: P 2/M
;
_chemical_formula_sum "Si O2"
_cell_formula_units_Z 28
_cell_length_a 18.760732
_cell_length_b 7.507092
_cell_length_c 16.094641
_cell_angle_alpha 90.000000
_cell_angle_beta 144.747845
_cell_angle_gamma 90.000000
_cell_volume 1308.311034
_symmetry_space_group_name_H-M "P 2/M"
_symmetry_group_IT_number 10
_symmetry_cell_setting 'monoclinic'
loop_
_space_group_symop_operation_xyz
x,y,z
-x,y,-z
-x,-y,-z
x,-y,z
loop_
_atom_site_type_symbol
_atom_site_label
_atom_site_fract_x
_atom_site_fract_y
_atom_site_fract_z
Si Si1 0.672132 0.216335 0.724465
Si Si2 0.404264 0.784227 0.528059
Si Si3 0.001276 0.203466 0.733767
Si Si4 0.373375 0.287524 0.838935
Si Si5 0.060601 0.217700 0.971269
Si Si6 0.729871 0.293861 0.430733
Si Si7 0.891891 0.215123 0.333428
O O1 0.669421 0.270812 0.625144
O O2 0.545233 0.273116 0.646605
O O3 0.669720 0.000000 0.721324
O O4 0.796081 0.269509 0.887893
O O5 0.347520 0.717240 0.558778
O O6 0.401156 0.000000 0.528094
O O7 0.860478 0.201422 0.569246
O O8 0.006384 0.280592 0.831674
O O9 0.079106 0.283518 0.731850
O O10 0.046049 0.000000 0.785536
O O11 0.390654 0.500000 0.848359
O O12 0.344943 0.219827 0.718948
O O13 0.246352 0.257656 0.768470
O O14 0.500000 0.216288 0.000000
O O15 0.049967 0.000000 0.962997
O O16 0.000000 0.279119 0.000000
O O17 0.759590 0.500000 0.441541
O O18 0.000000 0.277246 0.500000
O O19 0.902198 0.000000 0.341321
#
# Coordination Sequence:
#
# PCOD9149307 Si02
#       7
#     4   4   4   4   4   4   4
#     4   8  15  29  49  77 106 135 174 215 259 311
#     4   9  17  31  54  77 102 137 175 216 260 315
#     4  10  20  34  55  80 106 140 179 219 267 322
#     4  10  23  41  58  78 108 147 187 226 273 332
#     4   9  16  27  48  78 108 135 169 214 257 304
#     4  11  22  35  53  77 104 135 177 222 267 321
#     4  10  20  36  58  85 114 140 176 229 282 331
#
# _framework density 21.401638999999999
#
# number of rings (size 3 to 8) (size 9 to 14) (size 15 to 20)
#    0.000    2.429    1.429    2.143    0.000    5.143 
#    0.000    2.857    0.000    4.714    0.000    0.000 
#    0.000    0.000    0.000    0.000    0.000    0.000 
#
# Total GULP energy -156286.033208 kJ/mol
# GULP energy per Si atom -5581.644043 kJ/mol
# Density = 2.135293 g / cm^3
# Si number density = 21.401639 Si / 1000 Ang^3
#
#
#
# Elastic Constant Matrix: (Units=GPa)
#
#
# Indices 1 2 3 4 5 6 
#
# 1 142.2061 -11.1121 68.1805 0.0000 -18.1620 0.0000
# 2 -11.1121 53.8380 -0.6402 0.0000 -3.9401 0.0000
# 3 68.1805 -0.6402 151.8001 0.0000 -4.8229 0.0000
# 4 0.0000 0.0000 0.0000 6.3720 0.0000 1.4814
# 5 -18.1620 -3.9401 -4.8229 0.0000 28.8799 0.0000
# 6 0.0000 0.0000 0.0000 1.4814 0.0000 15.5255
#
#
#
# Elastic Compliance Matrix: (Units=1/GPa)
#
#
# Indices 1 2 3 4 5 6 
#
# 1 0.010051 0.002458 -0.004316 0.000000 0.005936 0.000000
# 2 0.002458 0.019366 -0.000894 0.000000 0.004038 0.000000
# 3 -0.004316 -0.000894 0.008477 0.000000 -0.001420 0.000000
# 4 0.000000 0.000000 0.000000 0.160498 0.000000 -0.015315
# 5 0.005936 0.004038 -0.001420 0.000000 0.038673 0.000000
# 6 0.000000 0.000000 0.000000 -0.015315 0.000000 0.065872
#
#
# Mechanical properties :
#
#
# Convention : Reuss Voigt Hill
#
# Bulk Modulus (GPa) = 30.87262 51.18897 41.03079
# Shear Modulus (GPa) = 15.66230 29.58320 22.62275
#
# Velocity S-wave (km/s) = 2.70817 3.72195 3.25477
# Velocity P-wave (km/s) = 4.92296 6.51465 5.77392
#
# Compressibility (1/GPa) = 0.03239116
#
# Stress axis : x y z
#
# Youngs Moduli (GPa) = 99.49023 51.63581 117.96589
#
# Poissons Ratio (x) = -0.12690 0.50909
# Poissons Ratio (y) = -0.24451 0.10545
# Poissons Ratio (z) = 0.42935 0.04616
#
# Static dielectric constant tensor:
#      x y z
#    x 1.751200 0.000000 -0.020000 
#    y 0.000000 1.824340 0.000000 
#    z -0.020000 0.000000 1.760540 
# 
# From -- ./inp_files/68719.got.cif
#   From: 2010.05.17/outbox.cif.g08.bks.cpg/sg10_35_cif.got.tgz:68719.got - 2010.06.03 11:33:40.
