data_PCOD9149639
_publ_section_title
;
Structure prediction by ZEFSAII (Michael W. Deem and Ramdas Pophale) SiO2 
 PCOD9149639
Probable space group: P 2/M
;
_chemical_formula_sum "Si O2"
_cell_formula_units_Z 30
_cell_length_a 15.288995
_cell_length_b 16.961674
_cell_length_c 11.689491
_cell_angle_alpha 90.000000
_cell_angle_beta 26.839542
_cell_angle_gamma 90.000000
_cell_volume 1368.657233
_symmetry_space_group_name_H-M "P 2/M"
_symmetry_group_IT_number 10
_symmetry_cell_setting 'monoclinic'
loop_
_space_group_symop_operation_xyz
x,y,z
-x,y,-z
-x,-y,-z
x,-y,z
loop_
_atom_site_type_symbol
_atom_site_label
_atom_site_fract_x
_atom_site_fract_y
_atom_site_fract_z
Si Si1 0.442378 0.254629 0.304881
Si Si2 0.547366 0.911115 0.578390
Si Si3 0.000000 0.631361 0.000000
Si Si4 0.977658 0.752338 0.831194
Si Si5 0.186901 0.753870 0.226700
Si Si6 0.581258 0.584569 0.533127
Si Si7 0.733569 0.087401 0.734870
Si Si8 0.058369 0.916322 0.758547
O O1 0.500548 0.170011 0.295478
O O2 0.213333 0.250649 0.542717
O O3 0.468598 0.331964 0.352011
O O4 0.588608 0.269843 0.029459
O O5 0.500000 0.902670 0.500000
O O6 0.775895 0.916106 0.339601
O O7 0.475900 0.000000 0.700352
O O8 0.926557 0.688235 0.984388
O O9 0.185348 0.584643 0.742185
O O10 0.930447 0.840392 0.926739
O O11 0.868731 0.744898 0.840361
O O12 0.194746 0.841846 0.270133
O O13 0.000000 0.712493 0.500000
O O14 0.500000 0.585802 0.500000
O O15 0.515799 0.500000 0.661721
O O16 0.832383 0.091270 0.493291
O O17 0.776254 0.000000 0.731657
O O18 0.500000 0.093473 0.000000
O O19 0.955452 0.000000 0.879106
#
# Coordination Sequence:
#
# PCOD9149639 Si02
#       8
#     4   4   2   4   4   4   4   4
#     4  10  22  38  58  84 124 158 195 253 306 359
#     4   9  17  31  54  81 113 159 204 237 289 362
#     4  10  21  38  63  90 130 156 191 238 304 374
#     4  10  21  38  55  84 116 158 196 245 303 367
#     4  12  24  35  58  85 115 153 211 252 303 360
#     4  10  20  37  64  96 125 158 198 246 307 371
#     4  10  20  35  54  77 111 155 204 266 319 350
#     4   9  17  31  48  70 108 150 197 250 292 338
#
# _framework density 21.919294000000001
#
# number of rings (size 3 to 8) (size 9 to 14) (size 15 to 20)
#    0.000    2.000    1.333    3.000    0.000    4.533 
#    0.000    0.333    0.000    1.200    0.000    3.733 
#    0.000    0.000    0.000    0.000    0.000    0.000 
#
# Total GULP energy -167349.753394 kJ/mol
# GULP energy per Si atom -5578.325113 kJ/mol
# Density = 2.186940 g / cm^3
# Si number density = 21.919294 Si / 1000 Ang^3
#
#
#
# Elastic Constant Matrix: (Units=GPa)
#
#
# Indices 1 2 3 4 5 6 
#
# 1 88.8693 18.2600 1.6271 0.0000 0.5095 0.0000
# 2 18.2600 128.8733 22.2153 0.0000 4.0724 0.0000
# 3 1.6271 22.2153 82.9424 0.0000 -5.3143 0.0000
# 4 0.0000 0.0000 0.0000 -4.8681 0.0000 22.9701
# 5 0.5095 4.0724 -5.3143 0.0000 20.3030 0.0000
# 6 0.0000 0.0000 0.0000 22.9701 0.0000 -8.0473
#
#
#
# Elastic Compliance Matrix: (Units=1/GPa)
#
#
# Indices 1 2 3 4 5 6 
#
# 1 0.011594 -0.001686 0.000231 0.000000 0.000108 0.000000
# 2 -0.001686 0.008482 -0.002385 0.000000 -0.002283 0.000000
# 3 0.000231 -0.002385 0.012938 0.000000 0.003859 0.000000
# 4 0.000000 0.000000 0.000000 0.016475 0.000000 0.047026
# 5 0.000108 -0.002283 0.003859 0.000000 0.050719 0.000000
# 6 0.000000 0.000000 0.000000 0.047026 0.000000 0.009967
#
#
# Mechanical properties :
#
#
# Convention : Reuss Voigt Hill
#
# Bulk Modulus (GPa) = 39.47261 42.76551 41.11906
# Shear Modulus (GPa) = 39.58852 18.71635 29.15243
#
# Velocity S-wave (km/s) = 4.25444 2.92528 3.65086
# Velocity P-wave (km/s) = 6.49468 5.56440 6.04746
#
# Compressibility (1/GPa) = 0.02533402
#
# Stress axis : x y z
#
# Youngs Moduli (GPa) = 86.25114 117.90069 77.29124
#
# Poissons Ratio (x) = 0.19878 -0.01786
# Poissons Ratio (y) = 0.14542 0.18434
# Poissons Ratio (z) = -0.01993 0.28119
#
# Static dielectric constant tensor:
#      x y z
#    x 1.794780 0.000000 -0.011460 
#    y 0.000000 1.827530 0.000000 
#    z -0.011460 0.000000 1.904790 
# 
# From -- ./inp_files/51868.got.cif
#   From: 2010.05.17/outbox.cif.g08.bks.cpg/sg10_26_cif.got.tgz:51868.got - 2010.06.03 11:33:40.
