data_PCOD9149914
_publ_section_title
;
Structure prediction by ZEFSAII (Michael W. Deem and Ramdas Pophale) SiO2 
 PCOD9149914
Probable space group: P 2/M
;
_chemical_formula_sum "Si O2"
_cell_formula_units_Z 28
_cell_length_a 29.038990
_cell_length_b 7.588983
_cell_length_c 8.178085
_cell_angle_alpha 90.000000
_cell_angle_beta 135.666822
_cell_angle_gamma 90.000000
_cell_volume 1259.470501
_symmetry_space_group_name_H-M "P 2/M"
_symmetry_group_IT_number 10
_symmetry_cell_setting 'monoclinic'
loop_
_space_group_symop_operation_xyz
x,y,z
-x,y,-z
-x,-y,-z
x,-y,z
loop_
_atom_site_type_symbol
_atom_site_label
_atom_site_fract_x
_atom_site_fract_y
_atom_site_fract_z
Si Si1 0.070445 0.212077 0.241319
Si Si2 0.655552 0.290211 0.694644
Si Si3 0.070605 0.710129 0.622381
Si Si4 0.426761 0.791217 0.838358
Si Si5 0.209698 0.711924 0.098822
Si Si6 0.209453 0.210016 0.471566
Si Si7 0.654840 0.788878 0.056454
O O1 0.077062 0.256448 0.447465
O O2 0.136342 0.281252 0.320991
O O3 0.068964 0.000000 0.216869
O O4 0.000000 0.280726 0.000000
O O5 0.657531 0.500000 0.688136
O O6 0.613613 0.228677 0.432423
O O7 0.730701 0.222203 0.862889
O O8 0.629921 0.245387 0.810133
O O9 0.069190 0.500000 0.650455
O O10 0.000000 0.782975 0.500000
O O11 0.136727 0.781813 0.874445
O O12 0.388539 0.720470 0.901458
O O13 0.433863 0.000000 0.886642
O O14 0.500000 0.716563 0.000000
O O15 0.206880 0.500000 0.074458
O O16 0.227108 0.756420 0.328732
O O17 0.270057 0.279918 0.733043
O O18 0.205585 0.000000 0.488830
O O19 0.658293 0.000000 0.084053
#
# Coordination Sequence:
#
# PCOD9149914 Si02
#       7
#     4   4   4   4   4   4   4
#     4  10  21  35  51  77 110 142 183 236 293 346
#     4  11  23  38  60  90 123 158 195 241 298 355
#     4  10  21  36  53  76 107 146 193 237 283 344
#     4  10  22  42  66  90 119 156 198 245 294 348
#     4  10  21  36  55  82 114 149 190 238 291 344
#     4  10  20  35  57  83 110 147 193 239 288 344
#     4  10  21  38  61  88 117 153 199 244 288 347
#
# _framework density 22.231563999999999
#
# number of rings (size 3 to 8) (size 9 to 14) (size 15 to 20)
#    0.000    1.857    1.429    2.143    0.000    4.286 
#    0.000    2.857    0.000    0.000    0.000    0.000 
#    0.000    0.000    0.000    0.000    0.000    0.000 
#
# Total GULP energy -156408.900185 kJ/mol
# GULP energy per Si atom -5586.032149 kJ/mol
# Density = 2.218096 g / cm^3
# Si number density = 22.231564 Si / 1000 Ang^3
#
#
#
# Elastic Constant Matrix: (Units=GPa)
#
#
# Indices 1 2 3 4 5 6 
#
# 1 153.3967 -1.2311 66.7007 0.0000 4.3734 0.0000
# 2 -1.2311 46.3598 -13.0004 0.0000 19.1274 0.0000
# 3 66.7007 -13.0004 99.9881 0.0000 10.3866 0.0000
# 4 0.0000 0.0000 0.0000 15.2144 0.0000 -17.5592
# 5 4.3734 19.1274 10.3866 0.0000 41.8564 0.0000
# 6 0.0000 0.0000 0.0000 -17.5592 0.0000 9.6152
#
#
#
# Elastic Compliance Matrix: (Units=1/GPa)
#
#
# Indices 1 2 3 4 5 6 
#
# 1 0.009387 -0.002382 -0.006757 0.000000 0.001784 0.000000
# 2 -0.002382 0.029686 0.007013 0.000000 -0.015057 0.000000
# 3 -0.006757 0.007013 0.016095 0.000000 -0.006493 0.000000
# 4 0.000000 0.000000 0.000000 -0.059341 0.000000 -0.108367
# 5 0.001784 -0.015057 -0.006493 0.000000 0.032197 0.000000
# 6 0.000000 0.000000 0.000000 -0.108367 0.000000 -0.093896
#
#
# Mechanical properties :
#
#
# Convention : Reuss Voigt Hill
#
# Bulk Modulus (GPa) = 19.64017 44.96476 32.30247
# Shear Modulus (GPa) = -111.98829 29.82223 -41.08303
#
# Velocity S-wave (km/s) = -7.10513 3.66654 -4.30345
# Velocity P-wave (km/s) = 7.64572 6.18014 3.18299
#
# Compressibility (1/GPa) = 0.05091604
#
# Stress axis : x y z
#
# Youngs Moduli (GPa) = 106.52785 33.68578 62.13108
#
# Poissons Ratio (x) = 0.08023 0.41983
# Poissons Ratio (y) = 0.25373 -0.43571
# Poissons Ratio (z) = 0.71982 -0.23623
#
# Static dielectric constant tensor:
#      x y z
#    x 1.828960 0.000000 0.053330 
#    y 0.000000 1.867330 0.000000 
#    z 0.053330 0.000000 1.815520 
# 
# From -- ./inp_files/37908.got.cif
#   From: 2010.05.17/outbox.cif.g08.bks.cpg/sg10_19_cif.got.tgz:37908.got - 2010.06.03 11:33:40.
