data_PCOD9149077
_publ_section_title
;
Structure prediction by ZEFSAII (Michael W. Deem and Ramdas Pophale) SiO2 
 PCOD9149077
Probable space group: P 2/M
;
_chemical_formula_sum "Si O2"
_cell_formula_units_Z 20
_cell_length_a 9.923197
_cell_length_b 7.670400
_cell_length_c 28.132807
_cell_angle_alpha 90.000000
_cell_angle_beta 152.407300
_cell_angle_gamma 90.000000
_cell_volume 991.825836
_symmetry_space_group_name_H-M "P 2/M"
_symmetry_group_IT_number 10
_symmetry_cell_setting 'monoclinic'
loop_
_space_group_symop_operation_xyz
x,y,z
-x,y,-z
-x,-y,-z
x,-y,z
loop_
_atom_site_type_symbol
_atom_site_label
_atom_site_fract_x
_atom_site_fract_y
_atom_site_fract_z
Si Si1 0.374871 0.297118 0.009829
Si Si2 0.585686 0.288081 0.177435
Si Si3 0.720307 0.793881 0.820703
Si Si4 0.180385 0.706256 0.408870
Si Si5 0.120443 0.788739 0.588164
O O1 0.466237 0.500000 0.038763
O O2 0.491327 0.222851 0.096188
O O3 0.500000 0.219713 0.000000
O O4 0.026484 0.288361 0.902953
O O5 0.584847 0.500000 0.177021
O O6 0.368459 0.236128 0.152086
O O7 0.908077 0.225083 0.293072
O O8 0.445567 0.729151 0.703777
O O9 0.749016 0.000000 0.822087
O O10 0.500000 0.781355 0.500000
O O11 0.194024 0.500000 0.402574
O O12 0.087885 0.730947 0.434380
O O13 0.000000 0.728726 0.500000
O O14 0.126228 0.000000 0.589851
#
# Coordination Sequence:
#
# PCOD9149077 Si02
#       5
#     4   4   4   4   4
#     4  10  21  35  51  73 101 132 164 200 246 296
#     4   9  18  34  53  72  99 134 166 198 242 294
#     4  10  20  34  53  75  98 128 167 206 242 287
#     4   9  18  32  51  76 102 128 163 205 244 285
#     4   9  19  35  52  72 100 132 164 199 244 296
#
# _framework density 20.164829999999998
#
# number of rings (size 3 to 8) (size 9 to 14) (size 15 to 20)
#    0.000    2.600    0.000    1.200    0.000    6.800 
#    0.000    2.000    0.000    0.000    0.000    0.000 
#    0.000    0.000    0.000    0.000    0.000    0.000 
#
# Total GULP energy -111598.442707 kJ/mol
# GULP energy per Si atom -5579.922135 kJ/mol
# Density = 2.011893 g / cm^3
# Si number density = 20.164830 Si / 1000 Ang^3
#
#
#
# Elastic Constant Matrix: (Units=GPa)
#
#
# Indices 1 2 3 4 5 6 
#
# 1 118.4432 -16.0673 96.4173 0.0000 -0.6236 0.0000
# 2 -16.0673 33.4068 -13.8607 0.0000 -1.8899 0.0000
# 3 96.4173 -13.8607 116.4897 0.0000 2.6324 0.0000
# 4 0.0000 0.0000 0.0000 17.0852 0.0000 5.3276
# 5 -0.6236 -1.8899 2.6324 0.0000 37.4603 0.0000
# 6 0.0000 0.0000 0.0000 5.3276 0.0000 37.5144
#
#
#
# Elastic Compliance Matrix: (Units=1/GPa)
#
#
# Indices 1 2 3 4 5 6 
#
# 1 0.026505 0.003942 -0.021518 0.000000 0.002152 0.000000
# 2 0.003942 0.032141 0.000524 0.000000 0.001650 0.000000
# 3 -0.021518 0.000524 0.026506 0.000000 -0.002194 0.000000
# 4 0.000000 0.000000 0.000000 0.061242 0.000000 -0.008697
# 5 0.002152 0.001650 -0.002194 0.000000 0.026968 0.000000
# 6 0.000000 0.000000 0.000000 -0.008697 0.000000 0.027892
#
#
# Mechanical properties :
#
#
# Convention : Reuss Voigt Hill
#
# Bulk Modulus (GPa) = 19.58880 44.59091 32.08986
# Shear Modulus (GPa) = 19.81191 31.86867 25.84029
#
# Velocity S-wave (km/s) = 3.13788 3.97975 3.58362
# Velocity P-wave (km/s) = 4.78162 6.57868 5.75078
#
# Compressibility (1/GPa) = 0.05104957
#
# Stress axis : x y z
#
# Youngs Moduli (GPa) = 37.72872 31.11306 37.72692
#
# Poissons Ratio (x) = -0.12264 0.81179
# Poissons Ratio (y) = -0.14872 -0.01979
# Poissons Ratio (z) = 0.81183 -0.01632
#
# Static dielectric constant tensor:
#      x y z
#    x 1.674090 0.000000 -0.015800 
#    y 0.000000 1.756220 0.000000 
#    z -0.015800 0.000000 1.725000 
# 
# From -- ./inp_files/22381.got.cif
#   From: 2010.05.17/outbox.cif.g08.bks.cpg/sg10_12_cif.got.tgz:22381.got - 2010.06.03 11:33:40.
