data_PCOD9149443
_publ_section_title
;
Structure prediction by ZEFSAII (Michael W. Deem and Ramdas Pophale) SiO2 
 PCOD9149443
Probable space group: P 2/M
;
_chemical_formula_sum "Si O2"
_cell_formula_units_Z 32
_cell_length_a 8.332200
_cell_length_b 23.902605
_cell_length_c 14.273717
_cell_angle_alpha 90.000000
_cell_angle_beta 149.439414
_cell_angle_gamma 90.000000
_cell_volume 1445.405024
_symmetry_space_group_name_H-M "P 2/M"
_symmetry_group_IT_number 10
_symmetry_cell_setting 'monoclinic'
loop_
_space_group_symop_operation_xyz
x,y,z
-x,y,-z
-x,-y,-z
x,-y,z
loop_
_atom_site_type_symbol
_atom_site_label
_atom_site_fract_x
_atom_site_fract_y
_atom_site_fract_z
Si Si1 0.332691 0.149575 0.510997
Si Si2 0.367114 0.062225 0.208128
Si Si3 0.627332 0.562677 0.836230
Si Si4 0.985302 0.322585 0.274468
Si Si5 0.766458 0.438041 0.553967
Si Si6 0.691421 0.266722 0.406027
Si Si7 0.371000 0.316245 0.079854
Si Si8 0.753930 0.934898 0.210348
O O1 0.500000 0.168728 0.500000
O O2 0.563587 0.107455 0.679714
O O3 0.280780 0.202185 0.552359
O O4 0.021387 0.112211 0.336638
O O5 0.577527 0.071874 0.221345
O O6 0.446087 0.000000 0.282634
O O7 0.000000 0.063298 0.000000
O O8 0.556389 0.500000 0.837719
O O9 0.408500 0.570511 0.633767
O O10 0.588776 0.617912 0.878277
O O11 0.000000 0.562260 0.000000
O O12 0.674245 0.299207 0.170139
O O13 0.001221 0.388833 0.300381
O O14 0.279565 0.299286 0.481122
O O15 0.933120 0.309012 0.139371
O O16 0.500000 0.437420 0.500000
O O17 0.909398 0.500000 0.624616
O O18 0.402311 0.283528 0.193459
O O19 0.000000 0.283534 0.500000
O O20 0.868760 0.000000 0.263352
O O21 0.500000 0.928465 0.000000
#
# Coordination Sequence:
#
# PCOD9149443 Si02
#       8
#     4   4   4   4   4   4   4   4
#     4  12  25  42  63  95 132 175 223 273 326 387
#     4  10  21  40  67 100 137 173 215 268 322 385
#     4  10  20  35  56  86 119 153 194 243 309 381
#     4  10  21  39  64  86 115 152 207 250 317 379
#     4  10  20  34  56  85 121 155 190 244 305 376
#     4  10  22  44  63  85 122 163 214 269 319 378
#     4  10  21  40  62  88 113 158 198 258 316 375
#     4  10  21  40  68 102 137 178 220 264 329 392
#
# _framework density 22.139123000000001
#
# number of rings (size 3 to 8) (size 9 to 14) (size 15 to 20)
#    0.000    1.750    1.250    3.000    0.000    5.500 
#   11.250    2.500    0.000    0.000    0.000    0.000 
#    0.000    0.000    0.000    0.000    0.000    0.000 
#
# Total GULP energy -178742.232391 kJ/mol
# GULP energy per Si atom -5585.694762 kJ/mol
# Density = 2.208873 g / cm^3
# Si number density = 22.139123 Si / 1000 Ang^3
#
#
#
# Elastic Constant Matrix: (Units=GPa)
#
#
# Indices 1 2 3 4 5 6 
#
# 1 67.5453 13.8988 32.5381 0.0000 -10.4033 0.0000
# 2 13.8988 86.2601 49.3889 0.0000 -21.1211 0.0000
# 3 32.5381 49.3889 136.0945 0.0000 -33.7983 0.0000
# 4 0.0000 0.0000 0.0000 37.0473 0.0000 1.7126
# 5 -10.4033 -21.1211 -33.7983 0.0000 40.9801 0.0000
# 6 0.0000 0.0000 0.0000 1.7126 0.0000 29.2024
#
#
#
# Elastic Compliance Matrix: (Units=1/GPa)
#
#
# Indices 1 2 3 4 5 6 
#
# 1 0.016788 -0.000372 -0.003607 0.000000 0.001096 0.000000
# 2 -0.000372 0.015176 -0.004401 0.000000 0.004098 0.000000
# 3 -0.003607 -0.004401 0.011339 0.000000 0.006168 0.000000
# 4 0.000000 0.000000 0.000000 0.027066 0.000000 -0.001587
# 5 0.001096 0.004098 0.006168 0.000000 0.031879 0.000000
# 6 0.000000 0.000000 0.000000 -0.001587 0.000000 0.034337
#
#
# Mechanical properties :
#
#
# Convention : Reuss Voigt Hill
#
# Bulk Modulus (GPa) = 37.67331 53.50571 45.58951
# Shear Modulus (GPa) = 30.82795 34.38424 32.60610
#
# Velocity S-wave (km/s) = 3.73562 3.94521 3.84185
# Velocity P-wave (km/s) = 5.97160 6.70622 6.34954
#
# Compressibility (1/GPa) = 0.02654399
#
# Stress axis : x y z
#
# Youngs Moduli (GPa) = 59.56804 65.89450 88.19111
#
# Poissons Ratio (x) = 0.02449 0.31808
# Poissons Ratio (y) = 0.02214 0.38811
# Poissons Ratio (z) = 0.21484 0.28999
#
# Static dielectric constant tensor:
#      x y z
#    x 2.071300 0.000000 0.160300 
#    y 0.000000 1.818030 0.000000 
#    z 0.160300 0.000000 1.940770 
# 
# From -- ./inp_files/62726.got.cif
#   From: 2010.05.17/outbox.cif.g08.bks.cpg/sg10_32_cif.got.tgz:62726.got - 2010.06.03 11:33:40.
