data_PCOD9149254
_publ_section_title
;
Structure prediction by ZEFSAII (Michael W. Deem and Ramdas Pophale) SiO2 
 PCOD9149254
Probable space group: P 2/M
;
_chemical_formula_sum "Si O2"
_cell_formula_units_Z 28
_cell_length_a 19.152225
_cell_length_b 11.898409
_cell_length_c 23.508471
_cell_angle_alpha 90.000000
_cell_angle_beta 17.771385
_cell_angle_gamma 90.000000
_cell_volume 1635.103102
_symmetry_space_group_name_H-M "P 2/M"
_symmetry_group_IT_number 10
_symmetry_cell_setting 'monoclinic'
loop_
_space_group_symop_operation_xyz
x,y,z
-x,y,-z
-x,-y,-z
x,-y,z
loop_
_atom_site_type_symbol
_atom_site_label
_atom_site_fract_x
_atom_site_fract_y
_atom_site_fract_z
Si Si1 0.525495 0.500000 0.885253
Si Si2 0.702688 0.132507 0.495095
Si Si3 0.207502 0.871343 0.292499
Si Si4 0.174055 0.136075 0.912974
Si Si5 0.117490 0.500000 0.293256
Si Si6 0.495404 0.258765 0.853310
Si Si7 0.899445 0.741233 0.449268
Si Si8 0.911560 0.132507 0.890657
O O1 0.764134 0.500000 0.735866
O O2 0.499229 0.388715 0.867975
O O3 0.324565 0.500000 0.087718
O O4 0.437796 0.166871 0.697429
O O5 0.831901 0.208055 0.441187
O O6 0.711606 0.000000 0.505794
O O7 0.837641 0.141291 0.331180
O O8 0.416809 0.808347 0.159553
O O9 0.111355 0.808352 0.312282
O O10 0.000000 0.868460 0.500000
O O11 0.261386 0.000000 0.238614
O O12 0.103097 0.166870 0.032127
O O13 0.166219 0.000000 0.916892
O O14 0.000000 0.178719 0.000000
O O15 0.969587 0.611287 0.397619
O O16 0.260442 0.208060 0.012644
O O17 0.681691 0.240463 0.659156
O O18 0.842010 0.000000 0.940591
#
# Coordination Sequence:
#
# PCOD9149254 Si02
#       8
#     2   4   4   4   2   4   4   4
#     4  11  23  37  51  71 105 144 189 241 283 321
#     4  10  20  34  54  82 115 147 181 224 272 324
#     4   9  18  29  47  74 102 138 182 225 269 318
#     4   9  18  34  56  82 113 146 178 216 269 333
#     4  11  23  37  51  71 105 144 189 241 283 321
#     4  11  20  34  54  74 104 143 188 232 273 320
#     4  11  20  34  54  74 104 143 188 232 273 320
#     4  10  20  34  54  82 115 147 181 224 272 324
#
# _framework density 17.124302
#
# number of rings (size 3 to 8) (size 9 to 14) (size 15 to 20)
#    0.000    1.857    2.857    2.143    0.000    2.286 
#    0.000    2.857    0.000    3.429    0.000    2.000 
#    0.000    3.429    0.000    0.000    0.000    0.000 
#
# Total GULP energy -156302.619649 kJ/mol
# GULP energy per Si atom -5582.236416 kJ/mol
# Density = 1.708533 g / cm^3
# Si number density = 17.124302 Si / 1000 Ang^3
#
#
#
# Elastic Constant Matrix: (Units=GPa)
#
#
# Indices 1 2 3 4 5 6 
#
# 1 126.4028 47.2839 60.2678 0.0000 -18.3998 0.0000
# 2 47.2839 95.8122 22.1982 0.0000 -9.7330 0.0000
# 3 60.2678 22.1982 86.7383 0.0000 3.0163 0.0000
# 4 0.0000 0.0000 0.0000 13.5278 0.0000 5.9019
# 5 -18.3998 -9.7330 3.0163 0.0000 17.6611 0.0000
# 6 0.0000 0.0000 0.0000 5.9019 0.0000 -1.6926
#
#
#
# Elastic Compliance Matrix: (Units=1/GPa)
#
#
# Indices 1 2 3 4 5 6 
#
# 1 0.017851 -0.004172 -0.011973 0.000000 0.018343 0.000000
# 2 -0.004172 0.012902 -0.000502 0.000000 0.002849 0.000000
# 3 -0.011973 -0.000502 0.020542 0.000000 -0.016259 0.000000
# 4 0.000000 0.000000 0.000000 0.029320 0.000000 0.102233
# 5 0.018343 0.002849 -0.016259 0.000000 0.080079 0.000000
# 6 0.000000 0.000000 0.000000 0.102233 0.000000 -0.234328
#
#
# Mechanical properties :
#
#
# Convention : Reuss Voigt Hill
#
# Bulk Modulus (GPa) = 55.55602 63.16146 59.35874
# Shear Modulus (GPa) = -145.60029 17.84615 -63.87707
#
# Velocity S-wave (km/s) = -9.23093 3.23174 -6.11416
# Velocity P-wave (km/s) = 9.00557 7.13370 3.88655
#
# Compressibility (1/GPa) = 0.01799985
#
# Stress axis : x y z
#
# Youngs Moduli (GPa) = 56.02033 77.50856 48.68055
#
# Poissons Ratio (x) = 0.32337 0.58286
# Poissons Ratio (y) = 0.23372 0.02444
# Poissons Ratio (z) = 0.67074 0.03892
#
# Static dielectric constant tensor:
#      x y z
#    x 1.560670 0.000000 0.018780 
#    y 0.000000 1.559090 0.000000 
#    z 0.018780 0.000000 1.609060 
# 
# From -- ./inp_files/85832.got.cif
#   From: 2010.05.17/outbox.cif.g08.bks.cpg/sg10_43_cif.got.tgz:85832.got - 2010.06.03 11:33:40.
