data_PCOD9149547
_publ_section_title
;
Structure prediction by ZEFSAII (Michael W. Deem and Ramdas Pophale) SiO2 
 PCOD9149547
Probable space group: P 2/M
;
_chemical_formula_sum "Si O2"
_cell_formula_units_Z 28
_cell_length_a 10.906200
_cell_length_b 21.224138
_cell_length_c 10.958830
_cell_angle_alpha 90.000000
_cell_angle_beta 151.627720
_cell_angle_gamma 90.000000
_cell_volume 1205.432337
_symmetry_space_group_name_H-M "P 2/M"
_symmetry_group_IT_number 10
_symmetry_cell_setting 'monoclinic'
loop_
_space_group_symop_operation_xyz
x,y,z
-x,y,-z
-x,-y,-z
x,-y,z
loop_
_atom_site_type_symbol
_atom_site_label
_atom_site_fract_x
_atom_site_fract_y
_atom_site_fract_z
Si Si1 0.000000 0.876659 0.000000
Si Si2 0.799088 0.068580 0.596533
Si Si3 0.000000 0.637951 0.000000
Si Si4 0.686068 0.570770 0.542445
Si Si5 0.208127 0.264895 0.786906
Si Si6 0.400929 0.684457 0.190358
Si Si7 0.532898 0.814163 0.675167
Si Si8 0.789756 0.885804 0.210948
O O1 0.176578 0.920813 0.237104
O O2 0.165616 0.831996 0.056371
O O3 0.624730 0.127883 0.405990
O O4 0.084781 0.076489 0.790909
O O5 0.695184 0.000000 0.474990
O O6 0.053675 0.594747 0.164504
O O7 0.238558 0.680878 0.173660
O O8 0.500000 0.568662 0.500000
O O9 0.704878 0.500000 0.510444
O O10 0.575650 0.622279 0.351663
O O11 0.199114 0.189708 0.802788
O O12 0.000000 0.280177 0.500000
O O13 0.500000 0.278610 0.000000
O O14 0.201007 0.305146 0.904985
O O15 0.550180 0.750503 0.330951
O O16 0.500000 0.808616 0.500000
O O17 0.000000 0.898854 0.500000
O O18 0.500000 0.901812 0.000000
#
# Coordination Sequence:
#
# PCOD9149547 Si02
#       8
#     2   4   2   4   4   4   4   4
#     4  10  22  40  62  88 126 166 216 268 332 402
#     4  11  25  41  64  90 126 169 217 271 337 406
#     4  10  20  34  60 100 130 172 216 270 338 390
#     4   9  19  35  57  93 136 175 212 261 329 399
#     4  10  24  42  66  95 129 172 223 276 334 388
#     4  11  22  36  66  94 130 166 220 274 332 398
#     4  10  22  38  60  96 129 166 213 277 341 403
#     4  10  24  44  67  95 126 168 220 281 339 398
#
# _framework density 23.228182
#
# number of rings (size 3 to 8) (size 9 to 14) (size 15 to 20)
#    0.000    1.857    0.000    3.000   10.000    6.571 
#    0.000    0.000    0.000    0.857    0.000    0.000 
#    0.000    0.000    0.000    0.000    0.000    0.000 
#
# Total GULP energy -156385.068076 kJ/mol
# GULP energy per Si atom -5585.181003 kJ/mol
# Density = 2.317531 g / cm^3
# Si number density = 23.228182 Si / 1000 Ang^3
#
#
#
# Elastic Constant Matrix: (Units=GPa)
#
#
# Indices 1 2 3 4 5 6 
#
# 1 58.4396 28.0365 23.5179 0.0000 1.2839 0.0000
# 2 28.0365 176.6908 55.5060 0.0000 -3.9508 0.0000
# 3 23.5179 55.5060 109.1428 0.0000 -2.4173 0.0000
# 4 0.0000 0.0000 0.0000 23.4310 0.0000 0.5237
# 5 1.2839 -3.9508 -2.4173 0.0000 37.8334 0.0000
# 6 0.0000 0.0000 0.0000 0.5237 0.0000 9.1259
#
#
#
# Elastic Compliance Matrix: (Units=1/GPa)
#
#
# Indices 1 2 3 4 5 6 
#
# 1 0.019412 -0.002122 -0.003128 0.000000 -0.001080 0.000000
# 2 -0.002122 0.006977 -0.003077 0.000000 0.000604 0.000000
# 3 -0.003128 -0.003077 0.011413 0.000000 0.000514 0.000000
# 4 0.000000 0.000000 0.000000 0.042733 0.000000 -0.002452
# 5 -0.001080 0.000604 0.000514 0.000000 0.026564 0.000000
# 6 0.000000 0.000000 0.000000 -0.002452 0.000000 0.109719
#
#
# Mechanical properties :
#
#
# Convention : Reuss Voigt Hill
#
# Bulk Modulus (GPa) = 47.28721 62.04377 54.66549
# Shear Modulus (GPa) = 20.78822 29.89226 25.34024
#
# Velocity S-wave (km/s) = 2.99483 3.59123 3.30650
# Velocity P-wave (km/s) = 5.68863 6.63057 6.17758
#
# Compressibility (1/GPa) = 0.02114737
#
# Stress axis : x y z
#
# Youngs Moduli (GPa) = 51.51440 143.33757 87.62162
#
# Poissons Ratio (x) = 0.30414 0.27405
# Poissons Ratio (y) = 0.10930 0.26965
# Poissons Ratio (z) = 0.16112 0.44111
#
# Static dielectric constant tensor:
#      x y z
#    x 1.938250 0.000000 -0.011130 
#    y 0.000000 1.868420 0.000000 
#    z -0.011130 0.000000 2.013310 
# 
# From -- ./inp_files/48034.got.cif
#   From: 2010.05.17/outbox.cif.g08.bks.cpg/sg10_25_cif.got.tgz:48034.got - 2010.06.03 11:33:40.
