data_PCOD9149693
_publ_section_title
;
Structure prediction by ZEFSAII (Michael W. Deem and Ramdas Pophale) SiO2 
 PCOD9149693
Probable space group: P 2/M
;
_chemical_formula_sum "Si O2"
_cell_formula_units_Z 30
_cell_length_a 12.585460
_cell_length_b 7.478396
_cell_length_c 14.011934
_cell_angle_alpha 90.000000
_cell_angle_beta 68.323272
_cell_angle_gamma 90.000000
_cell_volume 1225.528671
_symmetry_space_group_name_H-M "P 2/M"
_symmetry_group_IT_number 10
_symmetry_cell_setting 'monoclinic'
loop_
_space_group_symop_operation_xyz
x,y,z
-x,y,-z
-x,-y,-z
x,-y,z
loop_
_atom_site_type_symbol
_atom_site_label
_atom_site_fract_x
_atom_site_fract_y
_atom_site_fract_z
Si Si1 0.578622 0.783098 0.061371
Si Si2 0.202913 0.212889 0.314095
Si Si3 0.000000 0.250835 0.500000
Si Si4 0.187547 0.701349 0.940117
Si Si5 0.122667 0.717873 0.639628
Si Si6 0.907646 0.714649 0.841396
Si Si7 0.316920 0.713932 0.707615
Si Si8 0.551963 0.787761 0.705205
O O1 0.701410 0.695849 0.027656
O O2 0.511387 0.727286 0.177964
O O3 0.592999 0.000000 0.056254
O O4 0.500000 0.733560 0.000000
O O5 0.096128 0.316296 0.394323
O O6 0.189929 0.230610 0.203604
O O7 0.318635 0.278386 0.326459
O O8 0.185497 0.000000 0.338271
O O9 0.087271 0.188469 0.553625
O O10 0.148013 0.500000 0.927865
O O11 0.244963 0.782420 0.824986
O O12 0.100802 0.783603 0.046657
O O13 0.121286 0.500000 0.624538
O O14 0.246096 0.769810 0.638701
O O15 0.027763 0.762209 0.751345
O O16 0.904493 0.500000 0.849072
O O17 0.308830 0.500000 0.717453
O O18 0.452004 0.754191 0.661720
O O19 0.564978 0.000000 0.705919
#
# Coordination Sequence:
#
# PCOD9149693 Si02
#       8
#     4   4   2   4   4   4   4   4
#     4   9  16  26  42  64  93 133 174 206 240 286
#     4  10  20  35  55  78 103 131 167 212 258 303
#     4  10  20  36  58  80  99 122 161 214 267 310
#     4   9  17  28  44  70 103 135 168 205 242 285
#     4   9  18  34  55  77 102 132 167 209 257 307
#     4   9  18  31  49  76 106 137 172 209 251 295
#     4   9  18  33  52  75 104 138 173 206 243 293
#     4   9  18  32  49  71 101 135 168 204 250 301
#
# _framework density 24.479230999999999
#
# number of rings (size 3 to 8) (size 9 to 14) (size 15 to 20)
#    0.000    2.800    0.000    1.200    0.000    3.467 
#    0.000    9.333    0.000    3.200    0.000    7.467 
#    0.000    0.000    0.000    0.000    0.000    0.000 
#
# Total GULP energy -167044.094179 kJ/mol
# GULP energy per Si atom -5568.136473 kJ/mol
# Density = 2.442352 g / cm^3
# Si number density = 24.479231 Si / 1000 Ang^3
#
#
#
# Elastic Constant Matrix: (Units=GPa)
#
#
# Indices 1 2 3 4 5 6 
#
# 1 180.8033 5.2452 34.0213 0.0000 30.2159 0.0000
# 2 5.2452 83.8503 9.3928 0.0000 -0.4176 0.0000
# 3 34.0213 9.3928 56.2831 0.0000 4.6720 0.0000
# 4 0.0000 0.0000 0.0000 -3.5019 0.0000 12.5817
# 5 30.2159 -0.4176 4.6720 0.0000 30.2260 0.0000
# 6 0.0000 0.0000 0.0000 12.5817 0.0000 18.2868
#
#
#
# Elastic Compliance Matrix: (Units=1/GPa)
#
#
# Indices 1 2 3 4 5 6 
#
# 1 0.007403 -0.000060 -0.003900 0.000000 -0.006798 0.000000
# 2 -0.000060 0.012161 -0.002038 0.000000 0.000543 0.000000
# 3 -0.003900 -0.002038 0.020406 0.000000 0.000717 0.000000
# 4 0.000000 0.000000 0.000000 -0.082248 0.000000 0.056588
# 5 -0.006798 0.000543 0.000717 0.000000 0.039777 0.000000
# 6 0.000000 0.000000 0.000000 0.056588 0.000000 0.015750
#
#
# Mechanical properties :
#
#
# Convention : Reuss Voigt Hill
#
# Bulk Modulus (GPa) = 35.75026 46.47282 41.11154
# Shear Modulus (GPa) = 144.63592 27.15400 85.89496
#
# Velocity S-wave (km/s) = 7.69503 3.33418 5.93002
# Velocity P-wave (km/s) = 9.67405 5.81792 7.98234
#
# Compressibility (1/GPa) = 0.02797183
#
# Stress axis : x y z
#
# Youngs Moduli (GPa) = 135.08700 82.23142 49.00612
#
# Poissons Ratio (x) = 0.00494 0.19114
# Poissons Ratio (y) = 0.00811 0.09989
# Poissons Ratio (z) = 0.52688 0.16761
#
# Static dielectric constant tensor:
#      x y z
#    x 2.023210 0.000000 0.000400 
#    y 0.000000 2.044410 0.000000 
#    z 0.000400 0.000000 1.952200 
# 
# From -- ./inp_files/63722.got.cif
#   From: 2010.05.17/outbox.cif.g08.bks.cpg/sg10_32_cif.got.tgz:63722.got - 2010.06.03 11:33:40.
