data_PCOD9149279
_publ_section_title
;
Structure prediction by ZEFSAII (Michael W. Deem and Ramdas Pophale) SiO2 
 PCOD9149279
Probable space group: P 2/M
;
_chemical_formula_sum "Si O2"
_cell_formula_units_Z 32
_cell_length_a 14.988188
_cell_length_b 14.403356
_cell_length_c 10.748523
_cell_angle_alpha 90.000000
_cell_angle_beta 40.002113
_cell_angle_gamma 90.000000
_cell_volume 1491.585664
_symmetry_space_group_name_H-M "P 2/M"
_symmetry_group_IT_number 10
_symmetry_cell_setting 'monoclinic'
loop_
_space_group_symop_operation_xyz
x,y,z
-x,y,-z
-x,-y,-z
x,-y,z
loop_
_atom_site_type_symbol
_atom_site_label
_atom_site_fract_x
_atom_site_fract_y
_atom_site_fract_z
Si Si1 0.680588 0.111747 0.558410
Si Si2 0.624684 0.395405 0.300467
Si Si3 0.839008 0.897813 0.132526
Si Si4 0.575778 0.187922 0.039979
Si Si5 0.625340 0.600548 0.017712
Si Si6 0.956878 0.393034 0.682780
Si Si7 0.908096 0.287604 0.973635
Si Si8 0.840783 0.111976 0.642285
O O1 0.753187 0.131091 0.347865
O O2 0.781387 0.139178 0.567680
O O3 0.664200 0.000000 0.582426
O O4 0.529346 0.158606 0.738185
O O5 0.500000 0.343014 0.500000
O O6 0.639807 0.500000 0.335878
O O7 0.574771 0.402241 0.212729
O O8 0.774018 0.350150 0.142555
O O9 0.845896 0.815821 0.025279
O O10 0.790751 0.000000 0.142014
O O11 0.000000 0.907399 0.000000
O O12 0.732845 0.152194 0.859152
O O13 0.500000 0.145181 0.000000
O O14 0.580797 0.298979 0.019389
O O15 0.592591 0.500000 0.995286
O O16 0.791236 0.603033 0.850829
O O17 0.008032 0.500000 0.646540
O O18 0.000000 0.360429 0.500000
O O19 0.986859 0.328204 0.769169
O O20 0.000000 0.288994 0.000000
O O21 0.000000 0.139380 0.500000
O O22 0.835457 0.000000 0.653077
#
# Coordination Sequence:
#
# PCOD9149279 Si02
#       8
#     4   4   4   4   4   4   4   4
#     4   9  18  35  60  83 115 158 201 250 312 374
#     4   9  19  36  58  82 113 152 189 237 304 363
#     4   9  19  37  58  82 118 161 199 246 311 369
#     4  10  20  34  54  87 116 156 203 256 301 360
#     4   9  19  36  54  77 113 158 198 235 294 368
#     4   9  19  39  63  88 124 165 198 242 318 382
#     4  10  20  36  61  96 118 153 207 262 293 356
#     4   9  18  35  57  86 119 155 201 256 313 369
#
# _framework density 21.453679999999999
#
# number of rings (size 3 to 8) (size 9 to 14) (size 15 to 20)
#    0.000    2.750    0.000    1.500    1.750    3.250 
#   18.000    0.000    0.000    8.250    0.000    0.000 
#    0.000    0.000    0.000    0.000    0.000    0.000 
#
# Total GULP energy -178244.986241 kJ/mol
# GULP energy per Si atom -5570.155820 kJ/mol
# Density = 2.140485 g / cm^3
# Si number density = 21.453680 Si / 1000 Ang^3
#
#
#
# Elastic Constant Matrix: (Units=GPa)
#
#
# Indices 1 2 3 4 5 6 
#
# 1 67.3759 28.9329 26.0130 0.0000 4.5445 0.0000
# 2 28.9329 108.7000 37.4170 0.0000 7.1317 0.0000
# 3 26.0130 37.4170 119.2758 0.0000 0.4785 0.0000
# 4 0.0000 0.0000 0.0000 15.0039 0.0000 -0.0242
# 5 4.5445 7.1317 0.4785 0.0000 31.1153 0.0000
# 6 0.0000 0.0000 0.0000 -0.0242 0.0000 -134.1859
#
#
#
# Elastic Compliance Matrix: (Units=1/GPa)
#
#
# Indices 1 2 3 4 5 6 
#
# 1 0.017553 -0.003639 -0.002680 0.000000 -0.001688 0.000000
# 2 -0.003639 0.011237 -0.002723 0.000000 -0.002002 0.000000
# 3 -0.002680 -0.002723 0.009819 0.000000 0.000865 0.000000
# 4 0.000000 0.000000 0.000000 0.066649 0.000000 -0.000012
# 5 -0.001688 -0.002002 0.000865 0.000000 0.032831 0.000000
# 6 0.000000 0.000000 0.000000 -0.000012 0.000000 -0.007452
#
#
# Mechanical properties :
#
#
# Convention : Reuss Voigt Hill
#
# Bulk Modulus (GPa) = 48.72087 53.34195 51.03141
# Shear Modulus (GPa) = 32.14117 -4.08075 14.03021
#
# Velocity S-wave (km/s) = 3.87481 -1.38067 2.56007
# Velocity P-wave (km/s) = 6.54049 4.73034 5.70763
#
# Compressibility (1/GPa) = 0.02052508
#
# Stress axis : x y z
#
# Youngs Moduli (GPa) = 56.96928 88.99143 101.84056
#
# Poissons Ratio (x) = 0.32383 0.27292
# Poissons Ratio (y) = 0.20731 0.27736
# Poissons Ratio (z) = 0.15267 0.24236
#
# Static dielectric constant tensor:
#      x y z
#    x 1.765770 0.000000 0.042210 
#    y 0.000000 1.853550 0.000000 
#    z 0.042210 0.000000 1.858360 
# 
# From -- ./inp_files/54017.got.cif
#   From: 2010.05.17/outbox.cif.g08.bks.cpg/sg10_28_cif.got.tgz:54017.got - 2010.06.03 11:33:40.
