data_PCOD9149971
_publ_section_title
;
Structure prediction by ZEFSAII (Michael W. Deem and Ramdas Pophale) SiO2 
 PCOD9149971
Probable space group: P 2/M
;
_chemical_formula_sum "Si O2"
_cell_formula_units_Z 16
_cell_length_a 9.886944
_cell_length_b 11.593445
_cell_length_c 7.122356
_cell_angle_alpha 90.000000
_cell_angle_beta 125.600785
_cell_angle_gamma 90.000000
_cell_volume 663.801708
_symmetry_space_group_name_H-M "P 2/M"
_symmetry_group_IT_number 10
_symmetry_cell_setting 'monoclinic'
loop_
_space_group_symop_operation_xyz
x,y,z
-x,y,-z
-x,-y,-z
x,-y,z
loop_
_atom_site_type_symbol
_atom_site_label
_atom_site_fract_x
_atom_site_fract_y
_atom_site_fract_z
Si Si1 0.262605 0.000000 0.591720
Si Si2 0.809117 0.253842 0.004107
Si Si3 0.870982 0.365122 0.649062
Si Si4 0.447267 0.761072 0.677730
Si Si5 0.102308 0.000000 0.872588
O O1 0.373436 0.887615 0.649384
O O2 0.196139 0.000000 0.749669
O O3 0.094438 0.000000 0.331184
O O4 0.829972 0.329978 0.832830
O O5 0.620799 0.262288 0.922229
O O6 0.842073 0.119180 0.987271
O O7 0.959809 0.295580 0.257256
O O8 0.900621 0.500000 0.654616
O O9 0.704861 0.325297 0.410166
O O10 0.500000 0.754413 0.500000
#
# Coordination Sequence:
#
# PCOD9149971 Si02
#       5
#     2   4   4   4   2
#     4  11  22  40  57  84 120 152 191 230 292 341
#     4  10  20  35  57  86 112 151 187 231 285 336
#     4  10  21  37  58  86 120 150 189 238 281 333
#     4  10  21  36  59  88 118 147 185 239 288 337
#     4  11  23  37  61  82 116 161 185 232 284 353
#
# _framework density 24.103584999999999
#
# number of rings (size 3 to 8) (size 9 to 14) (size 15 to 20)
#    0.000    1.750    2.500    2.625    0.000   12.500 
#    0.000    0.000    0.000    4.500    0.000   17.500 
#    0.000    0.000    0.000    0.000    0.000    0.000 
#
# Total GULP energy -89568.497204 kJ/mol
# GULP energy per Si atom -5598.031075 kJ/mol
# Density = 2.404872 g / cm^3
# Si number density = 24.103585 Si / 1000 Ang^3
#
#
#
# Elastic Constant Matrix: (Units=GPa)
#
#
# Indices 1 2 3 4 5 6 
#
# 1 144.8626 31.5536 67.0651 0.0000 55.4588 0.0000
# 2 31.5536 154.6042 28.8416 0.0000 33.3934 0.0000
# 3 67.0651 28.8416 102.5815 0.0000 41.6363 0.0000
# 4 0.0000 0.0000 0.0000 2.4180 0.0000 11.2752
# 5 55.4588 33.3934 41.6363 0.0000 70.9762 0.0000
# 6 0.0000 0.0000 0.0000 11.2752 0.0000 8.5685
#
#
#
# Elastic Compliance Matrix: (Units=1/GPa)
#
#
# Indices 1 2 3 4 5 6 
#
# 1 0.011593 -0.000116 -0.005108 0.000000 -0.006007 0.000000
# 2 -0.000116 0.007258 -0.000808 0.000000 -0.002851 0.000000
# 3 -0.005108 -0.000808 0.015148 0.000000 -0.004514 0.000000
# 4 0.000000 0.000000 0.000000 -0.080522 0.000000 0.105958
# 5 -0.006007 -0.002851 -0.004514 0.000000 0.022772 0.000000
# 6 0.000000 0.000000 0.000000 0.105958 0.000000 -0.022723
#
#
# Mechanical properties :
#
#
# Convention : Reuss Voigt Hill
#
# Bulk Modulus (GPa) = 45.59032 72.99655 59.29343
# Shear Modulus (GPa) = -184.51443 34.69842 -74.90801
#
# Velocity S-wave (km/s) = -8.75881 3.79826 -5.58077
# Velocity P-wave (km/s) = 9.12873 7.04173 4.10778
#
# Compressibility (1/GPa) = 0.02193448
#
# Stress axis : x y z
#
# Youngs Moduli (GPa) = 86.25801 137.77591 66.01726
#
# Poissons Ratio (x) = 0.01592 0.33725
# Poissons Ratio (y) = 0.00996 0.05335
# Poissons Ratio (z) = 0.44065 0.11135
#
# Static dielectric constant tensor:
#      x y z
#    x 1.938760 0.000000 -0.017530 
#    y 0.000000 1.817920 0.000000 
#    z -0.017530 0.000000 2.032820 
# 
# From -- ./inp_files/23724.got.cif
#   From: 2010.05.17/outbox.cif.g08.bks.cpg/sg10_12_cif.got.tgz:23724.got - 2010.06.03 11:33:40.
