data_PCOD9149278
_publ_section_title
;
Structure prediction by ZEFSAII (Michael W. Deem and Ramdas Pophale) SiO2 
 PCOD9149278
Probable space group: P 2/M
;
_chemical_formula_sum "Si O2"
_cell_formula_units_Z 20
_cell_length_a 10.053456
_cell_length_b 11.111968
_cell_length_c 9.768045
_cell_angle_alpha 90.000000
_cell_angle_beta 100.966827
_cell_angle_gamma 90.000000
_cell_volume 1071.295776
_symmetry_space_group_name_H-M "P 2/M"
_symmetry_group_IT_number 10
_symmetry_cell_setting 'monoclinic'
loop_
_space_group_symop_operation_xyz
x,y,z
-x,y,-z
-x,-y,-z
x,-y,z
loop_
_atom_site_type_symbol
_atom_site_label
_atom_site_fract_x
_atom_site_fract_y
_atom_site_fract_z
Si Si1 0.597533 0.357871 0.827754
Si Si2 0.339111 0.257737 0.441966
Si Si3 0.634213 0.000000 0.119702
Si Si4 0.867826 0.638571 0.400324
Si Si5 0.643526 0.000000 0.451868
Si Si6 0.305535 0.267699 0.872695
O O1 0.579253 0.500000 0.794830
O O2 0.671998 0.289211 0.719479
O O3 0.449766 0.296882 0.824986
O O4 0.680364 0.340831 0.984266
O O5 0.500000 0.267870 0.500000
O O6 0.254652 0.349979 0.516068
O O7 0.292275 0.125300 0.484210
O O8 0.703254 0.873720 0.099156
O O9 0.619584 0.000000 0.283345
O O10 0.500000 0.000000 0.000000
O O11 0.896992 0.500000 0.374884
O O12 0.815024 0.697648 0.251243
O O13 0.000000 0.692066 0.500000
O O14 0.500000 0.000000 0.500000
#
# Coordination Sequence:
#
# PCOD9149278 Si02
#       6
#     4   4   2   4   2   4
#     4  11  21  33  57  88 119 151 192 248 299 349
#     4  11  21  36  58  87 120 152 200 247 296 349
#     4  12  20  34  56  86 121 156 192 245 306 354
#     4  11  23  40  60  85 121 162 201 244 297 358
#     4  10  20  34  54  86 123 150 190 247 293 343
#     4  11  21  36  56  86 121 153 197 245 300 350
#
# _framework density 18.668980000000001
#
# number of rings (size 3 to 8) (size 9 to 14) (size 15 to 20)
#    0.000    1.000    6.000    4.200    0.000    0.800 
#    0.000    3.000    0.000    3.600    0.000    2.800 
#    0.000    0.000    0.000    0.000    0.000    0.000 
#
# Total GULP energy -111558.254871 kJ/mol
# GULP energy per Si atom -5577.912744 kJ/mol
# Density = 1.862649 g / cm^3
# Si number density = 18.668980 Si / 1000 Ang^3
#
#
#
# Elastic Constant Matrix: (Units=GPa)
#
#
# Indices 1 2 3 4 5 6 
#
# 1 33.1358 6.2954 25.1313 0.0000 20.1499 0.0000
# 2 6.2954 97.3001 24.6697 0.0000 17.2501 0.0000
# 3 25.1313 24.6697 127.2984 0.0000 16.5750 0.0000
# 4 0.0000 0.0000 0.0000 -48.9164 0.0000 94.6177
# 5 20.1499 17.2501 16.5750 0.0000 36.1414 0.0000
# 6 0.0000 0.0000 0.0000 94.6177 0.0000 -95.6404
#
#
#
# Elastic Compliance Matrix: (Units=1/GPa)
#
#
# Indices 1 2 3 4 5 6 
#
# 1 0.051447 0.003291 -0.007291 0.000000 -0.026910 0.000000
# 2 0.003291 0.011742 -0.002081 0.000000 -0.006485 0.000000
# 3 -0.007291 -0.002081 0.009614 0.000000 0.000649 0.000000
# 4 0.000000 0.000000 0.000000 0.022377 0.000000 0.022137
# 5 -0.026910 -0.006485 0.000649 0.000000 0.045470 0.000000
# 6 0.000000 0.000000 0.000000 0.022137 0.000000 0.011445
#
#
# Mechanical properties :
#
#
# Convention : Reuss Voigt Hill
#
# Bulk Modulus (GPa) = 16.49041 41.10303 28.79672
# Shear Modulus (GPa) = 27.10480 -8.24056 9.43212
#
# Velocity S-wave (km/s) = 3.81447 -2.10324 2.25017
# Velocity P-wave (km/s) = 5.31530 4.02074 4.71269
#
# Compressibility (1/GPa) = 0.06064131
#
# Stress axis : x y z
#
# Youngs Moduli (GPa) = 19.43738 85.16581 104.01907
#
# Poissons Ratio (x) = -0.28026 0.75836
# Poissons Ratio (y) = -0.06396 0.21644
# Poissons Ratio (z) = 0.14171 0.17721
#
# Static dielectric constant tensor:
#      x y z
#    x 1.639760 0.000000 0.009760 
#    y 0.000000 1.704130 0.000000 
#    z 0.009760 0.000000 1.674240 
# 
# From -- ./inp_files/23612.got.cif
#   From: 2010.05.17/outbox.cif.g08.bks.cpg/sg10_12_cif.got.tgz:23612.got - 2010.06.03 11:33:40.
