data_PCOD9149264
_publ_section_title
;
Structure prediction by ZEFSAII (Michael W. Deem and Ramdas Pophale) SiO2 
 PCOD9149264
Probable space group: P 2/M
;
_chemical_formula_sum "Si O2"
_cell_formula_units_Z 32
_cell_length_a 24.301855
_cell_length_b 7.503365
_cell_length_c 14.965954
_cell_angle_alpha 90.000000
_cell_angle_beta 149.409995
_cell_angle_gamma 90.000000
_cell_volume 1388.752624
_symmetry_space_group_name_H-M "P 2/M"
_symmetry_group_IT_number 10
_symmetry_cell_setting 'monoclinic'
loop_
_space_group_symop_operation_xyz
x,y,z
-x,y,-z
-x,-y,-z
x,-y,z
loop_
_atom_site_type_symbol
_atom_site_label
_atom_site_fract_x
_atom_site_fract_y
_atom_site_fract_z
Si Si1 0.492558 0.714336 0.224947
Si Si2 0.914069 0.294191 0.949391
Si Si3 0.587191 0.717991 0.694153
Si Si4 0.828417 0.794555 0.500771
Si Si5 0.000143 0.790488 0.399583
Si Si6 0.253372 0.211674 0.426230
Si Si7 0.392212 0.284604 0.903862
Si Si8 0.167289 0.284036 0.978257
O O1 0.485697 0.500000 0.214906
O O2 0.451014 0.778400 0.261999
O O3 0.618802 0.756002 0.386936
O O4 0.416601 0.776832 0.038244
O O5 0.946750 0.500000 0.007753
O O6 0.799917 0.289081 0.737555
O O7 0.898780 0.218035 0.027088
O O8 0.000000 0.212247 0.000000
O O9 0.500000 0.776305 0.500000
O O10 0.587346 0.500000 0.694444
O O11 0.708783 0.774640 0.842860
O O12 0.808042 0.716969 0.571046
O O13 0.713342 0.790776 0.290202
O O14 0.914074 0.711929 0.551692
O O15 0.861097 0.000000 0.560958
O O16 0.886946 0.772438 0.190189
O O17 0.000000 0.716132 0.500000
O O18 0.027992 0.000000 0.447613
O O19 0.237850 0.000000 0.400739
O O20 0.381068 0.500000 0.886790
O O21 0.500000 0.239320 0.000000
O O22 0.166327 0.500000 0.979696
#
# Coordination Sequence:
#
# PCOD9149264 Si02
#       8
#     4   4   4   4   4   4   4   4
#     4  10  20  35  55  79 110 146 184 227 281 339
#     4  10  21  37  59  85 113 145 183 228 284 341
#     4   9  18  34  57  83 113 148 184 228 282 338
#     4  10  22  38  56  79 112 151 191 232 280 338
#     4  10  23  42  60  81 113 156 196 233 286 340
#     4  11  22  35  55  84 113 145 185 230 278 334
#     4  10  20  34  54  83 112 143 184 233 285 333
#     4  10  21  38  61  89 115 147 193 239 285 336
#
# _framework density 23.042261
#
# number of rings (size 3 to 8) (size 9 to 14) (size 15 to 20)
#    0.000    2.000    1.250    1.875    1.750    4.750 
#    0.000    0.625    0.000    1.500    0.000    0.000 
#    0.000    0.000    0.000    0.000    0.000    0.000 
#
# Total GULP energy -178903.702301 kJ/mol
# GULP energy per Si atom -5590.740697 kJ/mol
# Density = 2.298982 g / cm^3
# Si number density = 23.042261 Si / 1000 Ang^3
#
#
#
# Elastic Constant Matrix: (Units=GPa)
#
#
# Indices 1 2 3 4 5 6 
#
# 1 156.1803 11.4698 39.2395 0.0000 -22.0521 0.0000
# 2 11.4698 65.9289 -9.4801 0.0000 -0.6091 0.0000
# 3 39.2395 -9.4801 103.8824 0.0000 -17.8522 0.0000
# 4 0.0000 0.0000 0.0000 2.9270 0.0000 3.7479
# 5 -22.0521 -0.6091 -17.8522 0.0000 47.0051 0.0000
# 6 0.0000 0.0000 0.0000 3.7479 0.0000 1.9091
#
#
#
# Elastic Compliance Matrix: (Units=1/GPa)
#
#
# Indices 1 2 3 4 5 6 
#
# 1 0.007525 -0.001653 -0.002557 0.000000 0.002538 0.000000
# 2 -0.001653 0.015760 0.002102 0.000000 0.000227 0.000000
# 3 -0.002557 0.002102 0.011321 0.000000 0.003127 0.000000
# 4 0.000000 0.000000 0.000000 -0.225685 0.000000 0.443069
# 5 0.002538 0.000227 0.003127 0.000000 0.023655 0.000000
# 6 0.000000 0.000000 0.000000 0.443069 0.000000 -0.346026
#
#
# Mechanical properties :
#
#
# Convention : Reuss Voigt Hill
#
# Bulk Modulus (GPa) = 32.90726 45.38336 39.14531
# Shear Modulus (GPa) = -10.01798 29.35240 9.66721
#
# Velocity S-wave (km/s) = -2.08737 3.57298 2.05050
# Velocity P-wave (km/s) = 2.91596 6.06300 4.75725
#
# Compressibility (1/GPa) = 0.03038843
#
# Stress axis : x y z
#
# Youngs Moduli (GPa) = 132.88878 63.45258 88.32803
#
# Poissons Ratio (x) = 0.10491 0.22588
# Poissons Ratio (y) = 0.21972 -0.18564
# Poissons Ratio (z) = 0.33983 -0.13336
#
# Static dielectric constant tensor:
#      x y z
#    x 1.872850 0.000000 -0.010620 
#    y 0.000000 1.881970 0.000000 
#    z -0.010620 0.000000 1.823790 
# 
# From -- ./inp_files/71689.got.cif
#   From: 2010.05.17/outbox.cif.g08.bks.cpg/sg10_36_cif.got.tgz:71689.got - 2010.06.03 11:33:40.
