data_PCOD9149206
_publ_section_title
;
Structure prediction by ZEFSAII (Michael W. Deem and Ramdas Pophale) SiO2 
 PCOD9149206
Probable space group: P 2/M
;
_chemical_formula_sum "Si O2"
_cell_formula_units_Z 24
_cell_length_a 15.717449
_cell_length_b 21.132568
_cell_length_c 13.339724
_cell_angle_alpha 90.000000
_cell_angle_beta 162.903061
_cell_angle_gamma 90.000000
_cell_volume 1302.604719
_symmetry_space_group_name_H-M "P 2/M"
_symmetry_group_IT_number 10
_symmetry_cell_setting 'monoclinic'
loop_
_space_group_symop_operation_xyz
x,y,z
-x,y,-z
-x,-y,-z
x,-y,z
loop_
_atom_site_type_symbol
_atom_site_label
_atom_site_fract_x
_atom_site_fract_y
_atom_site_fract_z
Si Si1 0.814152 0.681496 0.101611
Si Si2 0.127945 0.149731 0.328143
Si Si3 0.563297 0.925445 0.689060
Si Si4 0.178337 0.728934 0.108619
Si Si5 0.185213 0.570829 0.608465
Si Si6 0.380653 0.755793 0.753633
O O1 0.983607 0.616618 0.316173
O O2 0.051081 0.734093 0.394855
O O3 0.768792 0.687233 0.931515
O O4 0.544094 0.703335 0.866944
O O5 0.288502 0.100601 0.438271
O O6 0.350144 0.178265 0.659897
O O7 0.837880 0.114705 0.036168
O O8 0.017450 0.211395 0.143269
O O9 0.500000 0.914791 0.500000
O O10 0.607616 0.000000 0.753978
O O11 0.500000 0.750467 0.500000
O O12 0.000000 0.698271 0.000000
O O13 0.232305 0.500000 0.618320
O O14 0.000000 0.564854 0.500000
O O15 0.500000 0.595729 0.000000
O O16 0.500000 0.759834 0.000000
#
# Coordination Sequence:
#
# PCOD9149206 Si02
#       6
#     4   4   4   4   4   4
#     4  11  21  34  54  80 109 141 176 218 267 315
#     4  11  21  35  54  76 105 136 170 214 264 316
#     4  11  22  35  54  78 104 135 171 215 264 314
#     4  11  21  34  53  78 108 140 175 217 266 318
#     4  10  20  34  54  79 108 142 178 219 265 313
#     4  11  22  35  55  81 108 139 174 218 268 316
#
# _framework density 18.424623
#
# number of rings (size 3 to 8) (size 9 to 14) (size 15 to 20)
#    0.000    1.167    0.000   10.500    0.000    1.333 
#    0.000    0.000    0.000    4.000    0.000    0.000 
#    0.000    0.000    0.000    0.000    0.000    0.000 
#
# Total GULP energy -133834.474733 kJ/mol
# GULP energy per Si atom -5576.436447 kJ/mol
# Density = 1.838269 g / cm^3
# Si number density = 18.424623 Si / 1000 Ang^3
#
#
#
# Elastic Constant Matrix: (Units=GPa)
#
#
# Indices 1 2 3 4 5 6 
#
# 1 83.1791 14.2072 31.5670 0.0000 -7.4977 0.0000
# 2 14.2072 73.2406 12.4718 0.0000 -17.1473 0.0000
# 3 31.5670 12.4718 69.8362 0.0000 0.0744 0.0000
# 4 0.0000 0.0000 0.0000 -174.0242 0.0000 -0.0133
# 5 -7.4977 -17.1473 0.0744 0.0000 38.2574 0.0000
# 6 0.0000 0.0000 0.0000 -0.0133 0.0000 24.3015
#
#
#
# Elastic Compliance Matrix: (Units=1/GPa)
#
#
# Indices 1 2 3 4 5 6 
#
# 1 0.014925 -0.001224 -0.006530 0.000000 0.002389 0.000000
# 2 -0.001224 0.015894 -0.002293 0.000000 0.006889 0.000000
# 3 -0.006530 -0.002293 0.017683 0.000000 -0.002342 0.000000
# 4 0.000000 0.000000 0.000000 -0.005746 0.000000 -0.000003
# 5 0.002389 0.006889 -0.002342 0.000000 0.029699 0.000000
# 6 0.000000 0.000000 0.000000 -0.000003 0.000000 0.041150
#
#
# Mechanical properties :
#
#
# Convention : Reuss Voigt Hill
#
# Bulk Modulus (GPa) = 35.20057 38.08309 36.64183
# Shear Modulus (GPa) = 34.92414 -11.09241 11.91586
#
# Velocity S-wave (km/s) = 4.35847 -2.45632 2.54586
# Velocity P-wave (km/s) = 6.66896 3.55948 5.34532
#
# Compressibility (1/GPa) = 0.02840863
#
# Stress axis : x y z
#
# Youngs Moduli (GPa) = 67.00203 62.91613 56.55168
#
# Poissons Ratio (x) = 0.07699 0.36930
# Poissons Ratio (y) = 0.08199 0.12965
# Poissons Ratio (z) = 0.43754 0.14425
#
# Static dielectric constant tensor:
#      x y z
#    x 1.707720 0.000000 -0.018890 
#    y 0.000000 1.661900 0.000000 
#    z -0.018890 0.000000 1.663390 
# 
# From -- ./inp_files/52057.got.cif
#   From: 2010.05.17/outbox.cif.g08.bks.cpg/sg10_27_cif.got.tgz:52057.got - 2010.06.03 11:33:40.
