data_PCOD9149263
_publ_section_title
;
Structure prediction by ZEFSAII (Michael W. Deem and Ramdas Pophale) SiO2 
 PCOD9149263
Probable space group: P 2/M
;
_chemical_formula_sum "Si O2"
_cell_formula_units_Z 26
_cell_length_a 21.504901
_cell_length_b 7.483215
_cell_length_c 7.984462
_cell_angle_alpha 90.000000
_cell_angle_beta 120.951027
_cell_angle_gamma 90.000000
_cell_volume 1101.944580
_symmetry_space_group_name_H-M "P 2/M"
_symmetry_group_IT_number 10
_symmetry_cell_setting 'monoclinic'
loop_
_space_group_symop_operation_xyz
x,y,z
-x,y,-z
-x,-y,-z
x,-y,z
loop_
_atom_site_type_symbol
_atom_site_label
_atom_site_fract_x
_atom_site_fract_y
_atom_site_fract_z
Si Si1 0.422479 0.781435 0.320857
Si Si2 0.187387 0.215316 0.736920
Si Si3 0.150788 0.295110 0.304655
Si Si4 0.000000 0.752108 0.000000
Si Si5 0.683693 0.214715 0.531814
Si Si6 0.049393 0.783875 0.729077
Si Si7 0.651594 0.217929 0.111600
O O1 0.500000 0.726024 0.500000
O O2 0.361129 0.723028 0.369001
O O3 0.421373 0.000000 0.317290
O O4 0.406870 0.725063 0.107729
O O5 0.158740 0.269146 0.514703
O O6 0.131054 0.273020 0.799734
O O7 0.270567 0.271950 0.858366
O O8 0.186875 0.000000 0.740680
O O9 0.132566 0.500000 0.241799
O O10 0.230710 0.255536 0.343866
O O11 0.083294 0.181840 0.144781
O O12 0.013895 0.684849 0.833750
O O13 0.652306 0.277953 0.306964
O O14 0.677664 0.000000 0.520824
O O15 0.000000 0.754107 0.500000
O O16 0.046394 0.000000 0.757821
O O17 0.649614 0.000000 0.115529
#
# Coordination Sequence:
#
# PCOD9149263 Si02
#       7
#     4   4   4   2   4   4   4
#     4   9  17  29  50  84 117 141 171 214 270 330
#     4   9  18  36  57  79 108 141 185 232 274 324
#     4  11  23  39  56  78 111 147 190 233 276 331
#     4  12  24  36  54  78 113 150 183 228 287 332
#     4   9  19  35  56  79 107 143 181 226 274 318
#     4  10  20  34  54  83 110 138 182 232 279 331
#     4   8  15  28  48  75 108 139 173 214 261 316
#
# _framework density 23.594654999999999
#
# number of rings (size 3 to 8) (size 9 to 14) (size 15 to 20)
#    0.000    2.462    1.538    1.846    2.154    2.462 
#    0.000    5.385    0.000    0.462    0.000    4.308 
#    0.000    0.000    0.000    0.000    0.000    0.000 
#
# Total GULP energy -144996.205394 kJ/mol
# GULP energy per Si atom -5576.777131 kJ/mol
# Density = 2.354095 g / cm^3
# Si number density = 23.594655 Si / 1000 Ang^3
#
#
#
# Elastic Constant Matrix: (Units=GPa)
#
#
# Indices 1 2 3 4 5 6 
#
# 1 78.1878 0.4212 17.8930 0.0000 -9.8115 0.0000
# 2 0.4212 73.2425 3.6724 0.0000 -3.8257 0.0000
# 3 17.8930 3.6724 154.8088 0.0000 10.8128 0.0000
# 4 0.0000 0.0000 0.0000 -0.7014 0.0000 -1.6838
# 5 -9.8115 -3.8257 10.8128 0.0000 36.8550 0.0000
# 6 0.0000 0.0000 0.0000 -1.6838 0.0000 -13.1938
#
#
#
# Elastic Compliance Matrix: (Units=1/GPa)
#
#
# Indices 1 2 3 4 5 6 
#
# 1 0.013754 0.000237 -0.001891 0.000000 0.004241 0.000000
# 2 0.000237 0.013760 -0.000468 0.000000 0.001629 0.000000
# 3 -0.001891 -0.000468 0.006869 0.000000 -0.002567 0.000000
# 4 0.000000 0.000000 0.000000 -2.055293 0.000000 0.262304
# 5 0.004241 0.001629 -0.002567 0.000000 0.029185 0.000000
# 6 0.000000 0.000000 0.000000 0.262304 0.000000 -0.109269
#
#
# Mechanical properties :
#
#
# Convention : Reuss Voigt Hill
#
# Bulk Modulus (GPa) = 33.17974 38.91246 36.04610
# Shear Modulus (GPa) = -2.39612 23.54211 10.57299
#
# Velocity S-wave (km/s) = -1.00883 3.16218 2.11916
# Velocity P-wave (km/s) = 3.56874 5.46447 4.61499
#
# Compressibility (1/GPa) = 0.03013888
#
# Stress axis : x y z
#
# Youngs Moduli (GPa) = 72.70876 72.67212 145.58992
#
# Poissons Ratio (x) = -0.01724 0.27538
# Poissons Ratio (y) = -0.01725 0.06808
# Poissons Ratio (z) = 0.13753 0.03398
#
# Static dielectric constant tensor:
#      x y z
#    x 1.854540 0.000000 0.007700 
#    y 0.000000 2.014890 0.000000 
#    z 0.007700 0.000000 1.868700 
# 
# From -- ./inp_files/34292.got.cif
#   From: 2010.05.17/outbox.cif.g08.bks.cpg/sg10_18_cif.got.tgz:34292.got - 2010.06.03 11:33:40.
