data_PCOD9149371
_publ_section_title
;
Structure prediction by ZEFSAII (Michael W. Deem and Ramdas Pophale) SiO2 
 PCOD9149371
Probable space group: P 2/M
;
_chemical_formula_sum "Si O2"
_cell_formula_units_Z 32
_cell_length_a 14.360372
_cell_length_b 9.121467
_cell_length_c 14.404571
_cell_angle_alpha 90.000000
_cell_angle_beta 60.309657
_cell_angle_gamma 90.000000
_cell_volume 1639.109757
_symmetry_space_group_name_H-M "P 2/M"
_symmetry_group_IT_number 10
_symmetry_cell_setting 'monoclinic'
loop_
_space_group_symop_operation_xyz
x,y,z
-x,y,-z
-x,-y,-z
x,-y,z
loop_
_atom_site_type_symbol
_atom_site_label
_atom_site_fract_x
_atom_site_fract_y
_atom_site_fract_z
Si Si1 0.837524 0.825179 0.818636
Si Si2 0.712546 0.828009 0.552741
Si Si3 0.896533 0.176492 0.991611
Si Si4 0.619599 0.824325 0.405052
Si Si5 0.453326 0.665295 0.254834
Si Si6 0.882107 0.671623 0.601496
Si Si7 0.381648 0.330558 0.084161
Si Si8 0.311984 0.327050 0.819787
O O1 0.874857 0.750860 0.704665
O O2 0.717323 0.766961 0.897161
O O3 0.837318 0.000000 0.806919
O O4 0.904612 0.787290 0.878033
O O5 0.701739 0.795439 0.449152
O O6 0.597788 0.783957 0.652725
O O7 0.799448 0.739102 0.568196
O O8 0.732050 0.000000 0.555106
O O9 0.789635 0.247438 0.086344
O O10 0.886869 0.000000 0.002864
O O11 0.000000 0.221822 0.000000
O O12 0.500000 0.784223 0.500000
O O13 0.656049 0.738939 0.295930
O O14 0.618624 0.000000 0.387890
O O15 0.445168 0.500000 0.299039
O O16 0.386026 0.667512 0.193755
O O17 0.578662 0.691822 0.174646
O O18 0.858121 0.500000 0.626857
O O19 0.000000 0.686736 0.500000
O O20 0.370423 0.500000 0.057053
O O21 0.500000 0.276894 0.000000
O O22 0.290605 0.500000 0.823400
#
# Coordination Sequence:
#
# PCOD9149371 Si02
#       8
#     4   4   4   4   4   4   4   4
#     4  11  23  40  65  94 121 157 207 258 305 362
#     4  11  22  37  61  89 119 160 207 253 302 360
#     4  10  24  46  67  88 121 165 209 258 312 364
#     4  10  21  38  59  87 126 169 208 252 311 370
#     4  10  20  34  55  85 124 163 196 243 307 365
#     4  11  25  44  65  90 125 166 204 252 314 372
#     4  10  20  35  57  86 123 165 201 241 303 370
#     4  11  23  38  62  95 126 163 210 258 308 367
#
# _framework density 19.522793
#
# number of rings (size 3 to 8) (size 9 to 14) (size 15 to 20)
#    0.000    1.500    2.500    2.250    0.000    6.250 
#    0.000    3.750    0.000    0.000    0.000    0.000 
#    0.000    0.000    0.000    0.000    0.000    0.000 
#
# Total GULP energy -178768.131192 kJ/mol
# GULP energy per Si atom -5586.504100 kJ/mol
# Density = 1.947836 g / cm^3
# Si number density = 19.522793 Si / 1000 Ang^3
#
#
#
# Elastic Constant Matrix: (Units=GPa)
#
#
# Indices 1 2 3 4 5 6 
#
# 1 134.8691 59.0061 49.1319 0.0000 15.2952 0.0000
# 2 59.0061 62.3302 40.3589 0.0000 9.9002 0.0000
# 3 49.1319 40.3589 81.2312 0.0000 9.4684 0.0000
# 4 0.0000 0.0000 0.0000 26.7635 0.0000 -6.0709
# 5 15.2952 9.9002 9.4684 0.0000 28.6319 0.0000
# 6 0.0000 0.0000 0.0000 -6.0709 0.0000 11.4538
#
#
#
# Elastic Compliance Matrix: (Units=1/GPa)
#
#
# Indices 1 2 3 4 5 6 
#
# 1 0.013194 -0.010476 -0.002471 0.000000 -0.002609 0.000000
# 2 -0.010476 0.032532 -0.009536 0.000000 -0.002499 0.000000
# 3 -0.002471 -0.009536 0.018727 0.000000 -0.001575 0.000000
# 4 0.000000 0.000000 0.000000 0.042470 0.000000 0.022511
# 5 -0.002609 -0.002499 -0.001575 0.000000 0.037705 0.000000
# 6 0.000000 0.000000 0.000000 0.022511 0.000000 0.099239
#
#
# Mechanical properties :
#
#
# Convention : Reuss Voigt Hill
#
# Bulk Modulus (GPa) = 51.31645 63.93603 57.62624
# Shear Modulus (GPa) = 16.93033 22.03209 19.48121
#
# Velocity S-wave (km/s) = 2.94803 3.36301 3.16233
# Velocity P-wave (km/s) = 6.15876 6.92100 6.55098
#
# Compressibility (1/GPa) = 0.01948693
#
# Stress axis : x y z
#
# Youngs Moduli (GPa) = 75.79220 30.73894 53.39966
#
# Poissons Ratio (x) = 0.32201 0.13197
# Poissons Ratio (y) = 0.79398 0.50920
# Poissons Ratio (z) = 0.18731 0.29312
#
# Static dielectric constant tensor:
#      x y z
#    x 1.696870 0.000000 0.014010 
#    y 0.000000 1.652710 0.000000 
#    z 0.014010 0.000000 1.692250 
# 
# From -- ./inp_files/66537.got.cif
#   From: 2010.05.17/outbox.cif.g08.bks.cpg/sg10_34_cif.got.tgz:66537.got - 2010.06.03 11:33:40.
