data_PCOD9149476
_publ_section_title
;
Structure prediction by ZEFSAII (Michael W. Deem and Ramdas Pophale) SiO2 
 PCOD9149476
Probable space group: P 2/M
;
_chemical_formula_sum "Si O2"
_cell_formula_units_Z 28
_cell_length_a 16.971554
_cell_length_b 19.031347
_cell_length_c 9.786913
_cell_angle_alpha 90.000000
_cell_angle_beta 153.410622
_cell_angle_gamma 90.000000
_cell_volume 1414.882765
_symmetry_space_group_name_H-M "P 2/M"
_symmetry_group_IT_number 10
_symmetry_cell_setting 'monoclinic'
loop_
_space_group_symop_operation_xyz
x,y,z
-x,y,-z
-x,-y,-z
x,-y,z
loop_
_atom_site_type_symbol
_atom_site_label
_atom_site_fract_x
_atom_site_fract_y
_atom_site_fract_z
Si Si1 0.812833 0.180567 0.231281
Si Si2 0.702139 0.295668 0.857957
Si Si3 0.458225 0.577688 0.271933
Si Si4 0.803482 0.343992 0.721464
Si Si5 0.290708 0.225264 0.649552
Si Si6 0.475973 0.920200 0.309765
Si Si7 0.191102 0.922064 0.363150
O O1 0.801513 0.229962 0.346339
O O2 0.000000 0.144414 0.500000
O O3 0.784330 0.229786 0.057421
O O4 0.653574 0.126049 0.981832
O O5 0.500000 0.280364 0.500000
O O6 0.683787 0.359694 0.939156
O O7 0.801427 0.314379 0.872895
O O8 0.500000 0.572004 0.500000
O O9 0.403512 0.500000 0.140499
O O10 0.634470 0.603440 0.466223
O O11 0.765406 0.282165 0.552018
O O12 0.000000 0.373424 0.000000
O O13 0.237706 0.146355 0.522268
O O14 0.500000 0.231111 0.000000
O O15 0.500000 0.892185 0.500000
O O16 0.664811 0.921783 0.532633
O O17 0.407964 0.000000 0.214831
O O18 0.201556 0.000000 0.447235
O O19 0.000000 0.914896 0.000000
#
# Coordination Sequence:
#
# PCOD9149476 Si02
#       7
#     4   4   4   4   4   4   4
#     4  12  25  37  57  85 119 152 188 237 289 337
#     4   9  19  37  59  79 109 155 190 228 272 342
#     4   8  16  32  57  86 112 144 186 231 279 328
#     4  10  20  34  57  85 113 146 188 234 279 334
#     4  12  23  37  56  85 115 149 188 242 286 333
#     4  10  23  41  61  83 112 150 194 240 287 348
#     4  10  23  41  61  82 109 150 193 237 291 345
#
# _framework density 19.789625000000001
#
# number of rings (size 3 to 8) (size 9 to 14) (size 15 to 20)
#    0.000    2.143    1.429    3.429    4.000    1.429 
#    0.000    0.000    0.000    4.286    0.000    0.000 
#    0.000    1.143    0.000    0.000    0.000    0.000 
#
# Total GULP energy -156060.812234 kJ/mol
# GULP energy per Si atom -5573.600437 kJ/mol
# Density = 1.974458 g / cm^3
# Si number density = 19.789625 Si / 1000 Ang^3
#
#
#
# Elastic Constant Matrix: (Units=GPa)
#
#
# Indices 1 2 3 4 5 6 
#
# 1 83.1675 3.5758 33.0261 0.0000 13.3055 0.0000
# 2 3.5758 77.8396 34.4774 0.0000 -4.9278 0.0000
# 3 33.0261 34.4774 70.3302 0.0000 22.1142 0.0000
# 4 0.0000 0.0000 0.0000 0.9779 0.0000 -1.3775
# 5 13.3055 -4.9278 22.1142 0.0000 29.7969 0.0000
# 6 0.0000 0.0000 0.0000 -1.3775 0.0000 10.2633
#
#
#
# Elastic Compliance Matrix: (Units=1/GPa)
#
#
# Indices 1 2 3 4 5 6 
#
# 1 0.015375 0.003255 -0.008904 0.000000 0.000281 0.000000
# 2 0.003255 0.020668 -0.016016 0.000000 0.013851 0.000000
# 3 -0.008904 -0.016016 0.033698 0.000000 -0.023682 0.000000
# 4 0.000000 0.000000 0.000000 1.261042 0.000000 0.169256
# 5 0.000281 0.013851 -0.023682 0.000000 0.053301 0.000000
# 6 0.000000 0.000000 0.000000 0.169256 0.000000 0.120152
#
#
# Mechanical properties :
#
#
# Convention : Reuss Voigt Hill
#
# Bulk Modulus (GPa) = 37.86232 41.49954 39.68093
# Shear Modulus (GPa) = 3.21261 18.89148 11.05204
#
# Velocity S-wave (km/s) = 1.27550 3.09304 2.36577
# Velocity P-wave (km/s) = 4.61986 5.81134 5.24952
#
# Compressibility (1/GPa) = 0.02641148
#
# Stress axis : x y z
#
# Youngs Moduli (GPa) = 65.04140 48.38383 29.67578
#
# Poissons Ratio (x) = -0.15751 0.26424
# Poissons Ratio (y) = -0.21173 0.47528
# Poissons Ratio (z) = 0.57913 0.77490
#
# Static dielectric constant tensor:
#      x y z
#    x 1.726430 0.000000 -0.013130 
#    y 0.000000 1.738940 0.000000 
#    z -0.013130 0.000000 1.699670 
# 
# From -- ./inp_files/30495.got.cif
#   From: 2010.05.17/outbox.cif.g08.bks.cpg/sg10_16_cif.got.tgz:30495.got - 2010.06.03 11:33:40.
