data_PCOD9149129
_publ_section_title
;
Structure prediction by ZEFSAII (Michael W. Deem and Ramdas Pophale) SiO2 
 PCOD9149129
Probable space group: P 2/M
;
_chemical_formula_sum "Si O2"
_cell_formula_units_Z 28
_cell_length_a 16.349525
_cell_length_b 7.624855
_cell_length_c 21.693043
_cell_angle_alpha 90.000000
_cell_angle_beta 152.271777
_cell_angle_gamma 90.000000
_cell_volume 1258.258394
_symmetry_space_group_name_H-M "P 2/M"
_symmetry_group_IT_number 10
_symmetry_cell_setting 'monoclinic'
loop_
_space_group_symop_operation_xyz
x,y,z
-x,y,-z
-x,-y,-z
x,-y,z
loop_
_atom_site_type_symbol
_atom_site_label
_atom_site_fract_x
_atom_site_fract_y
_atom_site_fract_z
Si Si1 0.399674 0.701037 0.372400
Si Si2 0.599296 0.797771 0.006732
Si Si3 0.018345 0.201089 0.080185
Si Si4 0.066429 0.216116 0.844393
Si Si5 0.741503 0.797241 0.548738
Si Si6 0.916279 0.711770 0.537946
Si Si7 0.728492 0.712312 0.286606
O O1 0.500000 0.770949 0.500000
O O2 0.349683 0.500000 0.351276
O O3 0.224246 0.797495 0.235310
O O4 0.553471 0.705836 0.424298
O O5 0.454907 0.790126 0.856501
O O6 0.639056 0.000000 0.049726
O O7 0.500000 0.717024 0.000000
O O8 0.778515 0.722912 0.097729
O O9 0.921611 0.274889 0.076497
O O10 0.955327 0.000000 0.032493
O O11 0.000000 0.283452 0.000000
O O12 0.879178 0.271470 0.691350
O O13 0.068806 0.000000 0.846093
O O14 0.839200 0.782437 0.549184
O O15 0.707763 0.000000 0.539721
O O16 0.915519 0.500000 0.539912
O O17 0.798027 0.763291 0.400358
O O18 0.116393 0.765483 0.657129
O O19 0.715629 0.500000 0.276666
#
# Coordination Sequence:
#
# PCOD9149129 Si02
#       7
#     4   4   4   4   4   4   4
#     4  11  23  39  60  86 118 153 191 238 292 348
#     4  10  20  34  53  78 112 148 185 233 284 336
#     4  10  21  39  62  86 116 155 197 243 297 352
#     4   9  19  35  54  79 111 145 184 236 288 339
#     4  11  21  35  60  86 110 145 192 239 289 343
#     4   9  19  36  55  78 112 147 185 234 286 339
#     4   9  19  36  55  76 109 152 188 228 282 338
#
# _framework density 22.252981999999999
#
# number of rings (size 3 to 8) (size 9 to 14) (size 15 to 20)
#    0.000    2.143    1.429    2.571    0.000    4.571 
#    0.000    5.000    0.000    0.000    0.000    0.000 
#    0.000    0.000    0.000    0.000    0.000    0.000 
#
# Total GULP energy -156380.568249 kJ/mol
# GULP energy per Si atom -5585.020295 kJ/mol
# Density = 2.220233 g / cm^3
# Si number density = 22.252982 Si / 1000 Ang^3
#
#
#
# Elastic Constant Matrix: (Units=GPa)
#
#
# Indices 1 2 3 4 5 6 
#
# 1 144.3005 8.1540 19.5907 0.0000 2.0308 0.0000
# 2 8.1540 53.1006 -2.5069 0.0000 0.0837 0.0000
# 3 19.5907 -2.5069 64.0271 0.0000 9.2160 0.0000
# 4 0.0000 0.0000 0.0000 53.9265 0.0000 8.4730
# 5 2.0308 0.0837 9.2160 0.0000 29.0431 0.0000
# 6 0.0000 0.0000 0.0000 8.4730 0.0000 7.3040
#
#
#
# Elastic Compliance Matrix: (Units=1/GPa)
#
#
# Indices 1 2 3 4 5 6 
#
# 1 0.007311 -0.001232 -0.002318 0.000000 0.000228 0.000000
# 2 -0.001232 0.019077 0.001173 0.000000 -0.000341 0.000000
# 3 -0.002318 0.001173 0.017133 0.000000 -0.005278 0.000000
# 4 0.000000 0.000000 0.000000 0.022677 0.000000 -0.026306
# 5 0.000228 -0.000341 -0.005278 0.000000 0.036091 0.000000
# 6 0.000000 0.000000 0.000000 -0.026306 0.000000 0.167427
#
#
# Mechanical properties :
#
#
# Convention : Reuss Voigt Hill
#
# Bulk Modulus (GPa) = 25.79512 34.65597 30.22554
# Shear Modulus (GPa) = 17.39767 33.80076 25.59922
#
# Velocity S-wave (km/s) = 2.79913 3.90158 3.39539
# Velocity P-wave (km/s) = 4.69720 5.99198 5.38366
#
# Compressibility (1/GPa) = 0.03876702
#
# Stress axis : x y z
#
# Youngs Moduli (GPa) = 136.77777 52.41813 58.36579
#
# Poissons Ratio (x) = 0.06460 0.13530
# Poissons Ratio (y) = 0.16858 -0.06847
# Poissons Ratio (z) = 0.31706 -0.06150
#
# Static dielectric constant tensor:
#      x y z
#    x 1.855000 0.000000 -0.005990 
#    y 0.000000 1.831490 0.000000 
#    z -0.005990 0.000000 1.778760 
# 
# From -- ./inp_files/37031.got.cif
#   From: 2010.05.17/outbox.cif.g08.bks.cpg/sg10_19_cif.got.tgz:37031.got - 2010.06.03 11:33:40.
