data_PCOD9149356
_publ_section_title
;
Structure prediction by ZEFSAII (Michael W. Deem and Ramdas Pophale) SiO2 
 PCOD9149356
Probable space group: P 2/M
;
_chemical_formula_sum "Si O2"
_cell_formula_units_Z 28
_cell_length_a 15.263777
_cell_length_b 8.743089
_cell_length_c 19.316311
_cell_angle_alpha 90.000000
_cell_angle_beta 38.195952
_cell_angle_gamma 90.000000
_cell_volume 1593.996940
_symmetry_space_group_name_H-M "P 2/M"
_symmetry_group_IT_number 10
_symmetry_cell_setting 'monoclinic'
loop_
_space_group_symop_operation_xyz
x,y,z
-x,y,-z
-x,-y,-z
x,-y,z
loop_
_atom_site_type_symbol
_atom_site_label
_atom_site_fract_x
_atom_site_fract_y
_atom_site_fract_z
Si Si1 0.880427 0.181871 0.519209
Si Si2 0.011011 0.818137 0.156262
Si Si3 0.585111 0.676860 0.711095
Si Si4 0.260594 0.314524 0.753421
Si Si5 0.881549 0.684147 0.365953
Si Si6 0.429617 0.676992 0.447844
Si Si7 0.728282 0.315364 0.090098
O O1 0.723690 0.227466 0.642644
O O2 0.901955 0.263484 0.432022
O O3 0.000000 0.227037 0.500000
O O4 0.887241 0.000000 0.504545
O O5 0.873548 0.755591 0.200914
O O6 0.995929 0.750775 0.242650
O O7 0.009126 0.000000 0.158955
O O8 0.150178 0.758830 0.030897
O O9 0.606383 0.500000 0.718419
O O10 0.571547 0.676789 0.635580
O O11 0.431468 0.731077 0.831905
O O12 0.257449 0.500000 0.748587
O O13 0.415266 0.260574 0.629416
O O14 0.251736 0.278639 0.840856
O O15 0.879677 0.500000 0.364220
O O16 0.724643 0.742345 0.438859
O O17 0.427790 0.500000 0.471682
O O18 0.735627 0.500000 0.080259
#
# Coordination Sequence:
#
# PCOD9149356 Si02
#       7
#     4   4   4   4   4   4   4
#     4  10  20  34  55  84 113 133 151 187 246 309
#     4  12  24  33  44  69 105 139 171 211 260 304
#     4   8  15  30  53  78 100 127 168 209 242 285
#     4   9  17  32  52  71  94 129 175 219 254 292
#     4  10  20  36  55  73  97 132 174 211 247 296
#     4   7  13  28  50  72  92 121 164 212 253 288
#     4   9  18  34  54  73  96 133 180 219 248 286
#
# _framework density 17.565905000000001
#
# number of rings (size 3 to 8) (size 9 to 14) (size 15 to 20)
#    0.000    2.714    0.000    5.143    0.000    4.571 
#    0.000    9.286    0.000    0.857    0.000    6.000 
#    0.000    0.000    0.000    0.000    0.000    0.000 
#
# Total GULP energy -156118.561990 kJ/mol
# GULP energy per Si atom -5575.662928 kJ/mol
# Density = 1.752592 g / cm^3
# Si number density = 17.565905 Si / 1000 Ang^3
#
#
#
# Elastic Constant Matrix: (Units=GPa)
#
#
# Indices 1 2 3 4 5 6 
#
# 1 99.0141 33.2304 53.3223 0.0000 -15.3877 0.0000
# 2 33.2304 39.8236 39.4360 0.0000 -1.8908 0.0000
# 3 53.3223 39.4360 129.4487 0.0000 -7.9640 0.0000
# 4 0.0000 0.0000 0.0000 13.9981 0.0000 -0.9744
# 5 -15.3877 -1.8908 -7.9640 0.0000 16.7278 0.0000
# 6 0.0000 0.0000 0.0000 -0.9744 0.0000 23.4782
#
#
#
# Elastic Compliance Matrix: (Units=1/GPa)
#
#
# Indices 1 2 3 4 5 6 
#
# 1 0.017499 -0.010946 -0.003048 0.000000 0.013408 0.000000
# 2 -0.010946 0.042829 -0.009128 0.000000 -0.009574 0.000000
# 3 -0.003048 -0.009128 0.011873 0.000000 0.001817 0.000000
# 4 0.000000 0.000000 0.000000 0.071645 0.000000 0.002973
# 5 0.013408 -0.009574 0.001817 0.000000 0.071898 0.000000
# 6 0.000000 0.000000 0.000000 0.002973 0.000000 0.042716
#
#
# Mechanical properties :
#
#
# Convention : Reuss Voigt Hill
#
# Bulk Modulus (GPa) = 38.52634 57.80709 48.16672
# Shear Modulus (GPa) = 15.95625 20.32733 18.14179
#
# Velocity S-wave (km/s) = 3.01718 3.40546 3.21718
# Velocity P-wave (km/s) = 5.84105 6.96010 6.42499
#
# Compressibility (1/GPa) = 0.02595627
#
# Stress axis : x y z
#
# Youngs Moduli (GPa) = 57.14704 23.34855 84.22279
#
# Poissons Ratio (x) = 0.25558 0.25674
# Poissons Ratio (y) = 0.62555 0.76877
# Poissons Ratio (z) = 0.17421 0.21312
#
# Static dielectric constant tensor:
#      x y z
#    x 1.598190 0.000000 -0.010180 
#    y 0.000000 1.582550 0.000000 
#    z -0.010180 0.000000 1.621930 
# 
# From -- ./inp_files/77729.got.cif
#   From: 2010.05.17/outbox.cif.g08.bks.cpg/sg10_39_cif.got.tgz:77729.got - 2010.06.03 11:33:40.
