data_PCOD9149041
_publ_section_title
;
Structure prediction by ZEFSAII (Michael W. Deem and Ramdas Pophale) SiO2 
 PCOD9149041
Probable space group: P 2/M
;
_chemical_formula_sum "Si O2"
_cell_formula_units_Z 28
_cell_length_a 19.118045
_cell_length_b 7.597206
_cell_length_c 14.632710
_cell_angle_alpha 90.000000
_cell_angle_beta 35.009856
_cell_angle_gamma 90.000000
_cell_volume 1219.326808
_symmetry_space_group_name_H-M "P 2/M"
_symmetry_group_IT_number 10
_symmetry_cell_setting 'monoclinic'
loop_
_space_group_symop_operation_xyz
x,y,z
-x,y,-z
-x,-y,-z
x,-y,z
loop_
_atom_site_type_symbol
_atom_site_label
_atom_site_fract_x
_atom_site_fract_y
_atom_site_fract_z
Si Si1 0.830706 0.797063 0.027743
Si Si2 0.326549 0.699076 0.642645
Si Si3 0.859252 0.284290 0.643310
Si Si4 0.780182 0.287139 0.527100
Si Si5 0.538787 0.284361 0.674648
Si Si6 0.712241 0.701626 0.974344
Si Si7 0.909454 0.797332 0.212107
O O1 0.716211 0.786205 0.218160
O O2 0.803088 0.702399 0.963026
O O3 0.855204 0.000000 0.980286
O O4 0.953249 0.730025 0.946229
O O5 0.360352 0.500000 0.629938
O O6 0.425690 0.775498 0.466115
O O7 0.202334 0.698791 0.715176
O O8 0.860222 0.500000 0.645471
O O9 0.802739 0.232203 0.606621
O O10 0.000000 0.228506 0.500000
O O11 0.778257 0.221228 0.815304
O O12 0.788311 0.500000 0.514966
O O13 0.649677 0.237372 0.623696
O O14 0.881055 0.212500 0.350351
O O15 0.535295 0.500000 0.672179
O O16 0.412620 0.219281 0.852161
O O17 0.681447 0.500000 0.983037
O O18 0.901053 0.000000 0.188765
#
# Coordination Sequence:
#
# PCOD9149041 Si02
#       7
#     4   4   4   4   4   4   4
#     4  11  23  36  50  74 107 139 173 214 260 308
#     4  10  20  35  56  79 103 133 172 215 258 308
#     4   9  17  29  50  81 108 132 170 216 256 300
#     4   9  17  32  54  78 106 137 172 214 257 305
#     4   8  17  33  52  77 103 131 172 217 257 301
#     4  10  20  35  54  74 102 139 176 215 258 304
#     4  10  20  34  52  77 108 137 169 211 258 310
#
# _framework density 22.963491000000001
#
# number of rings (size 3 to 8) (size 9 to 14) (size 15 to 20)
#    0.000    2.429    0.000    3.429    0.000    6.286 
#    0.000   10.000    0.000    2.571    0.000    5.000 
#    0.000    0.000    0.000    0.000    0.000    0.000 
#
# Total GULP energy -156434.239149 kJ/mol
# GULP energy per Si atom -5586.937112 kJ/mol
# Density = 2.291122 g / cm^3
# Si number density = 22.963491 Si / 1000 Ang^3
#
#
#
# Elastic Constant Matrix: (Units=GPa)
#
#
# Indices 1 2 3 4 5 6 
#
# 1 55.5303 -1.9909 28.7341 0.0000 10.7126 0.0000
# 2 -1.9909 52.4909 4.1645 0.0000 -2.5869 0.0000
# 3 28.7341 4.1645 162.2118 0.0000 9.6490 0.0000
# 4 0.0000 0.0000 0.0000 22.5974 0.0000 -12.3876
# 5 10.7126 -2.5869 9.6490 0.0000 47.8048 0.0000
# 6 0.0000 0.0000 0.0000 -12.3876 0.0000 -19.5128
#
#
#
# Elastic Compliance Matrix: (Units=1/GPa)
#
#
# Indices 1 2 3 4 5 6 
#
# 1 0.020562 0.000862 -0.003434 0.000000 -0.003868 0.000000
# 2 0.000862 0.019188 -0.000704 0.000000 0.000987 0.000000
# 3 -0.003434 -0.000704 0.006830 0.000000 -0.000647 0.000000
# 4 0.000000 0.000000 0.000000 0.032828 0.000000 -0.020841
# 5 -0.003868 0.000987 -0.000647 0.000000 0.021969 0.000000
# 6 0.000000 0.000000 0.000000 -0.020841 0.000000 -0.038018
#
#
# Mechanical properties :
#
#
# Convention : Reuss Voigt Hill
#
# Bulk Modulus (GPa) = 24.98325 36.89428 30.93877
# Shear Modulus (GPa) = 60.05596 26.13289 43.09442
#
# Velocity S-wave (km/s) = 5.11953 3.37711 4.33673
# Velocity P-wave (km/s) = 6.77121 5.59535 6.21117
#
# Compressibility (1/GPa) = 0.04002681
#
# Stress axis : x y z
#
# Youngs Moduli (GPa) = 48.63242 52.11564 146.41894
#
# Poissons Ratio (x) = -0.04491 0.50287
# Poissons Ratio (y) = -0.04191 0.10308
# Poissons Ratio (z) = 0.16703 0.03669
#
# Static dielectric constant tensor:
#      x y z
#    x 1.840880 0.000000 -0.012580 
#    y 0.000000 1.837800 0.000000 
#    z -0.012580 0.000000 1.862740 
# 
# From -- ./inp_files/49373.got.cif
#   From: 2010.05.17/outbox.cif.g08.bks.cpg/sg10_25_cif.got.tgz:49373.got - 2010.06.03 11:33:40.
