data_PCOD9149033
_publ_section_title
;
Structure prediction by ZEFSAII (Michael W. Deem and Ramdas Pophale) SiO2 
 PCOD9149033
Probable space group: P 2/M
;
_chemical_formula_sum "Si O2"
_cell_formula_units_Z 28
_cell_length_a 5.505113
_cell_length_b 9.754772
_cell_length_c 27.022987
_cell_angle_alpha 90.000000
_cell_angle_beta 70.521247
_cell_angle_gamma 90.000000
_cell_volume 1368.107620
_symmetry_space_group_name_H-M "P 2/M"
_symmetry_group_IT_number 10
_symmetry_cell_setting 'monoclinic'
loop_
_space_group_symop_operation_xyz
x,y,z
-x,y,-z
-x,-y,-z
x,-y,z
loop_
_atom_site_type_symbol
_atom_site_label
_atom_site_fract_x
_atom_site_fract_y
_atom_site_fract_z
Si Si1 0.125061 0.153715 0.849256
Si Si2 0.545526 0.345757 0.793196
Si Si3 0.271554 0.148049 0.953893
Si Si4 0.652568 0.649888 0.900274
Si Si5 0.924340 0.165985 0.709840
Si Si6 0.702821 0.832615 0.528754
Si Si7 0.480048 0.165121 0.350695
O O1 0.308074 0.241993 0.801003
O O2 0.240884 0.140416 0.896603
O O3 0.873027 0.239573 0.877617
O O4 0.081536 0.000000 0.832811
O O5 0.528504 0.500000 0.772521
O O6 0.543504 0.365159 0.852296
O O7 0.797256 0.260849 0.760416
O O8 0.444042 0.280805 0.949652
O O9 0.387565 0.000000 0.959831
O O10 0.000000 0.159725 0.000000
O O11 0.743786 0.500000 0.910601
O O12 0.223688 0.203260 0.681082
O O13 0.737946 0.197853 0.675325
O O14 0.906361 0.000000 0.720242
O O15 0.500000 0.790278 0.500000
O O16 0.605495 0.786053 0.589206
O O17 0.000000 0.790593 0.500000
O O18 0.702861 0.000000 0.528576
O O19 0.484271 0.000000 0.352545
#
# Coordination Sequence:
#
# PCOD9149033 Si02
#       7
#     4   4   4   4   4   4   4
#     4  10  20  35  57  80 103 135 176 220 267 327
#     4  10  22  38  54  75 103 138 180 226 274 328
#     4   9  19  36  55  77 105 137 175 219 266 322
#     4  10  21  36  54  77 106 138 174 222 273 328
#     4  10  20  34  52  76 108 147 184 230 284 336
#     4   9  15  24  42  68 102 145 182 219 274 334
#     4   9  18  31  47  74 111 145 185 231 278 335
#
# _framework density 20.466225999999999
#
# number of rings (size 3 to 8) (size 9 to 14) (size 15 to 20)
#    0.000    2.429    0.000    2.143    2.000    6.571 
#    0.000    2.857    0.000    0.000    0.000    0.000 
#    0.000   11.429    0.000    0.000    0.000    0.000 
#
# Total GULP energy -156056.436607 kJ/mol
# GULP energy per Si atom -5573.444165 kJ/mol
# Density = 2.041964 g / cm^3
# Si number density = 20.466226 Si / 1000 Ang^3
#
#
#
# Elastic Constant Matrix: (Units=GPa)
#
#
# Indices 1 2 3 4 5 6 
#
# 1 94.8673 37.0440 36.8567 0.0000 -8.6993 0.0000
# 2 37.0440 128.7351 34.1420 0.0000 -22.0721 0.0000
# 3 36.8567 34.1420 100.9628 0.0000 -12.8533 0.0000
# 4 0.0000 0.0000 0.0000 25.8432 0.0000 2.0318
# 5 -8.6993 -22.0721 -12.8533 0.0000 38.3091 0.0000
# 6 0.0000 0.0000 0.0000 2.0318 0.0000 16.7088
#
#
#
# Elastic Compliance Matrix: (Units=1/GPa)
#
#
# Indices 1 2 3 4 5 6 
#
# 1 0.013114 -0.002734 -0.003849 0.000000 0.000112 0.000000
# 2 -0.002734 0.009776 -0.001744 0.000000 0.004427 0.000000
# 3 -0.003849 -0.001744 0.012181 0.000000 0.002208 0.000000
# 4 0.000000 0.000000 0.000000 0.039068 0.000000 -0.004751
# 5 0.000112 0.004427 0.002208 0.000000 0.029420 0.000000
# 6 0.000000 0.000000 0.000000 -0.004751 0.000000 0.060426
#
#
# Mechanical properties :
#
#
# Convention : Reuss Voigt Hill
#
# Bulk Modulus (GPa) = 54.29766 60.07229 57.18497
# Shear Modulus (GPa) = 26.76976 30.60706 28.68841
#
# Velocity S-wave (km/s) = 3.62055 3.87135 3.74805
# Velocity P-wave (km/s) = 6.63821 7.02843 6.83610
#
# Compressibility (1/GPa) = 0.01841700
#
# Stress axis : x y z
#
# Youngs Moduli (GPa) = 76.25444 102.28997 82.09809
#
# Poissons Ratio (x) = 0.27964 0.31596
# Poissons Ratio (y) = 0.20846 0.14321
# Poissons Ratio (z) = 0.29347 0.17844
#
# Static dielectric constant tensor:
#      x y z
#    x 1.818450 0.000000 0.033380 
#    y 0.000000 1.768310 0.000000 
#    z 0.033380 0.000000 1.741230 
# 
# From -- ./inp_files/13588.got.cif
#   From: 2010.05.17/outbox.cif.g08.bks.cpg/sg10_7_cif.got.tgz:13588.got - 2010.06.03 11:33:40.
