data_PCOD9149797
_publ_section_title
;
Structure prediction by ZEFSAII (Michael W. Deem and Ramdas Pophale) SiO2 
 PCOD9149797
Probable space group: P 2/M
;
_chemical_formula_sum "Si O2"
_cell_formula_units_Z 32
_cell_length_a 10.997691
_cell_length_b 7.641489
_cell_length_c 19.157615
_cell_angle_alpha 90.000000
_cell_angle_beta 121.419118
_cell_angle_gamma 90.000000
_cell_volume 1373.921220
_symmetry_space_group_name_H-M "P 2/M"
_symmetry_group_IT_number 10
_symmetry_cell_setting 'monoclinic'
loop_
_space_group_symop_operation_xyz
x,y,z
-x,y,-z
-x,-y,-z
x,-y,z
loop_
_atom_site_type_symbol
_atom_site_label
_atom_site_fract_x
_atom_site_fract_y
_atom_site_fract_z
Si Si1 0.324852 0.798824 0.394953
Si Si2 0.562851 0.205046 0.371522
Si Si3 0.891386 0.287839 0.317750
Si Si4 0.438836 0.795764 0.779906
Si Si5 0.932148 0.711374 0.767487
Si Si6 0.917976 0.285608 0.044836
Si Si7 0.155136 0.698633 0.478716
Si Si8 0.596075 0.296736 0.966389
O O1 0.473087 0.724881 0.410234
O O2 0.219443 0.791917 0.297185
O O3 0.240520 0.701325 0.430499
O O4 0.340752 0.000000 0.424411
O O5 0.520426 0.280222 0.283820
O O6 0.731336 0.218870 0.435092
O O7 0.527422 0.000000 0.359509
O O8 0.887018 0.500000 0.321091
O O9 0.732080 0.219400 0.270318
O O10 0.962651 0.241858 0.264843
O O11 0.000761 0.226681 0.411384
O O12 0.509761 0.710565 0.868319
O O13 0.477837 0.000000 0.794029
O O14 0.917624 0.500000 0.762976
O O15 0.996620 0.765540 0.860306
O O16 0.915637 0.500000 0.041947
O O17 0.754556 0.223606 0.002305
O O18 0.000000 0.227201 0.000000
O O19 0.136365 0.500000 0.496340
O O20 0.619342 0.500000 0.993039
O O21 0.500000 0.218337 0.000000
#
# Coordination Sequence:
#
# PCOD9149797 Si02
#       8
#     4   4   4   4   4   4   4   4
#     4  10  20  35  56  80 113 154 188 223 278 341
#     4  10  23  39  53  77 117 155 185 227 282 336
#     4   9  19  37  57  80 110 144 184 233 286 333
#     4  11  24  39  57  83 114 149 191 234 276 333
#     4   9  18  34  57  83 111 142 183 236 281 330
#     4   9  18  32  54  85 115 144 185 237 289 342
#     4  10  21  37  59  86 111 141 188 239 280 329
#     4  10  21  39  62  85 113 152 193 238 295 349
#
# _framework density 23.291
#
# number of rings (size 3 to 8) (size 9 to 14) (size 15 to 20)
#    0.000    2.250    0.000    3.000    1.750    8.750 
#    0.000    3.125    0.000    0.750    0.000    0.000 
#    0.000    0.000    0.000    0.000    0.000    0.000 
#
# Total GULP energy -178820.997462 kJ/mol
# GULP energy per Si atom -5588.156171 kJ/mol
# Density = 2.323799 g / cm^3
# Si number density = 23.291000 Si / 1000 Ang^3
#
#
#
# Elastic Constant Matrix: (Units=GPa)
#
#
# Indices 1 2 3 4 5 6 
#
# 1 118.9138 6.3014 41.4765 0.0000 3.9104 0.0000
# 2 6.3014 46.5816 -10.1421 0.0000 -1.2918 0.0000
# 3 41.4765 -10.1421 130.7888 0.0000 1.0975 0.0000
# 4 0.0000 0.0000 0.0000 32.5055 0.0000 14.5275
# 5 3.9104 -1.2918 1.0975 0.0000 39.4359 0.0000
# 6 0.0000 0.0000 0.0000 14.5275 0.0000 19.5310
#
#
#
# Elastic Compliance Matrix: (Units=1/GPa)
#
#
# Indices 1 2 3 4 5 6 
#
# 1 0.009670 -0.002034 -0.003216 0.000000 -0.000936 0.000000
# 2 -0.002034 0.022282 0.002366 0.000000 0.000866 0.000000
# 3 -0.003216 0.002366 0.008848 0.000000 0.000150 0.000000
# 4 0.000000 0.000000 0.000000 0.046084 0.000000 -0.034278
# 5 -0.000936 0.000866 0.000150 0.000000 0.025475 0.000000
# 6 0.000000 0.000000 0.000000 -0.034278 0.000000 0.076697
#
#
# Mechanical properties :
#
#
# Convention : Reuss Voigt Hill
#
# Bulk Modulus (GPa) = 28.54710 41.28399 34.91554
# Shear Modulus (GPa) = 24.21281 35.53772 29.87526
#
# Velocity S-wave (km/s) = 3.22775 3.91040 3.58536
# Velocity P-wave (km/s) = 5.11610 6.17674 5.67127
#
# Compressibility (1/GPa) = 0.03502983
#
# Stress axis : x y z
#
# Youngs Moduli (GPa) = 103.41336 44.87929 113.01812
#
# Poissons Ratio (x) = 0.09130 0.36352
# Poissons Ratio (y) = 0.21038 -0.26737
# Poissons Ratio (z) = 0.33263 -0.10617
#
# Static dielectric constant tensor:
#      x y z
#    x 1.898740 0.000000 -0.015880 
#    y 0.000000 1.847280 0.000000 
#    z -0.015880 0.000000 1.853740 
# 
# From -- ./inp_files/83620.got.cif
#   From: 2010.05.17/outbox.cif.g08.bks.cpg/sg10_42_cif.got.tgz:83620.got - 2010.06.03 11:33:40.
