data_PCOD9149825
_publ_section_title
;
Structure prediction by ZEFSAII (Michael W. Deem and Ramdas Pophale) SiO2 
 PCOD9149825
Probable space group: P 2/M
;
_chemical_formula_sum "Si O2"
_cell_formula_units_Z 32
_cell_length_a 26.976947
_cell_length_b 7.716911
_cell_length_c 12.009588
_cell_angle_alpha 90.000000
_cell_angle_beta 31.993967
_cell_angle_gamma 90.000000
_cell_volume 1324.649305
_symmetry_space_group_name_H-M "P 2/M"
_symmetry_group_IT_number 10
_symmetry_cell_setting 'monoclinic'
loop_
_space_group_symop_operation_xyz
x,y,z
-x,y,-z
-x,-y,-z
x,-y,z
loop_
_atom_site_type_symbol
_atom_site_label
_atom_site_fract_x
_atom_site_fract_y
_atom_site_fract_z
Si Si1 0.411079 0.211327 0.383026
Si Si2 0.921742 0.798039 0.368697
Si Si3 0.939450 0.694404 0.711430
Si Si4 0.792917 0.794209 0.155259
Si Si5 0.138804 0.798878 0.749266
Si Si6 0.719686 0.298928 0.834557
Si Si7 0.441164 0.297055 0.714678
Si Si8 0.354722 0.199944 0.254178
O O1 0.312501 0.268746 0.626125
O O2 0.491768 0.281341 0.306765
O O3 0.413012 0.265784 0.249438
O O4 0.414204 0.000000 0.376918
O O5 0.990178 0.698088 0.318828
O O6 0.915616 0.727439 0.253909
O O7 0.816970 0.791359 0.619064
O O8 0.951356 0.000000 0.309797
O O9 0.918608 0.500000 0.712449
O O10 0.000000 0.785568 0.500000
O O11 0.842639 0.765471 0.943478
O O12 0.856449 0.722471 0.136340
O O13 0.788778 0.000000 0.181466
O O14 0.248102 0.799545 0.504552
O O15 0.109454 0.000000 0.812625
O O16 0.741349 0.500000 0.814574
O O17 0.655780 0.289570 0.844466
O O18 0.658645 0.225727 0.053176
O O19 0.500000 0.219310 0.500000
O O20 0.424773 0.500000 0.720049
O O21 0.381748 0.000000 0.181133
#
# Coordination Sequence:
#
# PCOD9149825 Si02
#       8
#     4   4   4   4   4   4   4   4
#     4   9  19  36  59  85 111 140 177 226 275 320
#     4  10  20  37  61  84 109 142 178 220 273 327
#     4  11  25  41  54  75 110 148 186 226 267 316
#     4   9  18  36  60  84 110 139 176 221 270 322
#     4   7  13  29  54  82 109 136 166 208 265 324
#     4  10  20  35  56  82 112 144 180 223 269 320
#     4  10  23  40  54  73 107 150 190 226 270 325
#     4   8  15  31  54  81 112 142 173 212 268 330
#
# _framework density 24.157336999999998
#
# number of rings (size 3 to 8) (size 9 to 14) (size 15 to 20)
#    0.000    2.750    0.000    3.375    0.000    5.250 
#    0.000   14.375    0.000    0.000    0.000    0.000 
#    0.000    0.000    0.000    0.000    0.000    0.000 
#
# Total GULP energy -178653.656125 kJ/mol
# GULP energy per Si atom -5582.926754 kJ/mol
# Density = 2.410235 g / cm^3
# Si number density = 24.157337 Si / 1000 Ang^3
#
#
#
# Elastic Constant Matrix: (Units=GPa)
#
#
# Indices 1 2 3 4 5 6 
#
# 1 25.7916 -10.0738 14.0099 0.0000 -4.9351 0.0000
# 2 -10.0738 43.1817 0.0430 0.0000 7.2774 0.0000
# 3 14.0099 0.0430 168.5564 0.0000 21.8654 0.0000
# 4 0.0000 0.0000 0.0000 17.8342 0.0000 1.0085
# 5 -4.9351 7.2774 21.8654 0.0000 20.3822 0.0000
# 6 0.0000 0.0000 0.0000 1.0085 0.0000 21.4351
#
#
#
# Elastic Compliance Matrix: (Units=1/GPa)
#
#
# Indices 1 2 3 4 5 6 
#
# 1 0.048287 0.008750 -0.005956 0.000000 0.014957 0.000000
# 2 0.008750 0.026481 0.000253 0.000000 -0.007608 0.000000
# 3 -0.005956 0.000253 0.007698 0.000000 -0.009790 0.000000
# 4 0.000000 0.000000 0.000000 0.056221 0.000000 -0.002645
# 5 0.014957 -0.007608 -0.009790 0.000000 0.065903 0.000000
# 6 0.000000 0.000000 0.000000 -0.002645 0.000000 0.046777
#
#
# Mechanical properties :
#
#
# Convention : Reuss Voigt Hill
#
# Bulk Modulus (GPa) = 11.29179 27.27645 19.28412
# Shear Modulus (GPa) = 18.19548 27.50034 22.84791
#
# Velocity S-wave (km/s) = 2.74744 3.37766 3.07872
# Velocity P-wave (km/s) = 3.84044 5.15045 4.54291
#
# Compressibility (1/GPa) = 0.08855995
#
# Stress axis : x y z
#
# Youngs Moduli (GPa) = 20.70941 37.76275 129.90866
#
# Poissons Ratio (x) = -0.33043 0.77373
# Poissons Ratio (y) = -0.18121 -0.03284
# Poissons Ratio (z) = 0.12334 -0.00955
#
# Static dielectric constant tensor:
#      x y z
#    x 1.929520 0.000000 0.009940 
#    y 0.000000 1.877870 0.000000 
#    z 0.009940 0.000000 2.001660 
# 
# From -- ./inp_files/58112.got.cif
#   From: 2010.05.17/outbox.cif.g08.bks.cpg/sg10_30_cif.got.tgz:58112.got - 2010.06.03 11:33:40.
