data_PCOD9149925
_publ_section_title
;
Structure prediction by ZEFSAII (Michael W. Deem and Ramdas Pophale) SiO2 
 PCOD9149925
Probable space group: P 2/M
;
_chemical_formula_sum "Si O2"
_cell_formula_units_Z 24
_cell_length_a 26.353113
_cell_length_b 11.880920
_cell_length_c 9.120380
_cell_angle_alpha 90.000000
_cell_angle_beta 150.771544
_cell_angle_gamma 90.000000
_cell_volume 1394.362034
_symmetry_space_group_name_H-M "P 2/M"
_symmetry_group_IT_number 10
_symmetry_cell_setting 'monoclinic'
loop_
_space_group_symop_operation_xyz
x,y,z
-x,y,-z
-x,-y,-z
x,-y,z
loop_
_atom_site_type_symbol
_atom_site_label
_atom_site_fract_x
_atom_site_fract_y
_atom_site_fract_z
Si Si1 0.896572 0.363354 0.323001
Si Si2 0.551676 0.000000 0.362983
Si Si3 0.111976 0.366059 0.357971
Si Si4 0.670095 0.000000 0.365875
Si Si5 0.509358 0.243636 0.355758
Si Si6 0.292445 0.243627 0.635552
Si Si7 0.687230 0.365191 0.623544
O O1 0.900151 0.500000 0.331124
O O2 0.893298 0.330496 0.485120
O O3 0.000000 0.323481 0.500000
O O4 0.792474 0.330831 0.974331
O O5 0.641356 0.000000 0.465663
O O6 0.551713 0.115158 0.453824
O O7 0.442165 0.000000 0.998750
O O8 0.137232 0.500000 0.416277
O O9 0.198467 0.297442 0.488486
O O10 0.000000 0.351955 0.000000
O O11 0.725483 0.114265 0.456760
O O12 0.500000 0.279798 0.500000
O O13 0.589085 0.319260 0.465450
O O14 0.397179 0.247501 0.996045
O O15 0.311220 0.312762 0.533958
O O16 0.684459 0.500000 0.607615
#
# Coordination Sequence:
#
# PCOD9149925 Si02
#       7
#     4   2   4   2   4   4   4
#     4   9  18  34  54  77 107 141 179 219 257 309
#     4   9  17  36  56  76 102 138 186 225 258 318
#     4  10  20  35  57  84 110 141 180 219 264 321
#     4   9  18  34  57  78 101 138 183 225 266 310
#     4  11  22  35  54  80 110 142 180 224 270 320
#     4  11  21  36  56  79 108 141 181 225 268 318
#     4  11  22  34  52  79 110 145 179 217 271 324
#
# _framework density 17.212173
#
# number of rings (size 3 to 8) (size 9 to 14) (size 15 to 20)
#    0.000    1.833    1.667    3.250    0.000    5.000 
#    0.000    0.417    0.000    0.000    0.000    4.083 
#    0.000    0.000    0.000    0.000    0.000    0.000 
#
# Total GULP energy -133979.971935 kJ/mol
# GULP energy per Si atom -5582.498831 kJ/mol
# Density = 1.717300 g / cm^3
# Si number density = 17.212173 Si / 1000 Ang^3
#
#
#
# Elastic Constant Matrix: (Units=GPa)
#
#
# Indices 1 2 3 4 5 6 
#
# 1 181.0751 62.9654 65.6242 0.0000 5.6759 0.0000
# 2 62.9654 92.7944 45.4205 0.0000 11.4167 0.0000
# 3 65.6242 45.4205 86.4494 0.0000 3.1010 0.0000
# 4 0.0000 0.0000 0.0000 0.0107 0.0000 0.8566
# 5 5.6759 11.4167 3.1010 0.0000 34.3857 0.0000
# 6 0.0000 0.0000 0.0000 0.8566 0.0000 25.8123
#
#
#
# Elastic Compliance Matrix: (Units=1/GPa)
#
#
# Indices 1 2 3 4 5 6 
#
# 1 0.008370 -0.003485 -0.004529 0.000000 0.000184 0.000000
# 2 -0.003485 0.016572 -0.005903 0.000000 -0.004394 0.000000
# 3 -0.004529 -0.005903 0.018069 0.000000 0.001078 0.000000
# 4 0.000000 0.000000 0.000000-56.505659 0.000000 1.875212
# 5 0.000184 -0.004394 0.001078 0.000000 0.030413 0.000000
# 6 0.000000 0.000000 0.000000 1.875212 0.000000 -0.023490
#
#
# Mechanical properties :
#
#
# Convention : Reuss Voigt Hill
#
# Bulk Modulus (GPa) = 65.89995 78.70436 72.30216
# Shear Modulus (GPa) = -0.08862 24.46235 12.18687
#
# Velocity S-wave (km/s) = -0.22715 3.77400 2.66378
# Velocity P-wave (km/s) = 6.18879 8.05084 7.18043
#
# Compressibility (1/GPa) = 0.01517452
#
# Stress axis : x y z
#
# Youngs Moduli (GPa) = 119.47117 60.34403 55.34435
#
# Poissons Ratio (x) = 0.21031 0.25067
# Poissons Ratio (y) = 0.41639 0.32672
# Poissons Ratio (z) = 0.54112 0.35624
#
# Static dielectric constant tensor:
#      x y z
#    x 1.563850 0.000000 -0.009690 
#    y 0.000000 1.578630 0.000000 
#    z -0.009690 0.000000 1.565650 
# 
# From -- ./inp_files/36112.got.cif
#   From: 2010.05.17/outbox.cif.g08.bks.cpg/sg10_19_cif.got.tgz:36112.got - 2010.06.03 11:33:40.
