data_PCOD9149621
_publ_section_title
;
Structure prediction by ZEFSAII (Michael W. Deem and Ramdas Pophale) SiO2 
 PCOD9149621
Probable space group: P 2/M
;
_chemical_formula_sum "Si O2"
_cell_formula_units_Z 32
_cell_length_a 17.334042
_cell_length_b 15.205918
_cell_length_c 20.562913
_cell_angle_alpha 90.000000
_cell_angle_beta 19.875901
_cell_angle_gamma 90.000000
_cell_volume 1842.704270
_symmetry_space_group_name_H-M "P 2/M"
_symmetry_group_IT_number 10
_symmetry_cell_setting 'monoclinic'
loop_
_space_group_symop_operation_xyz
x,y,z
-x,y,-z
-x,-y,-z
x,-y,z
loop_
_atom_site_type_symbol
_atom_site_label
_atom_site_fract_x
_atom_site_fract_y
_atom_site_fract_z
Si Si1 0.332463 0.147278 0.444246
Si Si2 0.434718 0.896330 0.213005
Si Si3 0.242984 0.896970 0.231631
Si Si4 0.374446 0.399451 0.030365
Si Si5 0.994732 0.262530 0.354475
Si Si6 0.158752 0.107019 0.933566
Si Si7 0.079148 0.898539 0.141113
Si Si8 0.805950 0.596060 0.599469
O O1 0.358961 0.114448 0.348079
O O2 0.583290 0.141468 0.274134
O O3 0.203332 0.239180 0.538847
O O4 0.146986 0.100974 0.637000
O O5 0.273405 0.864067 0.282440
O O6 0.439790 0.000000 0.193842
O O7 0.693518 0.859728 0.005256
O O8 0.102930 0.825882 0.300755
O O9 0.157368 0.000000 0.295874
O O10 0.500000 0.898842 0.000000
O O11 0.284819 0.500000 0.101098
O O12 0.565413 0.392406 0.824443
O O13 0.500000 0.387248 0.000000
O O14 0.188201 0.324685 0.172390
O O15 0.871032 0.321306 0.505798
O O16 0.171872 0.000000 0.920676
O O17 0.059655 0.135191 0.082660
O O18 0.000000 0.135123 0.000000
O O19 0.142898 0.000000 0.081645
O O20 0.807031 0.500000 0.564898
O O21 0.000000 0.591457 0.500000
#
# Coordination Sequence:
#
# PCOD9149621 Si02
#       8
#     4   4   4   4   4   4   4   4
#     4  11  22  31  48  75 101 132 169 216 270 328
#     4   9  19  34  46  60  91 134 182 228 263 298
#     4  10  22  35  46  65  98 146 196 234 261 296
#     4  10  20  35  54  76 101 128 169 227 282 327
#     4  12  24  33  53  75 104 143 186 226 273 323
#     4   9  19  36  56  76  99 133 181 231 274 320
#     4   9  17  32  51  69  95 130 170 220 270 312
#     4  10  21  37  57  78 100 131 179 235 285 328
#
# _framework density 17.365780999999998
#
# number of rings (size 3 to 8) (size 9 to 14) (size 15 to 20)
#    0.000    2.000    1.250    3.375    1.750    5.000 
#    0.000    3.125    0.000    0.750    0.000    0.000 
#    0.000    2.000    0.000    8.500    0.000    1.000 
#
# Total GULP energy -178388.872622 kJ/mol
# GULP energy per Si atom -5574.652269 kJ/mol
# Density = 1.732626 g / cm^3
# Si number density = 17.365781 Si / 1000 Ang^3
#
#
#
# Elastic Constant Matrix: (Units=GPa)
#
#
# Indices 1 2 3 4 5 6 
#
# 1 81.5095 25.2711 52.1241 0.0000 -13.2200 0.0000
# 2 25.2711 74.5022 31.1653 0.0000 -7.8190 0.0000
# 3 52.1241 31.1653 118.1586 0.0000 -3.4577 0.0000
# 4 0.0000 0.0000 0.0000 36.7551 0.0000 7.8005
# 5 -13.2200 -7.8190 -3.4577 0.0000 24.8721 0.0000
# 6 0.0000 0.0000 0.0000 7.8005 0.0000 26.0521
#
#
#
# Elastic Compliance Matrix: (Units=1/GPa)
#
#
# Indices 1 2 3 4 5 6 
#
# 1 0.019255 -0.002472 -0.007596 0.000000 0.008401 0.000000
# 2 -0.002472 0.015856 -0.002996 0.000000 0.003254 0.000000
# 3 -0.007596 -0.002996 0.012510 0.000000 -0.003241 0.000000
# 4 0.000000 0.000000 0.000000 0.029053 0.000000 -0.008699
# 5 0.008401 0.003254 -0.003241 0.000000 0.045244 0.000000
# 6 0.000000 0.000000 0.000000 -0.008699 0.000000 0.040989
#
#
# Mechanical properties :
#
#
# Convention : Reuss Voigt Hill
#
# Bulk Modulus (GPa) = 46.53025 54.58793 50.55909
# Shear Modulus (GPa) = 25.48411 28.57650 27.03031
#
# Velocity S-wave (km/s) = 3.83494 4.06096 3.94956
# Velocity P-wave (km/s) = 6.81626 7.31375 7.06938
#
# Compressibility (1/GPa) = 0.02149140
#
# Stress axis : x y z
#
# Youngs Moduli (GPa) = 51.93369 63.06810 79.93764
#
# Poissons Ratio (x) = 0.15590 0.60724
# Poissons Ratio (y) = 0.12838 0.23953
# Poissons Ratio (z) = 0.39451 0.18898
#
# Static dielectric constant tensor:
#      x y z
#    x 1.601480 0.000000 0.026250 
#    y 0.000000 1.846200 0.000000 
#    z 0.026250 0.000000 1.652960 
# 
# From -- ./inp_files/85942.got.cif
#   From: 2010.05.17/outbox.cif.g08.bks.cpg/sg10_43_cif.got.tgz:85942.got - 2010.06.03 11:33:40.
