data_PCOD9149064
_publ_section_title
;
Structure prediction by ZEFSAII (Michael W. Deem and Ramdas Pophale) SiO2 
 PCOD9149064
Probable space group: P 2/M
;
_chemical_formula_sum "Si O2"
_cell_formula_units_Z 28
_cell_length_a 16.867482
_cell_length_b 7.929987
_cell_length_c 18.546868
_cell_angle_alpha 90.000000
_cell_angle_beta 25.213098
_cell_angle_gamma 90.000000
_cell_volume 1056.790176
_symmetry_space_group_name_H-M "P 2/M"
_symmetry_group_IT_number 10
_symmetry_cell_setting 'monoclinic'
loop_
_space_group_symop_operation_xyz
x,y,z
-x,y,-z
-x,-y,-z
x,-y,z
loop_
_atom_site_type_symbol
_atom_site_label
_atom_site_fract_x
_atom_site_fract_y
_atom_site_fract_z
Si Si1 0.575095 0.300351 0.041915
Si Si2 0.897490 0.199189 0.435631
Si Si3 0.541751 0.699644 0.656869
Si Si4 0.789795 0.194481 0.722614
Si Si5 0.239314 0.705069 0.667375
Si Si6 0.798140 0.198190 0.147559
Si Si7 0.882879 0.695845 0.886763
O O1 0.615018 0.500000 0.002773
O O2 0.355413 0.281110 0.211707
O O3 0.676758 0.208592 0.891806
O O4 0.681777 0.238868 0.026035
O O5 0.677890 0.223364 0.604939
O O6 0.005262 0.254178 0.419947
O O7 0.996883 0.293123 0.287048
O O8 0.936945 0.000000 0.396318
O O9 0.560077 0.500000 0.651234
O O10 0.639822 0.755512 0.501010
O O11 0.326092 0.734389 0.815879
O O12 0.800111 0.000000 0.691494
O O13 0.240144 0.500000 0.668385
O O14 0.301110 0.768887 0.693939
O O15 0.029629 0.771815 0.822438
O O16 0.817474 0.000000 0.120445
O O17 0.000000 0.277365 0.000000
O O18 0.861477 0.500000 0.923372
#
# Coordination Sequence:
#
# PCOD9149064 Si02
#       7
#     4   4   4   4   4   4   4
#     4   9  14  20  32  50  77 115 152 185 224 266
#     4   9  16  25  39  60  87 119 153 190 231 272
#     4  10  20  34  53  74  95 122 158 197 235 279
#     4   9  15  21  30  49  80 116 151 185 222 266
#     4   9  18  33  52  73  96 123 158 197 235 278
#     4  11  24  38  51  71  98 124 153 191 234 282
#     4   8  15  26  39  59  87 117 152 193 231 270
#
# _framework density 26.495325000000001
#
# number of rings (size 3 to 8) (size 9 to 14) (size 15 to 20)
#    0.000    2.714    0.000    4.286    0.000    8.000 
#    0.000    0.000    0.000    0.000    0.000    0.000 
#    0.000    1.143    0.000   12.857    0.000   11.714 
#
# Total GULP energy -156501.874445 kJ/mol
# GULP energy per Si atom -5589.352659 kJ/mol
# Density = 2.643502 g / cm^3
# Si number density = 26.495325 Si / 1000 Ang^3
#
#
#
# Elastic Constant Matrix: (Units=GPa)
#
#
# Indices 1 2 3 4 5 6 
#
# 1 182.7906 14.6910 33.5027 0.0000 -52.2913 0.0000
# 2 14.6910 56.6995 12.2611 0.0000 -7.3680 0.0000
# 3 33.5027 12.2611 168.7008 0.0000 -46.6103 0.0000
# 4 0.0000 0.0000 0.0000 23.1567 0.0000 -16.4918
# 5 -52.2913 -7.3680 -46.6103 0.0000 65.5425 0.0000
# 6 0.0000 0.0000 0.0000 -16.4918 0.0000 18.6324
#
#
#
# Elastic Compliance Matrix: (Units=1/GPa)
#
#
# Indices 1 2 3 4 5 6 
#
# 1 0.007168 -0.001163 0.000255 0.000000 0.005769 0.000000
# 2 -0.001163 0.018204 -0.000975 0.000000 0.000426 0.000000
# 3 0.000255 -0.000975 0.007435 0.000000 0.005381 0.000000
# 4 0.000000 0.000000 0.000000 0.116828 0.000000 0.103406
# 5 0.005769 0.000426 0.005381 0.000000 0.023735 0.000000
# 6 0.000000 0.000000 0.000000 0.103406 0.000000 0.145196
#
#
# Mechanical properties :
#
#
# Convention : Reuss Voigt Hill
#
# Bulk Modulus (GPa) = 34.43251 58.78893 46.61072
# Shear Modulus (GPa) = 15.05977 44.64874 29.85425
#
# Velocity S-wave (km/s) = 2.38669 4.10952 3.36039
# Velocity P-wave (km/s) = 4.54081 6.68985 5.71721
#
# Compressibility (1/GPa) = 0.02904232
#
# Stress axis : x y z
#
# Youngs Moduli (GPa) = 139.51088 54.93251 134.50725
#
# Poissons Ratio (x) = 0.06387 -0.03430
# Poissons Ratio (y) = 0.16220 0.13108
# Poissons Ratio (z) = -0.03558 0.05353
#
# Static dielectric constant tensor:
#      x y z
#    x 2.093080 0.000000 0.040210 
#    y 0.000000 1.956100 0.000000 
#    z 0.040210 0.000000 2.247140 
# 
# From -- ./inp_files/93520.got.cif
#   From: 2010.05.17/outbox.cif.g08.bks.cpg/sg10_47_cif.got.tgz:93520.got - 2010.06.03 11:33:40.
