data_PCOD9149909
_publ_section_title
;
Structure prediction by ZEFSAII (Michael W. Deem and Ramdas Pophale) SiO2 
 PCOD9149909
Probable space group: P 2/M
;
_chemical_formula_sum "Si O2"
_cell_formula_units_Z 32
_cell_length_a 28.652802
_cell_length_b 7.653418
_cell_length_c 22.305762
_cell_angle_alpha 90.000000
_cell_angle_beta 161.547442
_cell_angle_gamma 90.000000
_cell_volume 1548.245466
_symmetry_space_group_name_H-M "P 2/M"
_symmetry_group_IT_number 10
_symmetry_cell_setting 'monoclinic'
loop_
_space_group_symop_operation_xyz
x,y,z
-x,y,-z
-x,-y,-z
x,-y,z
loop_
_atom_site_type_symbol
_atom_site_label
_atom_site_fract_x
_atom_site_fract_y
_atom_site_fract_z
Si Si1 0.402127 0.289429 0.968659
Si Si2 0.280810 0.286352 0.695908
Si Si3 0.964690 0.293302 0.692229
Si Si4 0.843130 0.791508 0.786263
Si Si5 0.543874 0.288889 0.486949
Si Si6 0.421610 0.205080 0.125133
Si Si7 0.243910 0.211883 0.451953
Si Si8 0.290659 0.297638 0.089533
O O1 0.402755 0.500000 0.969542
O O2 0.569512 0.232318 0.156428
O O3 0.359769 0.230248 0.983180
O O4 0.301094 0.232601 0.789696
O O5 0.280123 0.500000 0.694061
O O6 0.137261 0.222687 0.485887
O O7 0.982452 0.500000 0.701604
O O8 0.870916 0.272405 0.638253
O O9 0.128286 0.217502 0.898467
O O10 0.707706 0.760975 0.666105
O O11 0.799056 0.725303 0.666676
O O12 0.859461 0.000000 0.799782
O O13 0.000000 0.721159 0.000000
O O14 0.500000 0.229040 0.500000
O O15 0.541427 0.500000 0.483958
O O16 0.423474 0.223254 0.291725
O O17 0.590443 0.271297 0.331004
O O18 0.334785 0.291020 0.073723
O O19 0.425014 0.000000 0.143103
O O20 0.243955 0.000000 0.452841
O O21 0.279354 0.500000 0.094908
#
# Coordination Sequence:
#
# PCOD9149909 Si02
#       8
#     4   4   4   4   4   4   4   4
#     4   9  16  30  54  80 107 140 178 222 273 322
#     4   8  15  29  51  80 109 137 175 225 271 318
#     4  10  20  35  57  83 108 140 184 227 271 321
#     4  10  22  40  59  82 111 144 184 225 264 319
#     4  10  22  39  57  81 114 145 178 223 273 323
#     4  11  21  35  55  80 109 144 184 224 267 318
#     4  10  21  36  54  80 111 140 178 226 271 316
#     4  10  22  38  56  79 109 146 184 221 266 325
#
# _framework density 20.668558000000001
#
# number of rings (size 3 to 8) (size 9 to 14) (size 15 to 20)
#    0.000    2.250    2.500    1.125    1.750    2.000 
#    0.000    2.500    0.000    3.750    0.000    0.000 
#    0.000    0.000    0.000    0.000    0.000    0.000 
#
# Total GULP energy -178649.000158 kJ/mol
# GULP energy per Si atom -5582.781255 kJ/mol
# Density = 2.062152 g / cm^3
# Si number density = 20.668558 Si / 1000 Ang^3
#
#
#
# Elastic Constant Matrix: (Units=GPa)
#
#
# Indices 1 2 3 4 5 6 
#
# 1 107.8359 -18.0057 63.0024 0.0000 -8.9179 0.0000
# 2 -18.0057 36.0122 1.6485 0.0000 -3.0701 0.0000
# 3 63.0024 1.6485 120.2636 0.0000 7.9642 0.0000
# 4 0.0000 0.0000 0.0000 5.2764 0.0000 0.2485
# 5 -8.9179 -3.0701 7.9642 0.0000 34.7497 0.0000
# 6 0.0000 0.0000 0.0000 0.2485 0.0000 17.6450
#
#
#
# Elastic Compliance Matrix: (Units=1/GPa)
#
#
# Indices 1 2 3 4 5 6 
#
# 1 0.017088 0.009615 -0.009575 0.000000 0.007429 0.000000
# 2 0.009615 0.033426 -0.005945 0.000000 0.006783 0.000000
# 3 -0.009575 -0.005945 0.013820 0.000000 -0.006150 0.000000
# 4 0.000000 0.000000 0.000000 0.189650 0.000000 -0.002671
# 5 0.007429 0.006783 -0.006150 0.000000 0.032693 0.000000
# 6 0.000000 0.000000 0.000000 -0.002671 0.000000 0.056711
#
#
# Mechanical properties :
#
#
# Convention : Reuss Voigt Hill
#
# Bulk Modulus (GPa) = 19.03868 39.71134 29.37501
# Shear Modulus (GPa) = 13.41541 26.03198 19.72369
#
# Velocity S-wave (km/s) = 2.55046 3.55279 3.09250
# Velocity P-wave (km/s) = 4.23137 6.00707 5.19564
#
# Compressibility (1/GPa) = 0.05252464
#
# Stress axis : x y z
#
# Youngs Moduli (GPa) = 58.52175 29.91656 72.35821
#
# Poissons Ratio (x) = -0.28766 0.69287
# Poissons Ratio (y) = -0.56270 0.43014
# Poissons Ratio (z) = 0.56037 0.17784
#
# Static dielectric constant tensor:
#      x y z
#    x 1.698090 0.000000 -0.024140 
#    y 0.000000 1.759110 0.000000 
#    z -0.024140 0.000000 1.752500 
# 
# From -- ./inp_files/86984.got.cif
#   From: 2010.05.17/outbox.cif.g08.bks.cpg/sg10_44_cif.got.tgz:86984.got - 2010.06.03 11:33:40.
