data_PCOD9149494
_publ_section_title
;
Structure prediction by ZEFSAII (Michael W. Deem and Ramdas Pophale) SiO2 
 PCOD9149494
Probable space group: P 2/M
;
_chemical_formula_sum "Si O2"
_cell_formula_units_Z 24
_cell_length_a 5.566364
_cell_length_b 9.745729
_cell_length_c 21.801836
_cell_angle_alpha 90.000000
_cell_angle_beta 73.031561
_cell_angle_gamma 90.000000
_cell_volume 1131.223412
_symmetry_space_group_name_H-M "P 2/M"
_symmetry_group_IT_number 10
_symmetry_cell_setting 'monoclinic'
loop_
_space_group_symop_operation_xyz
x,y,z
-x,y,-z
-x,-y,-z
x,-y,z
loop_
_atom_site_type_symbol
_atom_site_label
_atom_site_fract_x
_atom_site_fract_y
_atom_site_fract_z
Si Si1 0.996840 0.154466 0.747903
Si Si2 0.069728 0.665546 0.426938
Si Si3 0.409977 0.345876 0.183775
Si Si4 0.350457 0.333980 0.645450
Si Si5 0.758843 0.649046 0.944043
Si Si6 0.130938 0.849551 0.878275
O O1 0.762202 0.257401 0.757558
O O2 0.237923 0.239322 0.707444
O O3 0.011414 0.135512 0.819818
O O4 0.974911 0.000000 0.722802
O O5 0.072551 0.500000 0.429333
O O6 0.358264 0.702361 0.389052
O O7 0.000000 0.717520 0.500000
O O8 0.845844 0.698172 0.395715
O O9 0.455863 0.500000 0.203877
O O10 0.285351 0.358926 0.125831
O O11 0.653870 0.260023 0.149542
O O12 0.334684 0.500000 0.658026
O O13 0.869595 0.500000 0.952272
O O14 0.934799 0.779498 0.938280
O O15 0.500000 0.663669 0.000000
O O16 0.221286 0.000000 0.891201
#
# Coordination Sequence:
#
# PCOD9149494 Si02
#       6
#     4   4   4   4   4   4
#     4  10  22  38  54  77 111 148 186 231 284 341
#     4   9  18  34  57  86 119 152 192 243 292 339
#     4  10  20  35  57  80 105 140 182 232 282 336
#     4  10  20  34  57  88 115 151 198 243 290 344
#     4   9  19  36  55  77 105 139 182 230 280 336
#     4  10  21  36  54  77 108 146 182 226 284 342
#
# _framework density 21.215966000000002
#
# number of rings (size 3 to 8) (size 9 to 14) (size 15 to 20)
#    0.000    2.333    0.000    2.000    2.333    5.667 
#    0.000    3.333    0.000    3.000    0.000    0.000 
#    0.000    0.000    0.000    0.000    0.000    0.000 
#
# Total GULP energy -133789.692372 kJ/mol
# GULP energy per Si atom -5574.570516 kJ/mol
# Density = 2.116768 g / cm^3
# Si number density = 21.215966 Si / 1000 Ang^3
#
#
#
# Elastic Constant Matrix: (Units=GPa)
#
#
# Indices 1 2 3 4 5 6 
#
# 1 82.9041 47.3646 27.2926 0.0000 -9.8563 0.0000
# 2 47.3646 160.9185 35.8834 0.0000 -27.6945 0.0000
# 3 27.2926 35.8834 85.9714 0.0000 -13.1522 0.0000
# 4 0.0000 0.0000 0.0000 37.6475 0.0000 -6.2506
# 5 -9.8563 -27.6945 -13.1522 0.0000 36.7329 0.0000
# 6 0.0000 0.0000 0.0000 -6.2506 0.0000 9.6965
#
#
#
# Elastic Compliance Matrix: (Units=1/GPa)
#
#
# Indices 1 2 3 4 5 6 
#
# 1 0.015297 -0.003755 -0.003273 0.000000 0.000101 0.000000
# 2 -0.003755 0.008513 -0.001622 0.000000 0.004830 0.000000
# 3 -0.003273 -0.001622 0.013781 0.000000 0.002833 0.000000
# 4 0.000000 0.000000 0.000000 0.029746 0.000000 0.019175
# 5 0.000101 0.004830 0.002833 0.000000 0.031906 0.000000
# 6 0.000000 0.000000 0.000000 0.019175 0.000000 0.115490
#
#
# Mechanical properties :
#
#
# Convention : Reuss Voigt Hill
#
# Bulk Modulus (GPa) = 49.28572 61.20836 55.24704
# Shear Modulus (GPa) = 20.93818 31.43228 26.18523
#
# Velocity S-wave (km/s) = 3.14492 3.85325 3.51696
# Velocity P-wave (km/s) = 6.03889 6.97922 6.52602
#
# Compressibility (1/GPa) = 0.02028985
#
# Stress axis : x y z
#
# Youngs Moduli (GPa) = 65.37143 117.47421 72.56149
#
# Poissons Ratio (x) = 0.44114 0.23752
# Poissons Ratio (y) = 0.24548 0.11770
# Poissons Ratio (z) = 0.21399 0.19055
#
# Static dielectric constant tensor:
#      x y z
#    x 1.851450 0.000000 0.047010 
#    y 0.000000 1.809370 0.000000 
#    z 0.047010 0.000000 1.785960 
# 
# From -- ./inp_files/12998.got.cif
#   From: 2010.05.17/outbox.cif.g08.bks.cpg/sg10_7_cif.got.tgz:12998.got - 2010.06.03 11:33:40.
