data_PCOD9149036
_publ_section_title
;
Structure prediction by ZEFSAII (Michael W. Deem and Ramdas Pophale) SiO2 
 PCOD9149036
Probable space group: P 2/M
;
_chemical_formula_sum "Si O2"
_cell_formula_units_Z 32
_cell_length_a 12.408496
_cell_length_b 11.328317
_cell_length_c 13.209758
_cell_angle_alpha 90.000000
_cell_angle_beta 46.122170
_cell_angle_gamma 90.000000
_cell_volume 1338.461378
_symmetry_space_group_name_H-M "P 2/M"
_symmetry_group_IT_number 10
_symmetry_cell_setting 'monoclinic'
loop_
_space_group_symop_operation_xyz
x,y,z
-x,y,-z
-x,-y,-z
x,-y,z
loop_
_atom_site_type_symbol
_atom_site_label
_atom_site_fract_x
_atom_site_fract_y
_atom_site_fract_z
Si Si1 0.881171 0.630496 0.759853
Si Si2 0.357558 0.217274 0.642661
Si Si3 0.939054 0.363367 0.145034
Si Si4 0.797233 0.370660 0.539765
Si Si5 0.462667 0.367521 0.143355
Si Si6 0.206520 0.123517 0.561644
Si Si7 0.147865 0.872883 0.169046
Si Si8 0.388650 0.864414 0.851089
O O1 0.810936 0.500000 0.805038
O O2 0.952913 0.641185 0.827748
O O3 0.023338 0.629996 0.591623
O O4 0.800305 0.756605 0.805891
O O5 0.216429 0.302089 0.733227
O O6 0.754436 0.245425 0.518942
O O7 0.310142 0.120480 0.591853
O O8 0.384317 0.165020 0.735565
O O9 0.908596 0.500000 0.146614
O O10 0.000000 0.312146 0.000000
O O11 0.755230 0.500000 0.520272
O O12 0.709630 0.370893 0.703280
O O13 0.520675 0.500000 0.139223
O O14 0.532271 0.249376 0.148122
O O15 0.500000 0.362568 0.000000
O O16 0.500000 0.279020 0.500000
O O17 0.032315 0.128592 0.708874
O O18 0.223510 0.000000 0.491752
O O19 0.195035 0.000000 0.182769
O O20 0.223671 0.867026 0.009758
O O21 0.446936 0.000000 0.829075
#
# Coordination Sequence:
#
# PCOD9149036 Si02
#       8
#     4   4   4   4   4   4   4   4
#     4   9  16  30  54  79 109 150 195 239 282 337
#     4  12  24  34  52  85 125 166 209 254 296 343
#     4  10  20  34  52  76 113 164 215 252 289 343
#     4   9  17  33  58  85 111 144 190 240 291 352
#     4  10  23  44  67  88 112 146 192 249 315 380
#     4  10  20  35  57  84 122 169 207 241 287 344
#     4   9  18  34  55  82 114 155 204 246 286 343
#     4  11  25  40  58  87 122 157 201 252 301 359
#
# _framework density 23.908049999999999
#
# number of rings (size 3 to 8) (size 9 to 14) (size 15 to 20)
#    0.000    2.000    2.500    1.875    0.000    4.000 
#    0.000    1.875    0.000    3.000    0.000   19.250 
#    0.000    0.000    0.000    0.000    0.000    0.000 
#
# Total GULP energy -178416.971989 kJ/mol
# GULP energy per Si atom -5575.530375 kJ/mol
# Density = 2.385363 g / cm^3
# Si number density = 23.908050 Si / 1000 Ang^3
#
#
#
# Elastic Constant Matrix: (Units=GPa)
#
#
# Indices 1 2 3 4 5 6 
#
# 1 41.7065 46.7979 22.5150 0.0000 14.1058 0.0000
# 2 46.7979 252.4936 43.1463 0.0000 20.4555 0.0000
# 3 22.5150 43.1463 151.7164 0.0000 6.6911 0.0000
# 4 0.0000 0.0000 0.0000 -402.4737 0.0000 -63.5011
# 5 14.1058 20.4555 6.6911 0.0000 35.0324 0.0000
# 6 0.0000 0.0000 0.0000 -63.5011 0.0000 5.1483
#
#
#
# Elastic Compliance Matrix: (Units=1/GPa)
#
#
# Indices 1 2 3 4 5 6 
#
# 1 0.034997 -0.005074 -0.003288 0.000000 -0.010501 0.000000
# 2 -0.005074 0.005078 -0.000656 0.000000 -0.000796 0.000000
# 3 -0.003288 -0.000656 0.007251 0.000000 0.000322 0.000000
# 4 0.000000 0.000000 0.000000 -0.000843 0.000000 -0.010402
# 5 -0.010501 -0.000796 0.000322 0.000000 0.033177 0.000000
# 6 0.000000 0.000000 0.000000 -0.010402 0.000000 0.065931
#
#
# Mechanical properties :
#
#
# Convention : Reuss Voigt Hill
#
# Bulk Modulus (GPa) = 34.14007 74.53721 54.33864
# Shear Modulus (GPa) = 28.83697 -50.22810 -10.69556
#
# Velocity S-wave (km/s) = 3.47675 -4.58852 -2.11739
# Velocity P-wave (km/s) = 5.51614 1.78092 4.09875
#
# Compressibility (1/GPa) = 0.02929110
#
# Stress axis : x y z
#
# Youngs Moduli (GPa) = 28.57410 196.94681 137.90336
#
# Poissons Ratio (x) = 0.99929 0.45336
# Poissons Ratio (y) = 0.14498 0.09045
# Poissons Ratio (z) = 0.09394 0.12917
#
# Static dielectric constant tensor:
#      x y z
#    x 2.002850 0.000000 0.002600 
#    y 0.000000 1.953820 0.000000 
#    z 0.002600 0.000000 1.954150 
# 
# From -- ./inp_files/67347.got.cif
#   From: 2010.05.17/outbox.cif.g08.bks.cpg/sg10_34_cif.got.tgz:67347.got - 2010.06.03 11:33:40.
