data_PCOD9149252
_publ_section_title
;
Structure prediction by ZEFSAII (Michael W. Deem and Ramdas Pophale) SiO2 
 PCOD9149252
Probable space group: P 2/M
;
_chemical_formula_sum "Si O2"
_cell_formula_units_Z 32
_cell_length_a 19.950331
_cell_length_b 8.784133
_cell_length_c 11.376167
_cell_angle_alpha 90.000000
_cell_angle_beta 56.582712
_cell_angle_gamma 90.000000
_cell_volume 1664.048091
_symmetry_space_group_name_H-M "P 2/M"
_symmetry_group_IT_number 10
_symmetry_cell_setting 'monoclinic'
loop_
_space_group_symop_operation_xyz
x,y,z
-x,y,-z
-x,-y,-z
x,-y,z
loop_
_atom_site_type_symbol
_atom_site_label
_atom_site_fract_x
_atom_site_fract_y
_atom_site_fract_z
Si Si1 0.172740 0.184479 0.173432
Si Si2 0.966638 0.183643 0.849387
Si Si3 0.408834 0.320197 0.058300
Si Si4 0.324855 0.320368 0.893907
Si Si5 0.742543 0.819500 0.672167
Si Si6 0.724093 0.679661 0.439332
Si Si7 0.124126 0.183450 0.819120
Si Si8 0.407071 0.182177 0.585025
O O1 0.085788 0.235556 0.210544
O O2 0.195989 0.228347 0.283744
O O3 0.176316 0.000000 0.163940
O O4 0.241785 0.248888 0.021037
O O5 0.057086 0.235216 0.788474
O O6 0.972299 0.000000 0.836991
O O7 0.914388 0.216194 0.016729
O O8 0.396869 0.500000 0.098219
O O9 0.345006 0.222213 0.192256
O O10 0.500000 0.280236 0.000000
O O11 0.387059 0.301178 0.942289
O O12 0.313848 0.500000 0.883399
O O13 0.360425 0.242159 0.744655
O O14 0.751449 0.735775 0.540661
O O15 0.750282 0.000000 0.646669
O O16 0.716363 0.500000 0.443719
O O17 0.792219 0.736167 0.283588
O O18 0.640184 0.754057 0.481749
O O19 0.134581 0.000000 0.800794
O O20 0.500000 0.231044 0.500000
O O21 0.404236 0.000000 0.585689
#
# Coordination Sequence:
#
# PCOD9149252 Si02
#       8
#     4   4   4   4   4   4   4   4
#     4   9  17  33  57  83 112 148 190 234 277 324
#     4   8  15  30  57  88 114 143 183 230 278 328
#     4   9  19  35  55  80 109 144 182 226 278 328
#     4  10  20  34  54  82 114 145 181 221 273 333
#     4  10  21  36  55  80 108 147 194 237 279 327
#     4  12  25  40  58  79 112 151 186 227 284 345
#     4   9  17  33  58  87 116 147 183 226 278 334
#     4  11  25  42  59  81 108 141 183 231 279 329
#
# _framework density 19.230215999999999
#
# number of rings (size 3 to 8) (size 9 to 14) (size 15 to 20)
#    0.000    2.250    0.000    3.750    1.750    3.250 
#    0.000    2.500    0.000    3.750    0.000    0.000 
#    0.000    0.000    0.000    0.000    0.000    0.000 
#
# Total GULP energy -178647.153726 kJ/mol
# GULP energy per Si atom -5582.723554 kJ/mol
# Density = 1.918645 g / cm^3
# Si number density = 19.230216 Si / 1000 Ang^3
#
#
#
# Elastic Constant Matrix: (Units=GPa)
#
#
# Indices 1 2 3 4 5 6 
#
# 1 118.4194 23.7135 10.4526 0.0000 -13.6116 0.0000
# 2 23.7135 41.3295 17.4955 0.0000 2.4835 0.0000
# 3 10.4526 17.4955 33.5533 0.0000 4.2165 0.0000
# 4 0.0000 0.0000 0.0000 55.8380 0.0000 13.2365
# 5 -13.6116 2.4835 4.2165 0.0000 17.4424 0.0000
# 6 0.0000 0.0000 0.0000 13.2365 0.0000 18.7906
#
#
#
# Elastic Compliance Matrix: (Units=1/GPa)
#
#
# Indices 1 2 3 4 5 6 
#
# 1 0.010947 -0.006294 -0.001356 0.000000 0.009767 0.000000
# 2 -0.006294 0.034673 -0.015347 0.000000 -0.006139 0.000000
# 3 -0.001356 -0.015347 0.039280 0.000000 -0.008368 0.000000
# 4 0.000000 0.000000 0.000000 0.021499 0.000000 -0.015144
# 5 0.009767 -0.006139 -0.008368 0.000000 0.067851 0.000000
# 6 0.000000 0.000000 0.000000 -0.015144 0.000000 0.063886
#
#
# Mechanical properties :
#
#
# Convention : Reuss Voigt Hill
#
# Bulk Modulus (GPa) = 25.70316 32.95837 29.33077
# Shear Modulus (GPa) = 16.82948 27.85692 22.34320
#
# Velocity S-wave (km/s) = 2.96152 3.81018 3.41233
# Velocity P-wave (km/s) = 5.00891 6.04423 5.55076
#
# Compressibility (1/GPa) = 0.03890572
#
# Stress axis : x y z
#
# Youngs Moduli (GPa) = 91.34679 28.84105 25.45851
#
# Poissons Ratio (x) = 0.18153 0.03452
# Poissons Ratio (y) = 0.57495 0.39071
# Poissons Ratio (z) = 0.12384 0.44263
#
# Static dielectric constant tensor:
#      x y z
#    x 1.705480 0.000000 0.023120 
#    y 0.000000 1.640870 0.000000 
#    z 0.023120 0.000000 1.642900 
# 
# From -- ./inp_files/54825.got.cif
#   From: 2010.05.17/outbox.cif.g08.bks.cpg/sg10_28_cif.got.tgz:54825.got - 2010.06.03 11:33:40.
