data_PCOD9149029
_publ_section_title
;
Structure prediction by ZEFSAII (Michael W. Deem and Ramdas Pophale) SiO2 
 PCOD9149029
Probable space group: P 2/M
;
_chemical_formula_sum "Si O2"
_cell_formula_units_Z 28
_cell_length_a 11.301344
_cell_length_b 8.052713
_cell_length_c 20.965634
_cell_angle_alpha 90.000000
_cell_angle_beta 128.539624
_cell_angle_gamma 90.000000
_cell_volume 1492.401274
_symmetry_space_group_name_H-M "P 2/M"
_symmetry_group_IT_number 10
_symmetry_cell_setting 'monoclinic'
loop_
_space_group_symop_operation_xyz
x,y,z
-x,y,-z
-x,-y,-z
x,-y,z
loop_
_atom_site_type_symbol
_atom_site_label
_atom_site_fract_x
_atom_site_fract_y
_atom_site_fract_z
Si Si1 0.082203 0.697955 0.618958
Si Si2 0.230216 0.298004 0.537189
Si Si3 0.044546 0.301824 0.943438
Si Si4 0.460498 0.804902 0.416311
Si Si5 0.839720 0.799141 0.754448
Si Si6 0.877336 0.199041 0.230202
Si Si7 0.673051 0.200885 0.046272
O O1 0.075356 0.500000 0.611237
O O2 0.175392 0.754118 0.588961
O O3 0.153414 0.745244 0.709243
O O4 0.908181 0.755208 0.555122
O O5 0.245024 0.500000 0.539943
O O6 0.386008 0.217076 0.570830
O O7 0.048337 0.500000 0.947770
O O8 0.211072 0.247800 0.972520
O O9 0.916743 0.254614 0.847386
O O10 0.000000 0.239636 0.000000
O O11 0.500000 0.732670 0.500000
O O12 0.322240 0.738134 0.326413
O O13 0.425165 0.000000 0.414623
O O14 0.958772 0.747549 0.739788
O O15 0.834862 0.000000 0.756525
O O16 0.760113 0.260041 0.138637
O O17 0.874719 0.000000 0.227852
O O18 0.668349 0.000000 0.043070
O O19 0.500000 0.257597 0.000000
#
# Coordination Sequence:
#
# PCOD9149029 Si02
#       7
#     4   4   4   4   4   4   4
#     4   9  18  33  50  69  97 135 172 206 251 303
#     4   9  19  34  49  68  99 136 173 208 246 302
#     4  10  21  37  57  82 111 143 180 224 273 322
#     4  10  20  34  52  76 105 134 169 215 261 300
#     4   9  19  35  54  77 105 138 175 213 256 313
#     4   9  17  31  53  77  99 126 167 212 254 302
#     4   9  19  37  58  80 107 139 177 220 266 322
#
# _framework density 18.761710999999998
#
# number of rings (size 3 to 8) (size 9 to 14) (size 15 to 20)
#    0.000    2.714    0.000    3.000    0.000    6.857 
#    2.571    1.429    0.000    0.000    0.000    0.000 
#    0.000    0.000    0.000    0.000    0.000    0.000 
#
# Total GULP energy -155882.102160 kJ/mol
# GULP energy per Si atom -5567.217934 kJ/mol
# Density = 1.871901 g / cm^3
# Si number density = 18.761711 Si / 1000 Ang^3
#
#
#
# Elastic Constant Matrix: (Units=GPa)
#
#
# Indices 1 2 3 4 5 6 
#
# 1 118.6843 7.6667 88.1429 0.0000 15.1902 0.0000
# 2 7.6667 11.9043 10.8449 0.0000 2.1019 0.0000
# 3 88.1429 10.8449 109.1644 0.0000 -1.8600 0.0000
# 4 0.0000 0.0000 0.0000 14.6920 0.0000 -1.5031
# 5 15.1902 2.1019 -1.8600 0.0000 34.5274 0.0000
# 6 0.0000 0.0000 0.0000 -1.5031 0.0000 20.5251
#
#
#
# Elastic Compliance Matrix: (Units=1/GPa)
#
#
# Indices 1 2 3 4 5 6 
#
# 1 0.025650 0.005277 -0.021453 0.000000 -0.012762 0.000000
# 2 0.005277 0.094760 -0.013825 0.000000 -0.008835 0.000000
# 3 -0.021453 -0.013825 0.028056 0.000000 0.011791 0.000000
# 4 0.000000 0.000000 0.000000 0.068578 0.000000 0.005022
# 5 -0.012762 -0.008835 0.011791 0.000000 0.035750 0.000000
# 6 0.000000 0.000000 0.000000 0.005022 0.000000 0.049089
#
#
# Mechanical properties :
#
#
# Convention : Reuss Voigt Hill
#
# Bulk Modulus (GPa) = 11.30391 50.34021 30.82206
# Shear Modulus (GPa) = 12.77555 22.82214 17.79884
#
# Velocity S-wave (km/s) = 2.61231 3.49151 3.08341
# Velocity P-wave (km/s) = 3.89062 6.56839 5.39818
#
# Compressibility (1/GPa) = 0.08846494
#
# Stress axis : x y z
#
# Youngs Moduli (GPa) = 38.98594 10.55300 35.64253
#
# Poissons Ratio (x) = -0.05569 0.76462
# Poissons Ratio (y) = -0.20574 0.49277
# Poissons Ratio (z) = 0.83635 0.14590
#
# Static dielectric constant tensor:
#      x y z
#    x 1.654210 0.000000 0.001210 
#    y 0.000000 1.675590 0.000000 
#    z 0.001210 0.000000 1.672960 
# 
# From -- ./inp_files/54692.got.cif
#   From: 2010.05.17/outbox.cif.g08.bks.cpg/sg10_28_cif.got.tgz:54692.got - 2010.06.03 11:33:40.
