data_PCOD9149099
_publ_section_title
;
Structure prediction by ZEFSAII (Michael W. Deem and Ramdas Pophale) SiO2 
 PCOD9149099
Probable space group: P 2/M
;
_chemical_formula_sum "Si O2"
_cell_formula_units_Z 20
_cell_length_a 10.253976
_cell_length_b 16.846344
_cell_length_c 10.271674
_cell_angle_alpha 90.000000
_cell_angle_beta 42.394069
_cell_angle_gamma 90.000000
_cell_volume 1196.312520
_symmetry_space_group_name_H-M "P 2/M"
_symmetry_group_IT_number 10
_symmetry_cell_setting 'monoclinic'
loop_
_space_group_symop_operation_xyz
x,y,z
-x,y,-z
-x,-y,-z
x,-y,z
loop_
_atom_site_type_symbol
_atom_site_label
_atom_site_fract_x
_atom_site_fract_y
_atom_site_fract_z
Si Si1 0.112921 0.000000 0.718419
Si Si2 0.371346 0.309589 0.463905
Si Si3 0.016997 0.592850 0.832540
Si Si4 0.425854 0.593561 0.913775
Si Si5 0.698895 0.000000 0.129141
Si Si6 0.595135 0.127048 0.574437
O O1 0.208336 0.076404 0.580089
O O2 0.202981 0.000000 0.798819
O O3 0.882057 0.000000 0.898679
O O4 0.500000 0.313100 0.500000
O O5 0.168103 0.348779 0.653406
O O6 0.471722 0.360105 0.277521
O O7 0.364558 0.218120 0.423655
O O8 0.077618 0.500000 0.773619
O O9 0.000000 0.608714 0.000000
O O10 0.804485 0.602297 0.929360
O O11 0.470468 0.500000 0.867135
O O12 0.500000 0.620000 0.000000
O O13 0.559615 0.922863 0.226299
O O14 0.500000 0.126649 0.500000
#
# Coordination Sequence:
#
# PCOD9149099 Si02
#       6
#     2   4   4   4   2   4
#     4   8  13  25  40  61  91 135 166 200 248 304
#     4  11  20  32  52  78 107 138 171 224 267 301
#     4  10  20  34  53  77 102 135 179 217 259 314
#     4  10  22  38  54  75 105 141 180 218 261 314
#     4   8  13  25  42  59  95 136 161 199 253 306
#     4   8  16  26  39  67  99 127 170 206 249 308
#
# _framework density 16.718039000000001
#
# number of rings (size 3 to 8) (size 9 to 14) (size 15 to 20)
#    0.000    2.600    2.000    1.800    0.000    3.200 
#    3.600    3.000    0.000    0.000    0.000    2.800 
#    0.000    8.000    0.000    0.000    0.000    0.000 
#
# Total GULP energy -111440.679064 kJ/mol
# GULP energy per Si atom -5572.033953 kJ/mol
# Density = 1.667999 g / cm^3
# Si number density = 16.718039 Si / 1000 Ang^3
#
#
#
# Elastic Constant Matrix: (Units=GPa)
#
#
# Indices 1 2 3 4 5 6 
#
# 1 58.0181 38.6121 35.8801 0.0000 0.0876 0.0000
# 2 38.6121 125.8027 87.7027 0.0000 -15.6535 0.0000
# 3 35.8801 87.7027 120.9323 0.0000 -26.2063 0.0000
# 4 0.0000 0.0000 0.0000 -6.9046 0.0000 -1.5214
# 5 0.0876 -15.6535 -26.2063 0.0000 23.0233 0.0000
# 6 0.0000 0.0000 0.0000 -1.5214 0.0000 -19.9163
#
#
#
# Elastic Compliance Matrix: (Units=1/GPa)
#
#
# Indices 1 2 3 4 5 6 
#
# 1 0.023914 -0.004302 -0.006145 0.000000 -0.010010 0.000000
# 2 -0.004302 0.017020 -0.011358 0.000000 -0.001339 0.000000
# 3 -0.006145 -0.011358 0.022116 0.000000 0.017475 0.000000
# 4 0.000000 0.000000 0.000000 -0.147310 0.000000 0.011253
# 5 -0.010010 -0.001339 0.017475 0.000000 0.062452 0.000000
# 6 0.000000 0.000000 0.000000 0.011253 0.000000 -0.051070
#
#
# Mechanical properties :
#
#
# Convention : Reuss Voigt Hill
#
# Bulk Modulus (GPa) = 51.43382 69.90478 60.66930
# Shear Modulus (GPa) = -219.40469 8.74435 -105.33017
#
# Velocity S-wave (km/s) = -11.46836 2.28951 -7.94611
# Velocity P-wave (km/s) = 12.02215 6.99242 6.91513
#
# Compressibility (1/GPa) = 0.01944246
#
# Stress axis : x y z
#
# Youngs Moduli (GPa) = 41.81661 58.75294 45.21673
#
# Poissons Ratio (x) = 0.25273 0.27784
# Poissons Ratio (y) = 0.17988 0.51355
# Poissons Ratio (z) = 0.25695 0.66729
#
# Static dielectric constant tensor:
#      x y z
#    x 1.550150 0.000000 -0.007580 
#    y 0.000000 1.568670 0.000000 
#    z -0.007580 0.000000 1.541680 
# 
# From -- ./inp_files/19403.got.cif
#   From: 2010.05.17/outbox.cif.g08.bks.cpg/sg10_10_cif.got.tgz:19403.got - 2010.06.03 11:33:40.
