data_PCOD9149338
_publ_section_title
;
Structure prediction by ZEFSAII (Michael W. Deem and Ramdas Pophale) SiO2 
 PCOD9149338
Probable space group: P 2/M
;
_chemical_formula_sum "Si O2"
_cell_formula_units_Z 16
_cell_length_a 15.965454
_cell_length_b 11.084104
_cell_length_c 8.554341
_cell_angle_alpha 90.000000
_cell_angle_beta 28.402706
_cell_angle_gamma 90.000000
_cell_volume 720.062688
_symmetry_space_group_name_H-M "P 2/M"
_symmetry_group_IT_number 10
_symmetry_cell_setting 'monoclinic'
loop_
_space_group_symop_operation_xyz
x,y,z
-x,y,-z
-x,-y,-z
x,-y,z
loop_
_atom_site_type_symbol
_atom_site_label
_atom_site_fract_x
_atom_site_fract_y
_atom_site_fract_z
Si Si1 0.697804 0.500000 0.743731
Si Si2 0.187202 0.257594 0.606917
Si Si3 0.304513 0.257362 0.750574
Si Si4 0.301150 0.000000 0.383734
Si Si5 0.703118 0.500000 0.106147
Si Si6 0.700621 0.000000 0.235609
O O1 0.786236 0.376691 0.537504
O O2 0.500000 0.500000 0.000000
O O3 0.699464 0.500000 0.927234
O O4 0.319807 0.264980 0.537901
O O5 0.215580 0.128203 0.477727
O O6 0.000000 0.256678 0.000000
O O7 0.500000 0.254571 0.500000
O O8 0.213864 0.377767 0.962557
O O9 0.218830 0.129592 0.939142
O O10 0.298148 0.000000 0.577821
O O11 0.500000 0.000000 0.000000
O O12 0.500000 0.500000 0.500000
O O13 0.500000 0.000000 0.500000
#
# Coordination Sequence:
#
# PCOD9149338 Si02
#       6
#     2   4   4   2   2   2
#     4  12  23  38  62  91 119 162 212 249 292 366
#     4  11  23  40  61  91 126 158 196 254 311 353
#     4   9  17  34  56  80 111 153 196 237 287 354
#     4  10  21  37  62  91 119 156 202 244 295 367
#     4  10  20  34  55  83 112 148 199 251 287 336
#     4   8  16  29  52  81 106 140 189 238 280 333
#
# _framework density 22.220288
#
# number of rings (size 3 to 8) (size 9 to 14) (size 15 to 20)
#    0.000    2.000    0.000    5.250    0.000    6.000 
#    0.000    2.500    0.000    0.000    0.000   24.500 
#    0.000    0.000    0.000    0.000    0.000    0.000 
#
# Total GULP energy -89302.049381 kJ/mol
# GULP energy per Si atom -5581.378086 kJ/mol
# Density = 2.216971 g / cm^3
# Si number density = 22.220288 Si / 1000 Ang^3
#
#
#
# Elastic Constant Matrix: (Units=GPa)
#
#
# Indices 1 2 3 4 5 6 
#
# 1 52.5872 25.9069 -7.8831 0.0000 7.2372 0.0000
# 2 25.9069 320.2907 70.6070 0.0000 26.1145 0.0000
# 3 -7.8831 70.6070 88.6568 0.0000 -3.4120 0.0000
# 4 0.0000 0.0000 0.0000 23.2097 0.0000 4.1497
# 5 7.2372 26.1145 -3.4120 0.0000 25.8065 0.0000
# 6 0.0000 0.0000 0.0000 4.1497 0.0000 -15.6028
#
#
#
# Elastic Compliance Matrix: (Units=1/GPa)
#
#
# Indices 1 2 3 4 5 6 
#
# 1 0.021077 -0.002220 0.003519 0.000000 -0.003200 0.000000
# 2 -0.002220 0.004550 -0.003995 0.000000 -0.004510 0.000000
# 3 0.003519 -0.003995 0.014967 0.000000 0.005034 0.000000
# 4 0.000000 0.000000 0.000000 0.041130 0.000000 0.010939
# 5 -0.003200 -0.004510 0.005034 0.000000 0.044877 0.000000
# 6 0.000000 0.000000 0.000000 0.010939 0.000000 -0.061182
#
#
# Mechanical properties :
#
#
# Convention : Reuss Voigt Hill
#
# Bulk Modulus (GPa) = 28.40605 70.97735 49.69170
# Shear Modulus (GPa) = 60.57308 31.54294 46.05801
#
# Velocity S-wave (km/s) = 5.22680 3.77179 4.55773
# Velocity P-wave (km/s) = 7.01694 7.14006 7.07877
#
# Compressibility (1/GPa) = 0.03520377
#
# Stress axis : x y z
#
# Youngs Moduli (GPa) = 47.44427 219.77938 66.81179
#
# Poissons Ratio (x) = 0.48784 -0.23510
# Poissons Ratio (y) = 0.10531 0.26689
# Poissons Ratio (z) = -0.16695 0.87793
#
# Static dielectric constant tensor:
#      x y z
#    x 1.861040 0.000000 -0.044660 
#    y 0.000000 1.945490 0.000000 
#    z -0.044660 0.000000 1.719090 
# 
# From -- ./inp_files/31852.got.cif
#   From: 2010.05.17/outbox.cif.g08.bks.cpg/sg10_16_cif.got.tgz:31852.got - 2010.06.03 11:33:40.
