data_PCOD9149501
_publ_section_title
;
Structure prediction by ZEFSAII (Michael W. Deem and Ramdas Pophale) SiO2 
 PCOD9149501
Probable space group: P 2/M
;
_chemical_formula_sum "Si O2"
_cell_formula_units_Z 28
_cell_length_a 8.232727
_cell_length_b 14.171637
_cell_length_c 14.824276
_cell_angle_alpha 90.000000
_cell_angle_beta 55.291737
_cell_angle_gamma 90.000000
_cell_volume 1421.810653
_symmetry_space_group_name_H-M "P 2/M"
_symmetry_group_IT_number 10
_symmetry_cell_setting 'monoclinic'
loop_
_space_group_symop_operation_xyz
x,y,z
-x,y,-z
-x,-y,-z
x,-y,z
loop_
_atom_site_type_symbol
_atom_site_label
_atom_site_fract_x
_atom_site_fract_y
_atom_site_fract_z
Si Si1 0.918344 0.388779 0.127460
Si Si2 0.728249 0.602523 0.450541
Si Si3 0.368106 0.891572 0.952741
Si Si4 0.382793 0.779782 0.768912
Si Si5 0.209411 0.710097 0.398051
Si Si6 0.986476 0.108264 0.187073
Si Si7 0.060457 0.707365 0.253841
O O1 0.881360 0.500000 0.155001
O O2 0.725260 0.322209 0.196078
O O3 0.070064 0.347571 0.155476
O O4 0.000000 0.377782 0.000000
O O5 0.500000 0.605013 0.500000
O O6 0.810304 0.500000 0.399590
O O7 0.760542 0.621952 0.545369
O O8 0.842662 0.681143 0.358804
O O9 0.139298 0.885550 0.055231
O O10 0.406002 0.000000 0.911251
O O11 0.500000 0.875161 0.000000
O O12 0.411456 0.818250 0.860893
O O13 0.595023 0.772867 0.654594
O O14 0.225768 0.851165 0.773793
O O15 0.000000 0.752323 0.500000
O O16 0.192563 0.682069 0.298287
O O17 0.073086 0.181595 0.231858
O O18 0.980088 0.000000 0.218110
#
# Coordination Sequence:
#
# PCOD9149501 Si02
#       7
#     4   4   4   4   4   4   4
#     4  10  21  36  55  83 118 155 193 231 283 357
#     4  10  20  36  60  86 110 142 192 248 294 341
#     4  10  20  34  57  89 119 149 189 236 287 344
#     4  11  20  35  58  80 113 152 192 240 292 342
#     4  10  23  38  57  84 114 147 192 247 300 343
#     4  10  20  35  58  87 115 148 192 234 279 344
#     4  10  20  36  57  80 113 152 187 234 293 341
#
# _framework density 19.693197999999999
#
# number of rings (size 3 to 8) (size 9 to 14) (size 15 to 20)
#    0.000    1.857    0.000    5.571    0.000    6.000 
#    0.000    0.714    0.000   21.857    0.000    0.000 
#    0.000    0.000    0.000    0.000    0.000    0.000 
#
# Total GULP energy -156177.353542 kJ/mol
# GULP energy per Si atom -5577.762627 kJ/mol
# Density = 1.964838 g / cm^3
# Si number density = 19.693198 Si / 1000 Ang^3
#
#
#
# Elastic Constant Matrix: (Units=GPa)
#
#
# Indices 1 2 3 4 5 6 
#
# 1 85.3371 22.1506 33.9644 0.0000 8.3143 0.0000
# 2 22.1506 117.0658 34.9571 0.0000 6.4571 0.0000
# 3 33.9644 34.9571 69.1593 0.0000 6.1015 0.0000
# 4 0.0000 0.0000 0.0000 8.2280 0.0000 -10.3606
# 5 8.3143 6.4571 6.1015 0.0000 46.2131 0.0000
# 6 0.0000 0.0000 0.0000 -10.3606 0.0000 -22.3222
#
#
#
# Elastic Compliance Matrix: (Units=1/GPa)
#
#
# Indices 1 2 3 4 5 6 
#
# 1 0.014744 -0.000683 -0.006749 0.000000 -0.001666 0.000000
# 2 -0.000683 0.010118 -0.004720 0.000000 -0.000668 0.000000
# 3 -0.006749 -0.004720 0.020230 0.000000 -0.000797 0.000000
# 4 0.000000 0.000000 0.000000 0.076706 0.000000 -0.035602
# 5 -0.001666 -0.000668 -0.000797 0.000000 0.022137 0.000000
# 6 0.000000 0.000000 0.000000 -0.035602 0.000000 -0.028274
#
#
# Mechanical properties :
#
#
# Convention : Reuss Voigt Hill
#
# Bulk Modulus (GPa) = 48.10304 50.41184 49.25744
# Shear Modulus (GPa) = 34.03851 18.45644 26.24748
#
# Velocity S-wave (km/s) = 4.16196 3.06469 3.65474
# Velocity P-wave (km/s) = 6.89747 6.17878 6.54799
#
# Compressibility (1/GPa) = 0.02078871
#
# Stress axis : x y z
#
# Youngs Moduli (GPa) = 67.82531 98.83764 49.43216
#
# Poissons Ratio (x) = 0.06747 0.33360
# Poissons Ratio (y) = 0.04630 0.23331
# Poissons Ratio (z) = 0.45773 0.46650
#
# Static dielectric constant tensor:
#      x y z
#    x 1.748500 0.000000 0.012350 
#    y 0.000000 1.677910 0.000000 
#    z 0.012350 0.000000 1.699230 
# 
# From -- ./inp_files/61781.got.cif
#   From: 2010.05.17/outbox.cif.g08.bks.cpg/sg10_31_cif.got.tgz:61781.got - 2010.06.03 11:33:40.
