data_PCOD9149740
_publ_section_title
;
Structure prediction by ZEFSAII (Michael W. Deem and Ramdas Pophale) SiO2 
 PCOD9149740
Probable space group: P 2/M
;
_chemical_formula_sum "Si O2"
_cell_formula_units_Z 28
_cell_length_a 8.735325
_cell_length_b 14.788586
_cell_length_c 20.474212
_cell_angle_alpha 90.000000
_cell_angle_beta 34.573625
_cell_angle_gamma 90.000000
_cell_volume 1500.900213
_symmetry_space_group_name_H-M "P 2/M"
_symmetry_group_IT_number 10
_symmetry_cell_setting 'monoclinic'
loop_
_space_group_symop_operation_xyz
x,y,z
-x,y,-z
-x,-y,-z
x,-y,z
loop_
_atom_site_type_symbol
_atom_site_label
_atom_site_fract_x
_atom_site_fract_y
_atom_site_fract_z
Si Si1 0.649688 0.000000 0.553997
Si Si2 0.823640 0.706707 0.240586
Si Si3 0.930879 0.000000 0.315082
Si Si4 0.819023 0.606089 0.375322
Si Si5 0.270141 0.160771 0.132529
Si Si6 0.699329 0.271497 0.751651
Si Si7 0.300846 0.812132 0.385166
Si Si8 0.759723 0.400186 0.135143
O O1 0.851754 0.000000 0.419974
O O2 0.351373 0.000000 0.626089
O O3 0.686084 0.911321 0.586483
O O4 0.854333 0.634894 0.287683
O O5 0.527909 0.752286 0.340931
O O6 0.862070 0.657261 0.159482
O O7 0.042313 0.784533 0.173519
O O8 0.109957 0.915750 0.228822
O O9 0.500000 0.617047 0.500000
O O10 0.889431 0.500000 0.362528
O O11 0.006981 0.679651 0.346642
O O12 0.373541 0.227193 0.153355
O O13 0.500000 0.131788 0.000000
O O14 0.664689 0.198395 0.705317
O O15 0.493276 0.350754 0.807447
O O16 0.000000 0.775417 0.500000
O O17 0.680294 0.500000 0.185288
O O18 0.000000 0.405620 0.000000
#
# Coordination Sequence:
#
# PCOD9149740 Si02
#       8
#     2   4   2   4   4   4   4   4
#     4  11  23  40  63  88 119 144 186 238 287 346
#     4  10  21  36  56  84 115 150 197 235 283 336
#     4  11  23  40  63  90 113 149 189 234 287 343
#     4  10  20  35  55  82 117 155 192 236 286 337
#     4  11  22  40  61  84 117 155 195 236 284 340
#     4  10  22  36  57  86 115 149 195 236 286 337
#     4  11  21  37  58  86 117 148 186 236 291 343
#     4  10  20  36  57  81 112 151 192 238 286 330
#
# _framework density 18.655470999999999
#
# number of rings (size 3 to 8) (size 9 to 14) (size 15 to 20)
#    0.000    1.571    1.429    3.857    0.000    1.714 
#    0.000    0.000    0.000   14.571    0.000    0.000 
#    0.000    0.000    0.000    0.000    0.000    0.000 
#
# Total GULP energy -156149.439465 kJ/mol
# GULP energy per Si atom -5576.765695 kJ/mol
# Density = 1.861301 g / cm^3
# Si number density = 18.655471 Si / 1000 Ang^3
#
#
#
# Elastic Constant Matrix: (Units=GPa)
#
#
# Indices 1 2 3 4 5 6 
#
# 1 100.0047 43.1844 19.1303 0.0000 0.5441 0.0000
# 2 43.1844 101.0927 29.0813 0.0000 16.1651 0.0000
# 3 19.1303 29.0813 77.3974 0.0000 2.6017 0.0000
# 4 0.0000 0.0000 0.0000 26.0549 0.0000 2.7619
# 5 0.5441 16.1651 2.6017 0.0000 16.9068 0.0000
# 6 0.0000 0.0000 0.0000 2.7619 0.0000 22.3756
#
#
#
# Elastic Compliance Matrix: (Units=1/GPa)
#
#
# Indices 1 2 3 4 5 6 
#
# 1 0.012781 -0.006033 -0.001078 0.000000 0.005523 0.000000
# 2 -0.006033 0.015928 -0.004009 0.000000 -0.014418 0.000000
# 3 -0.001078 -0.004009 0.014639 0.000000 0.001615 0.000000
# 4 0.000000 0.000000 0.000000 0.038889 0.000000 -0.004800
# 5 0.005523 -0.014418 0.001615 0.000000 0.072507 0.000000
# 6 0.000000 0.000000 0.000000 -0.004800 0.000000 0.045284
#
#
# Mechanical properties :
#
#
# Convention : Reuss Voigt Hill
#
# Bulk Modulus (GPa) = 47.37501 51.25408 49.31455
# Shear Modulus (GPa) = 21.80528 25.54072 23.67300
#
# Velocity S-wave (km/s) = 3.42254 3.70411 3.56611
# Velocity P-wave (km/s) = 6.40845 6.76961 6.59150
#
# Compressibility (1/GPa) = 0.02110818
#
# Stress axis : x y z
#
# Youngs Moduli (GPa) = 78.24287 62.78410 68.31174
#
# Poissons Ratio (x) = 0.37875 0.07364
# Poissons Ratio (y) = 0.47201 0.27385
# Poissons Ratio (z) = 0.08434 0.25169
#
# Static dielectric constant tensor:
#      x y z
#    x 1.637160 0.000000 0.000330 
#    y 0.000000 1.654270 0.000000 
#    z 0.000330 0.000000 1.635600 
# 
# From -- ./inp_files/24965.got.cif
#   From: 2010.05.17/outbox.cif.g08.bks.cpg/sg10_13_cif.got.tgz:24965.got - 2010.06.03 11:33:40.
