data_PCOD9149665
_publ_section_title
;
Structure prediction by ZEFSAII (Michael W. Deem and Ramdas Pophale) SiO2 
 PCOD9149665
Probable space group: P 2/M
;
_chemical_formula_sum "Si O2"
_cell_formula_units_Z 28
_cell_length_a 15.392820
_cell_length_b 8.742104
_cell_length_c 12.694150
_cell_angle_alpha 90.000000
_cell_angle_beta 74.322741
_cell_angle_gamma 90.000000
_cell_volume 1644.649847
_symmetry_space_group_name_H-M "P 2/M"
_symmetry_group_IT_number 10
_symmetry_cell_setting 'monoclinic'
loop_
_space_group_symop_operation_xyz
x,y,z
-x,y,-z
-x,-y,-z
x,-y,z
loop_
_atom_site_type_symbol
_atom_site_label
_atom_site_fract_x
_atom_site_fract_y
_atom_site_fract_z
Si Si1 0.906384 0.683817 0.735874
Si Si2 0.786868 0.817635 0.202149
Si Si3 0.593807 0.183080 0.353122
Si Si4 0.113815 0.316950 0.627442
Si Si5 0.097327 0.315882 0.016505
Si Si6 0.403212 0.682456 0.412982
Si Si7 0.777434 0.181462 0.605094
O O1 0.895477 0.500000 0.729334
O O2 0.832930 0.766635 0.688873
O O3 0.007622 0.720678 0.663663
O O4 0.899386 0.723547 0.861471
O O5 0.681526 0.781872 0.254982
O O6 0.842788 0.735894 0.276782
O O7 0.826140 0.761616 0.078787
O O8 0.797985 0.000000 0.209383
O O9 0.610181 0.248907 0.465080
O O10 0.500531 0.256066 0.344649
O O11 0.583714 0.000000 0.364050
O O12 0.123103 0.500000 0.614079
O O13 0.165718 0.237229 0.515028
O O14 0.104947 0.500000 0.004666
O O15 0.000000 0.272408 0.000000
O O16 0.404234 0.500000 0.419303
O O17 0.320221 0.740059 0.370735
O O18 0.766891 0.000000 0.604641
#
# Coordination Sequence:
#
# PCOD9149665 Si02
#       7
#     4   4   4   4   4   4   4
#     4  10  22  39  57  79 109 150 194 231 273 327
#     4  11  22  34  55  85 117 148 181 226 281 331
#     4  10  20  35  54  81 116 146 177 227 283 330
#     4  11  21  36  57  80 112 150 189 228 272 330
#     4  10  20  38  59  80 108 148 192 234 275 319
#     4  11  21  34  56  82 109 145 187 226 272 335
#     4  12  24  37  54  81 116 150 184 228 284 336
#
# _framework density 17.024901
#
# number of rings (size 3 to 8) (size 9 to 14) (size 15 to 20)
#    0.000    1.286    2.857    5.143    0.000    5.429 
#    0.000    0.000    0.000    0.857    0.000    6.000 
#    0.000    0.000    0.000    0.000    0.000    0.000 
#
# Total GULP energy -156489.557089 kJ/mol
# GULP energy per Si atom -5588.912753 kJ/mol
# Density = 1.698615 g / cm^3
# Si number density = 17.024901 Si / 1000 Ang^3
#
#
#
# Elastic Constant Matrix: (Units=GPa)
#
#
# Indices 1 2 3 4 5 6 
#
# 1 142.4986 61.4074 46.8434 0.0000 -9.8580 0.0000
# 2 61.4074 78.1467 29.8184 0.0000 -5.7573 0.0000
# 3 46.8434 29.8184 50.4768 0.0000 -5.2567 0.0000
# 4 0.0000 0.0000 0.0000 45.8501 0.0000 15.6674
# 5 -9.8580 -5.7573 -5.2567 0.0000 28.0738 0.0000
# 6 0.0000 0.0000 0.0000 15.6674 0.0000 48.2822
#
#
#
# Elastic Compliance Matrix: (Units=1/GPa)
#
#
# Indices 1 2 3 4 5 6 
#
# 1 0.012535 -0.006916 -0.007380 0.000000 0.001601 0.000000
# 2 -0.006916 0.020406 -0.005562 0.000000 0.000715 0.000000
# 3 -0.007380 -0.005562 0.030145 0.000000 0.001912 0.000000
# 4 0.000000 0.000000 0.000000 0.024530 0.000000 -0.007960
# 5 0.001601 0.000715 0.001912 0.000000 0.036687 0.000000
# 6 0.000000 0.000000 0.000000 -0.007960 0.000000 0.023295
#
#
# Mechanical properties :
#
#
# Convention : Reuss Voigt Hill
#
# Bulk Modulus (GPa) = 42.79116 60.80671 51.79893
# Shear Modulus (GPa) = 25.62739 33.31139 29.46939
#
# Velocity S-wave (km/s) = 3.88401 4.42818 4.16499
# Velocity P-wave (km/s) = 6.73076 7.87013 7.32264
#
# Compressibility (1/GPa) = 0.02336931
#
# Stress axis : x y z
#
# Youngs Moduli (GPa) = 79.77851 49.00585 33.17287
#
# Poissons Ratio (x) = 0.33891 0.24483
# Poissons Ratio (y) = 0.55172 0.18451
# Poissons Ratio (z) = 0.58880 0.27258
#
# Static dielectric constant tensor:
#      x y z
#    x 1.572660 0.000000 -0.010330 
#    y 0.000000 1.569450 0.000000 
#    z -0.010330 0.000000 1.549430 
# 
# From -- ./inp_files/49058.got.cif
#   From: 2010.05.17/outbox.cif.g08.bks.cpg/sg10_25_cif.got.tgz:49058.got - 2010.06.03 11:33:40.
