data_PCOD9149251
_publ_section_title
;
Structure prediction by ZEFSAII (Michael W. Deem and Ramdas Pophale) SiO2 
 PCOD9149251
Probable space group: P 2/M
;
_chemical_formula_sum "Si O2"
_cell_formula_units_Z 32
_cell_length_a 12.436758
_cell_length_b 7.671579
_cell_length_c 15.239173
_cell_angle_alpha 90.000000
_cell_angle_beta 84.630538
_cell_angle_gamma 90.000000
_cell_volume 1447.582950
_symmetry_space_group_name_H-M "P 2/M"
_symmetry_group_IT_number 10
_symmetry_cell_setting 'monoclinic'
loop_
_space_group_symop_operation_xyz
x,y,z
-x,y,-z
-x,-y,-z
x,-y,z
loop_
_atom_site_type_symbol
_atom_site_label
_atom_site_fract_x
_atom_site_fract_y
_atom_site_fract_z
Si Si1 0.239310 0.800559 0.845756
Si Si2 0.629298 0.799409 0.688437
Si Si3 0.686085 0.289721 0.488790
Si Si4 0.980279 0.791431 0.217342
Si Si5 0.780879 0.787377 0.829051
Si Si6 0.929976 0.290106 0.422398
Si Si7 0.375647 0.213493 0.999923
Si Si8 0.605393 0.699148 0.314125
O O1 0.124419 0.720611 0.826441
O O2 0.313160 0.800774 0.753587
O O3 0.217428 0.000000 0.874915
O O4 0.313429 0.723972 0.917280
O O5 0.660367 0.787774 0.584652
O O6 0.725656 0.732991 0.741922
O O7 0.515822 0.705966 0.711109
O O8 0.609648 0.000000 0.714566
O O9 0.679777 0.500000 0.500408
O O10 0.805877 0.240396 0.448139
O O11 0.608051 0.239270 0.414673
O O12 0.968398 0.763900 0.322909
O O13 0.096074 0.724243 0.175758
O O14 0.979280 0.000000 0.204771
O O15 0.699821 0.736114 0.912613
O O16 0.786100 0.000000 0.829674
O O17 0.934441 0.500000 0.423343
O O18 0.000000 0.225800 0.500000
O O19 0.380243 0.000000 0.996985
O O20 0.500000 0.272036 0.000000
O O21 0.644976 0.500000 0.311708
#
# Coordination Sequence:
#
# PCOD9149251 Si02
#       8
#     4   4   4   4   4   4   4   4
#     4  10  20  34  57  86 110 142 189 233 274 329
#     4  11  22  35  55  81 109 143 186 232 276 327
#     4  10  21  36  52  76 108 145 185 223 275 333
#     4  10  20  34  54  82 114 143 181 232 279 325
#     4   9  19  35  54  81 115 146 177 223 284 334
#     4  10  20  35  55  77 106 149 195 229 265 327
#     4   9  17  32  56  83 112 146 183 226 277 333
#     4  11  22  37  56  77 110 150 183 225 282 335
#
# _framework density 22.105813000000001
#
# number of rings (size 3 to 8) (size 9 to 14) (size 15 to 20)
#    0.000    2.000    1.250    2.625    0.000    5.750 
#    0.000    3.125    0.000    4.875    0.000    1.750 
#    0.000    0.000    0.000    0.000    0.000    0.000 
#
# Total GULP energy -178769.626158 kJ/mol
# GULP energy per Si atom -5586.550817 kJ/mol
# Density = 2.205550 g / cm^3
# Si number density = 22.105813 Si / 1000 Ang^3
#
#
#
# Elastic Constant Matrix: (Units=GPa)
#
#
# Indices 1 2 3 4 5 6 
#
# 1 199.8262 7.5379 85.2386 0.0000 11.3781 0.0000
# 2 7.5379 39.0093 -1.1271 0.0000 5.6708 0.0000
# 3 85.2386 -1.1271 117.8528 0.0000 19.6291 0.0000
# 4 0.0000 0.0000 0.0000 68.3457 0.0000 -27.4998
# 5 11.3781 5.6708 19.6291 0.0000 38.9398 0.0000
# 6 0.0000 0.0000 0.0000 -27.4998 0.0000 20.2138
#
#
#
# Elastic Compliance Matrix: (Units=1/GPa)
#
#
# Indices 1 2 3 4 5 6 
#
# 1 0.007358 -0.001705 -0.005481 0.000000 0.000862 0.000000
# 2 -0.001705 0.026686 0.002241 0.000000 -0.004518 0.000000
# 3 -0.005481 0.002241 0.013382 0.000000 -0.005471 0.000000
# 4 0.000000 0.000000 0.000000 0.032327 0.000000 0.043979
# 5 0.000862 -0.004518 -0.005471 0.000000 0.028844 0.000000
# 6 0.000000 0.000000 0.000000 0.043979 0.000000 0.109303
#
#
# Mechanical properties :
#
#
# Convention : Reuss Voigt Hill
#
# Bulk Modulus (GPa) = 26.64212 59.99856 43.32034
# Shear Modulus (GPa) = 20.80702 43.16911 31.98807
#
# Velocity S-wave (km/s) = 3.07130 4.42389 3.80813
# Velocity P-wave (km/s) = 4.96543 7.30033 6.24301
#
# Compressibility (1/GPa) = 0.03753455
#
# Stress axis : x y z
#
# Youngs Moduli (GPa) = 135.91010 37.47295 74.72578
#
# Poissons Ratio (x) = 0.06391 0.40960
# Poissons Ratio (y) = 0.23178 -0.16747
# Poissons Ratio (z) = 0.74498 -0.08398
#
# Static dielectric constant tensor:
#      x y z
#    x 1.802910 0.000000 0.037910 
#    y 0.000000 1.878240 0.000000 
#    z 0.037910 0.000000 1.782890 
# 
# From -- ./inp_files/49954.got.cif
#   From: 2010.05.17/outbox.cif.g08.bks.cpg/sg10_25_cif.got.tgz:49954.got - 2010.06.03 11:33:40.
