data_PCOD9149927
_publ_section_title
;
Structure prediction by ZEFSAII (Michael W. Deem and Ramdas Pophale) SiO2 
 PCOD9149927
Probable space group: P 2/M
;
_chemical_formula_sum "Si O2"
_cell_formula_units_Z 32
_cell_length_a 12.373890
_cell_length_b 8.906172
_cell_length_c 14.581364
_cell_angle_alpha 90.000000
_cell_angle_beta 90.649000
_cell_angle_gamma 90.000000
_cell_volume 1606.821444
_symmetry_space_group_name_H-M "P 2/M"
_symmetry_group_IT_number 10
_symmetry_cell_setting 'monoclinic'
loop_
_space_group_symop_operation_xyz
x,y,z
-x,y,-z
-x,-y,-z
x,-y,z
loop_
_atom_site_type_symbol
_atom_site_label
_atom_site_fract_x
_atom_site_fract_y
_atom_site_fract_z
Si Si1 0.747206 0.678280 0.177539
Si Si2 0.303368 0.679382 0.610299
Si Si3 0.879175 0.820370 0.031082
Si Si4 0.301074 0.680795 0.102447
Si Si5 0.740780 0.679856 0.688082
Si Si6 0.524795 0.826802 0.136996
Si Si7 0.476503 0.171349 0.356316
Si Si8 0.116189 0.683234 0.468688
O O1 0.756043 0.500000 0.164723
O O2 0.735206 0.709238 0.285662
O O3 0.636501 0.737034 0.129516
O O4 0.847588 0.760545 0.131347
O O5 0.318673 0.500000 0.602260
O O6 0.418289 0.757736 0.596595
O O7 0.210096 0.727533 0.540132
O O8 0.789894 0.744620 0.965018
O O9 0.868399 0.000000 0.027589
O O10 0.000000 0.780205 0.000000
O O11 0.307882 0.500000 0.096009
O O12 0.265501 0.724497 0.205935
O O13 0.420132 0.751490 0.090066
O O14 0.737435 0.500000 0.686720
O O15 0.633897 0.737766 0.635661
O O16 0.845182 0.729981 0.632057
O O17 0.500730 0.825297 0.246583
O O18 0.537976 0.000000 0.109056
O O19 0.461452 0.000000 0.384123
O O20 0.112406 0.500000 0.469501
O O21 0.000000 0.738261 0.500000
#
# Coordination Sequence:
#
# PCOD9149927 Si02
#       8
#     4   4   4   4   4   4   4   4
#     4  10  20  35  57  84 111 139 176 224 272 315
#     4   9  18  33  55  81 109 140 174 217 265 313
#     4  11  25  42  57  76 105 143 185 223 264 321
#     4  10  20  35  57  84 111 139 176 224 272 315
#     4   9  18  33  55  81 109 140 174 217 265 313
#     4   9  17  32  55  82 112 144 176 212 263 327
#     4   9  17  30  51  78 109 142 175 214 261 317
#     4   9  18  33  53  78 106 139 182 223 260 311
#
# _framework density 19.915095000000001
#
# number of rings (size 3 to 8) (size 9 to 14) (size 15 to 20)
#    0.000    2.500    0.000    1.875    0.000    7.000 
#    0.000    8.125    0.000    1.500    0.000    0.000 
#    0.000    0.000    0.000    0.000    0.000    0.000 
#
# Total GULP energy -178713.599149 kJ/mol
# GULP energy per Si atom -5584.799973 kJ/mol
# Density = 1.986977 g / cm^3
# Si number density = 19.915095 Si / 1000 Ang^3
#
#
#
# Elastic Constant Matrix: (Units=GPa)
#
#
# Indices 1 2 3 4 5 6 
#
# 1 73.0878 10.2696 17.6467 0.0000 -19.1557 0.0000
# 2 10.2696 29.0652 11.6189 0.0000 -4.5612 0.0000
# 3 17.6467 11.6189 54.0117 0.0000 -5.6886 0.0000
# 4 0.0000 0.0000 0.0000 12.0604 0.0000 -2.9831
# 5 -19.1557 -4.5612 -5.6886 0.0000 33.1650 0.0000
# 6 0.0000 0.0000 0.0000 -2.9831 0.0000 21.9316
#
#
#
# Elastic Compliance Matrix: (Units=1/GPa)
#
#
# Indices 1 2 3 4 5 6 
#
# 1 0.017454 -0.003129 -0.004087 0.000000 0.008950 0.000000
# 2 -0.003129 0.038694 -0.007059 0.000000 0.002304 0.000000
# 3 -0.004087 -0.007059 0.021404 0.000000 0.000340 0.000000
# 4 0.000000 0.000000 0.000000 0.085803 0.000000 0.011671
# 5 0.008950 0.002304 0.000340 0.000000 0.035697 0.000000
# 6 0.000000 0.000000 0.000000 0.011671 0.000000 0.047184
#
#
# Mechanical properties :
#
#
# Convention : Reuss Voigt Hill
#
# Bulk Modulus (GPa) = 20.40684 26.13724 23.27204
# Shear Modulus (GPa) = 17.17506 21.20671 19.19089
#
# Velocity S-wave (km/s) = 2.93987 3.26675 3.10762
# Velocity P-wave (km/s) = 4.66830 5.23276 4.95856
#
# Compressibility (1/GPa) = 0.04900318
#
# Stress axis : x y z
#
# Youngs Moduli (GPa) = 57.29243 25.84365 46.71997
#
# Poissons Ratio (x) = 0.08086 0.19094
# Poissons Ratio (y) = 0.17926 0.32980
# Poissons Ratio (z) = 0.23415 0.18243
#
# Static dielectric constant tensor:
#      x y z
#    x 1.667930 0.000000 -0.029270 
#    y 0.000000 1.664070 0.000000 
#    z -0.029270 0.000000 1.770360 
# 
# From -- ./inp_files/63847.got.cif
#   From: 2010.05.17/outbox.cif.g08.bks.cpg/sg10_32_cif.got.tgz:63847.got - 2010.06.03 11:33:40.
