data_PCOD9149179
_publ_section_title
;
Structure prediction by ZEFSAII (Michael W. Deem and Ramdas Pophale) SiO2 
 PCOD9149179
Probable space group: P 2/M
;
_chemical_formula_sum "Si O2"
_cell_formula_units_Z 20
_cell_length_a 6.845005
_cell_length_b 23.151042
_cell_length_c 5.244751
_cell_angle_alpha 90.000000
_cell_angle_beta 101.754030
_cell_angle_gamma 90.000000
_cell_volume 813.702585
_symmetry_space_group_name_H-M "P 2/M"
_symmetry_group_IT_number 10
_symmetry_cell_setting 'monoclinic'
loop_
_space_group_symop_operation_xyz
x,y,z
-x,y,-z
-x,-y,-z
x,-y,z
loop_
_atom_site_type_symbol
_atom_site_label
_atom_site_fract_x
_atom_site_fract_y
_atom_site_fract_z
Si Si1 0.756182 0.127283 0.911523
Si Si2 0.261685 0.632918 0.438596
Si Si3 0.871464 0.761387 0.711731
Si Si4 0.743575 0.565913 0.065083
Si Si5 0.757003 0.934807 0.414467
O O1 0.718861 0.189737 0.773094
O O2 0.692996 0.080966 0.683388
O O3 0.692179 0.110528 0.179152
O O4 0.000000 0.126088 0.000000
O O5 0.500000 0.628890 0.500000
O O6 0.212182 0.699924 0.393490
O O7 0.194838 0.607771 0.690161
O O8 0.195243 0.592775 0.187516
O O9 0.000000 0.783355 0.500000
O O10 0.000000 0.749755 0.000000
O O11 0.808616 0.500000 0.121167
O O12 0.500000 0.564685 0.000000
O O13 0.000000 0.933016 0.500000
O O14 0.703763 0.000000 0.326240
#
# Coordination Sequence:
#
# PCOD9149179 Si02
#       5
#     4   4   4   4   4
#     4   9  16  26  39  59  87 122 157 187 231 288
#     4  10  20  34  54  78 100 125 164 207 240 281
#     4  11  21  34  51  70 100 137 166 195 239 296
#     4   9  17  31  53  78 100 124 158 202 248 289
#     4   9  15  23  37  58  86 118 152 193 238 280
#
# _framework density 24.579003
#
# number of rings (size 3 to 8) (size 9 to 14) (size 15 to 20)
#    0.000    2.400    0.000    5.400    0.000    4.800 
#    0.000    0.000    0.000   12.000    0.000    0.000 
#    0.000    4.800    0.000    0.000    0.000   17.200 
#
# Total GULP energy -111933.296352 kJ/mol
# GULP energy per Si atom -5596.664818 kJ/mol
# Density = 2.452306 g / cm^3
# Si number density = 24.579003 Si / 1000 Ang^3
#
#
#
# Elastic Constant Matrix: (Units=GPa)
#
#
# Indices 1 2 3 4 5 6 
#
# 1 79.3063 5.5382 29.9243 0.0000 -19.7672 0.0000
# 2 5.5382 193.2648 85.4290 0.0000 -15.8359 0.0000
# 3 29.9243 85.4290 180.2793 0.0000 -26.9508 0.0000
# 4 0.0000 0.0000 0.0000 37.8299 0.0000 -7.0480
# 5 -19.7672 -15.8359 -26.9508 0.0000 48.0518 0.0000
# 6 0.0000 0.0000 0.0000 -7.0480 0.0000 3.4358
#
#
#
# Elastic Compliance Matrix: (Units=1/GPa)
#
#
# Indices 1 2 3 4 5 6 
#
# 1 0.014618 0.000930 -0.002098 0.000000 0.005143 0.000000
# 2 0.000930 0.006614 -0.003171 0.000000 0.000784 0.000000
# 3 -0.002098 -0.003171 0.007764 0.000000 0.002446 0.000000
# 4 0.000000 0.000000 0.000000 0.042787 0.000000 0.087771
# 5 0.005143 0.000784 0.002446 0.000000 0.024557 0.000000
# 6 0.000000 0.000000 0.000000 0.087771 0.000000 0.471108
#
#
# Mechanical properties :
#
#
# Convention : Reuss Voigt Hill
#
# Bulk Modulus (GPa) = 49.22139 77.18148 63.20143
# Shear Modulus (GPa) = 8.57784 39.99409 24.28596
#
# Velocity S-wave (km/s) = 1.87016 4.03819 3.14678
# Velocity P-wave (km/s) = 4.97319 7.29467 6.24279
#
# Compressibility (1/GPa) = 0.02031637
#
# Stress axis : x y z
#
# Youngs Moduli (GPa) = 68.40858 151.20420 128.80511
#
# Poissons Ratio (x) = -0.14062 0.27027
# Poissons Ratio (y) = -0.06362 0.40847
# Poissons Ratio (z) = 0.14354 0.47950
#
# Static dielectric constant tensor:
#      x y z
#    x 2.081210 0.000000 0.042820 
#    y 0.000000 1.897350 0.000000 
#    z 0.042820 0.000000 1.879050 
# 
# From -- ./inp_files/4830.got.cif
#   From: 2010.05.17/outbox.cif.g08.bks.cpg/sg10_3_cif.got.tgz:4830.got - 2010.06.03 11:33:40.
