data_PCOD9149773
_publ_section_title
;
Structure prediction by ZEFSAII (Michael W. Deem and Ramdas Pophale) SiO2 
 PCOD9149773
Probable space group: P 2/M
;
_chemical_formula_sum "Si O2"
_cell_formula_units_Z 28
_cell_length_a 30.071653
_cell_length_b 7.696598
_cell_length_c 9.319891
_cell_angle_alpha 90.000000
_cell_angle_beta 38.709763
_cell_angle_gamma 90.000000
_cell_volume 1348.987394
_symmetry_space_group_name_H-M "P 2/M"
_symmetry_group_IT_number 10
_symmetry_cell_setting 'monoclinic'
loop_
_space_group_symop_operation_xyz
x,y,z
-x,y,-z
-x,-y,-z
x,-y,z
loop_
_atom_site_type_symbol
_atom_site_label
_atom_site_fract_x
_atom_site_fract_y
_atom_site_fract_z
Si Si1 0.510362 0.702397 0.632820
Si Si2 0.931137 0.209834 0.588754
Si Si3 0.367069 0.795325 0.148880
Si Si4 0.640517 0.711371 0.498248
Si Si5 0.069510 0.212784 0.740885
Si Si6 0.225220 0.203022 0.358524
Si Si7 0.773881 0.295335 0.975884
O O1 0.500000 0.779913 0.500000
O O2 0.529634 0.500000 0.562185
O O3 0.574134 0.774487 0.569372
O O4 0.437074 0.712710 0.904008
O O5 0.936827 0.263706 0.408955
O O6 0.853167 0.265951 0.836203
O O7 0.000000 0.273381 0.500000
O O8 0.931678 0.000000 0.591939
O O9 0.364699 0.772733 0.325503
O O10 0.294859 0.722220 0.259068
O O11 0.371620 0.000000 0.103444
O O12 0.639393 0.500000 0.506504
O O13 0.712883 0.767409 0.236756
O O14 0.147323 0.274517 0.596028
O O15 0.070433 0.000000 0.743696
O O16 0.000000 0.271592 0.000000
O O17 0.230916 0.214617 0.171266
O O18 0.223744 0.000000 0.402065
O O19 0.763079 0.500000 0.981827
#
# Coordination Sequence:
#
# PCOD9149773 Si02
#       7
#     4   4   4   4   4   4   4
#     4  10  21  39  61  80 103 141 184 220 260 318
#     4   9  18  32  51  75 104 140 178 216 263 317
#     4  11  23  36  54  82 112 140 173 220 273 318
#     4  10  22  38  55  78 108 142 178 217 265 320
#     4   8  14  27  48  71  95 127 169 211 248 297
#     4   9  19  35  53  76 106 138 174 217 266 320
#     4  10  20  35  56  79 104 139 182 224 265 312
#
# _framework density 20.756309999999999
#
# number of rings (size 3 to 8) (size 9 to 14) (size 15 to 20)
#    0.000    2.429    0.000    3.000    0.000    7.429 
#    0.000    2.857    0.000    6.857    0.000    0.000 
#    0.000    0.000    0.000    0.000    0.000    0.000 
#
# Total GULP energy -156284.717938 kJ/mol
# GULP energy per Si atom -5581.597069 kJ/mol
# Density = 2.070907 g / cm^3
# Si number density = 20.756310 Si / 1000 Ang^3
#
#
#
# Elastic Constant Matrix: (Units=GPa)
#
#
# Indices 1 2 3 4 5 6 
#
# 1 156.6890 -9.9815 75.2565 0.0000 -29.5245 0.0000
# 2 -9.9815 31.7313 -18.1486 0.0000 -2.2426 0.0000
# 3 75.2565 -18.1486 157.8393 0.0000 -24.0310 0.0000
# 4 0.0000 0.0000 0.0000 22.4971 0.0000 1.5368
# 5 -29.5245 -2.2426 -24.0310 0.0000 31.2217 0.0000
# 6 0.0000 0.0000 0.0000 1.5368 0.0000 14.9676
#
#
#
# Elastic Compliance Matrix: (Units=1/GPa)
#
#
# Indices 1 2 3 4 5 6 
#
# 1 0.009240 0.001482 -0.003272 0.000000 0.006326 0.000000
# 2 0.001482 0.035038 0.004439 0.000000 0.007335 0.000000
# 3 -0.003272 0.004439 0.009043 0.000000 0.004185 0.000000
# 4 0.000000 0.000000 0.000000 0.044764 0.000000 -0.004596
# 5 0.006326 0.007335 0.004185 0.000000 0.041759 0.000000
# 6 0.000000 0.000000 0.000000 -0.004596 0.000000 0.067283
#
#
# Mechanical properties :
#
#
# Convention : Reuss Voigt Hill
#
# Bulk Modulus (GPa) = 17.05938 48.94582 33.00260
# Shear Modulus (GPa) = 22.58676 33.67949 28.13313
#
# Velocity S-wave (km/s) = 3.30235 4.03254 3.68557
# Velocity P-wave (km/s) = 4.77257 6.73158 5.83488
#
# Compressibility (1/GPa) = 0.05861879
#
# Stress axis : x y z
#
# Youngs Moduli (GPa) = 108.22564 28.54053 110.58054
#
# Poissons Ratio (x) = -0.04230 0.36182
# Poissons Ratio (y) = -0.16041 -0.49084
# Poissons Ratio (z) = 0.35412 -0.12668
#
# Static dielectric constant tensor:
#      x y z
#    x 1.738600 0.000000 -0.030440 
#    y 0.000000 1.776080 0.000000 
#    z -0.030440 0.000000 1.709280 
# 
# From -- ./inp_files/37335.got.cif
#   From: 2010.05.17/outbox.cif.g08.bks.cpg/sg10_19_cif.got.tgz:37335.got - 2010.06.03 11:33:40.
