data_PCOD9149934
_publ_section_title
;
Structure prediction by ZEFSAII (Michael W. Deem and Ramdas Pophale) SiO2 
 PCOD9149934
Probable space group: P 2/M
;
_chemical_formula_sum "Si O2"
_cell_formula_units_Z 28
_cell_length_a 14.054975
_cell_length_b 8.047687
_cell_length_c 14.092194
_cell_angle_alpha 90.000000
_cell_angle_beta 60.114259
_cell_angle_gamma 90.000000
_cell_volume 1382.003916
_symmetry_space_group_name_H-M "P 2/M"
_symmetry_group_IT_number 10
_symmetry_cell_setting 'monoclinic'
loop_
_space_group_symop_operation_xyz
x,y,z
-x,y,-z
-x,-y,-z
x,-y,z
loop_
_atom_site_type_symbol
_atom_site_label
_atom_site_fract_x
_atom_site_fract_y
_atom_site_fract_z
Si Si1 0.167273 0.200778 0.667036
Si Si2 0.406009 0.299357 0.474393
Si Si3 0.975710 0.203338 0.619664
Si Si4 0.544974 0.299915 0.762686
Si Si5 0.737584 0.198574 0.808963
Si Si6 0.882435 0.799965 0.095659
Si Si7 0.308783 0.698735 0.952589
O O1 0.286200 0.251215 0.570417
O O2 0.145747 0.261843 0.784734
O O3 0.071536 0.257820 0.643409
O O4 0.163335 0.000000 0.670591
O O5 0.500000 0.239709 0.500000
O O6 0.411515 0.500000 0.469797
O O7 0.428136 0.238063 0.356552
O O8 0.856418 0.259873 0.714348
O O9 0.000000 0.255921 0.500000
O O10 0.975359 0.000000 0.620386
O O11 0.538108 0.500000 0.761172
O O12 0.641326 0.257207 0.787516
O O13 0.427419 0.237622 0.858500
O O14 0.740408 0.000000 0.804077
O O15 0.714584 0.250227 0.928075
O O16 0.786853 0.758386 0.069536
O O17 0.890172 0.000000 0.097689
O O18 0.000000 0.737380 0.000000
O O19 0.311446 0.500000 0.947450
#
# Coordination Sequence:
#
# PCOD9149934 Si02
#       7
#     4   4   4   4   4   4   4
#     4  10  20  35  57  84 112 143 183 231 278 325
#     4  10  21  38  58  80 111 150 188 227 275 330
#     4   9  18  34  56  82 112 145 180 221 273 330
#     4  10  22  39  57  80 113 151 189 231 279 331
#     4  11  22  37  60  86 112 145 186 231 281 336
#     4  10  21  38  59  83 114 150 188 232 280 331
#     4  11  23  39  59  82 112 149 188 231 280 335
#
# _framework density 20.260432999999999
#
# number of rings (size 3 to 8) (size 9 to 14) (size 15 to 20)
#    0.000    1.857    0.000    3.857    0.000    9.143 
#    0.000    2.857    0.000    3.857    0.000    0.000 
#    0.000    0.000    0.000    0.000    0.000    0.000 
#
# Total GULP energy -156520.762730 kJ/mol
# GULP energy per Si atom -5590.027240 kJ/mol
# Density = 2.021432 g / cm^3
# Si number density = 20.260433 Si / 1000 Ang^3
#
#
#
# Elastic Constant Matrix: (Units=GPa)
#
#
# Indices 1 2 3 4 5 6 
#
# 1 239.8553 4.3661 153.5200 0.0000 -1.2690 0.0000
# 2 4.3661 12.9208 12.5304 0.0000 -0.5965 0.0000
# 3 153.5200 12.5304 254.6740 0.0000 0.0444 0.0000
# 4 0.0000 0.0000 0.0000 25.9034 0.0000 -5.3681
# 5 -1.2690 -0.5965 0.0444 0.0000 48.2988 0.0000
# 6 0.0000 0.0000 0.0000 -5.3681 0.0000 34.5535
#
#
#
# Elastic Compliance Matrix: (Units=1/GPa)
#
#
# Indices 1 2 3 4 5 6 
#
# 1 0.006829 0.001779 -0.004204 0.000000 0.000205 0.000000
# 2 0.001779 0.081785 -0.005096 0.000000 0.001061 0.000000
# 3 -0.004204 -0.005096 0.006712 0.000000 -0.000180 0.000000
# 4 0.000000 0.000000 0.000000 0.039889 0.000000 0.006197
# 5 0.000205 0.001061 -0.000180 0.000000 0.020723 0.000000
# 6 0.000000 0.000000 0.000000 0.006197 0.000000 0.029903
#
#
# Mechanical properties :
#
#
# Convention : Reuss Voigt Hill
#
# Bulk Modulus (GPa) = 12.45607 94.25367 53.35487
# Shear Modulus (GPa) = 21.96407 44.22003 33.09205
#
# Velocity S-wave (km/s) = 3.29612 4.67688 4.04584
# Velocity P-wave (km/s) = 4.54392 8.70553 6.94383
#
# Compressibility (1/GPa) = 0.08028213
#
# Stress axis : x y z
#
# Youngs Moduli (GPa) = 146.44258 12.22718 148.99708
#
# Poissons Ratio (x) = -0.02175 0.62637
# Poissons Ratio (y) = -0.26051 0.75936
# Poissons Ratio (z) = 0.61563 0.06232
#
# Static dielectric constant tensor:
#      x y z
#    x 1.498860 0.000000 -0.134340 
#    y 0.000000 1.733630 0.000000 
#    z -0.134340 0.000000 1.596350 
# 
# From -- ./inp_files/63651.got.cif
#   From: 2010.05.17/outbox.cif.g08.bks.cpg/sg10_32_cif.got.tgz:63651.got - 2010.06.03 11:33:40.
