data_PCOD9149125
_publ_section_title
;
Structure prediction by ZEFSAII (Michael W. Deem and Ramdas Pophale) SiO2 
 PCOD9149125
Probable space group: P 2/M
;
_chemical_formula_sum "Si O2"
_cell_formula_units_Z 32
_cell_length_a 24.660176
_cell_length_b 7.853433
_cell_length_c 24.660426
_cell_angle_alpha 90.000000
_cell_angle_beta 18.976410
_cell_angle_gamma 90.000000
_cell_volume 1553.025405
_symmetry_space_group_name_H-M "P 2/M"
_symmetry_group_IT_number 10
_symmetry_cell_setting 'monoclinic'
loop_
_space_group_symop_operation_xyz
x,y,z
-x,y,-z
-x,-y,-z
x,-y,z
loop_
_atom_site_type_symbol
_atom_site_label
_atom_site_fract_x
_atom_site_fract_y
_atom_site_fract_z
Si Si1 0.659478 0.202809 0.516336
Si Si2 0.091564 0.293948 0.968161
Si Si3 0.370225 0.209838 0.870165
Si Si4 0.847712 0.704903 0.715214
Si Si5 0.016386 0.797193 0.159427
Si Si6 0.468177 0.293948 0.591548
Si Si7 0.432729 0.201553 0.932813
Si Si8 0.784724 0.295086 0.652349
O O1 0.518136 0.269113 0.690617
O O2 0.599008 0.232862 0.512159
O O3 0.846191 0.272967 0.346135
O O4 0.667286 0.000000 0.517705
O O5 0.087058 0.500000 0.972648
O O6 0.284008 0.238962 0.783990
O O7 0.012181 0.232856 0.098984
O O8 0.000000 0.236475 0.000000
O O9 0.401672 0.269162 0.901652
O O10 0.369592 0.000000 0.869520
O O11 0.190679 0.269111 0.018067
O O12 0.852139 0.500000 0.709040
O O13 0.788089 0.764567 0.711913
O O14 0.040118 0.763869 0.540060
O O15 0.715619 0.750984 0.885933
O O16 0.017761 0.000000 0.167231
O O17 0.500000 0.236472 0.500000
O O18 0.472663 0.500000 0.587042
O O19 0.614007 0.248918 0.784449
O O20 0.430257 0.000000 0.930484
O O21 0.790818 0.500000 0.647983
#
# Coordination Sequence:
#
# PCOD9149125 Si02
#       8
#     4   4   4   4   4   4   4   4
#     4  10  20  36  58  78  99 135 180 221 263 313
#     4  10  20  34  53  78 108 138 167 208 267 328
#     4   9  20  38  54  75 110 146 180 224 272 324
#     4   9  19  37  59  82 113 154 194 232 278 333
#     4  10  20  36  58  78  99 135 180 221 263 313
#     4  10  20  34  53  78 108 138 167 208 267 328
#     4  11  22  34  55  86 116 148 188 236 290 338
#     4   9  19  37  59  82 113 154 194 232 278 333
#
# _framework density 20.604942999999999
#
# number of rings (size 3 to 8) (size 9 to 14) (size 15 to 20)
#    0.000    2.250    1.250    2.250    0.000    5.500 
#    0.000    6.250    0.000    0.000    0.000    0.000 
#    0.000    0.000    0.000    0.000    0.000    0.000 
#
# Total GULP energy -178659.846283 kJ/mol
# GULP energy per Si atom -5583.120196 kJ/mol
# Density = 2.055805 g / cm^3
# Si number density = 20.604943 Si / 1000 Ang^3
#
#
#
# Elastic Constant Matrix: (Units=GPa)
#
#
# Indices 1 2 3 4 5 6 
#
# 1 143.5251 2.6533 113.6812 0.0000 1.4737 0.0000
# 2 2.6533 20.3396 10.8140 0.0000 -1.4646 0.0000
# 3 113.6812 10.8140 215.2277 0.0000 -14.3569 0.0000
# 4 0.0000 0.0000 0.0000 113.8880 0.0000 -15.3042
# 5 1.4737 -1.4646 -14.3569 0.0000 13.9756 0.0000
# 6 0.0000 0.0000 0.0000 -15.3042 0.0000 29.6824
#
#
#
# Elastic Compliance Matrix: (Units=1/GPa)
#
#
# Indices 1 2 3 4 5 6 
#
# 1 0.013012 0.001674 -0.007554 0.000000 -0.008957 0.000000
# 2 0.001674 0.050838 -0.003323 0.000000 0.001738 0.000000
# 3 -0.007554 -0.003323 0.009483 0.000000 0.010190 0.000000
# 4 0.000000 0.000000 0.000000 0.009434 0.000000 0.004864
# 5 -0.008957 0.001738 0.010190 0.000000 0.083148 0.000000
# 6 0.000000 0.000000 0.000000 0.004864 0.000000 0.036198
#
#
# Mechanical properties :
#
#
# Convention : Reuss Voigt Hill
#
# Bulk Modulus (GPa) = 18.20579 70.37661 44.29120
# Shear Modulus (GPa) = 20.93545 48.30545 34.62045
#
# Velocity S-wave (km/s) = 3.19100 4.84711 4.10347
# Velocity P-wave (km/s) = 4.73618 8.09663 6.63275
#
# Compressibility (1/GPa) = 0.05492758
#
# Stress axis : x y z
#
# Youngs Moduli (GPa) = 76.85168 19.67015 105.45041
#
# Poissons Ratio (x) = -0.03293 0.79662
# Poissons Ratio (y) = -0.12866 0.35037
# Poissons Ratio (z) = 0.58057 0.06536
#
# Static dielectric constant tensor:
#      x y z
#    x 1.710050 0.000000 0.001330 
#    y 0.000000 1.748260 0.000000 
#    z 0.001330 0.000000 1.702800 
# 
# From -- ./inp_files/90579.got.cif
#   From: 2010.05.17/outbox.cif.g08.bks.cpg/sg10_46_cif.got.tgz:90579.got - 2010.06.03 11:33:40.
