data_PCOD9149408
_publ_section_title
;
Structure prediction by ZEFSAII (Michael W. Deem and Ramdas Pophale) SiO2 
 PCOD9149408
Probable space group: P 2/M
;
_chemical_formula_sum "Si O2"
_cell_formula_units_Z 32
_cell_length_a 20.882554
_cell_length_b 7.614395
_cell_length_c 27.071083
_cell_angle_alpha 90.000000
_cell_angle_beta 20.933520
_cell_angle_gamma 90.000000
_cell_volume 1537.937891
_symmetry_space_group_name_H-M "P 2/M"
_symmetry_group_IT_number 10
_symmetry_cell_setting 'monoclinic'
loop_
_space_group_symop_operation_xyz
x,y,z
-x,y,-z
-x,-y,-z
x,-y,z
loop_
_atom_site_type_symbol
_atom_site_label
_atom_site_fract_x
_atom_site_fract_y
_atom_site_fract_z
Si Si1 0.689439 0.705083 0.347076
Si Si2 0.509636 0.713088 0.289817
Si Si3 0.653878 0.704047 0.079779
Si Si4 0.710134 0.787650 0.705611
Si Si5 0.101699 0.206065 0.609672
Si Si6 0.804712 0.714967 0.157649
Si Si7 0.019847 0.785373 0.406338
Si Si8 0.961261 0.797445 0.235784
O O1 0.500000 0.783867 0.500000
O O2 0.655149 0.500000 0.360943
O O3 0.762602 0.778764 0.243036
O O4 0.833561 0.714277 0.286744
O O5 0.500425 0.500000 0.295218
O O6 0.581675 0.773636 0.184473
O O7 0.311473 0.778210 0.445374
O O8 0.650200 0.766077 0.230658
O O9 0.698946 0.500000 0.054936
O O10 0.487735 0.720454 0.162114
O O11 0.833778 0.789117 0.929635
O O12 0.807727 0.732247 0.685877
O O13 0.844132 0.733113 0.564612
O O14 0.703649 0.000000 0.709912
O O15 0.996709 0.279002 0.637663
O O16 0.062160 0.280881 0.692405
O O17 0.053745 0.000000 0.646847
O O18 0.809046 0.500000 0.154231
O O19 0.000000 0.774432 0.000000
O O20 0.018355 0.000000 0.406870
O O21 0.903632 0.000000 0.279869
#
# Coordination Sequence:
#
# PCOD9149408 Si02
#       8
#     4   4   4   4   4   4   4   4
#     4  10  20  36  58  79 102 139 181 223 272 324
#     4  10  20  34  56  83 106 135 179 225 273 324
#     4  11  22  36  55  82 114 147 181 222 273 326
#     4   9  16  31  57  83 108 141 179 222 270 319
#     4  10  20  36  56  80 108 140 180 224 268 316
#     4   9  17  31  51  74 101 133 171 216 263 315
#     4   8  15  30  55  83 108 139 179 222 267 318
#     4  11  24  38  55  79 111 150 185 222 269 322
#
# _framework density 20.807081
#
# number of rings (size 3 to 8) (size 9 to 14) (size 15 to 20)
#    0.000    2.250    1.250    3.000    0.000    4.750 
#    0.000    3.125    0.000    5.250    0.000    0.000 
#    0.000    0.000    0.000    0.000    0.000    0.000 
#
# Total GULP energy -178703.138842 kJ/mol
# GULP energy per Si atom -5584.473089 kJ/mol
# Density = 2.075972 g / cm^3
# Si number density = 20.807081 Si / 1000 Ang^3
#
#
#
# Elastic Constant Matrix: (Units=GPa)
#
#
# Indices 1 2 3 4 5 6 
#
# 1 176.8388 -9.5437 84.9298 0.0000 7.9966 0.0000
# 2 -9.5437 39.9287 -9.5607 0.0000 5.9675 0.0000
# 3 84.9298 -9.5607 123.9456 0.0000 12.8673 0.0000
# 4 0.0000 0.0000 0.0000 19.2212 0.0000 -12.6267
# 5 7.9966 5.9675 12.8673 0.0000 31.8443 0.0000
# 6 0.0000 0.0000 0.0000 -12.6267 0.0000 19.3116
#
#
#
# Elastic Compliance Matrix: (Units=1/GPa)
#
#
# Indices 1 2 3 4 5 6 
#
# 1 0.008445 0.000630 -0.005747 0.000000 0.000083 0.000000
# 2 0.000630 0.026640 0.002252 0.000000 -0.006061 0.000000
# 3 -0.005747 0.002252 0.012602 0.000000 -0.004071 0.000000
# 4 0.000000 0.000000 0.000000 0.091197 0.000000 0.059628
# 5 0.000083 -0.006061 -0.004071 0.000000 0.034163 0.000000
# 6 0.000000 0.000000 0.000000 0.059628 0.000000 0.090770
#
#
# Mechanical properties :
#
#
# Convention : Reuss Voigt Hill
#
# Bulk Modulus (GPa) = 23.83278 52.48486 38.15882
# Shear Modulus (GPa) = 17.63471 32.40127 25.01799
#
# Velocity S-wave (km/s) = 2.91440 3.95045 3.47129
# Velocity P-wave (km/s) = 4.77536 6.78876 5.86904
#
# Compressibility (1/GPa) = 0.04195902
#
# Stress axis : x y z
#
# Youngs Moduli (GPa) = 118.41205 37.53706 79.35097
#
# Poissons Ratio (x) = -0.02365 0.45601
# Poissons Ratio (y) = -0.07460 -0.17873
# Poissons Ratio (z) = 0.68049 -0.08455
#
# Static dielectric constant tensor:
#      x y z
#    x 1.641550 0.000000 -0.205070 
#    y 0.000000 1.747410 0.000000 
#    z -0.205070 0.000000 1.211090 
# 
# From -- ./inp_files/93607.got.cif
#   From: 2010.05.17/outbox.cif.g08.bks.cpg/sg10_47_cif.got.tgz:93607.got - 2010.06.03 11:33:40.
