data_PCOD9149838
_publ_section_title
;
Structure prediction by ZEFSAII (Michael W. Deem and Ramdas Pophale) SiO2 
 PCOD9149838
Probable space group: P 2/M
;
_chemical_formula_sum "Si O2"
_cell_formula_units_Z 32
_cell_length_a 12.503775
_cell_length_b 14.171691
_cell_length_c 17.907127
_cell_angle_alpha 90.000000
_cell_angle_beta 144.899348
_cell_angle_gamma 90.000000
_cell_volume 1824.599626
_symmetry_space_group_name_H-M "P 2/M"
_symmetry_group_IT_number 10
_symmetry_cell_setting 'monoclinic'
loop_
_space_group_symop_operation_xyz
x,y,z
-x,y,-z
-x,-y,-z
x,-y,z
loop_
_atom_site_type_symbol
_atom_site_label
_atom_site_fract_x
_atom_site_fract_y
_atom_site_fract_z
Si Si1 0.164292 0.200080 0.157022
Si Si2 0.450190 0.113018 0.213410
Si Si3 0.869745 0.112782 0.088948
Si Si4 0.941206 0.393527 0.878983
Si Si5 0.293679 0.113508 0.853445
Si Si6 0.202498 0.784682 0.647581
Si Si7 0.256400 0.613752 0.936966
Si Si8 0.311323 0.613520 0.798027
O O1 0.333659 0.142810 0.219512
O O2 0.204736 0.307895 0.202963
O O3 0.060849 0.148988 0.164971
O O4 0.000000 0.202311 0.000000
O O5 0.635273 0.174668 0.312416
O O6 0.485083 0.000000 0.230656
O O7 0.309701 0.138092 0.064486
O O8 0.838502 0.144879 0.154977
O O9 0.871390 0.000000 0.088694
O O10 0.884015 0.500000 0.824189
O O11 0.107287 0.361013 0.916653
O O12 0.000000 0.400482 0.000000
O O13 0.240287 0.160347 0.746175
O O14 0.287462 0.000000 0.841626
O O15 0.500000 0.137142 0.000000
O O16 0.221416 0.675067 0.681430
O O17 0.000000 0.804359 0.500000
O O18 0.255528 0.500000 0.937230
O O19 0.229827 0.638620 0.834071
O O20 0.469063 0.640665 0.076788
O O21 0.297138 0.500000 0.780871
#
# Coordination Sequence:
#
# PCOD9149838 Si02
#       8
#     4   4   4   4   4   4   4   4
#     4   9  18  28  48  77 109 145 177 216 276 324
#     4  10  20  36  54  76 111 144 182 230 277 334
#     4   9  17  30  52  82 107 133 176 227 279 327
#     4   9  17  26  42  76 122 148 168 213 277 337
#     4  10  20  35  56  83 110 141 181 233 285 330
#     4  12  26  37  55  83 111 151 191 225 288 339
#     4   8  16  31  52  83 111 144 183 224 279 323
#     4   9  20  35  55  79 111 147 187 231 275 330
#
# _framework density 17.538094000000001
#
# number of rings (size 3 to 8) (size 9 to 14) (size 15 to 20)
#    0.000    2.500    1.250    1.500    8.750    2.750 
#    0.000    0.000    0.000    0.750    0.000    2.625 
#    0.000    3.000    0.000    0.000    0.000    0.000 
#
# Total GULP energy -178271.372900 kJ/mol
# GULP energy per Si atom -5570.980403 kJ/mol
# Density = 1.749818 g / cm^3
# Si number density = 17.538094 Si / 1000 Ang^3
#
#
#
# Elastic Constant Matrix: (Units=GPa)
#
#
# Indices 1 2 3 4 5 6 
#
# 1 112.8399 31.1805 26.8032 0.0000 14.2849 0.0000
# 2 31.1805 69.5568 26.0020 0.0000 6.7524 0.0000
# 3 26.8032 26.0020 60.3529 0.0000 7.6919 0.0000
# 4 0.0000 0.0000 0.0000 1.7129 0.0000 1.3274
# 5 14.2849 6.7524 7.6919 0.0000 11.7450 0.0000
# 6 0.0000 0.0000 0.0000 1.3274 0.0000 28.8729
#
#
#
# Elastic Compliance Matrix: (Units=1/GPa)
#
#
# Indices 1 2 3 4 5 6 
#
# 1 0.011710 -0.003305 -0.002404 0.000000 -0.010767 0.000000
# 2 -0.003305 0.018398 -0.006135 0.000000 -0.002540 0.000000
# 3 -0.002404 -0.006135 0.021230 0.000000 -0.007453 0.000000
# 4 0.000000 0.000000 0.000000 0.605376 0.000000 -0.027831
# 5 -0.010767 -0.002540 -0.007453 0.000000 0.104579 0.000000
# 6 0.000000 0.000000 0.000000 -0.027831 0.000000 0.035914
#
#
# Mechanical properties :
#
#
# Convention : Reuss Voigt Hill
#
# Bulk Modulus (GPa) = 36.16743 45.63566 40.90154
# Shear Modulus (GPa) = 6.02329 19.05043 12.53686
#
# Velocity S-wave (km/s) = 1.85523 3.29938 2.67654
# Velocity P-wave (km/s) = 5.02555 6.37118 5.73794
#
# Compressibility (1/GPa) = 0.02764919
#
# Stress axis : x y z
#
# Youngs Moduli (GPa) = 85.40069 54.35276 47.10339
#
# Poissons Ratio (x) = 0.17964 0.11324
# Poissons Ratio (y) = 0.28226 0.28898
# Poissons Ratio (z) = 0.20531 0.33346
#
# Static dielectric constant tensor:
#      x y z
#    x 1.639380 0.000000 -0.005650 
#    y 0.000000 1.669800 0.000000 
#    z -0.005650 0.000000 1.558580 
# 
# From -- ./inp_files/77065.got.cif
#   From: 2010.05.17/outbox.cif.g08.bks.cpg/sg10_39_cif.got.tgz:77065.got - 2010.06.03 11:33:40.
