data_PCOD9149035
_publ_section_title
;
Structure prediction by ZEFSAII (Michael W. Deem and Ramdas Pophale) SiO2 
 PCOD9149035
Probable space group: P 2/M
;
_chemical_formula_sum "Si O2"
_cell_formula_units_Z 30
_cell_length_a 20.233344
_cell_length_b 7.414075
_cell_length_c 15.593760
_cell_angle_alpha 90.000000
_cell_angle_beta 29.410356
_cell_angle_gamma 90.000000
_cell_volume 1148.711898
_symmetry_space_group_name_H-M "P 2/M"
_symmetry_group_IT_number 10
_symmetry_cell_setting 'monoclinic'
loop_
_space_group_symop_operation_xyz
x,y,z
-x,y,-z
-x,-y,-z
x,-y,z
loop_
_atom_site_type_symbol
_atom_site_label
_atom_site_fract_x
_atom_site_fract_y
_atom_site_fract_z
Si Si1 0.055131 0.205646 0.185611
Si Si2 0.387712 0.279785 0.694209
Si Si3 0.593784 0.000000 0.018220
Si Si4 0.094116 0.281089 0.471781
Si Si5 0.666354 0.299656 0.065016
Si Si6 0.850216 0.288164 0.152827
Si Si7 0.365282 0.291992 0.242806
Si Si8 0.210866 0.216689 0.593124
O O1 0.973988 0.208379 0.366269
O O2 0.943496 0.280461 0.247399
O O3 0.087454 0.000000 0.127661
O O4 0.188291 0.312879 0.055070
O O5 0.500000 0.221438 0.500000
O O6 0.387665 0.500000 0.695860
O O7 0.418652 0.226594 0.757607
O O8 0.243675 0.218631 0.818068
O O9 0.676043 0.158506 0.978555
O O10 0.488045 0.157702 0.105765
O O11 0.093744 0.500000 0.474312
O O12 0.250333 0.226807 0.304941
O O13 0.000000 0.223989 0.500000
O O14 0.622199 0.500000 0.087912
O O15 0.867620 0.500000 0.116827
O O16 0.762703 0.268329 0.339039
O O17 0.000000 0.209213 0.000000
O O18 0.396010 0.500000 0.189593
O O19 0.300665 0.285570 0.412615
O O20 0.213203 0.000000 0.583142
#
# Coordination Sequence:
#
# PCOD9149035 Si02
#       8
#     4   4   2   4   4   4   4   4
#     4  10  20  37  59  90 126 156 200 250 300 366
#     4   9  20  36  54  79 111 152 206 258 310 369
#     4  12  24  40  58  89 119 156 212 253 280 367
#     4   9  19  37  65 100 129 157 194 238 300 369
#     4  11  23  41  64  83 116 165 207 258 307 352
#     4  10  20  34  52  76 109 150 197 250 312 375
#     4  10  21  38  61  89 123 156 188 243 299 350
#     4  10  20  34  56  85 116 149 194 247 302 367
#
# _framework density 26.116209000000001
#
# number of rings (size 3 to 8) (size 9 to 14) (size 15 to 20)
#    0.000    2.000    1.333    2.000    2.800    3.200 
#    1.200    0.333    0.000    1.600    0.000    3.733 
#    0.000    0.000    0.000    0.000    0.000    0.000 
#
# Total GULP energy -167420.724223 kJ/mol
# GULP energy per Si atom -5580.690807 kJ/mol
# Density = 2.605677 g / cm^3
# Si number density = 26.116209 Si / 1000 Ang^3
#
#
#
# Elastic Constant Matrix: (Units=GPa)
#
#
# Indices 1 2 3 4 5 6 
#
# 1 117.8330 5.1242 9.4392 0.0000 -7.3468 0.0000
# 2 5.1242 117.8232 -4.1936 0.0000 -12.2565 0.0000
# 3 9.4392 -4.1936 73.8712 0.0000 -2.5967 0.0000
# 4 0.0000 0.0000 0.0000 28.2317 0.0000 7.7146
# 5 -7.3468 -12.2565 -2.5967 0.0000 33.7791 0.0000
# 6 0.0000 0.0000 0.0000 7.7146 0.0000 31.7164
#
#
#
# Elastic Compliance Matrix: (Units=1/GPa)
#
#
# Indices 1 2 3 4 5 6 
#
# 1 0.008689 -0.000237 -0.001063 0.000000 0.001722 0.000000
# 2 -0.000237 0.008855 0.000646 0.000000 0.003211 0.000000
# 3 -0.001063 0.000646 0.013747 0.000000 0.001060 0.000000
# 4 0.000000 0.000000 0.000000 0.037943 0.000000 -0.009229
# 5 0.001722 0.003211 0.001060 0.000000 0.031225 0.000000
# 6 0.000000 0.000000 0.000000 -0.009229 0.000000 0.033774
#
#
# Mechanical properties :
#
#
# Convention : Reuss Voigt Hill
#
# Bulk Modulus (GPa) = 33.35246 36.69633 35.02439
# Shear Modulus (GPa) = 34.35579 38.68929 36.52254
#
# Velocity S-wave (km/s) = 3.63091 3.85311 3.74366
# Velocity P-wave (km/s) = 5.51149 5.82039 5.66805
#
# Compressibility (1/GPa) = 0.02998280
#
# Stress axis : x y z
#
# Youngs Moduli (GPa) = 115.08228 112.93581 72.74399
#
# Poissons Ratio (x) = 0.02672 0.07734
# Poissons Ratio (y) = 0.02723 -0.04698
# Poissons Ratio (z) = 0.12236 -0.07293
#
# Static dielectric constant tensor:
#      x y z
#    x 2.190660 0.000000 0.059060 
#    y 0.000000 2.029680 0.000000 
#    z 0.059060 0.000000 2.177030 
# 
# From -- ./inp_files/79376.got.cif
#   From: 2010.05.17/outbox.cif.g08.bks.cpg/sg10_40_cif.got.tgz:79376.got - 2010.06.03 11:33:40.
