data_PCOD9149827
_publ_section_title
;
Structure prediction by ZEFSAII (Michael W. Deem and Ramdas Pophale) SiO2 
 PCOD9149827
Probable space group: P 2/M
;
_chemical_formula_sum "Si O2"
_cell_formula_units_Z 28
_cell_length_a 17.113625
_cell_length_b 8.741666
_cell_length_c 12.746440
_cell_angle_alpha 90.000000
_cell_angle_beta 120.242742
_cell_angle_gamma 90.000000
_cell_volume 1647.359010
_symmetry_space_group_name_H-M "P 2/M"
_symmetry_group_IT_number 10
_symmetry_cell_setting 'monoclinic'
loop_
_space_group_symop_operation_xyz
x,y,z
-x,y,-z
-x,-y,-z
x,-y,z
loop_
_atom_site_type_symbol
_atom_site_label
_atom_site_fract_x
_atom_site_fract_y
_atom_site_fract_z
Si Si1 0.097239 0.682429 0.182266
Si Si2 0.594788 0.315762 0.120341
Si Si3 0.417206 0.817437 0.657582
Si Si4 0.388476 0.317421 0.261774
Si Si5 0.728662 0.683254 0.025463
Si Si6 0.904672 0.182042 0.052193
Si Si7 0.278367 0.817513 0.382058
O O1 0.091169 0.500000 0.174367
O O2 0.181768 0.736133 0.307976
O O3 0.001744 0.753146 0.152880
O O4 0.113112 0.744740 0.074670
O O5 0.594358 0.500000 0.134505
O O6 0.600981 0.236889 0.236698
O O7 0.500000 0.275713 0.000000
O O8 0.675372 0.275860 0.095123
O O9 0.508846 0.737907 0.679476
O O10 0.334842 0.778820 0.524282
O O11 0.430314 0.000000 0.663309
O O12 0.385369 0.500000 0.275430
O O13 0.336280 0.282837 0.117772
O O14 0.337717 0.235752 0.322751
O O15 0.743895 0.500000 0.035573
O O16 0.822847 0.767846 0.071041
O O17 0.909108 0.000000 0.044451
O O18 0.265569 0.000000 0.368543
#
# Coordination Sequence:
#
# PCOD9149827 Si02
#       7
#     4   4   4   4   4   4   4
#     4  11  21  35  56  81 111 145 184 227 272 329
#     4  10  20  38  59  79 107 145 189 233 273 319
#     4  11  24  38  54  79 114 150 187 230 275 329
#     4  11  21  35  56  81 112 149 188 225 271 328
#     4  10  20  35  56  82 113 145 183 231 276 321
#     4  11  21  34  55  83 114 146 179 223 279 333
#     4  11  23  38  54  79 115 150 184 227 279 329
#
# _framework density 16.996901999999999
#
# number of rings (size 3 to 8) (size 9 to 14) (size 15 to 20)
#    0.000    1.286    2.857    5.143    0.000    5.429 
#    0.000    0.000    0.000    0.857    0.000    6.000 
#    0.000    0.000    0.000    0.000    0.000    0.000 
#
# Total GULP energy -156497.383967 kJ/mol
# GULP energy per Si atom -5589.192285 kJ/mol
# Density = 1.695822 g / cm^3
# Si number density = 16.996902 Si / 1000 Ang^3
#
#
#
# Elastic Constant Matrix: (Units=GPa)
#
#
# Indices 1 2 3 4 5 6 
#
# 1 105.2265 45.0438 42.6662 0.0000 25.7456 0.0000
# 2 45.0438 75.7441 40.0963 0.0000 12.6367 0.0000
# 3 42.6662 40.0963 90.6127 0.0000 14.9193 0.0000
# 4 0.0000 0.0000 0.0000 22.2303 0.0000 9.9341
# 5 25.7456 12.6367 14.9193 0.0000 22.8355 0.0000
# 6 0.0000 0.0000 0.0000 9.9341 0.0000 19.2892
#
#
#
# Elastic Compliance Matrix: (Units=1/GPa)
#
#
# Indices 1 2 3 4 5 6 
#
# 1 0.016563 -0.006076 -0.002902 0.000000 -0.013416 0.000000
# 2 -0.006076 0.020018 -0.005940 0.000000 -0.000347 0.000000
# 3 -0.002902 -0.005940 0.015632 0.000000 -0.003655 0.000000
# 4 0.000000 0.000000 0.000000 0.058431 0.000000 -0.030093
# 5 -0.013416 -0.000347 -0.003655 0.000000 0.061497 0.000000
# 6 0.000000 0.000000 0.000000 -0.030093 0.000000 0.067340
#
#
# Mechanical properties :
#
#
# Convention : Reuss Voigt Hill
#
# Bulk Modulus (GPa) = 44.68491 58.57731 51.63111
# Shear Modulus (GPa) = 18.06522 22.45617 20.26069
#
# Velocity S-wave (km/s) = 3.26368 3.63876 3.45631
# Velocity P-wave (km/s) = 6.36783 7.22444 6.80962
#
# Compressibility (1/GPa) = 0.02237892
#
# Stress axis : x y z
#
# Youngs Moduli (GPa) = 60.37562 49.95598 63.96949
#
# Poissons Ratio (x) = 0.30351 0.18561
# Poissons Ratio (y) = 0.36681 0.37998
# Poissons Ratio (z) = 0.17518 0.29674
#
# Static dielectric constant tensor:
#      x y z
#    x 1.561080 0.000000 0.011530 
#    y 0.000000 1.571160 0.000000 
#    z 0.011530 0.000000 1.557740 
# 
# From -- ./inp_files/50115.got.cif
#   From: 2010.05.17/outbox.cif.g08.bks.cpg/sg10_26_cif.got.tgz:50115.got - 2010.06.03 11:33:40.
