data_PCOD9149397
_publ_section_title
;
Structure prediction by ZEFSAII (Michael W. Deem and Ramdas Pophale) SiO2 
 PCOD9149397
Probable space group: P 2/M
;
_chemical_formula_sum "Si O2"
_cell_formula_units_Z 28
_cell_length_a 18.341473
_cell_length_b 8.478318
_cell_length_c 21.744887
_cell_angle_alpha 90.000000
_cell_angle_beta 26.458731
_cell_angle_gamma 90.000000
_cell_volume 1506.608911
_symmetry_space_group_name_H-M "P 2/M"
_symmetry_group_IT_number 10
_symmetry_cell_setting 'monoclinic'
loop_
_space_group_symop_operation_xyz
x,y,z
-x,y,-z
-x,-y,-z
x,-y,z
loop_
_atom_site_type_symbol
_atom_site_label
_atom_site_fract_x
_atom_site_fract_y
_atom_site_fract_z
Si Si1 0.487742 0.186960 0.079855
Si Si2 0.543363 0.678393 0.280350
Si Si3 0.188495 0.317768 0.374693
Si Si4 0.421636 0.811901 0.495489
Si Si5 0.066373 0.691303 0.725998
Si Si6 0.831944 0.321113 0.477251
Si Si7 0.296897 0.690934 0.967471
O O1 0.305481 0.227115 0.240547
O O2 0.607079 0.253937 0.043578
O O3 0.515165 0.000000 0.057459
O O4 0.500000 0.247914 0.000000
O O5 0.607022 0.500000 0.241593
O O6 0.536504 0.766064 0.350715
O O7 0.351566 0.666893 0.409004
O O8 0.626800 0.745837 0.155497
O O9 0.251676 0.500000 0.330856
O O10 0.186675 0.240789 0.443428
O O11 0.000000 0.323638 0.500000
O O12 0.500000 0.753717 0.500000
O O13 0.236460 0.748030 0.626852
O O14 0.410287 0.000000 0.505861
O O15 0.073687 0.500000 0.718310
O O16 0.065163 0.749730 0.655882
O O17 0.894296 0.736424 0.885684
O O18 0.895812 0.500000 0.440775
O O19 0.308617 0.500000 0.958397
#
# Coordination Sequence:
#
# PCOD9149397 Si02
#       7
#     4   4   4   4   4   4   4
#     4  11  25  40  52  75 114 154 189 228 279 333
#     4   9  17  33  57  82 108 138 177 225 272 322
#     4  10  20  34  56  81 103 135 185 236 280 324
#     4  10  21  37  57  83 114 148 185 219 259 323
#     4   9  19  34  57  85 111 140 178 227 278 322
#     4   8  14  29  49  76 105 129 169 224 268 313
#     4  10  20  37  61  85 109 141 186 233 276 329
#
# _framework density 18.584783000000002
#
# number of rings (size 3 to 8) (size 9 to 14) (size 15 to 20)
#    0.000    2.429    1.429    1.714    2.000    3.714 
#    0.000    0.714    0.000    4.286    0.000    0.000 
#    0.000    0.000    0.000    0.000    0.000    0.000 
#
# Total GULP energy -155868.666268 kJ/mol
# GULP energy per Si atom -5566.738081 kJ/mol
# Density = 1.854248 g / cm^3
# Si number density = 18.584783 Si / 1000 Ang^3
#
#
#
# Elastic Constant Matrix: (Units=GPa)
#
#
# Indices 1 2 3 4 5 6 
#
# 1 119.8540 19.7337 64.6496 0.0000 27.7391 0.0000
# 2 19.7337 18.7870 16.6879 0.0000 4.8367 0.0000
# 3 64.6496 16.6879 136.3510 0.0000 19.7595 0.0000
# 4 0.0000 0.0000 0.0000 12.2641 0.0000 3.2400
# 5 27.7391 4.8367 19.7595 0.0000 26.3353 0.0000
# 6 0.0000 0.0000 0.0000 3.2400 0.0000 20.1423
#
#
#
# Elastic Compliance Matrix: (Units=1/GPa)
#
#
# Indices 1 2 3 4 5 6 
#
# 1 0.014525 -0.008743 -0.004300 0.000000 -0.010467 0.000000
# 2 -0.008743 0.065885 -0.003926 0.000000 0.000054 0.000000
# 3 -0.004300 -0.003926 0.010202 0.000000 -0.002404 0.000000
# 4 0.000000 0.000000 0.000000 0.085158 0.000000 -0.013698
# 5 -0.010467 0.000054 -0.002404 0.000000 0.050791 0.000000
# 6 0.000000 0.000000 0.000000 -0.013698 0.000000 0.051850
#
#
# Mechanical properties :
#
#
# Convention : Reuss Voigt Hill
#
# Bulk Modulus (GPa) = 17.64473 53.01495 35.32984
# Shear Modulus (GPa) = 15.09480 23.34304 19.21892
#
# Velocity S-wave (km/s) = 2.85303 3.54790 3.21926
# Velocity P-wave (km/s) = 4.51307 6.73583 5.73320
#
# Compressibility (1/GPa) = 0.05667413
#
# Stress axis : x y z
#
# Youngs Moduli (GPa) = 68.84738 15.17795 98.02249
#
# Poissons Ratio (x) = 0.13269 0.42149
# Poissons Ratio (y) = 0.60190 0.38486
# Poissons Ratio (z) = 0.29604 0.05959
#
# Static dielectric constant tensor:
#      x y z
#    x 1.669810 0.000000 0.030810 
#    y 0.000000 1.663710 0.000000 
#    z 0.030810 0.000000 1.653160 
# 
# From -- ./inp_files/85619.got.cif
#   From: 2010.05.17/outbox.cif.g08.bks.cpg/sg10_43_cif.got.tgz:85619.got - 2010.06.03 11:33:40.
