data_PCOD9149117
_publ_section_title
;
Structure prediction by ZEFSAII (Michael W. Deem and Ramdas Pophale) SiO2 
 PCOD9149117
Probable space group: P 2/M
;
_chemical_formula_sum "Si O2"
_cell_formula_units_Z 32
_cell_length_a 16.493641
_cell_length_b 7.876935
_cell_length_c 24.966638
_cell_angle_alpha 90.000000
_cell_angle_beta 152.832208
_cell_angle_gamma 90.000000
_cell_volume 1481.043302
_symmetry_space_group_name_H-M "P 2/M"
_symmetry_group_IT_number 10
_symmetry_cell_setting 'monoclinic'
loop_
_space_group_symop_operation_xyz
x,y,z
-x,y,-z
-x,-y,-z
x,-y,z
loop_
_atom_site_type_symbol
_atom_site_label
_atom_site_fract_x
_atom_site_fract_y
_atom_site_fract_z
Si Si1 0.813052 0.306738 0.826209
Si Si2 0.566545 0.705766 0.235014
Si Si3 0.922493 0.800702 0.397891
Si Si4 0.339374 0.195946 0.371535
Si Si5 0.103583 0.694904 0.396411
Si Si6 0.830444 0.301900 0.015628
Si Si7 0.963712 0.188324 0.205496
Si Si8 0.549512 0.708107 0.345455
O O1 0.842069 0.500000 0.861882
O O2 0.713961 0.304498 0.710694
O O3 0.654652 0.230249 0.768796
O O4 0.005669 0.228752 0.924024
O O5 0.568794 0.500000 0.231968
O O6 0.711468 0.777381 0.279771
O O7 0.615422 0.751654 0.324835
O O8 0.365634 0.767820 0.108168
O O9 0.000000 0.735014 0.500000
O O10 0.004000 0.709676 0.394532
O O11 0.965992 0.000000 0.418803
O O12 0.500000 0.265540 0.500000
O O13 0.169591 0.188776 0.309619
O O14 0.378524 0.000000 0.377777
O O15 0.131880 0.500000 0.398029
O O16 0.302585 0.768203 0.524725
O O17 0.977407 0.766491 0.275767
O O18 0.824537 0.500000 0.997123
O O19 0.874983 0.292436 0.105136
O O20 0.888899 0.000000 0.155837
O O21 0.542935 0.500000 0.344879
#
# Coordination Sequence:
#
# PCOD9149117 Si02
#       8
#     4   4   4   4   4   4   4   4
#     4   9  17  30  48  75 109 144 183 224 265 313
#     4  10  20  37  59  82 110 146 186 227 274 328
#     4  11  23  39  59  85 113 141 177 222 277 335
#     4   9  17  29  45  68 101 143 186 225 269 318
#     4  11  21  35  58  85 114 144 180 227 277 331
#     4   9  19  35  56  80 110 150 192 228 265 317
#     4  10  20  34  53  77 110 148 185 228 275 323
#     4   9  18  31  52  83 114 144 181 226 277 324
#
# _framework density 21.606390999999999
#
# number of rings (size 3 to 8) (size 9 to 14) (size 15 to 20)
#    0.000    2.250    1.250    1.875    0.000    2.250 
#    0.000    4.375    0.000    3.750    0.000    4.375 
#    0.000    0.000    0.000    0.000    0.000    0.000 
#
# Total GULP energy -178410.308019 kJ/mol
# GULP energy per Si atom -5575.322126 kJ/mol
# Density = 2.155721 g / cm^3
# Si number density = 21.606391 Si / 1000 Ang^3
#
#
#
# Elastic Constant Matrix: (Units=GPa)
#
#
# Indices 1 2 3 4 5 6 
#
# 1 74.1386 -7.5621 15.6929 0.0000 6.6555 0.0000
# 2 -7.5621 28.8680 -8.2436 0.0000 0.1561 0.0000
# 3 15.6929 -8.2436 80.0536 0.0000 19.7583 0.0000
# 4 0.0000 0.0000 0.0000 5.4510 0.0000 7.9305
# 5 6.6555 0.1561 19.7583 0.0000 29.3461 0.0000
# 6 0.0000 0.0000 0.0000 7.9305 0.0000 -4.1075
#
#
#
# Elastic Compliance Matrix: (Units=1/GPa)
#
#
# Indices 1 2 3 4 5 6 
#
# 1 0.014416 0.003210 -0.002020 0.000000 -0.001927 0.000000
# 2 0.003210 0.036656 0.004046 0.000000 -0.003647 0.000000
# 3 -0.002020 0.004046 0.015826 0.000000 -0.010219 0.000000
# 4 0.000000 0.000000 0.000000 0.048164 0.000000 0.092991
# 5 -0.001927 -0.003647 -0.010219 0.000000 0.041413 0.000000
# 6 0.000000 0.000000 0.000000 0.092991 0.000000 -0.063917
#
#
# Mechanical properties :
#
#
# Convention : Reuss Voigt Hill
#
# Bulk Modulus (GPa) = 12.92492 20.31496 16.61994
# Shear Modulus (GPa) = 46.34903 18.34945 32.34924
#
# Velocity S-wave (km/s) = 4.63661 2.91737 3.87357
# Velocity P-wave (km/s) = 5.88720 4.55749 5.26450
#
# Compressibility (1/GPa) = 0.07736990
#
# Stress axis : x y z
#
# Youngs Moduli (GPa) = 69.36651 27.28048 63.18557
#
# Poissons Ratio (x) = -0.08757 0.12763
# Poissons Ratio (y) = -0.22267 -0.25562
# Poissons Ratio (z) = 0.14012 -0.11036
#
# Static dielectric constant tensor:
#      x y z
#    x 1.808350 0.000000 0.005760 
#    y 0.000000 1.807520 0.000000 
#    z 0.005760 0.000000 1.818500 
# 
# From -- ./inp_files/89509.got.cif
#   From: 2010.05.17/outbox.cif.g08.bks.cpg/sg10_45_cif.got.tgz:89509.got - 2010.06.03 11:33:40.
