data_PCOD9149395
_publ_section_title
;
Structure prediction by ZEFSAII (Michael W. Deem and Ramdas Pophale) SiO2 
 PCOD9149395
Probable space group: P 2/M
;
_chemical_formula_sum "Si O2"
_cell_formula_units_Z 30
_cell_length_a 10.921679
_cell_length_b 19.226942
_cell_length_c 10.809871
_cell_angle_alpha 90.000000
_cell_angle_beta 139.571923
_cell_angle_gamma 90.000000
_cell_volume 1472.059726
_symmetry_space_group_name_H-M "P 2/M"
_symmetry_group_IT_number 10
_symmetry_cell_setting 'monoclinic'
loop_
_space_group_symop_operation_xyz
x,y,z
-x,y,-z
-x,-y,-z
x,-y,z
loop_
_atom_site_type_symbol
_atom_site_label
_atom_site_fract_x
_atom_site_fract_y
_atom_site_fract_z
Si Si1 0.609056 0.210176 0.201313
Si Si2 0.121022 0.194265 0.983824
Si Si3 0.131722 0.315795 0.334398
Si Si4 0.282110 0.923930 0.628791
Si Si5 0.291689 0.578249 0.276356
Si Si6 0.558933 0.295184 0.739760
Si Si7 0.000000 0.285066 0.500000
Si Si8 0.865680 0.923433 0.202024
O O1 0.612729 0.148890 0.305779
O O2 0.495041 0.277043 0.161553
O O3 0.820632 0.235338 0.338248
O O4 0.500000 0.183799 0.000000
O O5 0.178535 0.138431 0.925225
O O6 0.994078 0.254842 0.821866
O O7 0.295095 0.234611 0.180566
O O8 0.000000 0.160380 0.000000
O O9 0.146682 0.383674 0.258717
O O10 0.354315 0.294475 0.516567
O O11 0.053849 0.325472 0.414907
O O12 0.227178 0.921134 0.732842
O O13 0.089132 0.920359 0.403514
O O14 0.370131 0.000000 0.673907
O O15 0.500000 0.573911 0.500000
O O16 0.235733 0.500000 0.200431
O O17 0.333871 0.632689 0.199425
O O18 0.820593 0.000000 0.115814
#
# Coordination Sequence:
#
# PCOD9149395 Si02
#       8
#     4   4   4   4   4   4   2   4
#     4  11  20  32  54  83 114 142 186 237 281 334
#     4  12  22  34  56  80 110 149 191 232 276 328
#     4  10  20  37  57  83 115 143 185 230 277 333
#     4   9  17  32  53  77 106 144 186 234 285 327
#     4   9  18  36  60  83 111 147 186 225 272 329
#     4  10  21  36  55  83 111 146 185 230 278 324
#     4  10  20  34  56  80 112 148 178 230 290 326
#     4   9  18  33  53  77 108 145 188 232 280 334
#
# _framework density 20.379608999999999
#
# number of rings (size 3 to 8) (size 9 to 14) (size 15 to 20)
#    0.000    2.000    1.333    5.600    0.000    0.533 
#    0.000    2.333    0.000    2.000    0.000    3.733 
#    0.000    0.000    0.000    0.000    0.000    0.000 
#
# Total GULP energy -167287.247404 kJ/mol
# GULP energy per Si atom -5576.241580 kJ/mol
# Density = 2.033322 g / cm^3
# Si number density = 20.379609 Si / 1000 Ang^3
#
#
#
# Elastic Constant Matrix: (Units=GPa)
#
#
# Indices 1 2 3 4 5 6 
#
# 1 90.7374 41.5677 16.0191 0.0000 7.6889 0.0000
# 2 41.5677 146.6770 22.3080 0.0000 1.6283 0.0000
# 3 16.0191 22.3080 49.1008 0.0000 12.8408 0.0000
# 4 0.0000 0.0000 0.0000 11.7536 0.0000 -14.6901
# 5 7.6889 1.6283 12.8408 0.0000 21.7987 0.0000
# 6 0.0000 0.0000 0.0000 -14.6901 0.0000 15.7929
#
#
#
# Elastic Compliance Matrix: (Units=1/GPa)
#
#
# Indices 1 2 3 4 5 6 
#
# 1 0.013198 -0.003416 -0.001895 0.000000 -0.003284 0.000000
# 2 -0.003416 0.008260 -0.003300 0.000000 0.002532 0.000000
# 3 -0.001895 -0.003300 0.026296 0.000000 -0.014575 0.000000
# 4 0.000000 0.000000 0.000000 -0.523368 0.000000 -0.486822
# 5 -0.003284 0.002532 -0.014575 0.000000 0.055429 0.000000
# 6 0.000000 0.000000 0.000000 -0.486822 0.000000 -0.389508
#
#
# Mechanical properties :
#
#
# Convention : Reuss Voigt Hill
#
# Bulk Modulus (GPa) = 32.75376 49.58944 41.17160
# Shear Modulus (GPa) = -6.39146 23.64373 8.62614
#
# Velocity S-wave (km/s) = -1.77285 3.40982 2.05959
# Velocity P-wave (km/s) = 3.45196 6.31571 5.08941
#
# Compressibility (1/GPa) = 0.03053085
#
# Stress axis : x y z
#
# Youngs Moduli (GPa) = 75.76651 121.07222 38.02904
#
# Poissons Ratio (x) = 0.41354 0.07208
# Poissons Ratio (y) = 0.25879 0.12551
# Poissons Ratio (z) = 0.14361 0.39958
#
# Static dielectric constant tensor:
#      x y z
#    x 1.788650 0.000000 0.019430 
#    y 0.000000 1.754200 0.000000 
#    z 0.019430 0.000000 1.759400 
# 
# From -- ./inp_files/47929.got.cif
#   From: 2010.05.17/outbox.cif.g08.bks.cpg/sg10_24_cif.got.tgz:47929.got - 2010.06.03 11:33:40.
