data_PCOD9149268
_publ_section_title
;
Structure prediction by ZEFSAII (Michael W. Deem and Ramdas Pophale) SiO2 
 PCOD9149268
Probable space group: P 2/M
;
_chemical_formula_sum "Si O2"
_cell_formula_units_Z 28
_cell_length_a 15.261146
_cell_length_b 8.589072
_cell_length_c 12.026290
_cell_angle_alpha 90.000000
_cell_angle_beta 118.898544
_cell_angle_gamma 90.000000
_cell_volume 1380.097307
_symmetry_space_group_name_H-M "P 2/M"
_symmetry_group_IT_number 10
_symmetry_cell_setting 'monoclinic'
loop_
_space_group_symop_operation_xyz
x,y,z
-x,y,-z
-x,-y,-z
x,-y,z
loop_
_atom_site_type_symbol
_atom_site_label
_atom_site_fract_x
_atom_site_fract_y
_atom_site_fract_z
Si Si1 0.791119 0.822068 0.722275
Si Si2 0.810685 0.319748 0.149793
Si Si3 0.018576 0.178856 0.881720
Si Si4 0.291663 0.321249 0.535682
Si Si5 0.500067 0.184315 0.368523
Si Si6 0.306372 0.685441 0.130430
Si Si7 0.116509 0.815956 0.577193
O O1 0.731820 0.704583 0.608605
O O2 0.770372 0.777234 0.836548
O O3 0.907542 0.813756 0.763461
O O4 0.756937 0.000000 0.681754
O O5 0.799414 0.500000 0.176271
O O6 0.906694 0.297185 0.129000
O O7 0.836598 0.218796 0.273111
O O8 0.718143 0.274078 0.012892
O O9 0.055591 0.000000 0.891113
O O10 0.000000 0.207192 0.000000
O O11 0.311188 0.500000 0.573533
O O12 0.391844 0.222940 0.616791
O O13 0.193333 0.263593 0.539467
O O14 0.500000 0.230884 0.500000
O O15 0.414117 0.269213 0.245298
O O16 0.480885 0.000000 0.353675
O O17 0.290371 0.500000 0.130691
O O18 0.000000 0.761377 0.500000
O O19 0.115204 0.000000 0.553808
#
# Coordination Sequence:
#
# PCOD9149268 Si02
#       7
#     4   4   4   4   4   4   4
#     4  11  21  35  57  87 124 164 209 256 307 374
#     4  11  24  40  61  91 128 166 209 263 322 379
#     4  10  20  34  54  83 120 163 207 251 306 372
#     4  12  25  41  65  94 128 165 208 265 323 377
#     4  11  23  40  65  95 128 168 214 263 314 379
#     4  11  23  38  59  91 128 164 204 256 319 377
#     4  11  25  46  70  94 125 169 219 264 310 375
#
# _framework density 20.288423999999999
#
# number of rings (size 3 to 8) (size 9 to 14) (size 15 to 20)
#    0.000    1.000    2.857    4.286    0.000    8.286 
#    0.000    0.714    0.000    4.286    0.000    0.000 
#    0.000    0.000    0.000    0.000    0.000    0.000 
#
# Total GULP energy -156447.395399 kJ/mol
# GULP energy per Si atom -5587.406979 kJ/mol
# Density = 2.024225 g / cm^3
# Si number density = 20.288424 Si / 1000 Ang^3
#
#
#
# Elastic Constant Matrix: (Units=GPa)
#
#
# Indices 1 2 3 4 5 6 
#
# 1 75.4182 10.0555 20.7409 0.0000 14.0243 0.0000
# 2 10.0555 37.4575 7.7343 0.0000 2.2866 0.0000
# 3 20.7409 7.7343 90.8932 0.0000 7.2771 0.0000
# 4 0.0000 0.0000 0.0000 92.2810 0.0000 34.9289
# 5 14.0243 2.2866 7.2771 0.0000 25.4227 0.0000
# 6 0.0000 0.0000 0.0000 34.9289 0.0000 41.5937
#
#
#
# Elastic Compliance Matrix: (Units=1/GPa)
#
#
# Indices 1 2 3 4 5 6 
#
# 1 0.015869 -0.003227 -0.002732 0.000000 -0.007682 0.000000
# 2 -0.003227 0.027914 -0.001617 0.000000 -0.000267 0.000000
# 3 -0.002732 -0.001617 0.011903 0.000000 -0.001755 0.000000
# 4 0.000000 0.000000 0.000000 0.015886 0.000000 -0.013340
# 5 -0.007682 -0.000267 -0.001755 0.000000 0.044099 0.000000
# 6 0.000000 0.000000 0.000000 -0.013340 0.000000 0.035245
#
#
# Mechanical properties :
#
#
# Convention : Reuss Voigt Hill
#
# Bulk Modulus (GPa) = 24.67066 31.20337 27.93701
# Shear Modulus (GPa) = 27.84274 42.87534 35.35904
#
# Velocity S-wave (km/s) = 3.70854 4.60204 4.17924
# Velocity P-wave (km/s) = 5.52486 6.60694 6.08998
#
# Compressibility (1/GPa) = 0.04053398
#
# Stress axis : x y z
#
# Youngs Moduli (GPa) = 63.01426 35.82494 84.00974
#
# Poissons Ratio (x) = 0.11561 0.22948
# Poissons Ratio (y) = 0.20336 0.13588
# Poissons Ratio (z) = 0.17213 0.05794
#
# Static dielectric constant tensor:
#      x y z
#    x 1.717510 0.000000 0.011380 
#    y 0.000000 1.684070 0.000000 
#    z 0.011380 0.000000 1.771520 
# 
# From -- ./inp_files/50077.got.cif
#   From: 2010.05.17/outbox.cif.g08.bks.cpg/sg10_26_cif.got.tgz:50077.got - 2010.06.03 11:33:40.
