data_PCOD9149848
_publ_section_title
;
Structure prediction by ZEFSAII (Michael W. Deem and Ramdas Pophale) SiO2 
 PCOD9149848
Probable space group: P 2/M
;
_chemical_formula_sum "Si O2"
_cell_formula_units_Z 32
_cell_length_a 32.137756
_cell_length_b 9.105420
_cell_length_c 12.905232
_cell_angle_alpha 90.000000
_cell_angle_beta 153.945962
_cell_angle_gamma 90.000000
_cell_volume 1658.678108
_symmetry_space_group_name_H-M "P 2/M"
_symmetry_group_IT_number 10
_symmetry_cell_setting 'monoclinic'
loop_
_space_group_symop_operation_xyz
x,y,z
-x,y,-z
-x,-y,-z
x,-y,z
loop_
_atom_site_type_symbol
_atom_site_label
_atom_site_fract_x
_atom_site_fract_y
_atom_site_fract_z
Si Si1 0.085300 0.171720 0.473850
Si Si2 0.216668 0.325372 0.936435
Si Si3 0.870467 0.827740 0.060053
Si Si4 0.611281 0.172176 0.764697
Si Si5 0.351888 0.667761 0.940755
Si Si6 0.411202 0.826445 0.874883
Si Si7 0.867111 0.668780 0.623437
Si Si8 0.197423 0.174658 0.320316
O O1 0.159873 0.257990 0.711600
O O2 0.080061 0.239376 0.347078
O O3 0.983484 0.183175 0.300837
O O4 0.111536 0.000000 0.525704
O O5 0.215008 0.500000 0.926367
O O6 0.168219 0.267355 0.932419
O O7 0.323031 0.264000 0.165731
O O8 0.847057 0.000000 0.026168
O O9 0.827745 0.783520 0.853145
O O10 0.500000 0.194820 0.500000
O O11 0.632640 0.000000 0.800849
O O12 0.635877 0.227894 0.934256
O O13 0.376249 0.500000 0.022038
O O14 0.412020 0.728988 0.979473
O O15 0.242657 0.670378 0.659906
O O16 0.309232 0.801012 0.592330
O O17 0.414428 0.000000 0.909485
O O18 0.500000 0.794992 0.000000
O O19 0.899163 0.500000 0.698483
O O20 0.863036 0.741065 0.727730
O O21 0.179048 0.000000 0.289995
#
# Coordination Sequence:
#
# PCOD9149848 Si02
#       8
#     4   4   4   4   4   4   4   4
#     4  11  22  38  63  88 115 157 208 253 298 358
#     4  12  25  41  62  89 122 158 197 248 308 364
#     4  10  23  41  60  86 120 162 207 251 300 359
#     4  11  24  41  63  89 116 153 199 244 293 353
#     4  10  20  35  56  83 116 151 188 239 297 351
#     4   9  18  33  56  84 112 150 199 244 289 350
#     4  10  20  35  58  87 118 152 193 244 302 358
#     4   9  19  37  58  81 116 156 197 247 300 355
#
# _framework density 19.292473000000001
#
# number of rings (size 3 to 8) (size 9 to 14) (size 15 to 20)
#    0.000    1.750    1.250    3.000    0.000    6.750 
#    0.000    5.000    0.000    0.000    0.000    0.000 
#    0.000    0.000    0.000    0.000    0.000    0.000 
#
# Total GULP energy -178845.316575 kJ/mol
# GULP energy per Si atom -5588.916143 kJ/mol
# Density = 1.924856 g / cm^3
# Si number density = 19.292473 Si / 1000 Ang^3
#
#
#
# Elastic Constant Matrix: (Units=GPa)
#
#
# Indices 1 2 3 4 5 6 
#
# 1 120.6581 72.5611 30.3298 0.0000 3.7914 0.0000
# 2 72.5611 117.4057 45.2514 0.0000 6.0331 0.0000
# 3 30.3298 45.2514 48.9769 0.0000 -6.7625 0.0000
# 4 0.0000 0.0000 0.0000 6.1377 0.0000 -21.5550
# 5 3.7914 6.0331 -6.7625 0.0000 23.1569 0.0000
# 6 0.0000 0.0000 0.0000 -21.5550 0.0000 -234.0908
#
#
#
# Elastic Compliance Matrix: (Units=1/GPa)
#
#
# Indices 1 2 3 4 5 6 
#
# 1 0.013226 -0.007713 -0.001131 0.000000 -0.000486 0.000000
# 2 -0.007713 0.019031 -0.013877 0.000000 -0.007748 0.000000
# 3 -0.001131 -0.013877 0.035912 0.000000 0.014288 0.000000
# 4 0.000000 0.000000 0.000000 0.123115 0.000000 -0.011336
# 5 -0.000486 -0.007748 0.014288 0.000000 0.049454 0.000000
# 6 0.000000 0.000000 0.000000 -0.011336 0.000000 -0.003228
#
#
# Mechanical properties :
#
#
# Convention : Reuss Voigt Hill
#
# Bulk Modulus (GPa) = 43.99993 64.81392 54.40692
# Shear Modulus (GPa) = 17.21003 -31.69933 -7.24465
#
# Velocity S-wave (km/s) = 2.98998 -4.05791 -1.93993
# Velocity P-wave (km/s) = 5.89714 3.42241 4.82126
#
# Compressibility (1/GPa) = 0.02272731
#
# Stress axis : x y z
#
# Youngs Moduli (GPa) = 75.60835 52.54533 27.84568
#
# Poissons Ratio (x) = 0.40530 0.03149
# Poissons Ratio (y) = 0.58319 0.38641
# Poissons Ratio (z) = 0.08552 0.72916
#
# Static dielectric constant tensor:
#      x y z
#    x 1.648780 0.000000 0.008410 
#    y 0.000000 1.651760 0.000000 
#    z 0.008410 0.000000 1.680010 
# 
# From -- ./inp_files/58236.got.cif
#   From: 2010.05.17/outbox.cif.g08.bks.cpg/sg10_30_cif.got.tgz:58236.got - 2010.06.03 11:33:40.
