data_PCOD9149009
_publ_section_title
;
Structure prediction by ZEFSAII (Michael W. Deem and Ramdas Pophale) SiO2 
 PCOD9149009
Probable space group: P 2/M
;
_chemical_formula_sum "Si O2"
_cell_formula_units_Z 28
_cell_length_a 17.357829
_cell_length_b 7.434348
_cell_length_c 14.246205
_cell_angle_alpha 90.000000
_cell_angle_beta 41.674659
_cell_angle_gamma 90.000000
_cell_volume 1222.345157
_symmetry_space_group_name_H-M "P 2/M"
_symmetry_group_IT_number 10
_symmetry_cell_setting 'monoclinic'
loop_
_space_group_symop_operation_xyz
x,y,z
-x,y,-z
-x,-y,-z
x,-y,z
loop_
_atom_site_type_symbol
_atom_site_label
_atom_site_fract_x
_atom_site_fract_y
_atom_site_fract_z
Si Si1 0.200775 0.207168 0.086578
Si Si2 0.808433 0.283015 0.427335
Si Si3 0.113595 0.720447 0.841565
Si Si4 0.683280 0.294039 0.214297
Si Si5 0.435863 0.282411 0.964738
Si Si6 0.546025 0.719577 0.666690
Si Si7 0.995644 0.789658 0.399050
O O1 0.305840 0.216221 0.065592
O O2 0.088343 0.286909 0.240060
O O3 0.178725 0.000000 0.080824
O O4 0.248347 0.295318 0.947781
O O5 0.806149 0.500000 0.431261
O O6 0.883062 0.225023 0.269571
O O7 0.676854 0.221459 0.532012
O O8 0.869939 0.223895 0.466579
O O9 0.114015 0.500000 0.843942
O O10 0.229498 0.784045 0.788913
O O11 0.000000 0.779823 0.000000
O O12 0.663114 0.500000 0.262300
O O13 0.556573 0.215315 0.308370
O O14 0.430182 0.500000 0.972452
O O15 0.500000 0.220973 0.000000
O O16 0.507424 0.231024 0.806959
O O17 0.544460 0.500000 0.663337
O O18 0.000000 0.713066 0.500000
O O19 0.028009 0.000000 0.377825
#
# Coordination Sequence:
#
# PCOD9149009 Si02
#       7
#     4   4   4   4   4   4   4
#     4  10  20  34  52  75 101 131 175 220 253 302
#     4  10  20  34  54  80 106 132 176 224 255 305
#     4   9  17  29  50  80 108 136 173 216 259 305
#     4   9  17  33  55  76 107 143 169 206 265 314
#     4   9  18  32  52  75 103 135 167 211 263 311
#     4   8  16  30  48  76 107 134 169 211 255 304
#     4  10  23  40  53  70 103 142 175 212 265 319
#
# _framework density 22.906789
#
# number of rings (size 3 to 8) (size 9 to 14) (size 15 to 20)
#    0.000    2.714    0.000    2.143    2.000    3.429 
#    0.000    6.429    0.000    2.571    0.000    5.000 
#    0.000    0.000    0.000    0.000    0.000    0.000 
#
# Total GULP energy -156389.186422 kJ/mol
# GULP energy per Si atom -5585.328086 kJ/mol
# Density = 2.285465 g / cm^3
# Si number density = 22.906789 Si / 1000 Ang^3
#
#
#
# Elastic Constant Matrix: (Units=GPa)
#
#
# Indices 1 2 3 4 5 6 
#
# 1 153.0901 -9.8673 40.4794 0.0000 3.8582 0.0000
# 2 -9.8673 71.2861 -1.9045 0.0000 1.0948 0.0000
# 3 40.4794 -1.9045 87.8512 0.0000 -19.9778 0.0000
# 4 0.0000 0.0000 0.0000 -1.0607 0.0000 -9.3197
# 5 3.8582 1.0948 -19.9778 0.0000 25.5969 0.0000
# 6 0.0000 0.0000 0.0000 -9.3197 0.0000 3.8399
#
#
#
# Elastic Compliance Matrix: (Units=1/GPa)
#
#
# Indices 1 2 3 4 5 6 
#
# 1 0.007994 0.001055 -0.004796 0.000000 -0.004993 0.000000
# 2 0.001055 0.014179 -0.000429 0.000000 -0.001100 0.000000
# 3 -0.004796 -0.000429 0.016719 0.000000 0.013790 0.000000
# 4 0.000000 0.000000 0.000000 -0.042230 0.000000 -0.102494
# 5 -0.004993 -0.001100 0.013790 0.000000 0.050630 0.000000
# 6 0.000000 0.000000 0.000000 -0.102494 0.000000 0.011665
#
#
# Mechanical properties :
#
#
# Convention : Reuss Voigt Hill
#
# Bulk Modulus (GPa) = 32.72992 41.07140 36.90066
# Shear Modulus (GPa) = 64.53065 24.57654 44.55359
#
# Velocity S-wave (km/s) = 5.31339 3.27906 4.41499
# Velocity P-wave (km/s) = 7.20848 5.68375 6.49104
#
# Compressibility (1/GPa) = 0.03055308
#
# Stress axis : x y z
#
# Youngs Moduli (GPa) = 125.09213 70.52459 59.81043
#
# Poissons Ratio (x) = -0.07441 0.28686
# Poissons Ratio (y) = -0.13198 0.02566
# Poissons Ratio (z) = 0.59995 0.03025
#
# Static dielectric constant tensor:
#      x y z
#    x 1.830700 0.000000 -0.009900 
#    y 0.000000 1.868750 0.000000 
#    z -0.009900 0.000000 1.836100 
# 
# From -- ./inp_files/68583.got.cif
#   From: 2010.05.17/outbox.cif.g08.bks.cpg/sg10_35_cif.got.tgz:68583.got - 2010.06.03 11:33:40.
