data_PCOD9149812
_publ_section_title
;
Structure prediction by ZEFSAII (Michael W. Deem and Ramdas Pophale) SiO2 
 PCOD9149812
Probable space group: P 2/M
;
_chemical_formula_sum "Si O2"
_cell_formula_units_Z 20
_cell_length_a 15.411035
_cell_length_b 8.265701
_cell_length_c 17.169391
_cell_angle_alpha 90.000000
_cell_angle_beta 24.491221
_cell_angle_gamma 90.000000
_cell_volume 906.665940
_symmetry_space_group_name_H-M "P 2/M"
_symmetry_group_IT_number 10
_symmetry_cell_setting 'monoclinic'
loop_
_space_group_symop_operation_xyz
x,y,z
-x,y,-z
-x,-y,-z
x,-y,z
loop_
_atom_site_type_symbol
_atom_site_label
_atom_site_fract_x
_atom_site_fract_y
_atom_site_fract_z
Si Si1 0.894546 0.806104 0.400104
Si Si2 0.433494 0.307347 0.822461
Si Si3 0.324284 0.695227 0.083361
Si Si4 0.797959 0.192687 0.313626
Si Si5 0.692564 0.809302 0.236258
O O1 0.670651 0.748874 0.613133
O O2 0.915676 0.740918 0.293322
O O3 0.893247 0.000000 0.397653
O O4 0.087700 0.747350 0.293612
O O5 0.429815 0.500000 0.828265
O O6 0.370242 0.242463 0.958628
O O7 0.294858 0.255892 0.861320
O O8 0.331793 0.500000 0.076622
O O9 0.500000 0.752814 0.000000
O O10 0.552775 0.207609 0.538825
O O11 0.815801 0.258602 0.211039
O O12 0.841302 0.000000 0.273103
O O13 0.736920 0.000000 0.195660
#
# Coordination Sequence:
#
# PCOD9149812 Si02
#       5
#     4   4   4   4   4
#     4  10  20  36  59  84 110 140 178 223 267 315
#     4  10  20  35  56  81 110 143 179 220 268 320
#     4  10  23  42  59  76 104 143 183 223 271 327
#     4   7  12  25  47  75 106 141 175 208 253 310
#     4   8  13  26  49  75 106 142 179 214 251 305
#
# _framework density 22.05884
#
# number of rings (size 3 to 8) (size 9 to 14) (size 15 to 20)
#    0.000    3.000    0.000    3.600    0.000    2.800 
#    0.000   14.000    0.000    6.000    0.000    0.000 
#    0.000    0.000    0.000    0.000    0.000    0.000 
#
# Total GULP energy -111598.783327 kJ/mol
# GULP energy per Si atom -5579.939166 kJ/mol
# Density = 2.200863 g / cm^3
# Si number density = 22.058840 Si / 1000 Ang^3
#
#
#
# Elastic Constant Matrix: (Units=GPa)
#
#
# Indices 1 2 3 4 5 6 
#
# 1 111.1077 16.1503 37.0171 0.0000 -23.9372 0.0000
# 2 16.1503 15.9645 -7.6009 0.0000 0.6768 0.0000
# 3 37.0171 -7.6009 64.6169 0.0000 -9.6386 0.0000
# 4 0.0000 0.0000 0.0000 88.0606 0.0000 -52.1796
# 5 -23.9372 0.6768 -9.6386 0.0000 41.0587 0.0000
# 6 0.0000 0.0000 0.0000 -52.1796 0.0000 52.1927
#
#
#
# Elastic Compliance Matrix: (Units=1/GPa)
#
#
# Indices 1 2 3 4 5 6 
#
# 1 0.018515 -0.024939 -0.012300 0.000000 0.008318 0.000000
# 2 -0.024939 0.099971 0.024489 0.000000 -0.010439 0.000000
# 3 -0.012300 0.024489 0.025154 0.000000 -0.001670 0.000000
# 4 0.000000 0.000000 0.000000 0.027860 0.000000 0.027853
# 5 0.008318 -0.010439 -0.001670 0.000000 0.028985 0.000000
# 6 0.000000 0.000000 0.000000 0.027853 0.000000 0.047006
#
#
# Mechanical properties :
#
#
# Convention : Reuss Voigt Hill
#
# Bulk Modulus (GPa) = 8.46451 31.42466 19.94459
# Shear Modulus (GPa) = 16.00671 46.00390 31.00530
#
# Velocity S-wave (km/s) = 2.69669 4.57169 3.75316
# Velocity P-wave (km/s) = 3.67991 6.49183 5.27663
#
# Compressibility (1/GPa) = 0.11814036
#
# Stress axis : x y z
#
# Youngs Moduli (GPa) = 54.00950 10.00295 39.75569
#
# Poissons Ratio (x) = 0.24947 0.48898
# Poissons Ratio (y) = 1.34696 -0.97360
# Poissons Ratio (z) = 0.66430 -0.24497
#
# Static dielectric constant tensor:
#      x y z
#    x 1.854570 0.000000 0.014690 
#    y 0.000000 1.759580 0.000000 
#    z 0.014690 0.000000 1.857000 
# 
# From -- ./inp_files/26910.got.cif
#   From: 2010.05.17/outbox.cif.g08.bks.cpg/sg10_14_cif.got.tgz:26910.got - 2010.06.03 11:33:40.
