data_PCOD9150733
_publ_section_title
;
Structure prediction by ZEFSAII (Michael W. Deem and Ramdas Pophale) SiO2 
 PCOD9150733
Probable space group: P 2/M
;
_chemical_formula_sum "Si O2"
_cell_formula_units_Z 22
_cell_length_a 8.311321
_cell_length_b 7.589697
_cell_length_c 20.038182
_cell_angle_alpha 90.000000
_cell_angle_beta 46.461673
_cell_angle_gamma 90.000000
_cell_volume 916.303079
_symmetry_space_group_name_H-M "P 2/M"
_symmetry_group_IT_number 10
_symmetry_cell_setting 'monoclinic'
loop_
_space_group_symop_operation_xyz
x,y,z
-x,y,-z
-x,-y,-z
x,-y,z
loop_
_atom_site_type_symbol
_atom_site_label
_atom_site_fract_x
_atom_site_fract_y
_atom_site_fract_z
Si Si1 0.096450 0.785767 0.575862
Si Si2 0.557090 0.786430 0.060790
Si Si3 0.652429 0.787433 0.620368
Si Si4 0.810771 0.696708 0.182190
Si Si5 0.922395 0.213136 0.764052
Si Si6 0.000000 0.751422 0.000000
O O1 0.867489 0.742038 0.603067
O O2 0.067048 0.724426 0.659839
O O3 0.294498 0.727228 0.470524
O O4 0.109595 0.000000 0.574415
O O5 0.337490 0.741286 0.165957
O O6 0.777185 0.693152 0.023803
O O7 0.594885 0.000000 0.054068
O O8 0.500000 0.747873 0.000000
O O9 0.430481 0.721330 0.717474
O O10 0.637639 0.000000 0.623239
O O11 0.828795 0.500000 0.148709
O O12 0.870423 0.819301 0.103105
O O13 0.978945 0.721333 0.194973
O O14 0.932832 0.000000 0.762905
#
# Coordination Sequence:
#
# PCOD9150733 Si02
#       6
#     4   4   4   4   4   2
#     4   8  16  34  63  93 119 150 194 247 304 370
#     4  10  20  36  62  98 125 149 198 257 306 359
#     4   9  18  37  64  91 117 152 198 248 305 364
#     4  12  26  41  56  83 120 162 211 254 301 362
#     4  10  20  38  61  89 124 156 196 249 304 364
#     4  12  24  42  64  82 121 170 205 250 311 366
#
# _framework density 24.009523999999999
#
# number of rings (size 3 to 8) (size 9 to 14) (size 15 to 20)
#    0.000    2.000    1.818    3.273    0.000    4.364 
#    0.000   11.818    0.000    0.000    0.000    0.000 
#    0.000    0.000    0.000    0.000    0.000    0.000 
#
# Total GULP energy -122752.599781 kJ/mol
# GULP energy per Si atom -5579.663626 kJ/mol
# Density = 2.395488 g / cm^3
# Si number density = 24.009524 Si / 1000 Ang^3
#
#
#
# Elastic Constant Matrix: (Units=GPa)
#
#
# Indices 1 2 3 4 5 6 
#
# 1 125.7931 19.8619 72.4857 0.0000 12.5674 0.0000
# 2 19.8619 79.9357 28.5878 0.0000 0.6431 0.0000
# 3 72.4857 28.5878 222.7965 0.0000 10.5291 0.0000
# 4 0.0000 0.0000 0.0000 0.0380 0.0000 -8.5814
# 5 12.5674 0.6431 10.5291 0.0000 50.9688 0.0000
# 6 0.0000 0.0000 0.0000 -8.5814 0.0000 10.9692
#
#
#
# Elastic Compliance Matrix: (Units=1/GPa)
#
#
# Indices 1 2 3 4 5 6 
#
# 1 0.010095 -0.001415 -0.003016 0.000000 -0.001848 0.000000
# 2 -0.001415 0.013312 -0.001269 0.000000 0.000443 0.000000
# 3 -0.003016 -0.001269 0.005652 0.000000 -0.000408 0.000000
# 4 0.000000 0.000000 0.000000 -0.149804 0.000000 -0.117194
# 5 -0.001848 0.000443 -0.000408 0.000000 0.020154 0.000000
# 6 0.000000 0.000000 0.000000 -0.117194 0.000000 -0.000518
#
#
# Mechanical properties :
#
#
# Convention : Reuss Voigt Hill
#
# Bulk Modulus (GPa) = 56.62458 74.48844 65.55651
# Shear Modulus (GPa) = -59.64857 32.90119 -13.37369
#
# Velocity S-wave (km/s) = -4.98975 3.70582 -2.36268
# Velocity P-wave (km/s) = 3.09216 7.02871 4.46326
#
# Compressibility (1/GPa) = 0.01766018
#
# Stress axis : x y z
#
# Youngs Moduli (GPa) = 99.05604 75.12126 176.94271
#
# Poissons Ratio (x) = 0.10630 0.53357
# Poissons Ratio (y) = 0.14017 0.22448
# Poissons Ratio (z) = 0.29871 0.09530
#
# Static dielectric constant tensor:
#      x y z
#    x 1.851480 0.000000 0.010410 
#    y 0.000000 2.183450 0.000000 
#    z 0.010410 0.000000 1.904430 
# 
# From -- ./inp_files/81907.got.cif
#   From: 2010.05.17/outbox.cif.g08.bks.cpg/sg10_41_cif.got.tgz:81907.got - 2010.06.03 11:33:40.
