data_PCOD9150966
_publ_section_title
;
Structure prediction by ZEFSAII (Michael W. Deem and Ramdas Pophale) SiO2 
 PCOD9150966
Probable space group: P 2/M
;
_chemical_formula_sum "Si O2"
_cell_formula_units_Z 26
_cell_length_a 10.475927
_cell_length_b 17.228293
_cell_length_c 12.650057
_cell_angle_alpha 90.000000
_cell_angle_beta 36.275571
_cell_angle_gamma 90.000000
_cell_volume 1350.847678
_symmetry_space_group_name_H-M "P 2/M"
_symmetry_group_IT_number 10
_symmetry_cell_setting 'monoclinic'
loop_
_space_group_symop_operation_xyz
x,y,z
-x,y,-z
-x,-y,-z
x,-y,z
loop_
_atom_site_type_symbol
_atom_site_label
_atom_site_fract_x
_atom_site_fract_y
_atom_site_fract_z
Si Si1 0.740914 0.798312 0.513855
Si Si2 0.401851 0.640693 0.456769
Si Si3 0.799488 0.406010 0.056634
Si Si4 0.138809 0.909024 0.223553
Si Si5 0.925615 0.411309 0.736675
Si Si6 0.464614 0.909331 0.198600
Si Si7 0.000000 0.693273 0.500000
O O1 0.660261 0.731508 0.489578
O O2 0.562065 0.853921 0.683861
O O3 0.936881 0.852644 0.345453
O O4 0.836856 0.746477 0.544884
O O5 0.500000 0.610014 0.500000
O O6 0.582832 0.630445 0.247276
O O7 0.185176 0.594928 0.573100
O O8 0.782659 0.500000 0.070590
O O9 0.000000 0.385146 0.000000
O O10 0.839934 0.383526 0.907730
O O11 0.262938 0.896796 0.252493
O O12 0.075211 0.000000 0.263212
O O13 0.319866 0.895900 0.013247
O O14 0.858754 0.500000 0.764565
O O15 0.874662 0.358971 0.669551
O O16 0.459366 0.000000 0.231989
#
# Coordination Sequence:
#
# PCOD9150966 Si02
#       7
#     4   4   4   4   4   4   2
#     4  11  20  33  52  77 115 149 170 217 274 331
#     4  11  23  37  54  83 111 140 185 230 280 326
#     4  10  20  37  61  82 101 137 190 242 278 313
#     4   9  17  31  53  80 107 141 182 218 259 314
#     4  10  21  38  59  78 108 146 184 231 272 326
#     4   9  17  31  53  79 107 141 181 221 258 312
#     4  10  21  34  51  82 118 150 174 206 285 346
#
# _framework density 19.247174000000001
#
# number of rings (size 3 to 8) (size 9 to 14) (size 15 to 20)
#    0.000    2.000    3.077    2.077    0.000    4.308 
#    0.000    2.308    0.000   10.154    0.000    2.154 
#    0.000    0.000    0.000    0.000    0.000    0.000 
#
# Total GULP energy -145112.913514 kJ/mol
# GULP energy per Si atom -5581.265904 kJ/mol
# Density = 1.920337 g / cm^3
# Si number density = 19.247174 Si / 1000 Ang^3
#
#
#
# Elastic Constant Matrix: (Units=GPa)
#
#
# Indices 1 2 3 4 5 6 
#
# 1 28.7331 1.6837 8.3085 0.0000 3.3240 0.0000
# 2 1.6837 55.7716 28.5435 0.0000 10.3863 0.0000
# 3 8.3085 28.5435 99.0805 0.0000 9.1354 0.0000
# 4 0.0000 0.0000 0.0000 45.6421 0.0000 -3.3653
# 5 3.3240 10.3863 9.1354 0.0000 20.9303 0.0000
# 6 0.0000 0.0000 0.0000 -3.3653 0.0000 -2.0156
#
#
#
# Elastic Compliance Matrix: (Units=1/GPa)
#
#
# Indices 1 2 3 4 5 6 
#
# 1 0.036172 0.001378 -0.002956 0.000000 -0.005138 0.000000
# 2 0.001378 0.022497 -0.005780 0.000000 -0.008860 0.000000
# 3 -0.002956 -0.005780 0.012188 0.000000 -0.001982 0.000000
# 4 0.000000 0.000000 0.000000 0.019508 0.000000 -0.032571
# 5 -0.005138 -0.008860 -0.001982 0.000000 0.053855 0.000000
# 6 0.000000 0.000000 0.000000 -0.032571 0.000000 -0.441752
#
#
# Mechanical properties :
#
#
# Convention : Reuss Voigt Hill
#
# Bulk Modulus (GPa) = 17.81245 28.96183 23.38714
# Shear Modulus (GPa) = -18.93205 22.58132 1.82464
#
# Velocity S-wave (km/s) = -3.13969 3.42896 0.97471
# Velocity P-wave (km/s) = 1.96694 5.54590 3.66662
#
# Compressibility (1/GPa) = 0.05614052
#
# Stress axis : x y z
#
# Youngs Moduli (GPa) = 27.64597 44.45122 82.04466
#
# Poissons Ratio (x) = -0.06125 0.24256
# Poissons Ratio (y) = -0.03809 0.47418
# Poissons Ratio (z) = 0.08173 0.25691
#
# Static dielectric constant tensor:
#      x y z
#    x 1.673730 0.000000 0.010880 
#    y 0.000000 1.679740 0.000000 
#    z 0.010880 0.000000 1.669650 
# 
# From -- ./inp_files/65261.got.cif
#   From: 2010.05.17/outbox.cif.g08.bks.cpg/sg10_33_cif.got.tgz:65261.got - 2010.06.03 11:33:40.
