data_PCOD9150173
_publ_section_title
;
Structure prediction by ZEFSAII (Michael W. Deem and Ramdas Pophale) SiO2 
 PCOD9150173
Probable space group: P 2/M
;
_chemical_formula_sum "Si O2"
_cell_formula_units_Z 28
_cell_length_a 5.423767
_cell_length_b 21.083694
_cell_length_c 12.146338
_cell_angle_alpha 90.000000
_cell_angle_beta 99.306473
_cell_angle_gamma 90.000000
_cell_volume 1370.688328
_symmetry_space_group_name_H-M "P 2/M"
_symmetry_group_IT_number 10
_symmetry_cell_setting 'monoclinic'
loop_
_space_group_symop_operation_xyz
x,y,z
-x,y,-z
-x,-y,-z
x,-y,z
loop_
_atom_site_type_symbol
_atom_site_label
_atom_site_fract_x
_atom_site_fract_y
_atom_site_fract_z
Si Si1 0.777384 0.428210 0.410665
Si Si2 0.625670 0.783705 0.629066
Si Si3 0.304571 0.698225 0.892051
Si Si4 0.224446 0.925379 0.929713
Si Si5 0.380556 0.349746 0.288445
Si Si6 0.849985 0.184259 0.246813
Si Si7 0.948325 0.427956 0.166917
O O1 0.738730 0.500000 0.445563
O O2 0.530658 0.388167 0.389192
O O3 0.848962 0.429888 0.286084
O O4 0.000000 0.400776 0.500000
O O5 0.500000 0.788076 0.500000
O O6 0.725406 0.711486 0.658027
O O7 0.396042 0.802925 0.694805
O O8 0.885856 0.820421 0.669693
O O9 0.448062 0.681507 0.791233
O O10 0.134499 0.757570 0.842886
O O11 0.178796 0.629782 0.909210
O O12 0.500000 0.716539 0.000000
O O13 0.191348 0.879510 0.824342
O O14 0.210520 0.000000 0.900153
O O15 0.500000 0.913647 0.000000
O O16 0.000000 0.912473 0.000000
O O17 0.222132 0.401008 0.209693
O O18 0.931428 0.500000 0.122609
#
# Coordination Sequence:
#
# PCOD9150173 Si02
#       7
#     4   4   4   4   4   4   4
#     4   9  19  32  50  74 101 137 185 247 319 382
#     4  11  24  39  63  89 125 168 217 263 316 371
#     4  10  22  38  55  78 109 150 199 248 308 376
#     4  10  21  39  68 106 141 175 210 253 314 372
#     4  10  21  35  52  77 105 145 195 256 311 373
#     4  11  22  42  63  96 129 167 208 263 311 370
#     4  10  20  36  52  73 106 142 192 252 309 378
#
# _framework density 20.427692
#
# number of rings (size 3 to 8) (size 9 to 14) (size 15 to 20)
#    0.000    1.857    1.429    2.143    2.000    2.571 
#    0.000    2.857    0.000    2.571    0.000    0.000 
#    0.000    0.000    0.000    0.000    0.000    0.000 
#
# Total GULP energy -156064.836126 kJ/mol
# GULP energy per Si atom -5573.744147 kJ/mol
# Density = 2.038120 g / cm^3
# Si number density = 20.427692 Si / 1000 Ang^3
#
#
#
# Elastic Constant Matrix: (Units=GPa)
#
#
# Indices 1 2 3 4 5 6 
#
# 1 76.3710 17.0872 20.3370 0.0000 15.2696 0.0000
# 2 17.0872 55.8007 30.4391 0.0000 0.7236 0.0000
# 3 20.3370 30.4391 86.1869 0.0000 22.7208 0.0000
# 4 0.0000 0.0000 0.0000 27.7665 0.0000 4.8549
# 5 15.2696 0.7236 22.7208 0.0000 38.8781 0.0000
# 6 0.0000 0.0000 0.0000 4.8549 0.0000 15.5217
#
#
#
# Elastic Compliance Matrix: (Units=1/GPa)
#
#
# Indices 1 2 3 4 5 6 
#
# 1 0.015334 -0.004274 -0.000641 0.000000 -0.005568 0.000000
# 2 -0.004274 0.024217 -0.009301 0.000000 0.006663 0.000000
# 3 -0.000641 -0.009301 0.017645 0.000000 -0.009887 0.000000
# 4 0.000000 0.000000 0.000000 0.038098 0.000000 -0.011916
# 5 -0.005568 0.006663 -0.009887 0.000000 0.033563 0.000000
# 6 0.000000 0.000000 0.000000 -0.011916 0.000000 0.068153
#
#
# Mechanical properties :
#
#
# Convention : Reuss Voigt Hill
#
# Bulk Modulus (GPa) = 34.76447 39.34282 37.05364
# Shear Modulus (GPa) = 21.27386 26.46628 23.87007
#
# Velocity S-wave (km/s) = 3.23061 3.60336 3.42206
# Velocity P-wave (km/s) = 5.56516 6.05092 5.81312
#
# Compressibility (1/GPa) = 0.02876500
#
# Stress axis : x y z
#
# Youngs Moduli (GPa) = 65.21359 41.29349 56.67224
#
# Poissons Ratio (x) = 0.17648 0.03632
# Poissons Ratio (y) = 0.27871 0.52711
# Poissons Ratio (z) = 0.04180 0.38407
#
# Static dielectric constant tensor:
#      x y z
#    x 1.889690 0.000000 0.040700 
#    y 0.000000 1.739000 0.000000 
#    z 0.040700 0.000000 1.780730 
# 
# From -- ./inp_files/7575.got.cif
#   From: 2010.05.17/outbox.cif.g08.bks.cpg/sg10_4_cif.got.tgz:7575.got - 2010.06.03 11:33:40.
