data_PCOD9150871
_publ_section_title
;
Structure prediction by ZEFSAII (Michael W. Deem and Ramdas Pophale) SiO2 
 PCOD9150871
Probable space group: P 2/M
;
_chemical_formula_sum "Si O2"
_cell_formula_units_Z 24
_cell_length_a 14.611926
_cell_length_b 8.969968
_cell_length_c 15.294313
_cell_angle_alpha 90.000000
_cell_angle_beta 38.619937
_cell_angle_gamma 90.000000
_cell_volume 1251.175845
_symmetry_space_group_name_H-M "P 2/M"
_symmetry_group_IT_number 10
_symmetry_cell_setting 'monoclinic'
loop_
_space_group_symop_operation_xyz
x,y,z
-x,y,-z
-x,-y,-z
x,-y,z
loop_
_atom_site_type_symbol
_atom_site_label
_atom_site_fract_x
_atom_site_fract_y
_atom_site_fract_z
Si Si1 0.608673 0.822957 0.556957
Si Si2 0.697257 0.323046 0.204685
Si Si3 0.833498 0.322540 0.922464
Si Si4 0.127404 0.824183 0.777534
Si Si5 0.803248 0.819109 0.571406
Si Si6 0.861094 0.179925 0.721257
O O1 0.460495 0.736256 0.648312
O O2 0.733931 0.804739 0.390724
O O3 0.680624 0.770364 0.594708
O O4 0.575380 0.000000 0.587065
O O5 0.709217 0.500000 0.208016
O O6 0.822502 0.243387 0.167856
O O7 0.720768 0.288328 0.084784
O O8 0.844446 0.500000 0.905386
O O9 0.797792 0.250702 0.855869
O O10 0.988465 0.257236 0.839723
O O11 0.096728 0.000000 0.807536
O O12 0.788229 0.773758 0.683651
O O13 0.966407 0.777560 0.416622
O O14 0.802143 0.000000 0.571141
O O15 0.855111 0.000000 0.731999
#
# Coordination Sequence:
#
# PCOD9150871 Si02
#       6
#     4   4   4   4   4   4
#     4  10  20  37  59  85 112 141 182 230 277 328
#     4  11  25  40  53  77 116 155 185 222 275 330
#     4  11  23  38  55  80 116 151 184 225 273 327
#     4  11  22  38  62  86 106 139 189 237 277 323
#     4   8  15  31  57  86 112 137 175 231 281 320
#     4   9  16  32  59  85 109 141 181 228 277 323
#
# _framework density 19.181956
#
# number of rings (size 3 to 8) (size 9 to 14) (size 15 to 20)
#    0.000    2.000    1.667    3.500    0.000    8.000 
#    0.000    3.333    0.000    5.000    0.000    0.000 
#    0.000    0.000    0.000    0.000    0.000    0.000 
#
# Total GULP energy -134032.596642 kJ/mol
# GULP energy per Si atom -5584.691527 kJ/mol
# Density = 1.913830 g / cm^3
# Si number density = 19.181956 Si / 1000 Ang^3
#
#
#
# Elastic Constant Matrix: (Units=GPa)
#
#
# Indices 1 2 3 4 5 6 
#
# 1 61.0282 7.0337 -0.9381 0.0000 20.8213 0.0000
# 2 7.0337 32.1406 26.2148 0.0000 11.0780 0.0000
# 3 -0.9381 26.2148 41.6173 0.0000 13.5691 0.0000
# 4 0.0000 0.0000 0.0000 29.7843 0.0000 17.9404
# 5 20.8213 11.0780 13.5691 0.0000 32.6305 0.0000
# 6 0.0000 0.0000 0.0000 17.9404 0.0000 18.7712
#
#
#
# Elastic Compliance Matrix: (Units=1/GPa)
#
#
# Indices 1 2 3 4 5 6 
#
# 1 0.023228 -0.008641 0.011386 0.000000 -0.016623 0.000000
# 2 -0.008641 0.068146 -0.043237 0.000000 0.000358 0.000000
# 3 0.011386 -0.043237 0.056805 0.000000 -0.016209 0.000000
# 4 0.000000 0.000000 0.000000 0.079127 0.000000 -0.075625
# 5 -0.016623 0.000358 -0.016209 0.000000 0.047872 0.000000
# 6 0.000000 0.000000 0.000000 -0.075625 0.000000 0.125550
#
#
# Mechanical properties :
#
#
# Convention : Reuss Voigt Hill
#
# Bulk Modulus (GPa) = 14.88169 22.15632 18.51900
# Shear Modulus (GPa) = 9.91847 23.06891 16.49369
#
# Velocity S-wave (km/s) = 2.27639 3.47167 2.93551
# Velocity P-wave (km/s) = 3.83201 5.25791 4.60054
#
# Compressibility (1/GPa) = 0.06719669
#
# Stress axis : x y z
#
# Youngs Moduli (GPa) = 43.05112 14.67433 17.60414
#
# Poissons Ratio (x) = 0.12680 -0.20045
# Poissons Ratio (y) = 0.37200 0.76115
# Poissons Ratio (z) = -0.49020 0.63447
#
# Static dielectric constant tensor:
#      x y z
#    x 1.666150 0.000000 0.031620 
#    y 0.000000 1.639020 0.000000 
#    z 0.031620 0.000000 1.670750 
# 
# From -- ./inp_files/33742.got.cif
#   From: 2010.05.17/outbox.cif.g08.bks.cpg/sg10_17_cif.got.tgz:33742.got - 2010.06.03 11:33:40.
