data_PCOD9150067
_publ_section_title
;
Structure prediction by ZEFSAII (Michael W. Deem and Ramdas Pophale) SiO2 
 PCOD9150067
Probable space group: P 2/M
;
_chemical_formula_sum "Si O2"
_cell_formula_units_Z 32
_cell_length_a 5.260844
_cell_length_b 17.949154
_cell_length_c 15.286974
_cell_angle_alpha 90.000000
_cell_angle_beta 96.824251
_cell_angle_gamma 90.000000
_cell_volume 1433.286924
_symmetry_space_group_name_H-M "P 2/M"
_symmetry_group_IT_number 10
_symmetry_cell_setting 'monoclinic'
loop_
_space_group_symop_operation_xyz
x,y,z
-x,y,-z
-x,-y,-z
x,-y,z
loop_
_atom_site_type_symbol
_atom_site_label
_atom_site_fract_x
_atom_site_fract_y
_atom_site_fract_z
Si Si1 0.405903 0.915523 0.772557
Si Si2 0.662040 0.585986 0.315408
Si Si3 0.347306 0.278265 0.582689
Si Si4 0.274954 0.584926 0.057171
Si Si5 0.771580 0.909886 0.049740
Si Si6 0.882428 0.644374 0.769280
Si Si7 0.254675 0.798761 0.280566
Si Si8 0.927556 0.125091 0.406399
O O1 0.218423 0.896790 0.845526
O O2 0.627685 0.854337 0.784635
O O3 0.266859 0.910512 0.672263
O O4 0.501237 0.000000 0.789129
O O5 0.685219 0.500000 0.339817
O O6 0.772644 0.644221 0.391744
O O7 0.358252 0.605330 0.291859
O O8 0.850665 0.602297 0.240423
O O9 0.500000 0.289798 0.500000
O O10 0.521803 0.251881 0.670485
O O11 0.183079 0.204321 0.567201
O O12 0.339584 0.500000 0.090335
O O13 0.225151 0.637079 0.137440
O O14 0.500000 0.607667 0.000000
O O15 0.000000 0.581216 0.000000
O O16 0.774801 0.000000 0.041237
O O17 0.500000 0.884323 0.000000
O O18 0.000000 0.879641 0.000000
O O19 0.935595 0.732459 0.753046
O O20 0.163843 0.852245 0.355059
O O21 0.000000 0.084989 0.500000
#
# Coordination Sequence:
#
# PCOD9150067 Si02
#       8
#     4   4   4   4   4   4   4   4
#     4  10  24  41  64 100 133 167 220 286 342 402
#     4  11  22  36  60  94 124 161 212 270 325 372
#     4  10  20  37  59  85 120 167 216 260 315 392
#     4  10  20  35  58  88 123 165 209 260 324 387
#     4   9  19  38  65  94 127 168 209 255 321 397
#     4  11  22  40  62  87 127 171 215 265 320 398
#     4  10  22  39  64  85 122 171 217 266 327 399
#     4  11  21  39  66  91 123 178 225 269 332 412
#
# _framework density 22.326304
#
# number of rings (size 3 to 8) (size 9 to 14) (size 15 to 20)
#    0.000    1.750    2.500    1.875    1.750    2.000 
#    0.000    1.250    0.000    2.625    0.000    0.000 
#    0.000    0.000    0.000    0.000    0.000    0.000 
#
# Total GULP energy -178365.068880 kJ/mol
# GULP energy per Si atom -5573.908402 kJ/mol
# Density = 2.227549 g / cm^3
# Si number density = 22.326304 Si / 1000 Ang^3
#
#
#
# Elastic Constant Matrix: (Units=GPa)
#
#
# Indices 1 2 3 4 5 6 
#
# 1 88.7398 17.9935 14.8539 0.0000 -25.3245 0.0000
# 2 17.9935 104.9445 18.6673 0.0000 -11.8406 0.0000
# 3 14.8539 18.6673 90.5122 0.0000 -24.9146 0.0000
# 4 0.0000 0.0000 0.0000 18.7506 0.0000 -8.3108
# 5 -25.3245 -11.8406 -24.9146 0.0000 39.7215 0.0000
# 6 0.0000 0.0000 0.0000 -8.3108 0.0000 25.5035
#
#
#
# Elastic Compliance Matrix: (Units=1/GPa)
#
#
# Indices 1 2 3 4 5 6 
#
# 1 0.013995 -0.001487 0.000416 0.000000 0.008740 0.000000
# 2 -0.001487 0.010185 -0.001549 0.000000 0.001116 0.000000
# 3 0.000416 -0.001549 0.013592 0.000000 0.008329 0.000000
# 4 0.000000 0.000000 0.000000 0.062335 0.000000 0.020313
# 5 0.008740 0.001116 0.008329 0.000000 0.036304 0.000000
# 6 0.000000 0.000000 0.000000 0.020313 0.000000 0.045830
#
#
# Mechanical properties :
#
#
# Convention : Reuss Voigt Hill
#
# Bulk Modulus (GPa) = 30.74007 43.02509 36.88258
# Shear Modulus (GPa) = 25.21092 32.30725 28.75909
#
# Velocity S-wave (km/s) = 3.36401 3.80814 3.59294
# Velocity P-wave (km/s) = 5.37468 6.21681 5.81102
#
# Compressibility (1/GPa) = 0.03253083
#
# Stress axis : x y z
#
# Youngs Moduli (GPa) = 71.45345 98.17989 73.57216
#
# Poissons Ratio (x) = 0.14603 -0.03060
# Poissons Ratio (y) = 0.10628 0.11399
# Poissons Ratio (z) = -0.02971 0.15211
#
# Static dielectric constant tensor:
#      x y z
#    x 1.895550 0.000000 0.081900 
#    y 0.000000 1.828560 0.000000 
#    z 0.081900 0.000000 1.798030 
# 
# From -- ./inp_files/59430.got.cif
#   From: 2010.05.17/outbox.cif.g08.bks.cpg/sg10_30_cif.got.tgz:59430.got - 2010.06.03 11:33:40.
