data_PCOD9150047
_publ_section_title
;
Structure prediction by ZEFSAII (Michael W. Deem and Ramdas Pophale) SiO2 
 PCOD9150047
Probable space group: P 2/M
;
_chemical_formula_sum "Si O2"
_cell_formula_units_Z 28
_cell_length_a 8.101422
_cell_length_b 9.206682
_cell_length_c 28.467009
_cell_angle_alpha 90.000000
_cell_angle_beta 44.644995
_cell_angle_gamma 90.000000
_cell_volume 1492.050784
_symmetry_space_group_name_H-M "P 2/M"
_symmetry_group_IT_number 10
_symmetry_cell_setting 'monoclinic'
loop_
_space_group_symop_operation_xyz
x,y,z
-x,y,-z
-x,-y,-z
x,-y,z
loop_
_atom_site_type_symbol
_atom_site_label
_atom_site_fract_x
_atom_site_fract_y
_atom_site_fract_z
Si Si1 0.905946 0.825212 0.163842
Si Si2 0.069120 0.331245 0.294264
Si Si3 0.725158 0.174788 0.836158
Si Si4 0.632269 0.831604 0.426126
Si Si5 0.237102 0.831604 0.426126
Si Si6 0.191923 0.177036 0.923231
Si Si7 0.459563 0.668755 0.294263
O O1 0.875938 0.777634 0.115900
O O2 0.698018 0.755216 0.236311
O O3 0.153017 0.789902 0.138793
O O4 0.879510 0.000000 0.170273
O O5 0.022398 0.500000 0.293740
O O6 0.120430 0.244784 0.236310
O O7 0.299228 0.320562 0.280309
O O8 0.854333 0.262239 0.366332
O O9 0.455439 0.222366 0.884100
O O10 0.730875 0.000000 0.829727
O O11 0.500000 0.781671 0.500000
O O12 0.445739 0.828172 0.421704
O O13 0.704648 0.000000 0.419153
O O14 0.314007 0.737761 0.366332
O O15 0.000000 0.781671 0.500000
O O16 0.199587 0.000000 0.419153
O O17 0.190850 0.000000 0.923660
O O18 0.000000 0.225715 0.000000
O O19 0.508904 0.500000 0.293740
#
# Coordination Sequence:
#
# PCOD9150047 Si02
#       7
#     4   4   4   4   4   4   4
#     4  10  20  35  58  86 114 149 191 232 281 340
#     4  11  23  37  55  80 111 149 190 234 284 336
#     4  10  20  35  58  86 114 149 191 232 281 340
#     4  10  21  37  57  81 108 142 185 232 285 342
#     4  10  21  37  57  81 108 142 185 232 285 342
#     4   9  18  34  57  87 121 151 183 233 289 337
#     4  11  23  37  55  80 111 149 190 234 284 336
#
# _framework density 18.766119
#
# number of rings (size 3 to 8) (size 9 to 14) (size 15 to 20)
#    0.000    1.857    1.429    2.571    0.000    8.571 
#    0.000    2.857    0.000    1.714    0.000    2.000 
#    0.000    0.000    0.000    0.000    0.000    0.000 
#
# Total GULP energy -156377.556575 kJ/mol
# GULP energy per Si atom -5584.912735 kJ/mol
# Density = 1.872341 g / cm^3
# Si number density = 18.766119 Si / 1000 Ang^3
#
#
#
# Elastic Constant Matrix: (Units=GPa)
#
#
# Indices 1 2 3 4 5 6 
#
# 1 116.7954 38.0048 63.9803 0.0000 -0.0425 0.0000
# 2 38.0048 27.6944 33.8215 0.0000 -0.0485 0.0000
# 3 63.9803 33.8215 130.4913 0.0000 0.2009 0.0000
# 4 0.0000 0.0000 0.0000 -15.8372 0.0000 -0.3509
# 5 -0.0425 -0.0485 0.2009 0.0000 24.5817 0.0000
# 6 0.0000 0.0000 0.0000 -0.3509 0.0000 14.4212
#
#
#
# Elastic Compliance Matrix: (Units=1/GPa)
#
#
# Indices 1 2 3 4 5 6 
#
# 1 0.016345 -0.018498 -0.003219 0.000000 0.000018 0.000000
# 2 -0.018498 0.073767 -0.010050 0.000000 0.000196 0.000000
# 3 -0.003219 -0.010050 0.011847 0.000000 -0.000122 0.000000
# 4 0.000000 0.000000 0.000000 -0.063108 0.000000 -0.001536
# 5 0.000018 0.000196 -0.000122 0.000000 0.040682 0.000000
# 6 0.000000 0.000000 0.000000 -0.001536 0.000000 0.069305
#
#
# Mechanical properties :
#
#
# Convention : Reuss Voigt Hill
#
# Bulk Modulus (GPa) = 26.02570 60.73270 43.37920
# Shear Modulus (GPa) = 22.20439 13.91143 18.05791
#
# Velocity S-wave (km/s) = 3.44352 2.72565 3.10540
# Velocity P-wave (km/s) = 5.45060 6.50682 6.00199
#
# Compressibility (1/GPa) = 0.03842356
#
# Stress axis : x y z
#
# Youngs Moduli (GPa) = 61.18146 13.55618 84.41030
#
# Poissons Ratio (x) = 0.25076 0.27176
# Poissons Ratio (y) = 1.13174 0.84833
# Poissons Ratio (z) = 0.19697 0.13624
#
# Static dielectric constant tensor:
#      x y z
#    x 1.668850 0.000000 -0.000670 
#    y 0.000000 1.623910 0.000000 
#    z -0.000670 0.000000 1.610750 
# 
# From -- ./inp_files/90334.got.cif
#   From: 2010.05.17/outbox.cif.g08.bks.cpg/sg10_46_cif.got.tgz:90334.got - 2010.06.03 11:33:40.
