data_PCOD9150528
_publ_section_title
;
Structure prediction by ZEFSAII (Michael W. Deem and Ramdas Pophale) SiO2 
 PCOD9150528
Probable space group: P 2/M
;
_chemical_formula_sum "Si O2"
_cell_formula_units_Z 28
_cell_length_a 9.627495
_cell_length_b 7.728937
_cell_length_c 29.488720
_cell_angle_alpha 90.000000
_cell_angle_beta 32.779516
_cell_angle_gamma 90.000000
_cell_volume 1187.991651
_symmetry_space_group_name_H-M "P 2/M"
_symmetry_group_IT_number 10
_symmetry_cell_setting 'monoclinic'
loop_
_space_group_symop_operation_xyz
x,y,z
-x,y,-z
-x,-y,-z
x,-y,z
loop_
_atom_site_type_symbol
_atom_site_label
_atom_site_fract_x
_atom_site_fract_y
_atom_site_fract_z
Si Si1 0.401516 0.696518 0.726897
Si Si2 0.508263 0.291570 0.394181
Si Si3 0.590380 0.788315 0.024704
Si Si4 0.160209 0.800773 0.885770
Si Si5 0.032333 0.193885 0.424780
Si Si6 0.381161 0.210725 0.176826
Si Si7 0.121985 0.299219 0.630597
O O1 0.304245 0.500000 0.756118
O O2 0.356797 0.771423 0.688951
O O3 0.288471 0.794181 0.800846
O O4 0.711028 0.694007 0.645059
O O5 0.529052 0.500000 0.387707
O O6 0.650307 0.230317 0.400342
O O7 0.209201 0.246645 0.478547
O O8 0.876347 0.725423 0.958801
O O9 0.599380 0.000000 0.020426
O O10 0.500000 0.729192 0.000000
O O11 0.407752 0.742839 0.116815
O O12 0.365241 0.728886 0.865259
O O13 0.123573 0.000000 0.909831
O O14 0.928061 0.202443 0.402130
O O15 0.113578 0.000000 0.413637
O O16 0.133221 0.286910 0.269049
O O17 0.367319 0.000000 0.184449
O O18 0.174680 0.500000 0.604398
#
# Coordination Sequence:
#
# PCOD9150528 Si02
#       7
#     4   4   4   4   4   4   4
#     4  11  23  40  62  87 121 162 201 245 300 360
#     4  10  24  42  60  85 120 163 203 244 302 360
#     4   9  19  35  58  89 122 158 196 241 298 353
#     4  10  20  36  59  87 120 157 200 246 292 349
#     4  12  24  40  62  91 120 153 202 254 300 352
#     4  10  20  36  59  87 120 157 200 246 292 349
#     4  11  23  40  62  87 121 162 201 245 300 360
#
# _framework density 23.569189000000001
#
# number of rings (size 3 to 8) (size 9 to 14) (size 15 to 20)
#    0.000    1.571    1.429    3.429    2.000    7.429 
#    0.000    0.714    0.000    2.571    0.000    0.000 
#    0.000    0.000    0.000    0.000    0.000    0.000 
#
# Total GULP energy -156640.372699 kJ/mol
# GULP energy per Si atom -5594.299025 kJ/mol
# Density = 2.351554 g / cm^3
# Si number density = 23.569189 Si / 1000 Ang^3
#
#
#
# Elastic Constant Matrix: (Units=GPa)
#
#
# Indices 1 2 3 4 5 6 
#
# 1 35.8720 -5.7918 9.1745 0.0000 5.3784 0.0000
# 2 -5.7918 49.5152 -8.1001 0.0000 3.4315 0.0000
# 3 9.1745 -8.1001 96.8597 0.0000 13.3577 0.0000
# 4 0.0000 0.0000 0.0000 5.8116 0.0000 9.1507
# 5 5.3784 3.4315 13.3577 0.0000 44.9834 0.0000
# 6 0.0000 0.0000 0.0000 9.1507 0.0000 12.1582
#
#
#
# Elastic Compliance Matrix: (Units=1/GPa)
#
#
# Indices 1 2 3 4 5 6 
#
# 1 0.029416 0.003320 -0.002074 0.000000 -0.003155 0.000000
# 2 0.003320 0.021054 0.001796 0.000000 -0.002536 0.000000
# 3 -0.002074 0.001796 0.011111 0.000000 -0.003188 0.000000
# 4 0.000000 0.000000 0.000000 -0.929820 0.000000 0.699815
# 5 -0.003155 -0.002536 -0.003188 0.000000 0.023748 0.000000
# 6 0.000000 0.000000 0.000000 0.699815 0.000000 -0.444456
#
#
# Mechanical properties :
#
#
# Convention : Reuss Voigt Hill
#
# Bulk Modulus (GPa) = 14.77852 19.20135 16.98993
# Shear Modulus (GPa) = -3.92934 25.05492 10.56279
#
# Velocity S-wave (km/s) = -1.29258 3.26396 2.11928
# Velocity P-wave (km/s) = 2.01400 4.72960 3.63492
#
# Compressibility (1/GPa) = 0.06766579
#
# Stress axis : x y z
#
# Youngs Moduli (GPa) = 33.99478 47.49743 90.00492
#
# Poissons Ratio (x) = -0.15770 0.18663
# Poissons Ratio (y) = -0.11287 -0.16164
# Poissons Ratio (z) = 0.07049 -0.08530
#
# Static dielectric constant tensor:
#      x y z
#    x 1.907000 0.000000 0.006000 
#    y 0.000000 1.860770 0.000000 
#    z 0.006000 0.000000 1.844880 
# 
# From -- ./inp_files/37343.got.cif
#   From: 2010.05.17/outbox.cif.g08.bks.cpg/sg10_19_cif.got.tgz:37343.got - 2010.06.03 11:33:40.
