data_PCOD9150609
_publ_section_title
;
Structure prediction by ZEFSAII (Michael W. Deem and Ramdas Pophale) SiO2 
 PCOD9150609
Probable space group: P 2/M
;
_chemical_formula_sum "Si O2"
_cell_formula_units_Z 32
_cell_length_a 11.857684
_cell_length_b 8.539849
_cell_length_c 17.881989
_cell_angle_alpha 90.000000
_cell_angle_beta 63.548927
_cell_angle_gamma 90.000000
_cell_volume 1621.219345
_symmetry_space_group_name_H-M "P 2/M"
_symmetry_group_IT_number 10
_symmetry_cell_setting 'monoclinic'
loop_
_space_group_symop_operation_xyz
x,y,z
-x,y,-z
-x,-y,-z
x,-y,z
loop_
_atom_site_type_symbol
_atom_site_label
_atom_site_fract_x
_atom_site_fract_y
_atom_site_fract_z
Si Si1 0.282906 0.183295 0.742424
Si Si2 0.650156 0.686759 0.117515
Si Si3 0.481407 0.311353 0.417670
Si Si4 0.016736 0.314293 0.781149
Si Si5 0.028484 0.690721 0.372840
Si Si6 0.588236 0.321551 0.899856
Si Si7 0.202754 0.309318 0.453427
Si Si8 0.203432 0.818114 0.065874
O O1 0.304289 0.226647 0.822524
O O2 0.407754 0.232234 0.661280
O O3 0.163379 0.278233 0.747275
O O4 0.257921 0.000000 0.741268
O O5 0.647865 0.500000 0.130459
O O6 0.507637 0.734242 0.135619
O O7 0.740827 0.723595 0.020753
O O8 0.500000 0.279930 0.500000
O O9 0.489495 0.500000 0.404788
O O10 0.343332 0.258219 0.431157
O O11 0.994662 0.500000 0.792541
O O12 0.972906 0.257320 0.712161
O O13 0.935484 0.232074 0.869284
O O14 0.028588 0.500000 0.371803
O O15 0.145467 0.739822 0.390307
O O16 0.900237 0.737865 0.453778
O O17 0.629370 0.500000 0.871127
O O18 0.706656 0.220783 0.889717
O O19 0.500000 0.327637 0.000000
O O20 0.204185 0.500000 0.453428
O O21 0.211007 0.000000 0.045713
#
# Coordination Sequence:
#
# PCOD9150609 Si02
#       8
#     4   4   4   4   4   4   4   4
#     4  12  26  41  57  82 115 149 188 239 301 353
#     4  10  21  40  63  85 112 149 195 240 281 336
#     4  10  20  36  60  88 117 153 195 232 273 338
#     4  11  22  38  58  80 109 150 200 243 285 343
#     4   8  15  29  53  84 114 143 181 234 283 323
#     4   8  16  33  57  83 110 144 188 233 276 329
#     4   8  14  28  53  86 117 143 180 232 283 324
#     4  11  22  36  57  87 120 152 187 232 291 348
#
# _framework density 19.738230000000001
#
# number of rings (size 3 to 8) (size 9 to 14) (size 15 to 20)
#    0.000    2.250    0.000    5.250    0.000    6.500 
#    0.000    5.000    0.000    0.750    0.000    5.250 
#    0.000    0.000    0.000    0.000    0.000    0.000 
#
# Total GULP energy -178665.386795 kJ/mol
# GULP energy per Si atom -5583.293337 kJ/mol
# Density = 1.969330 g / cm^3
# Si number density = 19.738230 Si / 1000 Ang^3
#
#
#
# Elastic Constant Matrix: (Units=GPa)
#
#
# Indices 1 2 3 4 5 6 
#
# 1 76.3199 -4.3682 20.6529 0.0000 -7.5001 0.0000
# 2 -4.3682 14.1165 -4.2807 0.0000 -0.7904 0.0000
# 3 20.6529 -4.2807 58.5114 0.0000 2.4062 0.0000
# 4 0.0000 0.0000 0.0000 29.4158 0.0000 -35.0139
# 5 -7.5001 -0.7904 2.4062 0.0000 31.7088 0.0000
# 6 0.0000 0.0000 0.0000 -35.0139 0.0000 66.4529
#
#
#
# Elastic Compliance Matrix: (Units=1/GPa)
#
#
# Indices 1 2 3 4 5 6 
#
# 1 0.015114 0.003309 -0.005260 0.000000 0.004057 0.000000
# 2 0.003309 0.073234 0.004095 0.000000 0.002297 0.000000
# 3 -0.005260 0.004095 0.019354 0.000000 -0.002611 0.000000
# 4 0.000000 0.000000 0.000000 0.091183 0.000000 0.048044
# 5 0.004057 0.002297 -0.002611 0.000000 0.032752 0.000000
# 6 0.000000 0.000000 0.000000 0.048044 0.000000 0.040363
#
#
# Mechanical properties :
#
#
# Convention : Reuss Voigt Hill
#
# Bulk Modulus (GPa) = 8.92923 19.21730 14.07326
# Shear Modulus (GPa) = 16.39131 34.64508 25.51819
#
# Velocity S-wave (km/s) = 2.88485 4.19409 3.59950
# Velocity P-wave (km/s) = 3.95350 5.76290 4.94172
#
# Compressibility (1/GPa) = 0.11199176
#
# Stress axis : x y z
#
# Youngs Moduli (GPa) = 66.16351 13.65490 51.66856
#
# Poissons Ratio (x) = -0.04519 0.27175
# Poissons Ratio (y) = -0.21894 -0.21160
# Poissons Ratio (z) = 0.34799 -0.05592
#
# Static dielectric constant tensor:
#      x y z
#    x 1.702930 0.000000 0.007030 
#    y 0.000000 1.666100 0.000000 
#    z 0.007030 0.000000 1.679030 
# 
# From -- ./inp_files/76175.got.cif
#   From: 2010.05.17/outbox.cif.g08.bks.cpg/sg10_39_cif.got.tgz:76175.got - 2010.06.03 11:33:40.
