data_PCOD9150006
_publ_section_title
;
Structure prediction by ZEFSAII (Michael W. Deem and Ramdas Pophale) SiO2 
 PCOD9150006
Probable space group: P 2/M
;
_chemical_formula_sum "Si O2"
_cell_formula_units_Z 24
_cell_length_a 24.705662
_cell_length_b 7.981404
_cell_length_c 12.161949
_cell_angle_alpha 90.000000
_cell_angle_beta 26.330714
_cell_angle_gamma 90.000000
_cell_volume 1063.709931
_symmetry_space_group_name_H-M "P 2/M"
_symmetry_group_IT_number 10
_symmetry_cell_setting 'monoclinic'
loop_
_space_group_symop_operation_xyz
x,y,z
-x,y,-z
-x,-y,-z
x,-y,z
loop_
_atom_site_type_symbol
_atom_site_label
_atom_site_fract_x
_atom_site_fract_y
_atom_site_fract_z
Si Si1 0.437112 0.308698 0.967011
Si Si2 0.780625 0.309246 0.481676
Si Si3 0.048096 0.000000 0.784878
Si Si4 0.360791 0.796488 0.723161
Si Si5 0.950858 0.000000 0.462460
Si Si6 0.311727 0.191264 0.566084
Si Si7 0.780715 0.687228 0.810231
O O1 0.483381 0.500000 0.892370
O O2 0.550269 0.195354 0.731092
O O3 0.354011 0.271273 0.223763
O O4 0.339874 0.302635 0.045427
O O5 0.810607 0.500000 0.459548
O O6 0.770664 0.293198 0.368518
O O7 0.870401 0.168727 0.362846
O O8 0.983778 0.000000 0.778811
O O9 0.000000 0.000000 0.000000
O O10 0.500000 0.746828 0.500000
O O11 0.323711 0.745282 0.668070
O O12 0.356653 0.000000 0.736216
O O13 0.266453 0.723178 0.981583
O O14 0.870475 0.168021 0.609485
O O15 0.000000 0.000000 0.500000
O O16 0.268078 0.000000 0.644439
O O17 0.831927 0.500000 0.707531
#
# Coordination Sequence:
#
# PCOD9150006 Si02
#       7
#     4   4   2   4   2   4   4
#     4  10  21  36  60  95 133 176 221 260 312 392
#     4  11  24  44  67  96 134 176 221 275 333 400
#     4  12  28  50  76 101 128 170 228 285 355 416
#     4  10  20  35  57  91 138 184 223 265 316 383
#     4  12  28  50  76 100 132 166 218 298 353 400
#     4  11  22  33  60 100 141 184 226 266 319 389
#     4  11  23  41  69  98 130 178 224 263 328 401
#
# _framework density 22.562543000000002
#
# number of rings (size 3 to 8) (size 9 to 14) (size 15 to 20)
#    0.000    1.167    5.000    1.000    2.333    5.667 
#    0.000    0.000    0.000    0.000    0.000    0.000 
#    0.000    0.000    0.000    0.000    0.000    0.000 
#
# Total GULP energy -134090.970910 kJ/mol
# GULP energy per Si atom -5587.123788 kJ/mol
# Density = 2.251119 g / cm^3
# Si number density = 22.562543 Si / 1000 Ang^3
#
#
#
# Elastic Constant Matrix: (Units=GPa)
#
#
# Indices 1 2 3 4 5 6 
#
# 1 156.0537 27.6180 28.2492 0.0000 45.0115 0.0000
# 2 27.6180 96.9874 43.7794 0.0000 4.9588 0.0000
# 3 28.2492 43.7794 69.3360 0.0000 30.3827 0.0000
# 4 0.0000 0.0000 0.0000 -21.6423 0.0000 6.7162
# 5 45.0115 4.9588 30.3827 0.0000 37.7252 0.0000
# 6 0.0000 0.0000 0.0000 6.7162 0.0000 -23.6492
#
#
#
# Elastic Compliance Matrix: (Units=1/GPa)
#
#
# Indices 1 2 3 4 5 6 
#
# 1 0.011450 -0.005400 0.006831 0.000000 -0.018452 0.000000
# 2 -0.005400 0.018926 -0.017745 0.000000 0.018247 0.000000
# 3 0.006831 -0.017745 0.039242 0.000000 -0.037421 0.000000
# 4 0.000000 0.000000 0.000000 -0.050672 0.000000 -0.014390
# 5 -0.018452 0.018247 -0.037421 0.000000 0.076263 0.000000
# 6 0.000000 0.000000 0.000000 -0.014390 0.000000 -0.046372
#
#
# Mechanical properties :
#
#
# Convention : Reuss Voigt Hill
#
# Bulk Modulus (GPa) = 27.03638 57.96337 42.49988
# Shear Modulus (GPa) = 53.30717 13.33545 33.32131
#
# Velocity S-wave (km/s) = 4.86597 2.43378 3.84714
# Velocity P-wave (km/s) = 6.60145 5.80031 6.21380
#
# Compressibility (1/GPa) = 0.03698719
#
# Stress axis : x y z
#
# Youngs Moduli (GPa) = 87.33961 52.83870 25.48291
#
# Poissons Ratio (x) = 0.28534 -0.17406
# Poissons Ratio (y) = 0.47165 0.45220
# Poissons Ratio (z) = -0.59658 0.93764
#
# Static dielectric constant tensor:
#      x y z
#    x 1.899310 0.000000 0.029580 
#    y 0.000000 1.793500 0.000000 
#    z 0.029580 0.000000 1.832690 
# 
# From -- ./inp_files/56560.got.cif
#   From: 2010.05.17/outbox.cif.g08.bks.cpg/sg10_29_cif.got.tgz:56560.got - 2010.06.03 11:33:40.
