data_PCOD9150180
_publ_section_title
;
Structure prediction by ZEFSAII (Michael W. Deem and Ramdas Pophale) SiO2 
 PCOD9150180
Probable space group: P 2/M
;
_chemical_formula_sum "Si O2"
_cell_formula_units_Z 28
_cell_length_a 14.911566
_cell_length_b 11.836683
_cell_length_c 8.474883
_cell_angle_alpha 90.000000
_cell_angle_beta 112.905695
_cell_angle_gamma 90.000000
_cell_volume 1377.893955
_symmetry_space_group_name_H-M "P 2/M"
_symmetry_group_IT_number 10
_symmetry_cell_setting 'monoclinic'
loop_
_space_group_symop_operation_xyz
x,y,z
-x,y,-z
-x,-y,-z
x,-y,z
loop_
_atom_site_type_symbol
_atom_site_label
_atom_site_fract_x
_atom_site_fract_y
_atom_site_fract_z
Si Si1 0.228058 0.719753 0.987195
Si Si2 0.863312 0.366195 0.756702
Si Si3 0.559590 0.868217 0.190742
Si Si4 0.430304 0.500000 0.704650
Si Si5 0.357966 0.500000 0.016885
Si Si6 0.943727 0.367292 0.298194
Si Si7 0.632406 0.870023 0.744706
Si Si8 0.322220 0.282165 0.526967
O O1 0.148358 0.712165 0.795046
O O2 0.166460 0.697176 0.104770
O O3 0.298270 0.612381 0.014166
O O4 0.296235 0.827153 0.066445
O O5 0.848169 0.500000 0.770240
O O6 0.787693 0.325084 0.570429
O O7 0.973546 0.350065 0.777531
O O8 0.478836 0.862586 0.273865
O O9 0.651367 0.795133 0.305017
O O10 0.416662 0.000000 0.821348
O O11 0.500000 0.822606 0.000000
O O12 0.544940 0.500000 0.811535
O O13 0.391628 0.390232 0.589106
O O14 0.384835 0.500000 0.850141
O O15 0.912127 0.500000 0.269397
O O16 0.000000 0.350862 0.500000
O O17 0.652361 0.790263 0.610412
O O18 0.652637 0.000000 0.718799
#
# Coordination Sequence:
#
# PCOD9150180 Si02
#       8
#     4   4   4   2   2   4   4   4
#     4  11  21  38  63  84 119 160 198 241 303 364
#     4  10  20  36  53  85 120 152 198 242 291 362
#     4  10  22  39  59  83 113 157 211 255 293 341
#     4  11  26  37  54  91 131 159 197 243 305 368
#     4  11  24  37  56  90 127 165 194 238 305 370
#     4  10  21  34  58  89 120 156 196 244 296 361
#     4  10  23  41  62  87 114 156 211 255 294 347
#     4  11  22  37  60  82 121 160 192 246 296 354
#
# _framework density 20.320867
#
# number of rings (size 3 to 8) (size 9 to 14) (size 15 to 20)
#    0.000    1.571    2.143    2.143    6.000    3.429 
#    0.000    2.857    0.000    8.143    0.000    0.000 
#    0.000    0.000    0.000    0.000    0.000    0.000 
#
# Total GULP energy -156591.371476 kJ/mol
# GULP energy per Si atom -5592.548981 kJ/mol
# Density = 2.027462 g / cm^3
# Si number density = 20.320867 Si / 1000 Ang^3
#
#
#
# Elastic Constant Matrix: (Units=GPa)
#
#
# Indices 1 2 3 4 5 6 
#
# 1 37.3984 7.4725 12.1224 0.0000 11.0149 0.0000
# 2 7.4725 76.9777 27.3265 0.0000 12.6191 0.0000
# 3 12.1224 27.3265 94.9534 0.0000 26.1932 0.0000
# 4 0.0000 0.0000 0.0000 29.8641 0.0000 -2.8388
# 5 11.0149 12.6191 26.1932 0.0000 34.0954 0.0000
# 6 0.0000 0.0000 0.0000 -2.8388 0.0000 2.1476
#
#
#
# Elastic Compliance Matrix: (Units=1/GPa)
#
#
# Indices 1 2 3 4 5 6 
#
# 1 0.029791 -0.001107 -0.001196 0.000000 -0.008296 0.000000
# 2 -0.001107 0.014714 -0.003413 0.000000 -0.002466 0.000000
# 3 -0.001196 -0.003413 0.014226 0.000000 -0.009279 0.000000
# 4 0.000000 0.000000 0.000000 0.038297 0.000000 0.050624
# 5 -0.008296 -0.002466 -0.009279 0.000000 0.040051 0.000000
# 6 0.000000 0.000000 0.000000 0.050624 0.000000 0.532556
#
#
# Mechanical properties :
#
#
# Convention : Reuss Voigt Hill
#
# Bulk Modulus (GPa) = 21.14228 33.68581 27.41405
# Shear Modulus (GPa) = 7.17530 24.04861 15.61196
#
# Velocity S-wave (km/s) = 1.88113 3.44385 2.77478
# Velocity P-wave (km/s) = 3.89166 5.69442 4.87706
#
# Compressibility (1/GPa) = 0.04729859
#
# Stress axis : x y z
#
# Youngs Moduli (GPa) = 33.56667 67.96194 70.29309
#
# Poissons Ratio (x) = 0.07526 0.08409
# Poissons Ratio (y) = 0.03717 0.23990
# Poissons Ratio (z) = 0.04016 0.23194
#
# Static dielectric constant tensor:
#      x y z
#    x 1.718320 0.000000 -0.027990 
#    y 0.000000 1.684720 0.000000 
#    z -0.027990 0.000000 1.793410 
# 
# From -- ./inp_files/28706.got.cif
#   From: 2010.05.17/outbox.cif.g08.bks.cpg/sg10_15_cif.got.tgz:28706.got - 2010.06.03 11:33:40.
