data_PCOD9150393
_publ_section_title
;
Structure prediction by ZEFSAII (Michael W. Deem and Ramdas Pophale) SiO2 
 PCOD9150393
Probable space group: P 2/M
;
_chemical_formula_sum "Si O2"
_cell_formula_units_Z 28
_cell_length_a 8.226499
_cell_length_b 13.804248
_cell_length_c 13.292875
_cell_angle_alpha 90.000000
_cell_angle_beta 74.323485
_cell_angle_gamma 90.000000
_cell_volume 1453.396030
_symmetry_space_group_name_H-M "P 2/M"
_symmetry_group_IT_number 10
_symmetry_cell_setting 'monoclinic'
loop_
_space_group_symop_operation_xyz
x,y,z
-x,y,-z
-x,-y,-z
x,-y,z
loop_
_atom_site_type_symbol
_atom_site_label
_atom_site_fract_x
_atom_site_fract_y
_atom_site_fract_z
Si Si1 0.699703 0.206854 0.442528
Si Si2 0.440040 0.264925 0.898832
Si Si3 0.072986 0.606862 0.599802
Si Si4 0.190442 0.714022 0.229290
Si Si5 0.167708 0.391714 0.035973
Si Si6 0.227017 0.109788 0.360820
Si Si7 0.630703 0.109177 0.247232
O O1 0.500000 0.217094 0.500000
O O2 0.787365 0.310238 0.413524
O O3 0.783363 0.153518 0.524826
O O4 0.712308 0.147240 0.336924
O O5 0.606738 0.294828 0.808719
O O6 0.347500 0.183244 0.848660
O O7 0.500000 0.228600 0.000000
O O8 0.322613 0.356099 0.941915
O O9 0.138255 0.500000 0.613515
O O10 0.000000 0.607952 0.500000
O O11 0.912282 0.633886 0.693740
O O12 0.142004 0.692273 0.122834
O O13 0.151829 0.815444 0.291701
O O14 0.201951 0.500000 0.072437
O O15 0.000000 0.397166 0.000000
O O16 0.428152 0.105984 0.302602
O O17 0.161527 0.000000 0.366776
O O18 0.685853 0.000000 0.214933
#
# Coordination Sequence:
#
# PCOD9150393 Si02
#       7
#     4   4   4   4   4   4   4
#     4  10  20  36  58  83 117 151 193 237 275 335
#     4   9  20  37  60  85 112 147 193 239 277 336
#     4  11  23  38  56  81 116 155 190 231 286 340
#     4  10  20  38  59  83 114 148 187 233 282 336
#     4  10  22  39  60  84 111 147 191 242 292 333
#     4   9  17  34  59  86 114 150 191 230 276 336
#     4   9  18  33  58  88 114 148 188 231 287 338
#
# _framework density 19.265222999999999
#
# number of rings (size 3 to 8) (size 9 to 14) (size 15 to 20)
#    0.000    2.286    1.429    0.857    2.000    5.429 
#    0.000    4.286    0.000    0.857    0.000    0.000 
#    0.000    0.000    0.000    0.000    0.000    0.000 
#
# Total GULP energy -156095.973525 kJ/mol
# GULP energy per Si atom -5574.856197 kJ/mol
# Density = 1.922137 g / cm^3
# Si number density = 19.265223 Si / 1000 Ang^3
#
#
#
# Elastic Constant Matrix: (Units=GPa)
#
#
# Indices 1 2 3 4 5 6 
#
# 1 45.6484 38.8903 28.2106 0.0000 7.4402 0.0000
# 2 38.8903 133.7217 41.4943 0.0000 21.1351 0.0000
# 3 28.2106 41.4943 72.0186 0.0000 -0.7502 0.0000
# 4 0.0000 0.0000 0.0000 30.1926 0.0000 -1.6501
# 5 7.4402 21.1351 -0.7502 0.0000 17.6385 0.0000
# 6 0.0000 0.0000 0.0000 -1.6501 0.0000 32.2006
#
#
#
# Elastic Compliance Matrix: (Units=1/GPa)
#
#
# Indices 1 2 3 4 5 6 
#
# 1 0.034335 -0.005422 -0.010413 0.000000 -0.008429 0.000000
# 2 -0.005422 0.012842 -0.005414 0.000000 -0.013331 0.000000
# 3 -0.010413 -0.005414 0.021206 0.000000 0.011782 0.000000
# 4 0.000000 0.000000 0.000000 0.033214 0.000000 0.001702
# 5 -0.008429 -0.013331 0.011782 0.000000 0.076724 0.000000
# 6 0.000000 0.000000 0.000000 0.001702 0.000000 0.031143
#
#
# Mechanical properties :
#
#
# Convention : Reuss Voigt Hill
#
# Bulk Modulus (GPa) = 38.63287 52.06434 45.34861
# Shear Modulus (GPa) = 19.18711 25.52592 22.35651
#
# Velocity S-wave (km/s) = 3.15928 3.64397 3.41025
# Velocity P-wave (km/s) = 5.77969 6.69241 6.25273
#
# Compressibility (1/GPa) = 0.02588469
#
# Stress axis : x y z
#
# Youngs Moduli (GPa) = 29.12454 77.86849 47.15556
#
# Poissons Ratio (x) = 0.42222 0.49104
# Poissons Ratio (y) = 0.15792 0.25530
# Poissons Ratio (z) = 0.30328 0.42158
#
# Static dielectric constant tensor:
#      x y z
#    x 1.685000 0.000000 -0.021200 
#    y 0.000000 1.673290 0.000000 
#    z -0.021200 0.000000 1.735470 
# 
# From -- ./inp_files/42659.got.cif
#   From: 2010.05.17/outbox.cif.g08.bks.cpg/sg10_22_cif.got.tgz:42659.got - 2010.06.03 11:33:40.
