data_PCOD9150316
_publ_section_title
;
Structure prediction by ZEFSAII (Michael W. Deem and Ramdas Pophale) SiO2 
 PCOD9150316
Probable space group: P 2/M
;
_chemical_formula_sum "Si O2"
_cell_formula_units_Z 32
_cell_length_a 14.572179
_cell_length_b 17.397022
_cell_length_c 11.871715
_cell_angle_alpha 90.000000
_cell_angle_beta 30.075516
_cell_angle_gamma 90.000000
_cell_volume 1508.248139
_symmetry_space_group_name_H-M "P 2/M"
_symmetry_group_IT_number 10
_symmetry_cell_setting 'monoclinic'
loop_
_space_group_symop_operation_xyz
x,y,z
-x,y,-z
-x,-y,-z
x,-y,z
loop_
_atom_site_type_symbol
_atom_site_label
_atom_site_fract_x
_atom_site_fract_y
_atom_site_fract_z
Si Si1 0.073272 0.085883 0.272990
Si Si2 0.823949 0.587435 0.461981
Si Si3 0.675286 0.750955 0.590229
Si Si4 0.292351 0.143941 0.234669
Si Si5 0.301930 0.592033 0.166033
Si Si6 0.376229 0.735685 0.738799
Si Si7 0.017348 0.165328 0.108634
Si Si8 0.241419 0.411446 0.978239
O O1 0.193568 0.146631 0.217568
O O2 0.076167 0.103063 0.138386
O O3 0.861170 0.093950 0.536890
O O4 0.139503 0.000000 0.228073
O O5 0.748647 0.500000 0.529577
O O6 0.707925 0.659542 0.544485
O O7 0.838024 0.601949 0.582240
O O8 0.022419 0.589528 0.195339
O O9 0.688501 0.780955 0.705111
O O10 0.483512 0.767296 0.733946
O O11 0.834299 0.794386 0.351432
O O12 0.500000 0.114343 0.000000
O O13 0.310778 0.500000 0.141536
O O14 0.266507 0.621355 0.078924
O O15 0.500000 0.618120 0.000000
O O16 0.500000 0.753052 0.500000
O O17 0.177881 0.772110 0.937449
O O18 0.344678 0.644859 0.785912
O O19 0.000000 0.136010 0.000000
O O20 0.301271 0.500000 0.907299
#
# Coordination Sequence:
#
# PCOD9150316 Si02
#       8
#     4   4   4   4   4   4   4   4
#     4  10  23  42  70 105 134 170 206 244 310 382
#     4  10  20  36  57  84 122 164 211 270 332 385
#     4  11  23  39  64  94 122 174 221 262 326 379
#     4  10  21  40  65  99 142 171 204 254 307 377
#     4   9  17  30  48  73 108 149 190 244 313 380
#     4  12  24  40  66  87 118 168 225 270 320 378
#     4  11  23  45  66  90 132 168 212 268 309 370
#     4  10  21  37  56  83 119 161 214 276 335 382
#
# _framework density 21.216667000000001
#
# number of rings (size 3 to 8) (size 9 to 14) (size 15 to 20)
#    0.000    1.625    2.500    2.625    0.000    7.000 
#    4.500    0.000    0.000    2.625    0.000    0.000 
#    0.000    0.000    0.000    0.000    0.000    0.000 
#
# Total GULP energy -178556.976889 kJ/mol
# GULP energy per Si atom -5579.905528 kJ/mol
# Density = 2.116838 g / cm^3
# Si number density = 21.216667 Si / 1000 Ang^3
#
#
#
# Elastic Constant Matrix: (Units=GPa)
#
#
# Indices 1 2 3 4 5 6 
#
# 1 105.1272 26.4266 28.7342 0.0000 7.5475 0.0000
# 2 26.4266 50.7467 11.3747 0.0000 11.2542 0.0000
# 3 28.7342 11.3747 83.6119 0.0000 -2.9739 0.0000
# 4 0.0000 0.0000 0.0000 14.3080 0.0000 1.2394
# 5 7.5475 11.2542 -2.9739 0.0000 30.0607 0.0000
# 6 0.0000 0.0000 0.0000 1.2394 0.0000 16.9703
#
#
#
# Elastic Compliance Matrix: (Units=1/GPa)
#
#
# Indices 1 2 3 4 5 6 
#
# 1 0.011826 -0.005079 -0.003423 0.000000 -0.001406 0.000000
# 2 -0.005079 0.024572 -0.001886 0.000000 -0.008111 0.000000
# 3 -0.003423 -0.001886 0.013496 0.000000 0.002901 0.000000
# 4 0.000000 0.000000 0.000000 0.070336 0.000000 -0.005137
# 5 -0.001406 -0.008111 0.002901 0.000000 0.036943 0.000000
# 6 0.000000 0.000000 0.000000 -0.005137 0.000000 0.059302
#
#
# Mechanical properties :
#
#
# Convention : Reuss Voigt Hill
#
# Bulk Modulus (GPa) = 34.34318 41.39520 37.86919
# Shear Modulus (GPa) = 20.24650 23.79780 22.02215
#
# Velocity S-wave (km/s) = 3.09248 3.35275 3.22524
# Velocity P-wave (km/s) = 5.38268 5.87715 5.63534
#
# Compressibility (1/GPa) = 0.02911787
#
# Stress axis : x y z
#
# Youngs Moduli (GPa) = 84.56202 40.69654 74.09549
#
# Poissons Ratio (x) = 0.20670 0.25363
# Poissons Ratio (y) = 0.42950 0.13973
# Poissons Ratio (z) = 0.28946 0.07675
#
# Static dielectric constant tensor:
#      x y z
#    x 1.797100 0.000000 0.005070 
#    y 0.000000 1.761300 0.000000 
#    z 0.005070 0.000000 1.763840 
# 
# From -- ./inp_files/51951.got.cif
#   From: 2010.05.17/outbox.cif.g08.bks.cpg/sg10_26_cif.got.tgz:51951.got - 2010.06.03 11:33:40.
