data_PCOD9150007
_publ_section_title
;
Structure prediction by ZEFSAII (Michael W. Deem and Ramdas Pophale) SiO2 
 PCOD9150007
Probable space group: P 2/M
;
_chemical_formula_sum "Si O2"
_cell_formula_units_Z 21
_cell_length_a 10.193444
_cell_length_b 11.631167
_cell_length_c 14.632053
_cell_angle_alpha 90.000000
_cell_angle_beta 149.840142
_cell_angle_gamma 90.000000
_cell_volume 871.588504
_symmetry_space_group_name_H-M "P 2/M"
_symmetry_group_IT_number 10
_symmetry_cell_setting 'monoclinic'
loop_
_space_group_symop_operation_xyz
x,y,z
-x,y,-z
-x,-y,-z
x,-y,z
loop_
_atom_site_type_symbol
_atom_site_label
_atom_site_fract_x
_atom_site_fract_y
_atom_site_fract_z
Si Si1 0.500000 0.000000 0.000000
Si Si2 0.757670 0.000000 0.592219
Si Si3 0.761325 0.762586 0.485066
Si Si4 0.534941 0.192390 0.162625
Si Si5 0.865852 0.365465 0.165747
Si Si6 0.155200 0.000000 0.999483
Si Si7 0.775228 0.364679 0.792939
O O1 0.624847 0.101309 0.141025
O O2 0.500000 0.000000 0.500000
O O3 0.766590 0.887173 0.535712
O O4 0.995339 0.000000 0.807753
O O5 0.731167 0.769933 0.358596
O O6 0.010149 0.691057 0.669926
O O7 0.492767 0.702233 0.357092
O O8 0.379068 0.296764 0.022492
O O9 0.327284 0.113819 0.094632
O O10 0.810189 0.500000 0.142870
O O11 0.095666 0.351995 0.228445
O O12 0.000000 0.000000 0.000000
O O13 0.724114 0.500000 0.778641
O O14 0.000000 0.328380 0.000000
#
# Coordination Sequence:
#
# PCOD9150007 Si02
#       7
#     1   2   4   4   4   2   4
#     4  10  26  54  72  94 118 174 222 272 352 396
#     4  12  22  32  52  89 133 169 207 257 318 379
#     4  12  23  37  61  96 131 175 217 264 319 389
#     4  11  24  45  69  91 130 168 221 272 328 399
#     4  11  23  39  64  98 137 179 218 264 321 389
#     4  11  23  38  61  95 129 171 211 269 327 390
#     4  10  20  35  57  91 140 187 215 247 307 387
#
# _framework density 24.09394
#
# number of rings (size 3 to 8) (size 9 to 14) (size 15 to 20)
#    0.000    0.952    3.810    4.571    2.667    2.286 
#    0.000    2.857    0.000    1.143    0.000    0.000 
#    0.000    0.000    0.000    0.000    0.000    0.000 
#
# Total GULP energy -117541.882074 kJ/mol
# GULP energy per Si atom -5597.232480 kJ/mol
# Density = 2.403910 g / cm^3
# Si number density = 24.093940 Si / 1000 Ang^3
#
#
#
# Elastic Constant Matrix: (Units=GPa)
#
#
# Indices 1 2 3 4 5 6 
#
# 1 92.2136 53.9656 66.8666 0.0000 -9.1177 0.0000
# 2 53.9656 189.8107 113.7328 0.0000 -4.8246 0.0000
# 3 66.8666 113.7328 234.7658 0.0000 -28.0473 0.0000
# 4 0.0000 0.0000 0.0000 19.9562 0.0000 -14.2473
# 5 -9.1177 -4.8246 -28.0473 0.0000 53.3498 0.0000
# 6 0.0000 0.0000 0.0000 -14.2473 0.0000 21.0373
#
#
#
# Elastic Compliance Matrix: (Units=1/GPa)
#
#
# Indices 1 2 3 4 5 6 
#
# 1 0.014371 -0.002349 -0.002867 0.000000 0.000736 0.000000
# 2 -0.002349 0.007893 -0.003326 0.000000 -0.001436 0.000000
# 3 -0.002867 -0.003326 0.007035 0.000000 0.002908 0.000000
# 4 0.000000 0.000000 0.000000 0.097018 0.000000 0.065704
# 5 0.000736 -0.001436 0.002908 0.000000 0.020269 0.000000
# 6 0.000000 0.000000 0.000000 0.065704 0.000000 0.092032
#
#
# Mechanical properties :
#
#
# Convention : Reuss Voigt Hill
#
# Bulk Modulus (GPa) = 81.87505 109.54667 95.71086
# Shear Modulus (GPa) = 19.24753 37.68366 28.46560
#
# Velocity S-wave (km/s) = 2.82947 3.95907 3.44094
# Velocity P-wave (km/s) = 6.68804 8.15256 7.45634
#
# Compressibility (1/GPa) = 0.01221373
#
# Stress axis : x y z
#
# Youngs Moduli (GPa) = 69.58438 126.69729 142.14729
#
# Poissons Ratio (x) = 0.29763 0.40756
# Poissons Ratio (y) = 0.16347 0.47281
# Poissons Ratio (z) = 0.19951 0.42142
#
# Static dielectric constant tensor:
#      x y z
#    x 1.982090 0.000000 -0.004460 
#    y 0.000000 1.845950 0.000000 
#    z -0.004460 0.000000 1.869550 
# 
# From -- ./inp_files/51171.got.cif
#   From: 2010.05.17/outbox.cif.g08.bks.cpg/sg10_26_cif.got.tgz:51171.got - 2010.06.03 11:33:40.
