data_PCOD9150477
_publ_section_title
;
Structure prediction by ZEFSAII (Michael W. Deem and Ramdas Pophale) SiO2 
 PCOD9150477
Probable space group: P 2/M
;
_chemical_formula_sum "Si O2"
_cell_formula_units_Z 24
_cell_length_a 15.946080
_cell_length_b 8.537082
_cell_length_c 18.513093
_cell_angle_alpha 90.000000
_cell_angle_beta 30.663073
_cell_angle_gamma 90.000000
_cell_volume 1285.295171
_symmetry_space_group_name_H-M "P 2/M"
_symmetry_group_IT_number 10
_symmetry_cell_setting 'monoclinic'
loop_
_space_group_symop_operation_xyz
x,y,z
-x,y,-z
-x,-y,-z
x,-y,z
loop_
_atom_site_type_symbol
_atom_site_label
_atom_site_fract_x
_atom_site_fract_y
_atom_site_fract_z
Si Si1 0.168678 0.685767 0.094465
Si Si2 0.852524 0.188138 0.413998
Si Si3 0.000812 0.810954 0.916270
Si Si4 0.496756 0.812431 0.086579
Si Si5 0.825719 0.687356 0.594984
Si Si6 0.665954 0.809878 0.413414
O O1 0.152562 0.500000 0.112713
O O2 0.132173 0.737883 0.039243
O O3 0.027009 0.764285 0.249130
O O4 0.346863 0.739388 0.988914
O O5 0.826414 0.263343 0.510942
O O6 0.712895 0.239109 0.459732
O O7 0.848428 0.000000 0.423388
O O8 0.177439 0.770335 0.751537
O O9 0.981854 0.000000 0.927799
O O10 0.000000 0.761509 0.000000
O O11 0.327349 0.761032 0.249324
O O12 0.510765 0.000000 0.079333
O O13 0.500000 0.764252 0.000000
O O14 0.814413 0.500000 0.609357
O O15 0.000000 0.738014 0.500000
O O16 0.500000 0.749723 0.500000
O O17 0.655762 0.000000 0.422857
#
# Coordination Sequence:
#
# PCOD9150477 Si02
#       6
#     4   4   4   4   4   4
#     4  11  22  37  58  83 116 153 189 236 292 344
#     4  10  20  36  59  84 112 149 193 236 278 332
#     4   9  18  33  54  79 109 147 191 236 280 332
#     4  11  24  41  62  86 112 146 191 238 282 337
#     4  11  24  40  59  85 117 150 183 226 285 344
#     4   8  15  29  50  77 106 138 179 226 273 319
#
# _framework density 18.672754000000001
#
# number of rings (size 3 to 8) (size 9 to 14) (size 15 to 20)
#    0.000    2.000    0.000    5.000    0.000    7.000 
#    0.000    3.333    0.000   12.500    0.000    0.000 
#    0.000    0.000    0.000    0.000    0.000    0.000 
#
# Total GULP energy -134029.813966 kJ/mol
# GULP energy per Si atom -5584.575582 kJ/mol
# Density = 1.863025 g / cm^3
# Si number density = 18.672754 Si / 1000 Ang^3
#
#
#
# Elastic Constant Matrix: (Units=GPa)
#
#
# Indices 1 2 3 4 5 6 
#
# 1 177.5357 15.3874 75.1350 0.0000 -3.3344 0.0000
# 2 15.3874 25.3087 -0.0735 0.0000 -3.3164 0.0000
# 3 75.1350 -0.0735 71.9684 0.0000 -3.8239 0.0000
# 4 0.0000 0.0000 0.0000 -24.1458 0.0000 -43.5914
# 5 -3.3344 -3.3164 -3.8239 0.0000 42.3951 0.0000
# 6 0.0000 0.0000 0.0000 -43.5914 0.0000 -27.4163
#
#
#
# Elastic Compliance Matrix: (Units=1/GPa)
#
#
# Indices 1 2 3 4 5 6 
#
# 1 0.011177 -0.006923 -0.011714 0.000000 -0.000719 0.000000
# 2 -0.006923 0.044213 0.007464 0.000000 0.003587 0.000000
# 3 -0.011714 0.007464 0.026239 0.000000 0.002029 0.000000
# 4 0.000000 0.000000 0.000000 0.022142 0.000000 -0.035205
# 5 -0.000719 0.003587 0.002029 0.000000 0.023995 0.000000
# 6 0.000000 0.000000 0.000000 -0.035205 0.000000 0.019500
#
#
# Mechanical properties :
#
#
# Convention : Reuss Voigt Hill
#
# Bulk Modulus (GPa) = 16.86827 50.63451 33.75139
# Shear Modulus (GPa) = 26.40283 10.45752 18.43018
#
# Velocity S-wave (km/s) = 3.76437 2.36909 3.14508
# Velocity P-wave (km/s) = 5.28651 5.88720 5.59492
#
# Compressibility (1/GPa) = 0.05928291
#
# Stress axis : x y z
#
# Youngs Moduli (GPa) = 89.47297 22.61761 38.11056
#
# Poissons Ratio (x) = 0.15659 0.44641
# Poissons Ratio (y) = 0.61947 -0.28445
# Poissons Ratio (z) = 1.04805 -0.16882
#
# Static dielectric constant tensor:
#      x y z
#    x 1.645580 0.000000 -0.005130 
#    y 0.000000 1.628090 0.000000 
#    z -0.005130 0.000000 1.609360 
# 
# From -- ./inp_files/77664.got.cif
#   From: 2010.05.17/outbox.cif.g08.bks.cpg/sg10_39_cif.got.tgz:77664.got - 2010.06.03 11:33:40.
