data_PCOD9150464
_publ_section_title
;
Structure prediction by ZEFSAII (Michael W. Deem and Ramdas Pophale) SiO2 
 PCOD9150464
Probable space group: P 2/M
;
_chemical_formula_sum "Si O2"
_cell_formula_units_Z 32
_cell_length_a 24.915861
_cell_length_b 8.803252
_cell_length_c 25.871424
_cell_angle_alpha 90.000000
_cell_angle_beta 16.469070
_cell_angle_gamma 90.000000
_cell_volume 1608.751304
_symmetry_space_group_name_H-M "P 2/M"
_symmetry_group_IT_number 10
_symmetry_cell_setting 'monoclinic'
loop_
_space_group_symop_operation_xyz
x,y,z
-x,y,-z
-x,-y,-z
x,-y,z
loop_
_atom_site_type_symbol
_atom_site_label
_atom_site_fract_x
_atom_site_fract_y
_atom_site_fract_z
Si Si1 0.004929 0.182657 0.118325
Si Si2 0.578062 0.318431 0.275118
Si Si3 0.978401 0.175043 0.783442
Si Si4 0.503951 0.317289 0.863939
Si Si5 0.884136 0.685462 0.557335
Si Si6 0.637145 0.317626 0.420196
Si Si7 0.520113 0.824981 0.221523
Si Si8 0.928736 0.682867 0.722895
O O1 0.949717 0.235281 0.227858
O O2 0.840347 0.237639 0.232611
O O3 0.019796 0.000000 0.105742
O O4 0.209605 0.251889 0.917086
O O5 0.588793 0.500000 0.260013
O O6 0.465910 0.280285 0.430678
O O7 0.483962 0.250710 0.310196
O O8 0.020848 0.259749 0.691084
O O9 0.035060 0.000000 0.725642
O O10 0.749499 0.180042 0.002438
O O11 0.501815 0.500000 0.864059
O O12 0.664206 0.269808 0.756567
O O13 0.556338 0.259192 0.758393
O O14 0.291524 0.266950 0.073250
O O15 0.889811 0.500000 0.553219
O O16 0.000000 0.739485 0.500000
O O17 0.977253 0.733803 0.417190
O O18 0.500000 0.273218 0.500000
O O19 0.664280 0.500000 0.392808
O O20 0.462074 0.000000 0.275395
O O21 0.933354 0.500000 0.719589
#
# Coordination Sequence:
#
# PCOD9150464 Si02
#       8
#     4   4   4   4   4   4   4   4
#     4  10  21  37  58  84 113 144 178 221 274 326
#     4  10  20  36  59  83 110 144 180 222 269 319
#     4   8  16  31  50  74 103 132 161 199 253 312
#     4   9  17  30  49  72  97 127 164 204 250 304
#     4   9  18  31  46  68  97 126 163 210 251 293
#     4  10  23  41  58  79 108 145 189 229 266 315
#     4   9  17  31  52  78 107 135 166 208 261 318
#     4   9  17  29  48  72  95 124 161 201 246 296
#
# _framework density 19.891204999999999
#
# number of rings (size 3 to 8) (size 9 to 14) (size 15 to 20)
#    0.000    2.750    0.000    1.875    0.000    6.750 
#    0.000    9.375    0.000    1.500    0.000    3.500 
#    0.000    0.000    0.000    0.000    0.000    0.000 
#
# Total GULP energy -178579.570321 kJ/mol
# GULP energy per Si atom -5580.611573 kJ/mol
# Density = 1.984593 g / cm^3
# Si number density = 19.891205 Si / 1000 Ang^3
#
#
#
# Elastic Constant Matrix: (Units=GPa)
#
#
# Indices 1 2 3 4 5 6 
#
# 1 75.8205 4.5615 10.5108 0.0000 -20.1835 0.0000
# 2 4.5615 7.8351 7.9022 0.0000 0.6017 0.0000
# 3 10.5108 7.9022 51.1046 0.0000 -6.7133 0.0000
# 4 0.0000 0.0000 0.0000 -3.8246 0.0000 -7.3839
# 5 -20.1835 0.6017 -6.7133 0.0000 31.6397 0.0000
# 6 0.0000 0.0000 0.0000 -7.3839 0.0000 8.7503
#
#
#
# Elastic Compliance Matrix: (Units=1/GPa)
#
#
# Indices 1 2 3 4 5 6 
#
# 1 0.016726 -0.010095 -0.000465 0.000000 0.010763 0.000000
# 2 -0.010095 0.159331 -0.024487 0.000000 -0.014665 0.000000
# 3 -0.000465 -0.024487 0.024145 0.000000 0.005292 0.000000
# 4 0.000000 0.000000 0.000000 -0.099449 0.000000 -0.083919
# 5 0.010763 -0.014665 0.005292 0.000000 0.039874 0.000000
# 6 0.000000 0.000000 0.000000 -0.083919 0.000000 0.043467
#
#
# Mechanical properties :
#
#
# Convention : Reuss Voigt Hill
#
# Bulk Modulus (GPa) = 7.68600 20.07880 13.88240
# Shear Modulus (GPa) = 16.80354 14.76548 15.78451
#
# Velocity S-wave (km/s) = 2.90965 2.72750 2.82004
# Velocity P-wave (km/s) = 3.89365 4.47607 4.19498
#
# Compressibility (1/GPa) = 0.13010677
#
# Stress axis : x y z
#
# Youngs Moduli (GPa) = 59.78718 6.27626 41.41644
#
# Poissons Ratio (x) = 0.06336 0.01927
# Poissons Ratio (y) = 0.60354 1.01417
# Poissons Ratio (z) = 0.02782 0.15369
#
# Static dielectric constant tensor:
#      x y z
#    x 1.696970 0.000000 -0.015530 
#    y 0.000000 1.670800 0.000000 
#    z -0.015530 0.000000 1.733690 
# 
# From -- ./inp_files/90569.got.cif
#   From: 2010.05.17/outbox.cif.g08.bks.cpg/sg10_46_cif.got.tgz:90569.got - 2010.06.03 11:33:40.
