data_PCOD9150875
_publ_section_title
;
Structure prediction by ZEFSAII (Michael W. Deem and Ramdas Pophale) SiO2 
 PCOD9150875
Probable space group: P 2/M
;
_chemical_formula_sum "Si O2"
_cell_formula_units_Z 28
_cell_length_a 8.222242
_cell_length_b 13.672418
_cell_length_c 14.276666
_cell_angle_alpha 90.000000
_cell_angle_beta 111.864420
_cell_angle_gamma 90.000000
_cell_volume 1489.505248
_symmetry_space_group_name_H-M "P 2/M"
_symmetry_group_IT_number 10
_symmetry_cell_setting 'monoclinic'
loop_
_space_group_symop_operation_xyz
x,y,z
-x,y,-z
-x,-y,-z
x,-y,z
loop_
_atom_site_type_symbol
_atom_site_label
_atom_site_fract_x
_atom_site_fract_y
_atom_site_fract_z
Si Si1 0.666556 0.210072 0.267656
Si Si2 0.345923 0.113943 0.542741
Si Si3 0.053727 0.263467 0.412678
Si Si4 0.851205 0.305211 0.047468
Si Si5 0.881985 0.386883 0.750355
Si Si6 0.308086 0.893501 0.914664
Si Si7 0.417633 0.613943 0.154626
O O1 0.593649 0.168665 0.349649
O O2 0.661161 0.128104 0.187438
O O3 0.567212 0.306359 0.208206
O O4 0.869736 0.230695 0.330258
O O5 0.500000 0.117589 0.500000
O O6 0.178667 0.173427 0.467827
O O7 0.303390 0.000000 0.552392
O O8 0.142347 0.326719 0.350187
O O9 0.000000 0.314381 0.500000
O O10 0.798797 0.196230 0.065510
O O11 0.941527 0.356656 0.155705
O O12 0.685767 0.358644 0.963446
O O13 0.000000 0.303302 0.000000
O O14 0.894289 0.500000 0.728493
O O15 0.723561 0.375123 0.790820
O O16 0.226291 0.000000 0.912453
O O17 0.500000 0.892420 0.000000
O O18 0.473629 0.500000 0.163844
#
# Coordination Sequence:
#
# PCOD9150875 Si02
#       7
#     4   4   4   4   4   4   4
#     4  11  21  38  60  85 119 152 189 238 290 344
#     4  10  22  41  64  87 112 149 197 244 291 345
#     4  10  22  37  58  86 113 148 190 241 289 345
#     4  10  20  38  60  85 117 153 197 240 283 344
#     4  10  20  37  59  85 118 156 195 241 293 340
#     4  11  22  37  56  83 118 155 189 231 291 346
#     4  10  21  37  60  87 118 156 197 237 286 347
#
# _framework density 18.798188
#
# number of rings (size 3 to 8) (size 9 to 14) (size 15 to 20)
#    0.000    1.714    2.857    1.714    0.000    6.000 
#    0.000    2.857    0.000    7.714    0.000    0.000 
#    0.000    0.000    0.000    0.000    0.000    0.000 
#
# Total GULP energy -156237.216678 kJ/mol
# GULP energy per Si atom -5579.900596 kJ/mol
# Density = 1.875540 g / cm^3
# Si number density = 18.798188 Si / 1000 Ang^3
#
#
#
# Elastic Constant Matrix: (Units=GPa)
#
#
# Indices 1 2 3 4 5 6 
#
# 1 31.3163 11.0220 11.7048 0.0000 6.5504 0.0000
# 2 11.0220 96.6656 22.8532 0.0000 9.6682 0.0000
# 3 11.7048 22.8532 92.7820 0.0000 5.8285 0.0000
# 4 0.0000 0.0000 0.0000 21.2117 0.0000 -0.9718
# 5 6.5504 9.6682 5.8285 0.0000 31.4258 0.0000
# 6 0.0000 0.0000 0.0000 -0.9718 0.0000 25.1396
#
#
#
# Elastic Compliance Matrix: (Units=1/GPa)
#
#
# Indices 1 2 3 4 5 6 
#
# 1 0.035384 -0.002627 -0.003444 0.000000 -0.005928 0.000000
# 2 -0.002627 0.011449 -0.002329 0.000000 -0.002543 0.000000
# 3 -0.003444 -0.002329 0.011834 0.000000 -0.000760 0.000000
# 4 0.000000 0.000000 0.000000 0.047227 0.000000 0.001826
# 5 -0.005928 -0.002543 -0.000760 0.000000 0.033980 0.000000
# 6 0.000000 0.000000 0.000000 0.001826 0.000000 0.039848
#
#
# Mechanical properties :
#
#
# Convention : Reuss Voigt Hill
#
# Bulk Modulus (GPa) = 23.88543 34.65819 29.27181
# Shear Modulus (GPa) = 23.75519 27.23435 25.49477
#
# Velocity S-wave (km/s) = 3.55871 3.81041 3.68671
# Velocity P-wave (km/s) = 5.44240 6.15109 5.80757
#
# Compressibility (1/GPa) = 0.04186652
#
# Stress axis : x y z
#
# Youngs Moduli (GPa) = 28.26104 87.34046 84.50321
#
# Poissons Ratio (x) = 0.22948 0.29105
# Poissons Ratio (y) = 0.07425 0.19680
# Poissons Ratio (z) = 0.09734 0.20341
#
# Static dielectric constant tensor:
#      x y z
#    x 1.661230 0.000000 -0.017890 
#    y 0.000000 1.632220 0.000000 
#    z -0.017890 0.000000 1.625080 
# 
# From -- ./inp_files/28473.got.cif
#   From: 2010.05.17/outbox.cif.g08.bks.cpg/sg10_15_cif.got.tgz:28473.got - 2010.06.03 11:33:40.
