data_PCOD9150087
_publ_section_title
;
Structure prediction by ZEFSAII (Michael W. Deem and Ramdas Pophale) SiO2 
 PCOD9150087
Probable space group: P 2/M
;
_chemical_formula_sum "Si O2"
_cell_formula_units_Z 32
_cell_length_a 13.066583
_cell_length_b 9.029336
_cell_length_c 32.460906
_cell_angle_alpha 90.000000
_cell_angle_beta 26.756659
_cell_angle_gamma 90.000000
_cell_volume 1724.193948
_symmetry_space_group_name_H-M "P 2/M"
_symmetry_group_IT_number 10
_symmetry_cell_setting 'monoclinic'
loop_
_space_group_symop_operation_xyz
x,y,z
-x,y,-z
-x,-y,-z
x,-y,z
loop_
_atom_site_type_symbol
_atom_site_label
_atom_site_fract_x
_atom_site_fract_y
_atom_site_fract_z
Si Si1 0.059250 0.822620 0.075331
Si Si2 0.117725 0.670681 0.138671
Si Si3 0.250819 0.677438 0.396055
Si Si4 0.671445 0.824335 0.401768
Si Si5 0.570581 0.178653 0.217754
Si Si6 0.551530 0.178258 0.128656
Si Si7 0.417189 0.670408 0.647972
Si Si8 0.839316 0.678446 0.785025
O O1 0.803259 0.770834 0.156749
O O2 0.157952 0.757723 0.082213
O O3 0.051225 0.000000 0.082216
O O4 0.221735 0.786374 0.978621
O O5 0.187368 0.500000 0.107988
O O6 0.212845 0.724916 0.148581
O O7 0.844740 0.675676 0.243605
O O8 0.247896 0.500000 0.390445
O O9 0.354763 0.755268 0.318829
O O10 0.420910 0.708996 0.372592
O O11 0.000000 0.724426 0.500000
O O12 0.500000 0.784248 0.500000
O O13 0.558072 0.777956 0.399422
O O14 0.911816 0.739559 0.316285
O O15 0.713712 0.000000 0.388055
O O16 0.573544 0.219965 0.168584
O O17 0.564901 0.000000 0.222012
O O18 0.344743 0.257918 0.180040
O O19 0.518818 0.000000 0.138527
O O20 0.463783 0.500000 0.618631
O O21 0.844333 0.500000 0.783006
#
# Coordination Sequence:
#
# PCOD9150087 Si02
#       8
#     4   4   4   4   4   4   4   4
#     4  10  20  35  59  86 111 149 194 233 284 343
#     4   9  18  34  56  80 109 144 184 236 282 327
#     4  10  21  37  57  83 114 148 188 234 285 337
#     4  10  21  36  57  84 111 144 187 233 283 339
#     4  10  21  38  59  83 114 151 193 238 284 337
#     4  10  22  39  57  82 119 154 188 237 288 340
#     4   9  18  34  54  78 110 147 185 230 282 332
#     4  10  22  39  57  81 114 151 190 233 287 341
#
# _framework density 18.559398999999999
#
# number of rings (size 3 to 8) (size 9 to 14) (size 15 to 20)
#    0.000    2.250    1.250    1.875    0.000    8.250 
#    0.000    5.000    0.000    2.250    0.000    0.000 
#    0.000    0.000    0.000    0.000    0.000    0.000 
#
# Total GULP energy -178585.848788 kJ/mol
# GULP energy per Si atom -5580.807775 kJ/mol
# Density = 1.851716 g / cm^3
# Si number density = 18.559399 Si / 1000 Ang^3
#
#
#
# Elastic Constant Matrix: (Units=GPa)
#
#
# Indices 1 2 3 4 5 6 
#
# 1 84.3934 32.0283 45.1671 0.0000 14.5448 0.0000
# 2 32.0283 22.5374 34.6352 0.0000 12.4337 0.0000
# 3 45.1671 34.6352 99.0917 0.0000 23.6178 0.0000
# 4 0.0000 0.0000 0.0000 38.2896 0.0000 4.3173
# 5 14.5448 12.4337 23.6178 0.0000 30.7750 0.0000
# 6 0.0000 0.0000 0.0000 4.3173 0.0000 31.9254
#
#
#
# Elastic Compliance Matrix: (Units=1/GPa)
#
#
# Indices 1 2 3 4 5 6 
#
# 1 0.026176 -0.041973 0.002015 0.000000 0.003041 0.000000
# 2 -0.041973 0.170004 -0.035059 0.000000 -0.021942 0.000000
# 3 0.002015 -0.035059 0.022370 0.000000 -0.003955 0.000000
# 4 0.000000 0.000000 0.000000 0.026521 0.000000 -0.003586
# 5 0.003041 -0.021942 -0.003955 0.000000 0.042957 0.000000
# 6 0.000000 0.000000 0.000000 -0.003586 0.000000 0.031808
#
#
# Mechanical properties :
#
#
# Convention : Reuss Voigt Hill
#
# Bulk Modulus (GPa) = 14.59544 47.74263 31.16904
# Shear Modulus (GPa) = 10.14793 26.47744 18.31268
#
# Velocity S-wave (km/s) = 2.34087 3.78118 3.14460
# Velocity P-wave (km/s) = 3.89711 6.69650 5.47862
#
# Compressibility (1/GPa) = 0.06851453
#
# Stress axis : x y z
#
# Youngs Moduli (GPa) = 38.20233 5.88221 44.70220
#
# Poissons Ratio (x) = 0.24690 -0.09006
# Poissons Ratio (y) = 1.60348 1.56723
# Poissons Ratio (z) = -0.07696 0.20623
#
# Static dielectric constant tensor:
#      x y z
#    x 1.632920 0.000000 -0.003230 
#    y 0.000000 1.627310 0.000000 
#    z -0.003230 0.000000 1.632690 
# 
# From -- ./inp_files/94977.got.cif
#   From: 2010.05.17/outbox.cif.g08.bks.cpg/sg10_48_cif.got.tgz:94977.got - 2010.06.03 11:33:40.
