data_PCOD9150911
_publ_section_title
;
Structure prediction by ZEFSAII (Michael W. Deem and Ramdas Pophale) SiO2 
 PCOD9150911
Probable space group: P 2/M
;
_chemical_formula_sum "Si O2"
_cell_formula_units_Z 24
_cell_length_a 21.077324
_cell_length_b 8.704704
_cell_length_c 9.303455
_cell_angle_alpha 90.000000
_cell_angle_beta 48.477234
_cell_angle_gamma 90.000000
_cell_volume 1277.959677
_symmetry_space_group_name_H-M "P 2/M"
_symmetry_group_IT_number 10
_symmetry_cell_setting 'monoclinic'
loop_
_space_group_symop_operation_xyz
x,y,z
-x,y,-z
-x,-y,-z
x,-y,z
loop_
_atom_site_type_symbol
_atom_site_label
_atom_site_fract_x
_atom_site_fract_y
_atom_site_fract_z
Si Si1 0.089582 0.684506 0.524985
Si Si2 0.583193 0.183924 0.963409
Si Si3 0.249017 0.314343 0.793327
Si Si4 0.742528 0.314993 0.552964
Si Si5 0.092141 0.816737 0.201858
Si Si6 0.417744 0.685480 0.714633
O O1 0.081964 0.500000 0.530617
O O2 0.167382 0.725546 0.511276
O O3 0.107078 0.746616 0.338313
O O4 0.000005 0.755165 0.706909
O O5 0.666467 0.241633 0.756355
O O6 0.583646 0.000000 0.968102
O O7 0.500000 0.234759 0.000000
O O8 0.580839 0.248210 0.127947
O O9 0.240482 0.500000 0.812844
O O10 0.260167 0.270767 0.610152
O O11 0.332041 0.270521 0.759797
O O12 0.166154 0.239664 0.986696
O O13 0.733948 0.500000 0.574121
O O14 0.090390 0.000000 0.214409
O O15 0.500000 0.734039 0.500000
O O16 0.419217 0.500000 0.721828
#
# Coordination Sequence:
#
# PCOD9150911 Si02
#       6
#     4   4   4   4   4   4
#     4  10  20  37  60  84 110 144 188 235 281 328
#     4  11  24  39  57  84 118 152 184 225 279 334
#     4  10  21  38  58  83 114 146 185 233 282 329
#     4  10  22  39  61  85 110 146 190 234 278 328
#     4  11  22  36  56  83 114 150 188 227 278 336
#     4  10  21  38  62  87 111 145 189 234 277 326
#
# _framework density 18.779934999999998
#
# number of rings (size 3 to 8) (size 9 to 14) (size 15 to 20)
#    0.000    1.667    0.000    5.500    0.000   10.333 
#    0.000    3.333    0.000    0.000    0.000    0.000 
#    0.000    0.000    0.000    0.000    0.000    0.000 
#
# Total GULP energy -134171.643036 kJ/mol
# GULP energy per Si atom -5590.485126 kJ/mol
# Density = 1.873719 g / cm^3
# Si number density = 18.779935 Si / 1000 Ang^3
#
#
#
# Elastic Constant Matrix: (Units=GPa)
#
#
# Indices 1 2 3 4 5 6 
#
# 1 197.2894 55.5277 114.4589 0.0000 3.6723 0.0000
# 2 55.5277 45.2580 51.7010 0.0000 -1.7953 0.0000
# 3 114.4589 51.7010 194.5034 0.0000 -4.4380 0.0000
# 4 0.0000 0.0000 0.0000 -125.3257 0.0000 -27.6995
# 5 3.6723 -1.7953 -4.4380 0.0000 24.6320 0.0000
# 6 0.0000 0.0000 0.0000 -27.6995 0.0000 13.3899
#
#
#
# Elastic Compliance Matrix: (Units=1/GPa)
#
#
# Indices 1 2 3 4 5 6 
#
# 1 0.009254 -0.007421 -0.003531 0.000000 -0.002557 0.000000
# 2 -0.007421 0.037697 -0.005588 0.000000 0.002847 0.000000
# 3 -0.003531 -0.005588 0.008743 0.000000 0.001694 0.000000
# 4 0.000000 0.000000 0.000000 -0.005476 0.000000 -0.011327
# 5 -0.002557 0.002847 0.001694 0.000000 0.041491 0.000000
# 6 0.000000 0.000000 0.000000 -0.011327 0.000000 0.051250
#
#
# Mechanical properties :
#
#
# Convention : Reuss Voigt Hill
#
# Bulk Modulus (GPa) = 44.22193 97.82510 71.02351
# Shear Modulus (GPa) = 27.23625 -3.10321 12.06652
#
# Velocity S-wave (km/s) = 3.81239 -1.28685 2.53755
# Velocity P-wave (km/s) = 6.55573 7.07074 6.81810
#
# Compressibility (1/GPa) = 0.02261322
#
# Stress axis : x y z
#
# Youngs Moduli (GPa) = 108.06654 26.52725 114.37147
#
# Poissons Ratio (x) = 0.19685 0.40387
# Poissons Ratio (y) = 0.80194 0.63916
# Poissons Ratio (z) = 0.38161 0.14825
#
# Static dielectric constant tensor:
#      x y z
#    x 1.638160 0.000000 -0.004740 
#    y 0.000000 1.630840 0.000000 
#    z -0.004740 0.000000 1.606660 
# 
# From -- ./inp_files/33793.got.cif
#   From: 2010.05.17/outbox.cif.g08.bks.cpg/sg10_17_cif.got.tgz:33793.got - 2010.06.03 11:33:40.
