data_PCOD9150874
_publ_section_title
;
Structure prediction by ZEFSAII (Michael W. Deem and Ramdas Pophale) SiO2 
 PCOD9150874
Probable space group: P 2/M
;
_chemical_formula_sum "Si O2"
_cell_formula_units_Z 28
_cell_length_a 19.626102
_cell_length_b 7.300373
_cell_length_c 14.075299
_cell_angle_alpha 90.000000
_cell_angle_beta 142.170939
_cell_angle_gamma 90.000000
_cell_volume 1236.844731
_symmetry_space_group_name_H-M "P 2/M"
_symmetry_group_IT_number 10
_symmetry_cell_setting 'monoclinic'
loop_
_space_group_symop_operation_xyz
x,y,z
-x,y,-z
-x,-y,-z
x,-y,z
loop_
_atom_site_type_symbol
_atom_site_label
_atom_site_fract_x
_atom_site_fract_y
_atom_site_fract_z
Si Si1 0.538939 0.220305 0.147430
Si Si2 0.384782 0.223588 0.419262
Si Si3 0.040046 0.780356 0.241536
Si Si4 0.308792 0.217711 0.983732
Si Si5 0.292283 0.777043 0.514959
Si Si6 0.798381 0.777777 0.932153
Si Si7 0.966211 0.500000 0.603251
Si Si8 0.811320 0.500000 0.272620
O O1 0.651286 0.283505 0.323887
O O2 0.549245 0.000000 0.148239
O O3 0.500000 0.288307 0.000000
O O4 0.439340 0.254024 0.112956
O O5 0.500000 0.283125 0.500000
O O6 0.366258 0.280125 0.506923
O O7 0.282207 0.282216 0.240476
O O8 0.385645 0.000000 0.419946
O O9 0.165019 0.723982 0.351859
O O10 0.024540 0.682277 0.324669
O O11 0.038843 0.000000 0.246305
O O12 0.927663 0.725322 0.062219
O O13 0.252917 0.323047 0.835041
O O14 0.292287 0.000000 0.957683
O O15 0.253960 0.277821 0.023255
O O16 0.292295 0.000000 0.517843
O O17 0.795987 0.000000 0.930070
O O18 0.848945 0.500000 0.421521
O O19 0.072298 0.500000 0.653849
#
# Coordination Sequence:
#
# PCOD9150874 Si02
#       8
#     4   4   4   4   4   4   2   2
#     4   9  18  32  53  81 115 157 198 239 292 350
#     4   9  16  28  52  87 122 152 195 250 294 345
#     4  10  21  38  60  85 119 159 198 240 295 355
#     4  10  20  37  59  85 118 151 194 245 293 354
#     4   9  18  32  53  85 121 159 200 243 295 352
#     4   9  17  31  54  83 113 153 194 236 295 348
#     4  11  24  40  57  84 121 156 197 250 295 350
#     4  11  24  38  58  88 114 152 206 244 300 356
#
# _framework density 22.638248000000001
#
# number of rings (size 3 to 8) (size 9 to 14) (size 15 to 20)
#    0.000    2.429    1.429    0.857    2.000    4.571 
#    0.000    5.357    0.000    2.571    0.000    3.500 
#    0.000    0.000    0.000    0.000    0.000    0.000 
#
# Total GULP energy -156264.274599 kJ/mol
# GULP energy per Si atom -5580.866950 kJ/mol
# Density = 2.258672 g / cm^3
# Si number density = 22.638248 Si / 1000 Ang^3
#
#
#
# Elastic Constant Matrix: (Units=GPa)
#
#
# Indices 1 2 3 4 5 6 
#
# 1 89.3012 3.7220 72.1215 0.0000 21.4815 0.0000
# 2 3.7220 74.3832 13.7177 0.0000 7.4582 0.0000
# 3 72.1215 13.7177 203.3016 0.0000 1.7835 0.0000
# 4 0.0000 0.0000 0.0000 8.9779 0.0000 -19.3399
# 5 21.4815 7.4582 1.7835 0.0000 32.4413 0.0000
# 6 0.0000 0.0000 0.0000 -19.3399 0.0000 19.3447
#
#
#
# Elastic Compliance Matrix: (Units=1/GPa)
#
#
# Indices 1 2 3 4 5 6 
#
# 1 0.020067 0.001639 -0.007113 0.000000 -0.013274 0.000000
# 2 0.001639 0.014062 -0.001493 0.000000 -0.004236 0.000000
# 3 -0.007113 -0.001493 0.007502 0.000000 0.004641 0.000000
# 4 0.000000 0.000000 0.000000 -0.096552 0.000000 -0.096528
# 5 -0.013274 -0.004236 0.004641 0.000000 0.040333 0.000000
# 6 0.000000 0.000000 0.000000 -0.096528 0.000000 -0.044810
#
#
# Mechanical properties :
#
#
# Convention : Reuss Voigt Hill
#
# Bulk Modulus (GPa) = 36.10545 60.67869 48.39207
# Shear Modulus (GPa) = -138.00485 30.64777 -53.67854
#
# Velocity S-wave (km/s) = -7.81622 3.68340 -4.87472
# Velocity P-wave (km/s) = 8.09161 6.70460 3.20332
#
# Compressibility (1/GPa) = 0.02769665
#
# Stress axis : x y z
#
# Youngs Moduli (GPa) = 49.83214 71.11392 133.29455
#
# Poissons Ratio (x) = -0.11652 0.94813
# Poissons Ratio (y) = -0.08165 0.19900
# Poissons Ratio (z) = 0.35446 0.10617
#
# Static dielectric constant tensor:
#      x y z
#    x 1.832810 0.000000 0.020340 
#    y 0.000000 2.549580 0.000000 
#    z 0.020340 0.000000 1.856410 
# 
# From -- ./inp_files/70358.got.cif
#   From: 2010.05.17/outbox.cif.g08.bks.cpg/sg10_36_cif.got.tgz:70358.got - 2010.06.03 11:33:40.
