data_PCOD9150663
_publ_section_title
;
Structure prediction by ZEFSAII (Michael W. Deem and Ramdas Pophale) SiO2 
 PCOD9150663
Probable space group: P 2/M
;
_chemical_formula_sum "Si O2"
_cell_formula_units_Z 20
_cell_length_a 10.523052
_cell_length_b 16.240045
_cell_length_c 14.765187
_cell_angle_alpha 90.000000
_cell_angle_beta 25.940193
_cell_angle_gamma 90.000000
_cell_volume 1103.771465
_symmetry_space_group_name_H-M "P 2/M"
_symmetry_group_IT_number 10
_symmetry_cell_setting 'monoclinic'
loop_
_space_group_symop_operation_xyz
x,y,z
-x,y,-z
-x,-y,-z
x,-y,z
loop_
_atom_site_type_symbol
_atom_site_label
_atom_site_fract_x
_atom_site_fract_y
_atom_site_fract_z
Si Si1 0.684861 0.905850 0.462986
Si Si2 0.286644 0.809227 0.371025
Si Si3 0.807569 0.383008 0.534973
Si Si4 0.266529 0.500000 0.900575
Si Si5 0.836077 0.500000 0.819525
Si Si6 0.362830 0.092838 0.988614
O O1 0.500000 0.868403 0.500000
O O2 0.662820 0.858699 0.570311
O O3 0.584303 0.000000 0.541020
O O4 0.019087 0.907154 0.219818
O O5 0.236663 0.714664 0.430421
O O6 0.539742 0.834368 0.139805
O O7 0.000000 0.837223 0.500000
O O8 0.489996 0.424119 0.742601
O O9 0.000000 0.405780 0.500000
O O10 0.990434 0.421563 0.334260
O O11 0.164336 0.500000 0.071055
O O12 0.000000 0.500000 0.000000
O O13 0.500000 0.500000 0.000000
O O14 0.453669 0.000000 0.899016
O O15 0.500000 0.104883 0.000000
#
# Coordination Sequence:
#
# PCOD9150663 Si02
#       6
#     4   4   4   2   2   4
#     4  10  22  40  59  86 123 164 206 248 302 359
#     4  11  22  38  60  91 123 159 200 257 294 350
#     4  10  22  40  62  95 122 154 209 238 294 375
#     4  11  23  43  65  95 121 155 199 247 296 360
#     4  11  19  41  73  84 115 167 193 240 295 361
#     4  10  20  36  61  88 117 161 210 246 292 352
#
# _framework density 18.119693000000002
#
# number of rings (size 3 to 8) (size 9 to 14) (size 15 to 20)
#    0.000    1.600    4.000    1.200    0.000    4.800 
#    7.200    3.000    0.000    0.000    0.000    0.000 
#    0.000    0.000    0.000    0.000    0.000    0.000 
#
# Total GULP energy -111534.403879 kJ/mol
# GULP energy per Si atom -5576.720194 kJ/mol
# Density = 1.807845 g / cm^3
# Si number density = 18.119693 Si / 1000 Ang^3
#
#
#
# Elastic Constant Matrix: (Units=GPa)
#
#
# Indices 1 2 3 4 5 6 
#
# 1 170.7600 45.9048 58.0636 0.0000 -0.3067 0.0000
# 2 45.9048 77.2920 32.1158 0.0000 15.5002 0.0000
# 3 58.0636 32.1158 94.8201 0.0000 12.4395 0.0000
# 4 0.0000 0.0000 0.0000 10.1130 0.0000 -23.0171
# 5 -0.3067 15.5002 12.4395 0.0000 32.3254 0.0000
# 6 0.0000 0.0000 0.0000 -23.0171 0.0000 -49.8286
#
#
#
# Elastic Compliance Matrix: (Units=1/GPa)
#
#
# Indices 1 2 3 4 5 6 
#
# 1 0.008368 -0.003918 -0.004269 0.000000 0.003601 0.000000
# 2 -0.003918 0.017895 -0.002666 0.000000 -0.007592 0.000000
# 3 -0.004269 -0.002666 0.014640 0.000000 -0.004396 0.000000
# 4 0.000000 0.000000 0.000000 0.048204 0.000000 -0.022267
# 5 0.003601 -0.007592 -0.004396 0.000000 0.036302 0.000000
# 6 0.000000 0.000000 0.000000 -0.022267 0.000000 -0.009783
#
#
# Mechanical properties :
#
#
# Convention : Reuss Voigt Hill
#
# Bulk Modulus (GPa) = 52.09250 68.33783 60.21517
# Shear Modulus (GPa) = 34.78734 12.30783 23.54758
#
# Velocity S-wave (km/s) = 4.38638 2.60907 3.60885
# Velocity P-wave (km/s) = 7.38006 6.84638 7.11822
#
# Compressibility (1/GPa) = 0.01919662
#
# Stress axis : x y z
#
# Youngs Moduli (GPa) = 119.50937 55.88146 68.30435
#
# Poissons Ratio (x) = 0.21893 0.29162
# Poissons Ratio (y) = 0.46821 0.18210
# Poissons Ratio (z) = 0.51023 0.14898
#
# Static dielectric constant tensor:
#      x y z
#    x 1.600750 0.000000 -0.000710 
#    y 0.000000 1.646790 0.000000 
#    z -0.000710 0.000000 1.626480 
# 
# From -- ./inp_files/7140.got.cif
#   From: 2010.05.17/outbox.cif.g08.bks.cpg/sg10_4_cif.got.tgz:7140.got - 2010.06.03 11:33:40.
