data_PCOD9150687
_publ_section_title
;
Structure prediction by ZEFSAII (Michael W. Deem and Ramdas Pophale) SiO2 
 PCOD9150687
Probable space group: P 2/M
;
_chemical_formula_sum "Si O2"
_cell_formula_units_Z 26
_cell_length_a 30.811298
_cell_length_b 8.220603
_cell_length_c 8.890612
_cell_angle_alpha 90.000000
_cell_angle_beta 147.714049
_cell_angle_gamma 90.000000
_cell_volume 1202.830840
_symmetry_space_group_name_H-M "P 2/M"
_symmetry_group_IT_number 10
_symmetry_cell_setting 'monoclinic'
loop_
_space_group_symop_operation_xyz
x,y,z
-x,y,-z
-x,-y,-z
x,-y,z
loop_
_atom_site_type_symbol
_atom_site_label
_atom_site_fract_x
_atom_site_fract_y
_atom_site_fract_z
Si Si1 0.765685 0.309314 0.436700
Si Si2 0.548175 0.190534 0.500812
Si Si3 0.855623 0.000000 0.576771
Si Si4 0.004459 0.000000 0.249014
Si Si5 0.671545 0.191275 0.639746
Si Si6 0.182082 0.322757 0.068670
Si Si7 0.000000 0.253367 0.500000
Si Si8 0.613470 0.190898 0.145564
O O1 0.781177 0.500000 0.441356
O O2 0.802491 0.165027 0.441866
O O3 0.804482 0.278447 0.717237
O O4 0.670214 0.280493 0.190149
O O5 0.500000 0.265442 0.500000
O O6 0.629935 0.261439 0.667516
O O7 0.564387 0.000000 0.591435
O O8 0.480714 0.196053 0.171540
O O9 0.910150 0.000000 0.587291
O O10 0.926962 0.000000 0.912393
O O11 0.999190 0.849507 0.345297
O O12 0.767302 0.210059 0.894755
O O13 0.632792 0.253440 0.369403
O O14 0.652098 0.000000 0.587750
O O15 0.220168 0.500000 0.160474
O O16 0.087775 0.333118 0.757968
O O17 0.638336 0.000000 0.212806
#
# Coordination Sequence:
#
# PCOD9150687 Si02
#       8
#     4   4   2   2   4   4   2   4
#     4  10  20  36  61  90 121 158 200 244 295 349
#     4   9  17  31  50  80 113 145 187 241 295 346
#     4  11  20  44  60  92 118 160 193 254 293 354
#     4  10  24  36  66  88 114 148 206 235 303 359
#     4   9  18  31  53  80 106 146 196 238 284 348
#     4  10  21  36  58  86 118 154 195 246 299 352
#     4  11  21  40  60  90 114 154 194 247 293 362
#     4   9  16  30  55  80 109 151 193 238 285 342
#
# _framework density 21.615673999999999
#
# number of rings (size 3 to 8) (size 9 to 14) (size 15 to 20)
#    0.000    2.308    2.308    0.692    3.231    1.846 
#    2.769    3.846    0.000    4.615    0.000    0.000 
#    0.000    0.000    0.000    0.000    0.000    0.000 
#
# Total GULP energy -144895.979142 kJ/mol
# GULP energy per Si atom -5572.922275 kJ/mol
# Density = 2.156648 g / cm^3
# Si number density = 21.615674 Si / 1000 Ang^3
#
#
#
# Elastic Constant Matrix: (Units=GPa)
#
#
# Indices 1 2 3 4 5 6 
#
# 1 144.5258 50.2164 4.8289 0.0000 22.2606 0.0000
# 2 50.2164 70.3875 3.5717 0.0000 14.3172 0.0000
# 3 4.8289 3.5717 41.3106 0.0000 13.9583 0.0000
# 4 0.0000 0.0000 0.0000 -9.2053 0.0000 2.8458
# 5 22.2606 14.3172 13.9583 0.0000 25.9330 0.0000
# 6 0.0000 0.0000 0.0000 2.8458 0.0000 -4.5380
#
#
#
# Elastic Compliance Matrix: (Units=1/GPa)
#
#
# Indices 1 2 3 4 5 6 
#
# 1 0.009828 -0.005875 0.001361 0.000000 -0.005925 0.000000
# 2 -0.005875 0.019647 0.001160 0.000000 -0.006428 0.000000
# 3 0.001361 0.001160 0.030018 0.000000 -0.017966 0.000000
# 4 0.000000 0.000000 0.000000 -0.134758 0.000000 -0.084506
# 5 -0.005925 -0.006428 -0.017966 0.000000 0.056866 0.000000
# 6 0.000000 0.000000 0.000000 -0.084506 0.000000 -0.273355
#
#
# Mechanical properties :
#
#
# Convention : Reuss Voigt Hill
#
# Bulk Modulus (GPa) = 18.94484 41.49532 30.22008
# Shear Modulus (GPa) = -18.69496 15.61175 -1.54161
#
# Velocity S-wave (km/s) = -2.94407 2.69037 -0.84542
# Velocity P-wave (km/s) = 1.66533 5.37488 3.61359
#
# Compressibility (1/GPa) = 0.05278482
#
# Stress axis : x y z
#
# Youngs Moduli (GPa) = 101.75333 50.89766 33.31347
#
# Poissons Ratio (x) = 0.29904 -0.04535
# Poissons Ratio (y) = 0.59783 -0.03865
# Poissons Ratio (z) = -0.13850 -0.05904
#
# Static dielectric constant tensor:
#      x y z
#    x 1.811750 0.000000 -0.007570 
#    y 0.000000 1.794630 0.000000 
#    z -0.007570 0.000000 1.794130 
# 
# From -- ./inp_files/36836.got.cif
#   From: 2010.05.17/outbox.cif.g08.bks.cpg/sg10_19_cif.got.tgz:36836.got - 2010.06.03 11:33:40.
