data_PCOD9150818
_publ_section_title
;
Structure prediction by ZEFSAII (Michael W. Deem and Ramdas Pophale) SiO2 
 PCOD9150818
Probable space group: P 2/M
;
_chemical_formula_sum "Si O2"
_cell_formula_units_Z 32
_cell_length_a 27.615139
_cell_length_b 7.570844
_cell_length_c 21.575668
_cell_angle_alpha 90.000000
_cell_angle_beta 161.125454
_cell_angle_gamma 90.000000
_cell_volume 1459.238063
_symmetry_space_group_name_H-M "P 2/M"
_symmetry_group_IT_number 10
_symmetry_cell_setting 'monoclinic'
loop_
_space_group_symop_operation_xyz
x,y,z
-x,y,-z
-x,-y,-z
x,-y,z
loop_
_atom_site_type_symbol
_atom_site_label
_atom_site_fract_x
_atom_site_fract_y
_atom_site_fract_z
Si Si1 0.473115 0.216660 0.897058
Si Si2 0.779039 0.290887 0.704556
Si Si3 0.929285 0.714492 0.011934
Si Si4 0.142828 0.206345 0.935597
Si Si5 0.663486 0.786266 0.012792
Si Si6 0.854827 0.797534 0.517415
Si Si7 0.544543 0.787476 0.739931
Si Si8 0.000781 0.704401 0.431349
O O1 0.310568 0.279211 0.676851
O O2 0.471133 0.000000 0.895165
O O3 0.500000 0.273837 0.000000
O O4 0.599281 0.271694 0.001112
O O5 0.804230 0.500000 0.738089
O O6 0.822247 0.226370 0.825655
O O7 0.610218 0.262609 0.479378
O O8 0.903871 0.226501 0.806710
O O9 0.926158 0.500000 0.012295
O O10 0.880227 0.782314 0.019075
O O11 0.304131 0.278928 0.110347
O O12 0.145821 0.000000 0.919818
O O13 0.995929 0.285122 0.724078
O O14 0.829548 0.717438 0.202030
O O15 0.672407 0.000000 0.023976
O O16 0.557540 0.733106 0.827527
O O17 0.896242 0.795729 0.494756
O O18 0.842943 0.000000 0.525002
O O19 0.547303 0.000000 0.741852
O O20 0.047562 0.500000 0.491380
O O21 0.000000 0.779509 0.500000
#
# Coordination Sequence:
#
# PCOD9150818 Si02
#       8
#     4   4   4   4   4   4   4   4
#     4   9  18  32  55  85 108 135 184 236 277 325
#     4   9  20  39  60  83 112 147 188 227 267 327
#     4   9  20  39  60  83 112 147 188 227 267 327
#     4  10  21  36  55  83 115 146 185 231 277 327
#     4  10  20  37  58  81 111 147 186 229 278 332
#     4  10  20  37  58  81 111 147 186 229 278 332
#     4  10  21  36  55  83 115 146 185 231 277 327
#     4  11  23  37  55  81 112 147 188 231 275 326
#
# _framework density 21.929252999999999
#
# number of rings (size 3 to 8) (size 9 to 14) (size 15 to 20)
#    0.000    2.250    1.250    1.875    1.750    5.000 
#    0.000    4.375    0.000    2.250    0.000    0.000 
#    0.000    0.000    0.000    0.000    0.000    0.000 
#
# Total GULP energy -178719.092376 kJ/mol
# GULP energy per Si atom -5584.971637 kJ/mol
# Density = 2.187934 g / cm^3
# Si number density = 21.929253 Si / 1000 Ang^3
#
#
#
# Elastic Constant Matrix: (Units=GPa)
#
#
# Indices 1 2 3 4 5 6 
#
# 1 85.5875 -7.6067 1.5156 0.0000 -1.3284 0.0000
# 2 -7.6067 48.4557 -4.2175 0.0000 0.8109 0.0000
# 3 1.5156 -4.2175 90.6756 0.0000 -1.7904 0.0000
# 4 0.0000 0.0000 0.0000 16.7541 0.0000 -9.3767
# 5 -1.3284 0.8109 -1.7904 0.0000 30.2531 0.0000
# 6 0.0000 0.0000 0.0000 -9.3767 0.0000 30.7453
#
#
#
# Elastic Compliance Matrix: (Units=1/GPa)
#
#
# Indices 1 2 3 4 5 6 
#
# 1 0.011857 0.001845 -0.000103 0.000000 0.000465 0.000000
# 2 0.001845 0.021016 0.000938 0.000000 -0.000427 0.000000
# 3 -0.000103 0.000938 0.011086 0.000000 0.000626 0.000000
# 4 0.000000 0.000000 0.000000 0.071971 0.000000 0.021950
# 5 0.000465 -0.000427 0.000626 0.000000 0.033123 0.000000
# 6 0.000000 0.000000 0.000000 0.021950 0.000000 0.039220
#
#
# Mechanical properties :
#
#
# Convention : Reuss Voigt Hill
#
# Bulk Modulus (GPa) = 20.27659 22.67795 21.47727
# Shear Modulus (GPa) = 25.08112 31.21900 28.15006
#
# Velocity S-wave (km/s) = 3.38558 3.77719 3.58673
# Velocity P-wave (km/s) = 4.95472 5.42095 5.19307
#
# Compressibility (1/GPa) = 0.04931796
#
# Stress axis : x y z
#
# Youngs Moduli (GPa) = 84.33886 47.58326 90.20342
#
# Poissons Ratio (x) = -0.08777 0.00931
# Poissons Ratio (y) = -0.15557 -0.08463
# Poissons Ratio (z) = 0.00870 -0.04464
#
# Static dielectric constant tensor:
#      x y z
#    x 1.764710 0.000000 -0.012330 
#    y 0.000000 1.840730 0.000000 
#    z -0.012330 0.000000 1.801760 
# 
# From -- ./inp_files/86954.got.cif
#   From: 2010.05.17/outbox.cif.g08.bks.cpg/sg10_44_cif.got.tgz:86954.got - 2010.06.03 11:33:40.
