data_PCOD9150647
_publ_section_title
;
Structure prediction by ZEFSAII (Michael W. Deem and Ramdas Pophale) SiO2 
 PCOD9150647
Probable space group: P 2/M
;
_chemical_formula_sum "Si O2"
_cell_formula_units_Z 30
_cell_length_a 8.278509
_cell_length_b 25.558250
_cell_length_c 13.877550
_cell_angle_alpha 90.000000
_cell_angle_beta 32.147408
_cell_angle_gamma 90.000000
_cell_volume 1562.387481
_symmetry_space_group_name_H-M "P 2/M"
_symmetry_group_IT_number 10
_symmetry_cell_setting 'monoclinic'
loop_
_space_group_symop_operation_xyz
x,y,z
-x,y,-z
-x,-y,-z
x,-y,z
loop_
_atom_site_type_symbol
_atom_site_label
_atom_site_fract_x
_atom_site_fract_y
_atom_site_fract_z
Si Si1 0.636260 0.726859 0.668540
Si Si2 0.620857 0.356301 0.335504
Si Si3 0.467286 0.059005 0.347400
Si Si4 0.349562 0.651222 0.972898
Si Si5 0.364976 0.440937 0.830069
Si Si6 0.985565 0.058524 0.248360
Si Si7 0.500000 0.141345 0.000000
Si Si8 0.648994 0.160077 0.710219
O O1 0.541548 0.695720 0.621307
O O2 0.477557 0.694344 0.834431
O O3 0.528992 0.786901 0.721634
O O4 0.000000 0.725908 0.500000
O O5 0.500000 0.369995 0.500000
O O6 0.535143 0.403692 0.307533
O O7 0.983296 0.347224 0.155257
O O8 0.740881 0.060910 0.286108
O O9 0.177018 0.065288 0.565290
O O10 0.487097 0.105515 0.260466
O O11 0.457558 0.000000 0.310071
O O12 0.432259 0.593493 0.890423
O O13 0.500000 0.659481 0.000000
O O14 0.483978 0.500000 0.771158
O O15 0.000000 0.443927 0.000000
O O16 0.222901 0.103703 0.113703
O O17 0.117060 0.000000 0.180666
O O18 0.400452 0.168587 0.150193
O O19 0.000000 0.156848 0.500000
#
# Coordination Sequence:
#
# PCOD9150647 Si02
#       8
#     4   4   4   4   4   4   2   4
#     4  10  22  41  60  81 115 151 197 251 300 347
#     4  10  20  38  60  89 117 157 203 238 295 350
#     4   9  19  40  62  83 119 156 186 234 297 355
#     4  10  20  36  61  86 118 156 201 244 288 350
#     4   8  16  32  55  85 124 160 194 241 287 337
#     4   9  19  37  62  88 115 151 191 230 284 358
#     4  12  23  38  60  90 116 146 193 240 286 358
#     4  11  24  42  60  89 119 150 193 245 301 357
#
# _framework density 19.201381000000001
#
# number of rings (size 3 to 8) (size 9 to 14) (size 15 to 20)
#    0.000    2.267    1.333    3.000    0.933    2.400 
#    7.200    1.333    0.000   13.600    0.000    0.000 
#    0.000    0.000    0.000    0.000    0.000    0.000 
#
# Total GULP energy -167300.499384 kJ/mol
# GULP energy per Si atom -5576.683313 kJ/mol
# Density = 1.915768 g / cm^3
# Si number density = 19.201381 Si / 1000 Ang^3
#
#
#
# Elastic Constant Matrix: (Units=GPa)
#
#
# Indices 1 2 3 4 5 6 
#
# 1 28.6495 2.7927 -0.6914 0.0000 6.6712 0.0000
# 2 2.7927 111.9759 7.3734 0.0000 0.3344 0.0000
# 3 -0.6914 7.3734 57.1593 0.0000 2.8342 0.0000
# 4 0.0000 0.0000 0.0000 8.7973 0.0000 -4.2030
# 5 6.6712 0.3344 2.8342 0.0000 26.6525 0.0000
# 6 0.0000 0.0000 0.0000 -4.2030 0.0000 14.5065
#
#
#
# Elastic Compliance Matrix: (Units=1/GPa)
#
#
# Indices 1 2 3 4 5 6 
#
# 1 0.037216 -0.000969 0.001042 0.000000 -0.009414 0.000000
# 2 -0.000969 0.009032 -0.001190 0.000000 0.000256 0.000000
# 3 0.001042 -0.001190 0.017767 0.000000 -0.002135 0.000000
# 4 0.000000 0.000000 0.000000 0.131935 0.000000 0.038226
# 5 -0.009414 0.000256 -0.002135 0.000000 0.040100 0.000000
# 6 0.000000 0.000000 0.000000 0.038226 0.000000 0.080010
#
#
# Mechanical properties :
#
#
# Convention : Reuss Voigt Hill
#
# Bulk Modulus (GPa) = 16.18571 24.08155 20.13363
# Shear Modulus (GPa) = 14.75419 22.54528 18.64973
#
# Velocity S-wave (km/s) = 2.77500 3.43030 3.11990
# Velocity P-wave (km/s) = 4.32611 5.31583 4.84630
#
# Compressibility (1/GPa) = 0.06178289
#
# Stress axis : x y z
#
# Youngs Moduli (GPa) = 26.86997 110.71486 56.28449
#
# Poissons Ratio (x) = 0.10725 -0.05865
# Poissons Ratio (y) = 0.02603 0.06695
# Poissons Ratio (z) = -0.02800 0.13170
#
# Static dielectric constant tensor:
#      x y z
#    x 1.691020 0.000000 0.008020 
#    y 0.000000 1.669580 0.000000 
#    z 0.008020 0.000000 1.704520 
# 
# From -- ./inp_files/62658.got.cif
#   From: 2010.05.17/outbox.cif.g08.bks.cpg/sg10_32_cif.got.tgz:62658.got - 2010.06.03 11:33:40.
