data_PCOD9150374
_publ_section_title
;
Structure prediction by ZEFSAII (Michael W. Deem and Ramdas Pophale) SiO2 
 PCOD9150374
Probable space group: P 2/M
;
_chemical_formula_sum "Si O2"
_cell_formula_units_Z 32
_cell_length_a 15.173062
_cell_length_b 12.803800
_cell_length_c 8.863233
_cell_angle_alpha 90.000000
_cell_angle_beta 88.078179
_cell_angle_gamma 90.000000
_cell_volume 1720.917014
_symmetry_space_group_name_H-M "P 2/M"
_symmetry_group_IT_number 10
_symmetry_cell_setting 'monoclinic'
loop_
_space_group_symop_operation_xyz
x,y,z
-x,y,-z
-x,-y,-z
x,-y,z
loop_
_atom_site_type_symbol
_atom_site_label
_atom_site_fract_x
_atom_site_fract_y
_atom_site_fract_z
Si Si1 0.420649 0.271035 0.907952
Si Si2 0.083133 0.317332 0.893168
Si Si3 0.786013 0.627097 0.597625
Si Si4 0.477147 0.122550 0.330651
Si Si5 0.737171 0.620632 0.257725
Si Si6 0.126003 0.118780 0.090674
Si Si7 0.036651 0.754440 0.344646
Si Si8 0.307790 0.796201 0.198754
O O1 0.468092 0.188088 0.795466
O O2 0.350819 0.331817 0.809068
O O3 0.500000 0.325885 0.000000
O O4 0.360872 0.221864 0.042067
O O5 0.178538 0.368471 0.860335
O O6 0.040074 0.309887 0.732069
O O7 0.106665 0.204476 0.963233
O O8 0.000000 0.359256 0.000000
O O9 0.785398 0.500000 0.612541
O O10 0.760785 0.658391 0.426491
O O11 0.881327 0.677008 0.631135
O O12 0.722139 0.687985 0.718886
O O13 0.500000 0.154516 0.500000
O O14 0.374308 0.144277 0.305289
O O15 0.496338 0.000000 0.312476
O O16 0.719692 0.500000 0.278754
O O17 0.062550 0.154102 0.229452
O O18 0.222207 0.138994 0.155543
O O19 0.114482 0.000000 0.043048
O O20 0.000000 0.798665 0.500000
#
# Coordination Sequence:
#
# PCOD9150374 Si02
#       8
#     4   4   4   4   4   4   4   4
#     4  10  22  39  60  89 121 155 195 245 295 346
#     4  10  21  38  57  84 118 154 193 248 296 348
#     4  10  22  38  61  87 117 158 198 245 303 357
#     4  10  21  38  63  91 120 154 195 244 297 350
#     4  11  22  39  60  85 119 159 202 244 301 359
#     4  10  21  37  58  82 115 159 196 236 297 355
#     4  10  20  36  58  82 118 149 196 251 288 351
#     4  10  20  38  61  86 119 152 194 251 291 351
#
# _framework density 18.594738
#
# number of rings (size 3 to 8) (size 9 to 14) (size 15 to 20)
#    0.000    1.875    2.500    1.125    0.000    7.000 
#    0.000    1.875    0.000    6.750    0.000    0.000 
#    0.000    0.000    0.000    0.000    0.000    0.000 
#
# Total GULP energy -178236.908690 kJ/mol
# GULP energy per Si atom -5569.903397 kJ/mol
# Density = 1.855242 g / cm^3
# Si number density = 18.594738 Si / 1000 Ang^3
#
#
#
# Elastic Constant Matrix: (Units=GPa)
#
#
# Indices 1 2 3 4 5 6 
#
# 1 108.2427 17.4918 32.8261 0.0000 16.6730 0.0000
# 2 17.4918 52.2585 28.5650 0.0000 4.8436 0.0000
# 3 32.8261 28.5650 97.7547 0.0000 12.7666 0.0000
# 4 0.0000 0.0000 0.0000 19.2215 0.0000 -1.6740
# 5 16.6730 4.8436 12.7666 0.0000 39.8008 0.0000
# 6 0.0000 0.0000 0.0000 -1.6740 0.0000 -10.0484
#
#
#
# Elastic Compliance Matrix: (Units=1/GPa)
#
#
# Indices 1 2 3 4 5 6 
#
# 1 0.010881 -0.001869 -0.002653 0.000000 -0.003480 0.000000
# 2 -0.001869 0.023111 -0.006117 0.000000 -0.000067 0.000000
# 3 -0.002653 -0.006117 0.013219 0.000000 -0.002384 0.000000
# 4 0.000000 0.000000 0.000000 0.051281 0.000000 -0.008543
# 5 -0.003480 -0.000067 -0.002384 0.000000 0.027356 0.000000
# 6 0.000000 0.000000 0.000000 -0.008543 0.000000 -0.098095
#
#
# Mechanical properties :
#
#
# Convention : Reuss Voigt Hill
#
# Bulk Modulus (GPa) = 38.56086 46.22463 42.39275
# Shear Modulus (GPa) = 86.69076 21.75298 54.22187
#
# Velocity S-wave (km/s) = 6.83537 3.42401 5.40584
# Velocity P-wave (km/s) = 9.11477 6.36748 7.86205
#
# Compressibility (1/GPa) = 0.02593303
#
# Stress axis : x y z
#
# Youngs Moduli (GPa) = 91.90163 43.26925 75.64611
#
# Poissons Ratio (x) = 0.08088 0.20071
# Poissons Ratio (y) = 0.17179 0.46271
# Poissons Ratio (z) = 0.24384 0.26467
#
# Static dielectric constant tensor:
#      x y z
#    x 1.682610 0.000000 0.022340 
#    y 0.000000 1.619410 0.000000 
#    z 0.022340 0.000000 1.667130 
# 
# From -- ./inp_files/28578.got.cif
#   From: 2010.05.17/outbox.cif.g08.bks.cpg/sg10_15_cif.got.tgz:28578.got - 2010.06.03 11:33:40.
