data_PCOD9150218
_publ_section_title
;
Structure prediction by ZEFSAII (Michael W. Deem and Ramdas Pophale) SiO2 
 PCOD9150218
Probable space group: P 2/M
;
_chemical_formula_sum "Si O2"
_cell_formula_units_Z 28
_cell_length_a 12.009279
_cell_length_b 13.760513
_cell_length_c 9.635680
_cell_angle_alpha 90.000000
_cell_angle_beta 70.225172
_cell_angle_gamma 90.000000
_cell_volume 1498.432435
_symmetry_space_group_name_H-M "P 2/M"
_symmetry_group_IT_number 10
_symmetry_cell_setting 'monoclinic'
loop_
_space_group_symop_operation_xyz
x,y,z
-x,y,-z
-x,-y,-z
x,-y,z
loop_
_atom_site_type_symbol
_atom_site_label
_atom_site_fract_x
_atom_site_fract_y
_atom_site_fract_z
Si Si1 0.692150 0.608935 0.073740
Si Si2 0.883803 0.382569 0.791086
Si Si3 0.876104 0.892778 0.478844
Si Si4 0.780583 0.308920 0.561763
Si Si5 0.478722 0.617517 0.349077
Si Si6 0.864396 0.678628 0.213554
Si Si7 0.115733 0.107109 0.854158
O O1 0.655952 0.500000 0.046954
O O2 0.580400 0.653489 0.200746
O O3 0.797127 0.604861 0.143134
O O4 0.760800 0.652068 0.913650
O O5 0.893005 0.500000 0.796377
O O6 0.871476 0.350517 0.636909
O O7 0.995200 0.336355 0.825244
O O8 0.787942 0.807738 0.557414
O O9 0.905485 0.893524 0.302746
O O10 0.000000 0.873241 0.500000
O O11 0.833339 0.000000 0.535663
O O12 0.650467 0.349433 0.642302
O O13 0.816149 0.335200 0.389481
O O14 0.500000 0.649564 0.500000
O O15 0.484399 0.500000 0.347633
O O16 0.831104 0.784076 0.160625
O O17 0.173558 0.000000 0.859302
O O18 0.000000 0.108973 0.000000
#
# Coordination Sequence:
#
# PCOD9150218 Si02
#       7
#     4   4   4   4   4   4   4
#     4  10  21  36  53  74 103 141 180 214 256 316
#     4  11  23  34  49  79 110 134 168 221 275 312
#     4   9  18  33  53  78 108 139 172 210 261 324
#     4  11  21  34  54  78 105 137 178 219 259 307
#     4  10  20  36  56  75  99 140 188 221 252 308
#     4  11  20  33  53  76 107 141 171 209 266 329
#     4   9  17  29  47  72 101 132 167 207 249 299
#
# _framework density 18.686195999999999
#
# number of rings (size 3 to 8) (size 9 to 14) (size 15 to 20)
#    0.000    1.857    1.429    4.286    0.000    4.000 
#    0.000    2.143    0.000    1.286    0.000    1.000 
#    0.000    0.000    0.000    0.000    0.000    0.000 
#
# Total GULP energy -155901.264976 kJ/mol
# GULP energy per Si atom -5567.902321 kJ/mol
# Density = 1.864367 g / cm^3
# Si number density = 18.686196 Si / 1000 Ang^3
#
#
#
# Elastic Constant Matrix: (Units=GPa)
#
#
# Indices 1 2 3 4 5 6 
#
# 1 46.1262 5.7450 14.5604 0.0000 -12.5980 0.0000
# 2 5.7450 61.6078 15.7774 0.0000 2.4734 0.0000
# 3 14.5604 15.7774 67.2216 0.0000 -19.3321 0.0000
# 4 0.0000 0.0000 0.0000 11.0064 0.0000 7.4140
# 5 -12.5980 2.4734 -19.3321 0.0000 29.7321 0.0000
# 6 0.0000 0.0000 0.0000 7.4140 0.0000 -2.9661
#
#
#
# Elastic Compliance Matrix: (Units=1/GPa)
#
#
# Indices 1 2 3 4 5 6 
#
# 1 0.025228 -0.002152 -0.002255 0.000000 0.009402 0.000000
# 2 -0.002152 0.018082 -0.005501 0.000000 -0.005993 0.000000
# 3 -0.002255 -0.005501 0.020311 0.000000 0.012708 0.000000
# 4 0.000000 0.000000 0.000000 0.033855 0.000000 0.084621
# 5 0.009402 -0.005993 0.012708 0.000000 0.046379 0.000000
# 6 0.000000 0.000000 0.000000 0.084621 0.000000 -0.125624
#
#
# Mechanical properties :
#
#
# Convention : Reuss Voigt Hill
#
# Bulk Modulus (GPa) = 22.83000 27.45792 25.14396
# Shear Modulus (GPa) = 94.96949 16.81265 55.89107
#
# Velocity S-wave (km/s) = 7.13678 3.00281 5.47497
# Velocity P-wave (km/s) = 8.95297 5.17191 7.31110
#
# Compressibility (1/GPa) = 0.04380202
#
# Stress axis : x y z
#
# Youngs Moduli (GPa) = 39.63927 55.30384 49.23533
#
# Poissons Ratio (x) = 0.11904 0.11104
# Poissons Ratio (y) = 0.08532 0.27086
# Poissons Ratio (z) = 0.08940 0.30425
#
# Static dielectric constant tensor:
#      x y z
#    x 1.630870 0.000000 -0.014200 
#    y 0.000000 1.721520 0.000000 
#    z -0.014200 0.000000 1.684140 
# 
# From -- ./inp_files/24898.got.cif
#   From: 2010.05.17/outbox.cif.g08.bks.cpg/sg10_13_cif.got.tgz:24898.got - 2010.06.03 11:33:40.
