data_PCOD9150728
_publ_section_title
;
Structure prediction by ZEFSAII (Michael W. Deem and Ramdas Pophale) SiO2 
 PCOD9150728
Probable space group: P 2/M
;
_chemical_formula_sum "Si O2"
_cell_formula_units_Z 24
_cell_length_a 15.055597
_cell_length_b 11.779966
_cell_length_c 14.681933
_cell_angle_alpha 90.000000
_cell_angle_beta 30.060428
_cell_angle_gamma 90.000000
_cell_volume 1304.330463
_symmetry_space_group_name_H-M "P 2/M"
_symmetry_group_IT_number 10
_symmetry_cell_setting 'monoclinic'
loop_
_space_group_symop_operation_xyz
x,y,z
-x,y,-z
-x,-y,-z
x,-y,z
loop_
_atom_site_type_symbol
_atom_site_label
_atom_site_fract_x
_atom_site_fract_y
_atom_site_fract_z
Si Si1 0.262296 0.500000 0.803806
Si Si2 0.471159 0.135967 0.727252
Si Si3 0.180816 0.259204 0.600611
Si Si4 0.885706 0.745179 0.014486
Si Si5 0.583122 0.133273 0.019190
Si Si6 0.681490 0.500000 0.463239
Si Si7 0.002094 0.129809 0.390058
O O1 0.467664 0.500000 0.652492
O O2 0.262197 0.500000 0.693513
O O3 0.168620 0.613637 0.922515
O O4 0.649076 0.183485 0.523940
O O5 0.471195 0.177375 0.833312
O O6 0.466775 0.000000 0.729992
O O7 0.294790 0.185408 0.838148
O O8 0.243110 0.388196 0.555896
O O9 0.013859 0.241026 0.814664
O O10 0.117327 0.217877 0.558172
O O11 0.000000 0.781733 0.000000
O O12 0.529943 0.000000 0.067339
O O13 0.500000 0.183051 0.000000
O O14 0.794966 0.138727 0.822461
O O15 0.000000 0.145846 0.500000
O O16 0.940198 0.000000 0.426077
#
# Coordination Sequence:
#
# PCOD9150728 Si02
#       7
#     2   4   4   4   4   2   4
#     4  11  22  45  68  92 117 157 221 276 312 383
#     4  11  24  40  59  91 132 169 207 257 318 380
#     4  12  23  40  65  96 124 165 212 268 315 374
#     4  12  24  41  67  91 123 165 215 264 320 375
#     4   9  17  33  57  86 121 161 206 253 299 357
#     4  11  23  40  72  92 118 160 215 270 330 365
#     4  10  20  36  62  94 128 170 212 251 306 379
#
# _framework density 18.400244000000001
#
# number of rings (size 3 to 8) (size 9 to 14) (size 15 to 20)
#    0.000    1.167    5.000    2.250    0.000    4.333 
#    0.000    1.250    0.000    0.000    0.000    4.083 
#    0.000    0.000    0.000    0.000    0.000    0.000 
#
# Total GULP energy -134066.271799 kJ/mol
# GULP energy per Si atom -5586.094658 kJ/mol
# Density = 1.835836 g / cm^3
# Si number density = 18.400244 Si / 1000 Ang^3
#
#
#
# Elastic Constant Matrix: (Units=GPa)
#
#
# Indices 1 2 3 4 5 6 
#
# 1 105.5174 58.5488 25.8692 0.0000 -16.0942 0.0000
# 2 58.5488 99.6153 37.0136 0.0000 -9.5427 0.0000
# 3 25.8692 37.0136 102.9519 0.0000 -8.2825 0.0000
# 4 0.0000 0.0000 0.0000 20.9212 0.0000 -5.5604
# 5 -16.0942 -9.5427 -8.2825 0.0000 27.5138 0.0000
# 6 0.0000 0.0000 0.0000 -5.5604 0.0000 58.5008
#
#
#
# Elastic Compliance Matrix: (Units=1/GPa)
#
#
# Indices 1 2 3 4 5 6 
#
# 1 0.014944 -0.008084 -0.000380 0.000000 0.005823 0.000000
# 2 -0.008084 0.016179 -0.003807 0.000000 -0.000263 0.000000
# 3 -0.000380 -0.003807 0.011328 0.000000 0.001867 0.000000
# 4 0.000000 0.000000 0.000000 0.049037 0.000000 0.004661
# 5 0.005823 -0.000263 0.001867 0.000000 0.040223 0.000000
# 6 0.000000 0.000000 0.000000 0.004661 0.000000 0.017537
#
#
# Mechanical properties :
#
#
# Convention : Reuss Voigt Hill
#
# Bulk Modulus (GPa) = 55.83792 61.21641 58.52717
# Shear Modulus (GPa) = 27.81484 33.83067 30.82275
#
# Velocity S-wave (km/s) = 3.89222 4.29254 4.09727
# Velocity P-wave (km/s) = 7.11416 7.60983 7.36617
#
# Compressibility (1/GPa) = 0.01790898
#
# Stress axis : x y z
#
# Youngs Moduli (GPa) = 66.91479 61.80678 88.28003
#
# Poissons Ratio (x) = 0.49967 0.03356
# Poissons Ratio (y) = 0.54097 0.33605
# Poissons Ratio (z) = 0.02543 0.23528
#
# Static dielectric constant tensor:
#      x y z
#    x 1.646090 0.000000 0.005070 
#    y 0.000000 1.600160 0.000000 
#    z 0.005070 0.000000 1.655000 
# 
# From -- ./inp_files/67265.got.cif
#   From: 2010.05.17/outbox.cif.g08.bks.cpg/sg10_34_cif.got.tgz:67265.got - 2010.06.03 11:33:40.
