data_PCOD9150505
_publ_section_title
;
Structure prediction by ZEFSAII (Michael W. Deem and Ramdas Pophale) SiO2 
 PCOD9150505
Probable space group: P 2/M
;
_chemical_formula_sum "Si O2"
_cell_formula_units_Z 28
_cell_length_a 14.875467
_cell_length_b 9.581695
_cell_length_c 11.249300
_cell_angle_alpha 90.000000
_cell_angle_beta 66.507489
_cell_angle_gamma 90.000000
_cell_volume 1470.486069
_symmetry_space_group_name_H-M "P 2/M"
_symmetry_group_IT_number 10
_symmetry_cell_setting 'monoclinic'
loop_
_space_group_symop_operation_xyz
x,y,z
-x,y,-z
-x,-y,-z
x,-y,z
loop_
_atom_site_type_symbol
_atom_site_label
_atom_site_fract_x
_atom_site_fract_y
_atom_site_fract_z
Si Si1 0.452163 0.168654 0.149653
Si Si2 0.044496 0.157406 0.314409
Si Si3 0.442856 0.167810 0.654146
Si Si4 0.755322 0.163478 0.646679
Si Si5 0.244890 0.662229 0.790856
Si Si6 0.853369 0.338943 0.409454
Si Si7 0.898361 0.160501 0.989683
O O1 0.501890 0.206075 0.250611
O O2 0.337407 0.204866 0.224333
O O3 0.458168 0.000000 0.140786
O O4 0.500000 0.220714 0.000000
O O5 0.141848 0.178424 0.339543
O O6 0.079844 0.164135 0.160508
O O7 0.956883 0.264740 0.379047
O O8 0.006040 0.000000 0.356778
O O9 0.500000 0.197199 0.500000
O O10 0.342154 0.252539 0.709020
O O11 0.426422 0.000000 0.665696
O O12 0.768307 0.257500 0.524237
O O13 0.742411 0.000000 0.621572
O O14 0.266076 0.500000 0.803661
O O15 0.172357 0.669303 0.715878
O O16 0.188086 0.737878 0.927119
O O17 0.856328 0.500000 0.444273
O O18 0.874327 0.000000 0.037239
O O19 0.000000 0.198834 0.000000
#
# Coordination Sequence:
#
# PCOD9150505 Si02
#       7
#     4   4   4   4   4   4   4
#     4   9  19  36  60  88 117 148 188 243 299 346
#     4  10  21  36  58  88 117 148 190 237 286 340
#     4  10  21  38  63  91 115 148 198 251 298 348
#     4  10  21  37  60  86 114 148 189 237 288 343
#     4  11  24  38  57  85 118 157 194 236 291 347
#     4  11  23  38  56  82 118 157 192 231 282 343
#     4  10  20  36  59  86 115 150 192 241 288 339
#
# _framework density 19.041322000000001
#
# number of rings (size 3 to 8) (size 9 to 14) (size 15 to 20)
#    0.000    1.857    1.429    2.143    2.000    6.286 
#    0.000    0.714    0.000    0.857    0.000    0.000 
#    0.000    0.000    0.000    0.000    0.000    0.000 
#
# Total GULP energy -156281.606724 kJ/mol
# GULP energy per Si atom -5581.485954 kJ/mol
# Density = 1.899798 g / cm^3
# Si number density = 19.041322 Si / 1000 Ang^3
#
#
#
# Elastic Constant Matrix: (Units=GPa)
#
#
# Indices 1 2 3 4 5 6 
#
# 1 65.9064 48.9956 36.9910 0.0000 -11.4481 0.0000
# 2 48.9956 71.5009 59.5096 0.0000 -22.1287 0.0000
# 3 36.9910 59.5096 140.1414 0.0000 -14.8720 0.0000
# 4 0.0000 0.0000 0.0000 2.1841 0.0000 12.2916
# 5 -11.4481 -22.1287 -14.8720 0.0000 33.3302 0.0000
# 6 0.0000 0.0000 0.0000 12.2916 0.0000 1.4275
#
#
#
# Elastic Compliance Matrix: (Units=1/GPa)
#
#
# Indices 1 2 3 4 5 6 
#
# 1 0.031638 -0.024368 0.001504 0.000000 -0.004640 0.000000
# 2 -0.024368 0.044840 -0.010852 0.000000 0.016559 0.000000
# 3 0.001504 -0.010852 0.011166 0.000000 -0.001706 0.000000
# 4 0.000000 0.000000 0.000000 -0.009648 0.000000 0.083071
# 5 -0.004640 0.016559 -0.001706 0.000000 0.038641 0.000000
# 6 0.000000 0.000000 0.000000 0.083071 0.000000 -0.014761
#
#
# Mechanical properties :
#
#
# Convention : Reuss Voigt Hill
#
# Bulk Modulus (GPa) = 49.47273 63.17122 56.32198
# Shear Modulus (GPa) = 28.40170 16.19186 22.29678
#
# Velocity S-wave (km/s) = 3.86629 2.91925 3.42565
# Velocity P-wave (km/s) = 6.78005 6.67911 6.72977
#
# Compressibility (1/GPa) = 0.02021316
#
# Stress axis : x y z
#
# Youngs Moduli (GPa) = 31.60744 22.30138 89.56013
#
# Poissons Ratio (x) = 0.54344 -0.13470
# Poissons Ratio (y) = 0.77020 0.97188
# Poissons Ratio (z) = -0.04754 0.24201
#
# Static dielectric constant tensor:
#      x y z
#    x 1.664720 0.000000 0.025880 
#    y 0.000000 1.644350 0.000000 
#    z 0.025880 0.000000 1.676010 
# 
# From -- ./inp_files/49582.got.cif
#   From: 2010.05.17/outbox.cif.g08.bks.cpg/sg10_25_cif.got.tgz:49582.got - 2010.06.03 11:33:40.
