data_PCOD9150380
_publ_section_title
;
Structure prediction by ZEFSAII (Michael W. Deem and Ramdas Pophale) SiO2 
 PCOD9150380
Probable space group: P 2/M
;
_chemical_formula_sum "Si O2"
_cell_formula_units_Z 28
_cell_length_a 10.081997
_cell_length_b 7.511522
_cell_length_c 29.707640
_cell_angle_alpha 90.000000
_cell_angle_beta 33.608653
_cell_angle_gamma 90.000000
_cell_volume 1245.299705
_symmetry_space_group_name_H-M "P 2/M"
_symmetry_group_IT_number 10
_symmetry_cell_setting 'monoclinic'
loop_
_space_group_symop_operation_xyz
x,y,z
-x,y,-z
-x,-y,-z
x,-y,z
loop_
_atom_site_type_symbol
_atom_site_label
_atom_site_fract_x
_atom_site_fract_y
_atom_site_fract_z
Si Si1 0.525958 0.282438 0.293039
Si Si2 0.368722 0.282930 0.436689
Si Si3 0.187659 0.790291 0.983637
Si Si4 0.865391 0.282360 0.338189
Si Si5 0.936883 0.712988 0.877881
Si Si6 0.726060 0.713178 0.845923
Si Si7 0.055938 0.282523 0.380774
O O1 0.534480 0.500000 0.291008
O O2 0.426982 0.226445 0.369642
O O3 0.327976 0.227468 0.312772
O O4 0.794212 0.220066 0.207791
O O5 0.361849 0.500000 0.437788
O O6 0.595842 0.229068 0.402638
O O7 0.121142 0.225243 0.529099
O O8 0.467645 0.749155 0.897646
O O9 0.164653 0.000000 0.987259
O O10 0.132422 0.743954 0.051069
O O11 0.000000 0.712567 0.000000
O O12 0.866268 0.500000 0.337631
O O13 0.053861 0.222966 0.246977
O O14 0.952067 0.224106 0.362528
O O15 0.942355 0.500000 0.871604
O O16 0.762238 0.778495 0.887170
O O17 0.744991 0.500000 0.841873
O O18 0.054123 0.500000 0.381240
#
# Coordination Sequence:
#
# PCOD9150380 Si02
#       7
#     4   4   4   4   4   4   4
#     4   9  16  26  41  67 102 139 177 214 253 305
#     4   9  14  24  38  59  99 144 178 211 253 301
#     4  11  26  43  58  80 108 135 172 223 276 328
#     4   9  16  26  41  67 102 139 177 214 253 305
#     4  10  20  36  58  83 111 143 180 219 264 319
#     4  10  20  36  58  83 111 143 180 219 264 319
#     4   9  16  22  36  63  99 144 182 209 251 305
#
# _framework density 22.484546000000002
#
# number of rings (size 3 to 8) (size 9 to 14) (size 15 to 20)
#    0.000    2.429    1.429    1.714    2.000    6.857 
#    0.000    0.000    0.000    0.000    0.000    0.000 
#    0.000    6.857    0.000    0.000    0.000    0.000 
#
# Total GULP energy -156399.822948 kJ/mol
# GULP energy per Si atom -5585.707962 kJ/mol
# Density = 2.243337 g / cm^3
# Si number density = 22.484546 Si / 1000 Ang^3
#
#
#
# Elastic Constant Matrix: (Units=GPa)
#
#
# Indices 1 2 3 4 5 6 
#
# 1 78.6570 -3.5797 -4.9755 0.0000 -27.3824 0.0000
# 2 -3.5797 57.3614 -0.7115 0.0000 -2.4015 0.0000
# 3 -4.9755 -0.7115 56.5944 0.0000 -15.9151 0.0000
# 4 0.0000 0.0000 0.0000 -31.6751 0.0000 39.4973
# 5 -27.3824 -2.4015 -15.9151 0.0000 36.7707 0.0000
# 6 0.0000 0.0000 0.0000 39.4973 0.0000 43.0754
#
#
#
# Elastic Compliance Matrix: (Units=1/GPa)
#
#
# Indices 1 2 3 4 5 6 
#
# 1 0.019250 0.002008 0.006588 0.000000 0.017318 0.000000
# 2 0.002008 0.017709 0.001304 0.000000 0.003216 0.000000
# 3 0.006588 0.001304 0.022394 0.000000 0.014683 0.000000
# 4 0.000000 0.000000 0.000000 -0.014729 0.000000 0.013506
# 5 0.017318 0.003216 0.014683 0.000000 0.046657 0.000000
# 6 0.000000 0.000000 0.000000 0.013506 0.000000 0.010831
#
#
# Mechanical properties :
#
#
# Convention : Reuss Voigt Hill
#
# Bulk Modulus (GPa) = 12.63386 19.34216 15.98801
# Shear Modulus (GPa) = 45.99882 23.09282 34.54582
#
# Velocity S-wave (km/s) = 4.52796 3.20824 3.92398
# Velocity P-wave (km/s) = 5.74174 4.72704 5.25892
#
# Compressibility (1/GPa) = 0.07915239
#
# Stress axis : x y z
#
# Youngs Moduli (GPa) = 51.94752 56.46697 44.65420
#
# Poissons Ratio (x) = -0.11339 -0.29416
# Poissons Ratio (y) = -0.10431 -0.05821
# Poissons Ratio (z) = -0.34221 -0.07361
#
# Static dielectric constant tensor:
#      x y z
#    x 1.838330 0.000000 0.000510 
#    y 0.000000 1.879570 0.000000 
#    z 0.000510 0.000000 1.791510 
# 
# From -- ./inp_files/91961.got.cif
#   From: 2010.05.17/outbox.cif.g08.bks.cpg/sg10_46_cif.got.tgz:91961.got - 2010.06.03 11:33:40.
