data_PCOD9150611
_publ_section_title
;
Structure prediction by ZEFSAII (Michael W. Deem and Ramdas Pophale) SiO2 
 PCOD9150611
Probable space group: P 2/M
;
_chemical_formula_sum "Si O2"
_cell_formula_units_Z 32
_cell_length_a 20.467260
_cell_length_b 16.005765
_cell_length_c 7.743806
_cell_angle_alpha 90.000000
_cell_angle_beta 146.221537
_cell_angle_gamma 90.000000
_cell_volume 1410.432441
_symmetry_space_group_name_H-M "P 2/M"
_symmetry_group_IT_number 10
_symmetry_cell_setting 'monoclinic'
loop_
_space_group_symop_operation_xyz
x,y,z
-x,y,-z
-x,-y,-z
x,-y,z
loop_
_atom_site_type_symbol
_atom_site_label
_atom_site_fract_x
_atom_site_fract_y
_atom_site_fract_z
Si Si1 0.931115 0.747693 0.170792
Si Si2 0.319740 0.633666 0.017807
Si Si3 0.476593 0.906830 0.741505
Si Si4 0.291030 0.184360 0.813807
Si Si5 0.951762 0.410660 0.593105
Si Si6 0.449116 0.593410 0.661507
Si Si7 0.041907 0.907462 0.288171
Si Si8 0.323039 0.246218 0.489594
O O1 0.000000 0.746614 0.500000
O O2 0.993325 0.672671 0.202877
O O3 0.947604 0.842332 0.150434
O O4 0.794839 0.729054 0.868790
O O5 0.309305 0.733664 0.969885
O O6 0.188524 0.598663 0.715346
O O7 0.378895 0.605963 0.326756
O O8 0.413210 0.602397 0.080901
O O9 0.385429 0.830709 0.528138
O O10 0.439857 0.000000 0.605302
O O11 0.500000 0.910961 0.000000
O O12 0.598674 0.877850 0.924545
O O13 0.168631 0.137340 0.578712
O O14 0.293030 0.216189 0.618102
O O15 0.985641 0.500000 0.745664
O O16 0.000000 0.413334 0.500000
O O17 0.423743 0.500000 0.671120
O O18 0.404088 0.672255 0.670595
O O19 0.044732 0.000000 0.372885
O O20 0.000000 0.916182 0.000000
#
# Coordination Sequence:
#
# PCOD9150611 Si02
#       8
#     4   4   4   4   4   4   4   4
#     4  11  23  39  62  91 128 168 209 264 320 379
#     4  11  21  38  66  89 124 164 207 260 307 374
#     4   9  19  37  63  90 118 159 209 256 309 375
#     4  11  21  40  65  93 128 161 213 262 320 371
#     4  10  20  36  60  88 118 157 205 249 305 369
#     4  11  23  40  62  92 128 169 215 254 311 380
#     4  11  23  41  65  91 124 171 216 261 318 381
#     4  11  23  39  64  93 128 169 205 264 319 375
#
# _framework density 22.688077
#
# number of rings (size 3 to 8) (size 9 to 14) (size 15 to 20)
#    0.000    1.375    3.750    3.375    0.000    2.750 
#    0.000    2.500    0.000    1.875    0.000    0.000 
#    0.000    0.000    0.000    0.000    0.000    0.000 
#
# Total GULP energy -178811.197215 kJ/mol
# GULP energy per Si atom -5587.849913 kJ/mol
# Density = 2.263644 g / cm^3
# Si number density = 22.688077 Si / 1000 Ang^3
#
#
#
# Elastic Constant Matrix: (Units=GPa)
#
#
# Indices 1 2 3 4 5 6 
#
# 1 48.9905 25.7527 22.7927 0.0000 17.9886 0.0000
# 2 25.7527 198.1453 32.7906 0.0000 14.0580 0.0000
# 3 22.7927 32.7906 104.8431 0.0000 26.9531 0.0000
# 4 0.0000 0.0000 0.0000 32.6164 0.0000 2.3225
# 5 17.9886 14.0580 26.9531 0.0000 42.3522 0.0000
# 6 0.0000 0.0000 0.0000 2.3225 0.0000 21.9626
#
#
#
# Elastic Compliance Matrix: (Units=1/GPa)
#
#
# Indices 1 2 3 4 5 6 
#
# 1 0.026047 -0.002326 -0.002737 0.000000 -0.008549 0.000000
# 2 -0.002326 0.005555 -0.001210 0.000000 -0.000086 0.000000
# 3 -0.002737 -0.001210 0.012087 0.000000 -0.006128 0.000000
# 4 0.000000 0.000000 0.000000 0.030892 0.000000 -0.003267
# 5 -0.008549 -0.000086 -0.006128 0.000000 0.031171 0.000000
# 6 0.000000 0.000000 0.000000 -0.003267 0.000000 0.045878
#
#
# Mechanical properties :
#
#
# Convention : Reuss Voigt Hill
#
# Bulk Modulus (GPa) = 32.10900 57.18343 44.64622
# Shear Modulus (GPa) = 28.64385 37.42909 33.03647
#
# Velocity S-wave (km/s) = 3.55703 4.06609 3.82005
# Velocity P-wave (km/s) = 5.57253 6.87772 6.25923
#
# Compressibility (1/GPa) = 0.03114391
#
# Stress axis : x y z
#
# Youngs Moduli (GPa) = 38.39154 180.00523 82.73436
#
# Poissons Ratio (x) = 0.41866 0.22648
# Poissons Ratio (y) = 0.08929 0.10008
# Poissons Ratio (z) = 0.10509 0.21775
#
# Static dielectric constant tensor:
#      x y z
#    x 1.878490 0.000000 -0.041900 
#    y 0.000000 1.925880 0.000000 
#    z -0.041900 0.000000 1.807170 
# 
# From -- ./inp_files/36397.got.cif
#   From: 2010.05.17/outbox.cif.g08.bks.cpg/sg10_19_cif.got.tgz:36397.got - 2010.06.03 11:33:40.
