data_PCOD9150244
_publ_section_title
;
Structure prediction by ZEFSAII (Michael W. Deem and Ramdas Pophale) SiO2 
 PCOD9150244
Probable space group: P 2/M
;
_chemical_formula_sum "Si O2"
_cell_formula_units_Z 24
_cell_length_a 19.907505
_cell_length_b 10.791095
_cell_length_c 13.523491
_cell_angle_alpha 90.000000
_cell_angle_beta 157.050064
_cell_angle_gamma 90.000000
_cell_volume 1132.802228
_symmetry_space_group_name_H-M "P 2/M"
_symmetry_group_IT_number 10
_symmetry_cell_setting 'monoclinic'
loop_
_space_group_symop_operation_xyz
x,y,z
-x,y,-z
-x,-y,-z
x,-y,z
loop_
_atom_site_type_symbol
_atom_site_label
_atom_site_fract_x
_atom_site_fract_y
_atom_site_fract_z
Si Si1 0.334985 0.857544 0.848556
Si Si2 0.066900 0.360847 0.478724
Si Si3 0.288607 0.359960 0.125934
Si Si4 0.023130 0.634936 0.913529
Si Si5 0.466472 0.858813 0.252903
Si Si6 0.856860 0.131973 0.719620
O O1 0.198625 0.750655 0.640333
O O2 0.270530 0.000000 0.751462
O O3 0.500000 0.846352 0.000000
O O4 0.390831 0.841867 0.039458
O O5 0.143045 0.500000 0.570859
O O6 0.000000 0.350322 0.500000
O O7 0.893728 0.353746 0.179035
O O8 0.360112 0.500000 0.209533
O O9 0.400428 0.248129 0.236024
O O10 0.219702 0.346590 0.144902
O O11 0.967553 0.500000 0.800938
O O12 0.908232 0.750214 0.725250
O O13 0.000000 0.629999 0.000000
O O14 0.671644 0.852058 0.517306
O O15 0.422791 0.000000 0.226552
O O16 0.856672 0.000000 0.665056
O O17 0.000000 0.124828 0.000000
#
# Coordination Sequence:
#
# PCOD9150244 Si02
#       6
#     4   4   4   4   4   4
#     4  10  22  37  54  83 120 155 192 235 281 334
#     4  10  20  36  56  82 119 155 191 233 280 340
#     4  10  21  37  58  85 116 153 193 235 285 340
#     4   9  19  37  59  83 110 142 187 237 287 342
#     4  10  21  37  57  84 116 151 194 235 281 343
#     4   9  19  37  59  82 110 144 185 236 288 338
#
# _framework density 21.186399999999999
#
# number of rings (size 3 to 8) (size 9 to 14) (size 15 to 20)
#    0.000    2.333    1.667    0.000    2.333    2.667 
#    0.000    3.333    0.000   18.000    0.000    0.000 
#    0.000    0.000    0.000    0.000    0.000    0.000 
#
# Total GULP energy -133886.563629 kJ/mol
# GULP energy per Si atom -5578.606818 kJ/mol
# Density = 2.113818 g / cm^3
# Si number density = 21.186400 Si / 1000 Ang^3
#
#
#
# Elastic Constant Matrix: (Units=GPa)
#
#
# Indices 1 2 3 4 5 6 
#
# 1 98.8510 60.1483 13.7361 0.0000 2.2228 0.0000
# 2 60.1483 248.0581 61.5080 0.0000 42.8259 0.0000
# 3 13.7361 61.5080 80.8606 0.0000 -0.0687 0.0000
# 4 0.0000 0.0000 0.0000 -4.1257 0.0000 29.7372
# 5 2.2228 42.8259 -0.0687 0.0000 26.0736 0.0000
# 6 0.0000 0.0000 0.0000 29.7372 0.0000 27.4640
#
#
#
# Elastic Compliance Matrix: (Units=1/GPa)
#
#
# Indices 1 2 3 4 5 6 
#
# 1 0.012480 -0.004393 0.001227 0.000000 0.006155 0.000000
# 2 -0.004393 0.009194 -0.006260 0.000000 -0.014743 0.000000
# 3 0.001227 -0.006260 0.016929 0.000000 0.010222 0.000000
# 4 0.000000 0.000000 0.000000 -0.027530 0.000000 0.029809
# 5 0.006155 -0.014743 0.010222 0.000000 0.062071 0.000000
# 6 0.000000 0.000000 0.000000 0.029809 0.000000 0.004136
#
#
# Mechanical properties :
#
#
# Convention : Reuss Voigt Hill
#
# Bulk Modulus (GPa) = 50.63005 77.61717 64.12361
# Shear Modulus (GPa) = 48.67799 29.37420 39.02610
#
# Velocity S-wave (km/s) = 4.79853 3.72757 4.29655
# Velocity P-wave (km/s) = 7.39260 7.43245 7.41255
#
# Compressibility (1/GPa) = 0.01975111
#
# Stress axis : x y z
#
# Youngs Moduli (GPa) = 80.12582 108.76643 59.07046
#
# Poissons Ratio (x) = 0.47780 -0.07246
# Poissons Ratio (y) = 0.35199 0.36977
# Poissons Ratio (z) = -0.09829 0.68086
#
# Static dielectric constant tensor:
#      x y z
#    x 1.841530 0.000000 -0.080580 
#    y 0.000000 1.857980 0.000000 
#    z -0.080580 0.000000 1.828680 
# 
# From -- ./inp_files/70568.got.cif
#   From: 2010.05.17/outbox.cif.g08.bks.cpg/sg10_36_cif.got.tgz:70568.got - 2010.06.03 11:33:40.
