data_PCOD9150240
_publ_section_title
;
Structure prediction by ZEFSAII (Michael W. Deem and Ramdas Pophale) SiO2 
 PCOD9150240
Probable space group: P 2/M
;
_chemical_formula_sum "Si O2"
_cell_formula_units_Z 28
_cell_length_a 15.024185
_cell_length_b 9.021475
_cell_length_c 20.278705
_cell_angle_alpha 90.000000
_cell_angle_beta 147.878072
_cell_angle_gamma 90.000000
_cell_volume 1461.483546
_symmetry_space_group_name_H-M "P 2/M"
_symmetry_group_IT_number 10
_symmetry_cell_setting 'monoclinic'
loop_
_space_group_symop_operation_xyz
x,y,z
-x,y,-z
-x,-y,-z
x,-y,z
loop_
_atom_site_type_symbol
_atom_site_label
_atom_site_fract_x
_atom_site_fract_y
_atom_site_fract_z
Si Si1 0.598059 0.324728 0.707805
Si Si2 0.208816 0.823238 0.941672
Si Si3 0.309406 0.179775 0.864051
Si Si4 0.648850 0.833120 0.539363
Si Si5 0.511411 0.674900 0.801546
Si Si6 0.812786 0.821124 0.358321
Si Si7 0.115629 0.323877 0.214027
O O1 0.573261 0.500000 0.678324
O O2 0.441217 0.235702 0.580162
O O3 0.601850 0.304204 0.788048
O O4 0.766183 0.280622 0.773742
O O5 0.198688 0.779044 0.858293
O O6 0.062728 0.753317 0.893673
O O7 0.202706 0.000000 0.941970
O O8 0.384523 0.764568 0.079137
O O9 0.231687 0.225321 0.745134
O O10 0.316177 0.000000 0.866382
O O11 0.500000 0.229969 0.000000
O O12 0.500000 0.840577 0.500000
O O13 0.786077 0.729545 0.659008
O O14 0.712712 0.000000 0.568393
O O15 0.508987 0.500000 0.814768
O O16 0.325343 0.740399 0.683830
O O17 0.000000 0.785913 0.500000
O O18 0.792785 0.000000 0.349913
O O19 0.095551 0.500000 0.200316
#
# Coordination Sequence:
#
# PCOD9150240 Si02
#       7
#     4   4   4   4   4   4   4
#     4   9  20  37  56  78 114 161 193 229 290 354
#     4  11  22  37  59  84 113 150 197 244 290 346
#     4   9  17  35  61  84 112 150 187 229 291 357
#     4   9  17  31  53  80 108 141 188 241 285 330
#     4  11  23  39  58  83 115 151 195 241 295 351
#     4  10  21  39  63  90 117 149 191 239 295 359
#     4  10  20  36  56  81 116 155 195 234 284 349
#
# _framework density 19.158614
#
# number of rings (size 3 to 8) (size 9 to 14) (size 15 to 20)
#    0.000    2.143    1.429    1.714    0.000    5.429 
#    0.000    6.429    0.000    0.000    0.000    0.000 
#    0.000    0.000    0.000    0.000    0.000    0.000 
#
# Total GULP energy -156199.914303 kJ/mol
# GULP energy per Si atom -5578.568368 kJ/mol
# Density = 1.911501 g / cm^3
# Si number density = 19.158614 Si / 1000 Ang^3
#
#
#
# Elastic Constant Matrix: (Units=GPa)
#
#
# Indices 1 2 3 4 5 6 
#
# 1 95.7833 40.0341 39.3798 0.0000 5.3372 0.0000
# 2 40.0341 46.1919 27.3093 0.0000 3.1019 0.0000
# 3 39.3798 27.3093 89.1872 0.0000 9.7521 0.0000
# 4 0.0000 0.0000 0.0000 21.0438 0.0000 6.0280
# 5 5.3372 3.1019 9.7521 0.0000 29.7716 0.0000
# 6 0.0000 0.0000 0.0000 6.0280 0.0000 19.9903
#
#
#
# Elastic Compliance Matrix: (Units=1/GPa)
#
#
# Indices 1 2 3 4 5 6 
#
# 1 0.017338 -0.012820 -0.003668 0.000000 -0.000571 0.000000
# 2 -0.012820 0.035914 -0.005371 0.000000 0.000316 0.000000
# 3 -0.003668 -0.005371 0.014876 0.000000 -0.003656 0.000000
# 4 0.000000 0.000000 0.000000 0.052013 0.000000 -0.015684
# 5 -0.000571 0.000316 -0.003656 0.000000 0.034856 0.000000
# 6 0.000000 0.000000 0.000000 -0.015684 0.000000 0.054754
#
#
# Mechanical properties :
#
#
# Convention : Reuss Voigt Hill
#
# Bulk Modulus (GPa) = 40.96476 49.40097 45.18287
# Shear Modulus (GPa) = 19.11274 22.45709 20.78491
#
# Velocity S-wave (km/s) = 3.16192 3.42741 3.29733
# Velocity P-wave (km/s) = 5.89564 6.44236 6.17506
#
# Compressibility (1/GPa) = 0.02441122
#
# Stress axis : x y z
#
# Youngs Moduli (GPa) = 57.67554 27.84413 67.22227
#
# Poissons Ratio (x) = 0.35697 0.24654
# Poissons Ratio (y) = 0.73942 0.36104
# Poissons Ratio (z) = 0.21153 0.14954
#
# Static dielectric constant tensor:
#      x y z
#    x 1.682290 0.000000 -0.002890 
#    y 0.000000 1.639370 0.000000 
#    z -0.002890 0.000000 1.675170 
# 
# From -- ./inp_files/70167.got.cif
#   From: 2010.05.17/outbox.cif.g08.bks.cpg/sg10_36_cif.got.tgz:70167.got - 2010.06.03 11:33:40.
