data_PCOD9150782
_publ_section_title
;
Structure prediction by ZEFSAII (Michael W. Deem and Ramdas Pophale) SiO2 
 PCOD9150782
Probable space group: P 2/M
;
_chemical_formula_sum "Si O2"
_cell_formula_units_Z 32
_cell_length_a 14.788850
_cell_length_b 13.659593
_cell_length_c 11.017465
_cell_angle_alpha 90.000000
_cell_angle_beta 138.907580
_cell_angle_gamma 90.000000
_cell_volume 1462.855126
_symmetry_space_group_name_H-M "P 2/M"
_symmetry_group_IT_number 10
_symmetry_cell_setting 'monoclinic'
loop_
_space_group_symop_operation_xyz
x,y,z
-x,y,-z
-x,-y,-z
x,-y,z
loop_
_atom_site_type_symbol
_atom_site_label
_atom_site_fract_x
_atom_site_fract_y
_atom_site_fract_z
Si Si1 0.887109 0.384506 0.476975
Si Si2 0.359999 0.683152 0.932157
Si Si3 0.800677 0.385948 0.653359
Si Si4 0.843507 0.192990 0.825626
Si Si5 0.586954 0.817473 0.700901
Si Si6 0.667942 0.115717 0.422246
Si Si7 0.470435 0.392233 0.293488
Si Si8 0.664757 0.890193 0.146497
O O1 0.916128 0.500000 0.518398
O O2 0.745031 0.370786 0.262212
O O3 0.874897 0.350978 0.603730
O O4 0.000000 0.340266 0.500000
O O5 0.304217 0.793628 0.900738
O O6 0.500000 0.695915 0.000000
O O7 0.399602 0.623168 0.091281
O O8 0.833518 0.500000 0.711864
O O9 0.838012 0.310418 0.797056
O O10 0.636357 0.382940 0.457502
O O11 0.744901 0.157486 0.836128
O O12 0.769332 0.154381 0.628181
O O13 0.000000 0.161791 0.000000
O O14 0.500000 0.860097 0.500000
O O15 0.486334 0.842814 0.710340
O O16 0.583730 0.700050 0.688156
O O17 0.717295 0.135833 0.335582
O O18 0.655817 0.000000 0.420671
O O19 0.435729 0.500000 0.305933
O O20 0.711026 0.000000 0.155660
O O21 0.500000 0.898767 0.000000
#
# Coordination Sequence:
#
# PCOD9150782 Si02
#       8
#     4   4   4   4   4   4   4   4
#     4  10  21  35  52  79 116 153 185 226 288 353
#     4  11  19  31  55  83 113 141 186 235 280 336
#     4  10  20  37  58  79 111 152 194 237 286 340
#     4  11  24  39  57  83 117 153 196 238 291 342
#     4  10  20  37  56  82 111 149 196 241 290 334
#     4  10  20  38  62  87 115 148 191 242 289 339
#     4  11  21  33  56  87 115 147 193 245 286 329
#     4   9  18  32  57  89 115 143 182 230 286 345
#
# _framework density 21.875031
#
# number of rings (size 3 to 8) (size 9 to 14) (size 15 to 20)
#    0.000    1.750    3.750    2.625    0.000    5.000 
#    0.000    1.250    0.000    0.375    0.000    7.000 
#    0.000    0.000    0.000    0.000    0.000    0.000 
#
# Total GULP energy -178489.984036 kJ/mol
# GULP energy per Si atom -5577.812001 kJ/mol
# Density = 2.182524 g / cm^3
# Si number density = 21.875031 Si / 1000 Ang^3
#
#
#
# Elastic Constant Matrix: (Units=GPa)
#
#
# Indices 1 2 3 4 5 6 
#
# 1 60.5282 4.9330 22.7836 0.0000 18.1627 0.0000
# 2 4.9330 60.9555 5.5191 0.0000 -0.4600 0.0000
# 3 22.7836 5.5191 62.5183 0.0000 9.1231 0.0000
# 4 0.0000 0.0000 0.0000 -31.6924 0.0000 7.5329
# 5 18.1627 -0.4600 9.1231 0.0000 33.1918 0.0000
# 6 0.0000 0.0000 0.0000 7.5329 0.0000 1.7160
#
#
#
# Elastic Compliance Matrix: (Units=1/GPa)
#
#
# Indices 1 2 3 4 5 6 
#
# 1 0.022168 -0.001288 -0.006451 0.000000 -0.010375 0.000000
# 2 -0.001288 0.016626 -0.001182 0.000000 0.001260 0.000000
# 3 -0.006451 -0.001182 0.018687 0.000000 -0.001623 0.000000
# 4 0.000000 0.000000 0.000000 -0.015442 0.000000 0.067785
# 5 -0.010375 0.001260 -0.001623 0.000000 0.036269 0.000000
# 6 0.000000 0.000000 0.000000 0.067785 0.000000 0.285185
#
#
# Mechanical properties :
#
#
# Convention : Reuss Voigt Hill
#
# Bulk Modulus (GPa) = 25.22787 27.83038 26.52913
# Shear Modulus (GPa) = 12.67270 10.69418 11.68344
#
# Velocity S-wave (km/s) = 2.40952 2.21345 2.31357
# Velocity P-wave (km/s) = 4.39304 4.39119 4.39212
#
# Compressibility (1/GPa) = 0.03963870
#
# Stress axis : x y z
#
# Youngs Moduli (GPa) = 45.11082 60.14597 53.51199
#
# Poissons Ratio (x) = 0.07748 0.34520
# Poissons Ratio (y) = 0.05811 0.06326
# Poissons Ratio (z) = 0.29100 0.07110
#
# Static dielectric constant tensor:
#      x y z
#    x 1.897440 0.000000 -0.083460 
#    y 0.000000 1.850110 0.000000 
#    z -0.083460 0.000000 1.668430 
# 
# From -- ./inp_files/51642.got.cif
#   From: 2010.05.17/outbox.cif.g08.bks.cpg/sg10_26_cif.got.tgz:51642.got - 2010.06.03 11:33:40.
