data_PCOD9150527
_publ_section_title
;
Structure prediction by ZEFSAII (Michael W. Deem and Ramdas Pophale) SiO2 
 PCOD9150527
Probable space group: P 2/M
;
_chemical_formula_sum "Si O2"
_cell_formula_units_Z 28
_cell_length_a 19.234024
_cell_length_b 8.946677
_cell_length_c 14.744472
_cell_angle_alpha 90.000000
_cell_angle_beta 33.519752
_cell_angle_gamma 90.000000
_cell_volume 1401.124567
_symmetry_space_group_name_H-M "P 2/M"
_symmetry_group_IT_number 10
_symmetry_cell_setting 'monoclinic'
loop_
_space_group_symop_operation_xyz
x,y,z
-x,y,-z
-x,-y,-z
x,-y,z
loop_
_atom_site_type_symbol
_atom_site_label
_atom_site_fract_x
_atom_site_fract_y
_atom_site_fract_z
Si Si1 0.648621 0.821940 0.348669
Si Si2 0.216753 0.178476 0.986419
Si Si3 0.695783 0.676911 0.924463
Si Si4 0.560382 0.172935 0.792830
Si Si5 0.819152 0.825626 0.625573
Si Si6 0.957514 0.324979 0.312891
Si Si7 0.300684 0.674291 0.518186
O O1 0.500000 0.792691 0.500000
O O2 0.699316 0.732820 0.379804
O O3 0.664762 0.000000 0.346800
O O4 0.719033 0.782926 0.178965
O O5 0.283810 0.259504 0.997271
O O6 0.073124 0.233015 0.146988
O O7 0.224958 0.000000 0.989495
O O8 0.707766 0.500000 0.908999
O O9 0.796024 0.751274 0.747589
O O10 0.555706 0.727847 0.048709
O O11 0.683882 0.184494 0.721158
O O12 0.604264 0.228378 0.646137
O O13 0.520183 0.000000 0.834779
O O14 0.916250 0.740534 0.455067
O O15 0.852227 0.000000 0.597714
O O16 0.990231 0.500000 0.285521
O O17 0.835916 0.311525 0.380103
O O18 0.337316 0.500000 0.473835
#
# Coordination Sequence:
#
# PCOD9150527 Si02
#       7
#     4   4   4   4   4   4   4
#     4  10  22  40  62  88 118 152 191 238 290 346
#     4  11  24  41  61  85 115 154 199 243 288 344
#     4  12  24  37  57  86 120 156 194 241 296 348
#     4  10  20  36  59  87 120 155 194 240 288 344
#     4  10  21  38  61  87 116 154 198 241 287 344
#     4  10  22  41  61  86 119 152 193 242 292 344
#     4  10  21  37  61  89 118 154 192 238 294 348
#
# _framework density 19.983948000000002
#
# number of rings (size 3 to 8) (size 9 to 14) (size 15 to 20)
#    0.000    1.571    0.000    4.714    0.000    8.857 
#    0.000    5.714    0.000    0.000    0.000    0.000 
#    0.000    0.000    0.000    0.000    0.000    0.000 
#
# Total GULP energy -156647.117557 kJ/mol
# GULP energy per Si atom -5594.539913 kJ/mol
# Density = 1.993846 g / cm^3
# Si number density = 19.983948 Si / 1000 Ang^3
#
#
#
# Elastic Constant Matrix: (Units=GPa)
#
#
# Indices 1 2 3 4 5 6 
#
# 1 53.8327 35.3485 23.1966 0.0000 17.7232 0.0000
# 2 35.3485 86.6124 27.3063 0.0000 16.1997 0.0000
# 3 23.1966 27.3063 103.5711 0.0000 20.5256 0.0000
# 4 0.0000 0.0000 0.0000 -0.0895 0.0000 6.7870
# 5 17.7232 16.1997 20.5256 0.0000 30.3703 0.0000
# 6 0.0000 0.0000 0.0000 6.7870 0.0000 28.8610
#
#
#
# Elastic Compliance Matrix: (Units=1/GPa)
#
#
# Indices 1 2 3 4 5 6 
#
# 1 0.028984 -0.009218 -0.001944 0.000000 -0.010683 0.000000
# 2 -0.009218 0.016267 -0.001814 0.000000 -0.002072 0.000000
# 3 -0.001944 -0.001814 0.011722 0.000000 -0.005821 0.000000
# 4 0.000000 0.000000 0.000000 -0.593264 0.000000 0.139514
# 5 -0.010683 -0.002072 -0.005821 0.000000 0.044200 0.000000
# 6 0.000000 0.000000 0.000000 0.139514 0.000000 0.001840
#
#
# Mechanical properties :
#
#
# Convention : Reuss Voigt Hill
#
# Bulk Modulus (GPa) = 32.23504 46.19099 39.21301
# Shear Modulus (GPa) = -11.01421 22.37267 5.67923
#
# Velocity S-wave (km/s) = -2.35021 3.34957 1.68762
# Velocity P-wave (km/s) = 2.96662 6.17444 4.84379
#
# Compressibility (1/GPa) = 0.03102215
#
# Stress axis : x y z
#
# Youngs Moduli (GPa) = 34.50204 61.47400 85.30773
#
# Poissons Ratio (x) = 0.56666 0.16583
# Poissons Ratio (y) = 0.31804 0.15472
# Poissons Ratio (z) = 0.06707 0.11149
#
# Static dielectric constant tensor:
#      x y z
#    x 1.718510 0.000000 -0.024960 
#    y 0.000000 1.665820 0.000000 
#    z -0.024960 0.000000 1.683240 
# 
# From -- ./inp_files/70165.got.cif
#   From: 2010.05.17/outbox.cif.g08.bks.cpg/sg10_36_cif.got.tgz:70165.got - 2010.06.03 11:33:40.
