data_PCOD9150144
_publ_section_title
;
Structure prediction by ZEFSAII (Michael W. Deem and Ramdas Pophale) SiO2 
 PCOD9150144
Probable space group: P 2/M
;
_chemical_formula_sum "Si O2"
_cell_formula_units_Z 28
_cell_length_a 14.540366
_cell_length_b 12.729485
_cell_length_c 7.789835
_cell_angle_alpha 90.000000
_cell_angle_beta 114.431715
_cell_angle_gamma 90.000000
_cell_volume 1312.722252
_symmetry_space_group_name_H-M "P 2/M"
_symmetry_group_IT_number 10
_symmetry_cell_setting 'monoclinic'
loop_
_space_group_symop_operation_xyz
x,y,z
-x,y,-z
-x,-y,-z
x,-y,z
loop_
_atom_site_type_symbol
_atom_site_label
_atom_site_fract_x
_atom_site_fract_y
_atom_site_fract_z
Si Si1 0.723687 0.317877 0.814545
Si Si2 0.971942 0.881410 0.780161
Si Si3 0.846816 0.500000 0.776656
Si Si4 0.775338 0.884084 0.422399
Si Si5 0.486101 0.382088 0.193444
Si Si6 0.870340 0.275186 0.238353
Si Si7 0.408547 0.813020 0.531749
Si Si8 0.942696 0.500000 0.236888
O O1 0.777277 0.397088 0.723094
O O2 0.631998 0.373681 0.846561
O O3 0.670237 0.225929 0.671123
O O4 0.805839 0.279228 0.013393
O O5 0.854079 0.876641 0.642125
O O6 0.030829 0.794572 0.718500
O O7 0.005697 0.000000 0.760933
O O8 0.000000 0.864578 0.000000
O O9 0.937981 0.500000 0.712578
O O10 0.893968 0.500000 0.006864
O O11 0.803893 0.786427 0.324935
O O12 0.659378 0.876319 0.388673
O O13 0.793373 0.000000 0.357398
O O14 0.521822 0.500000 0.267268
O O15 0.544709 0.290743 0.340281
O O16 0.500000 0.368311 0.000000
O O17 0.903828 0.394622 0.297882
O O18 0.500000 0.866391 0.500000
#
# Coordination Sequence:
#
# PCOD9150144 Si02
#       8
#     4   4   2   4   4   4   4   2
#     4  10  20  35  61  88 126 167 210 252 303 373
#     4  10  22  40  65  92 120 164 217 260 302 363
#     4   9  18  34  53  86 124 172 206 246 295 357
#     4  11  24  44  66  90 124 166 208 261 318 368
#     4  10  20  36  59  88 127 169 210 254 305 372
#     4  11  22  39  62  92 130 163 205 249 316 376
#     4  10  23  39  62  93 120 158 213 264 312 364
#     4   9  22  34  56  89 128 167 204 244 307 365
#
# _framework density 21.329719999999998
#
# number of rings (size 3 to 8) (size 9 to 14) (size 15 to 20)
#    0.000    1.857    0.714    2.571    7.000    2.286 
#    1.286    2.143    0.000    9.000    0.000    0.000 
#    0.000    0.000    0.000    0.000    0.000    0.000 
#
# Total GULP energy -156433.355727 kJ/mol
# GULP energy per Si atom -5586.905562 kJ/mol
# Density = 2.128117 g / cm^3
# Si number density = 21.329720 Si / 1000 Ang^3
#
#
#
# Elastic Constant Matrix: (Units=GPa)
#
#
# Indices 1 2 3 4 5 6 
#
# 1 135.1268 67.5988 4.4720 0.0000 4.9037 0.0000
# 2 67.5988 124.7988 27.7184 0.0000 -10.9495 0.0000
# 3 4.4720 27.7184 53.2420 0.0000 8.6600 0.0000
# 4 0.0000 0.0000 0.0000 4.1318 0.0000 5.7607
# 5 4.9037 -10.9495 8.6600 0.0000 29.0399 0.0000
# 6 0.0000 0.0000 0.0000 5.7607 0.0000 33.7786
#
#
#
# Elastic Compliance Matrix: (Units=1/GPa)
#
#
# Indices 1 2 3 4 5 6 
#
# 1 0.011213 -0.007452 0.003892 0.000000 -0.005864 0.000000
# 2 -0.007452 0.014784 -0.008599 0.000000 0.009397 0.000000
# 3 0.003892 -0.008599 0.024768 0.000000 -0.011285 0.000000
# 4 0.000000 0.000000 0.000000 0.317520 0.000000 -0.054150
# 5 -0.005864 0.009397 -0.011285 0.000000 0.042334 0.000000
# 6 0.000000 0.000000 0.000000 -0.054150 0.000000 0.038839
#
#
# Mechanical properties :
#
#
# Convention : Reuss Voigt Hill
#
# Bulk Modulus (GPa) = 37.81474 56.97178 47.39326
# Shear Modulus (GPa) = 10.36073 27.61530 18.98801
#
# Velocity S-wave (km/s) = 2.20635 3.60208 2.98688
# Velocity P-wave (km/s) = 4.92522 6.63837 5.84490
#
# Compressibility (1/GPa) = 0.02644471
#
# Stress axis : x y z
#
# Youngs Moduli (GPa) = 89.18605 67.64131 40.37511
#
# Poissons Ratio (x) = 0.50408 -0.15713
# Poissons Ratio (y) = 0.66463 0.34719
# Poissons Ratio (z) = -0.34708 0.58166
#
# Static dielectric constant tensor:
#      x y z
#    x 1.781880 0.000000 -0.014470 
#    y 0.000000 1.768790 0.000000 
#    z -0.014470 0.000000 1.766200 
# 
# From -- ./inp_files/28722.got.cif
#   From: 2010.05.17/outbox.cif.g08.bks.cpg/sg10_15_cif.got.tgz:28722.got - 2010.06.03 11:33:40.
