data_PCOD9150452
_publ_section_title
;
Structure prediction by ZEFSAII (Michael W. Deem and Ramdas Pophale) SiO2 
 PCOD9150452
Probable space group: P 2/M
;
_chemical_formula_sum "Si O2"
_cell_formula_units_Z 32
_cell_length_a 10.827281
_cell_length_b 9.104622
_cell_length_c 28.486424
_cell_angle_alpha 90.000000
_cell_angle_beta 150.350701
_cell_angle_gamma 90.000000
_cell_volume 1389.159899
_symmetry_space_group_name_H-M "P 2/M"
_symmetry_group_IT_number 10
_symmetry_cell_setting 'monoclinic'
loop_
_space_group_symop_operation_xyz
x,y,z
-x,y,-z
-x,-y,-z
x,-y,z
loop_
_atom_site_type_symbol
_atom_site_label
_atom_site_fract_x
_atom_site_fract_y
_atom_site_fract_z
Si Si1 0.780199 0.168470 0.157368
Si Si2 0.505536 0.668517 0.803526
Si Si3 0.507029 0.326304 0.644090
Si Si4 0.249854 0.168689 0.637182
Si Si5 0.966108 0.666087 0.678785
Si Si6 0.754084 0.173686 0.969166
Si Si7 0.282546 0.168670 0.485206
Si Si8 0.958575 0.174496 0.847796
O O1 0.503509 0.185132 0.086237
O O2 0.963467 0.271939 0.247273
O O3 0.810030 0.191321 0.111952
O O4 0.856514 0.000000 0.192393
O O5 0.562345 0.500000 0.808622
O O6 0.451059 0.774916 0.741876
O O7 0.703031 0.735654 0.905301
O O8 0.236165 0.665289 0.741322
O O9 0.522708 0.500000 0.647497
O O10 0.280235 0.272496 0.602529
O O11 0.465279 0.261059 0.578602
O O12 0.739563 0.256743 0.748542
O O13 0.983284 0.173281 0.574696
O O14 0.295584 0.000000 0.638065
O O15 0.873407 0.500000 0.650186
O O16 0.783364 0.764585 0.587139
O O17 0.789773 0.000000 0.970530
O O18 0.965131 0.226018 0.075197
O O19 0.362362 0.000000 0.508558
O O20 0.906133 0.000000 0.833565
#
# Coordination Sequence:
#
# PCOD9150452 Si02
#       8
#     4   4   4   4   4   4   4   4
#     4   9  17  32  56  83 108 138 178 221 264 311
#     4   9  17  30  51  81 113 140 169 212 265 316
#     4  12  25  38  53  76 109 144 177 218 266 316
#     4  10  20  36  59  83 106 136 176 219 262 313
#     4   9  17  30  51  81 113 140 169 212 265 316
#     4   9  17  32  56  83 108 138 178 221 264 311
#     4  10  20  36  59  83 106 136 176 219 262 313
#     4  10  21  37  55  76 107 145 183 222 262 310
#
# _framework density 23.035506000000002
#
# number of rings (size 3 to 8) (size 9 to 14) (size 15 to 20)
#    0.000    2.250    0.000    3.375    0.000    8.500 
#    0.000    1.250    0.000   11.250    0.000    0.000 
#    0.000    0.000    0.000    0.000    0.000    0.000 
#
# Total GULP energy -179047.505868 kJ/mol
# GULP energy per Si atom -5595.234558 kJ/mol
# Density = 2.298308 g / cm^3
# Si number density = 23.035506 Si / 1000 Ang^3
#
#
#
# Elastic Constant Matrix: (Units=GPa)
#
#
# Indices 1 2 3 4 5 6 
#
# 1 74.5479 12.0600 22.2110 0.0000 -10.1653 0.0000
# 2 12.0600 129.0932 68.6628 0.0000 -31.3201 0.0000
# 3 22.2110 68.6628 148.5369 0.0000 -30.4696 0.0000
# 4 0.0000 0.0000 0.0000 106.7138 0.0000 -68.0464
# 5 -10.1653 -31.3201 -30.4696 0.0000 43.9940 0.0000
# 6 0.0000 0.0000 0.0000 -68.0464 0.0000 66.0156
#
#
#
# Elastic Compliance Matrix: (Units=1/GPa)
#
#
# Indices 1 2 3 4 5 6 
#
# 1 0.014207 0.000122 -0.001736 0.000000 0.002167 0.000000
# 2 0.000122 0.011176 -0.004134 0.000000 0.005122 0.000000
# 3 -0.001736 -0.004134 0.009578 0.000000 0.003289 0.000000
# 4 0.000000 0.000000 0.000000 0.027342 0.000000 0.028183
# 5 0.002167 0.005122 0.003289 0.000000 0.029155 0.000000
# 6 0.000000 0.000000 0.000000 0.028183 0.000000 0.044198
#
#
# Mechanical properties :
#
#
# Convention : Reuss Voigt Hill
#
# Bulk Modulus (GPa) = 42.61724 62.00508 52.31116
# Shear Modulus (GPa) = 32.26348 59.96097 46.11222
#
# Velocity S-wave (km/s) = 3.74652 5.10748 4.47899
# Velocity P-wave (km/s) = 6.10377 7.85859 7.03610
#
# Compressibility (1/GPa) = 0.02346468
#
# Stress axis : x y z
#
# Youngs Moduli (GPa) = 70.38645 89.47447 104.40964
#
# Poissons Ratio (x) = -0.01092 0.18129
# Poissons Ratio (y) = -0.00859 0.43163
# Poissons Ratio (z) = 0.12221 0.36989
#
# Static dielectric constant tensor:
#      x y z
#    x 1.946570 0.000000 0.061100 
#    y 0.000000 1.774830 0.000000 
#    z 0.061100 0.000000 1.848120 
# 
# From -- ./inp_files/95023.got.cif
#   From: 2010.05.17/outbox.cif.g08.bks.cpg/sg10_48_cif.got.tgz:95023.got - 2010.06.03 11:33:40.
