data_PCOD9150488
_publ_section_title
;
Structure prediction by ZEFSAII (Michael W. Deem and Ramdas Pophale) SiO2 
 PCOD9150488
Probable space group: P 2/M
;
_chemical_formula_sum "Si O2"
_cell_formula_units_Z 22
_cell_length_a 10.977576
_cell_length_b 21.104908
_cell_length_c 11.228290
_cell_angle_alpha 90.000000
_cell_angle_beta 154.541568
_cell_angle_gamma 90.000000
_cell_volume 1118.218546
_symmetry_space_group_name_H-M "P 2/M"
_symmetry_group_IT_number 10
_symmetry_cell_setting 'monoclinic'
loop_
_space_group_symop_operation_xyz
x,y,z
-x,y,-z
-x,-y,-z
x,-y,z
loop_
_atom_site_type_symbol
_atom_site_label
_atom_site_fract_x
_atom_site_fract_y
_atom_site_fract_z
Si Si1 0.768035 0.572535 0.901730
Si Si2 0.782835 0.344256 0.608696
Si Si3 0.893598 0.759819 0.539002
Si Si4 0.000000 0.754430 0.000000
Si Si5 0.813721 0.927955 0.222426
Si Si6 0.323291 0.821565 0.080785
O O1 0.697152 0.500000 0.867950
O O2 0.491582 0.611783 0.622023
O O3 0.000000 0.571372 0.000000
O O4 0.941141 0.611327 0.152851
O O5 0.753300 0.303974 0.463001
O O6 0.839091 0.292615 0.764789
O O7 0.000000 0.759030 0.500000
O O8 0.174739 0.770516 0.864111
O O9 0.659326 0.813297 0.363883
O O10 0.789379 0.799980 0.889251
O O11 0.787472 0.886246 0.079114
O O12 0.000000 0.904404 0.500000
O O13 0.908067 0.000000 0.279199
O O14 0.500000 0.929288 0.000000
#
# Coordination Sequence:
#
# PCOD9150488 Si02
#       6
#     4   4   4   2   4   4
#     4  11  23  36  57  84 112 144 187 234 280 335
#     4  11  22  38  57  80 118 144 183 236 282 345
#     4  11  23  37  58  85 111 152 191 232 284 335
#     4  10  24  38  56  88 118 152 186 222 302 346
#     4  10  20  36  59  85 113 150 196 239 277 319
#     4  11  22  36  58  83 119 150 185 240 279 343
#
# _framework density 19.674150000000001
#
# number of rings (size 3 to 8) (size 9 to 14) (size 15 to 20)
#    0.000    1.273    0.909    6.545    2.545    3.636 
#    0.000    0.455    0.000    3.273    0.000   10.182 
#    0.000    0.000    0.000    0.000    0.000    0.000 
#
# Total GULP energy -122723.906946 kJ/mol
# GULP energy per Si atom -5578.359407 kJ/mol
# Density = 1.962937 g / cm^3
# Si number density = 19.674150 Si / 1000 Ang^3
#
#
#
# Elastic Constant Matrix: (Units=GPa)
#
#
# Indices 1 2 3 4 5 6 
#
# 1 111.7578 49.3275 22.9760 0.0000 1.8354 0.0000
# 2 49.3275 137.0048 26.3672 0.0000 -1.2390 0.0000
# 3 22.9760 26.3672 104.1089 0.0000 10.8524 0.0000
# 4 0.0000 0.0000 0.0000 27.2068 0.0000 2.5674
# 5 1.8354 -1.2390 10.8524 0.0000 16.3474 0.0000
# 6 0.0000 0.0000 0.0000 2.5674 0.0000 15.7482
#
#
#
# Elastic Compliance Matrix: (Units=1/GPa)
#
#
# Indices 1 2 3 4 5 6 
#
# 1 0.010855 -0.003641 -0.001416 0.000000 -0.000555 0.000000
# 2 -0.003641 0.008956 -0.001695 0.000000 0.002213 0.000000
# 3 -0.001416 -0.001695 0.011113 0.000000 -0.007347 0.000000
# 4 0.000000 0.000000 0.000000 0.037330 0.000000 -0.006086
# 5 -0.000555 0.002213 -0.007347 0.000000 0.066279 0.000000
# 6 0.000000 0.000000 0.000000 -0.006086 0.000000 0.064492
#
#
# Mechanical properties :
#
#
# Convention : Reuss Voigt Hill
#
# Bulk Modulus (GPa) = 57.40444 61.13474 59.26959
# Shear Modulus (GPa) = 22.90052 28.80721 25.85387
#
# Velocity S-wave (km/s) = 3.41543 3.83066 3.62899
# Velocity P-wave (km/s) = 6.69287 7.12084 6.91017
#
# Compressibility (1/GPa) = 0.01742026
#
# Stress axis : x y z
#
# Youngs Moduli (GPa) = 92.12281 111.65461 89.98448
#
# Poissons Ratio (x) = 0.40652 0.12739
# Poissons Ratio (y) = 0.33541 0.15257
# Poissons Ratio (z) = 0.13042 0.18931
#
# Static dielectric constant tensor:
#      x y z
#    x 1.731290 0.000000 -0.007930 
#    y 0.000000 1.756930 0.000000 
#    z -0.007930 0.000000 1.712450 
# 
# From -- ./inp_files/48119.got.cif
#   From: 2010.05.17/outbox.cif.g08.bks.cpg/sg10_25_cif.got.tgz:48119.got - 2010.06.03 11:33:40.
