data_PCOD9150987
_publ_section_title
;
Structure prediction by ZEFSAII (Michael W. Deem and Ramdas Pophale) SiO2 
 PCOD9150987
Probable space group: P 2/M
;
_chemical_formula_sum "Si O2"
_cell_formula_units_Z 28
_cell_length_a 11.539708
_cell_length_b 7.854962
_cell_length_c 28.448381
_cell_angle_alpha 90.000000
_cell_angle_beta 29.455526
_cell_angle_gamma 90.000000
_cell_volume 1268.057399
_symmetry_space_group_name_H-M "P 2/M"
_symmetry_group_IT_number 10
_symmetry_cell_setting 'monoclinic'
loop_
_space_group_symop_operation_xyz
x,y,z
-x,y,-z
-x,-y,-z
x,-y,z
loop_
_atom_site_type_symbol
_atom_site_label
_atom_site_fract_x
_atom_site_fract_y
_atom_site_fract_z
Si Si1 0.012573 0.696269 0.942653
Si Si2 0.495851 0.199119 0.902055
Si Si3 0.760392 0.704131 0.394805
Si Si4 0.219517 0.704482 0.289556
Si Si5 0.058644 0.800456 0.199950
Si Si6 0.277026 0.802426 0.760403
Si Si7 0.776694 0.299436 0.606562
O O1 0.090438 0.500000 0.918857
O O2 0.188608 0.785856 0.844916
O O3 0.752159 0.708071 0.012830
O O4 0.000000 0.767277 0.000000
O O5 0.616854 0.214460 0.808075
O O6 0.691567 0.268961 0.869460
O O7 0.450337 0.000000 0.928304
O O8 0.500000 0.764602 0.500000
O O9 0.749022 0.500000 0.390901
O O10 0.949626 0.733544 0.369194
O O11 0.875226 0.783675 0.307793
O O12 0.264373 0.500000 0.271636
O O13 0.255012 0.770242 0.329585
O O14 0.926009 0.727170 0.201570
O O15 0.104443 0.000000 0.174553
O O16 0.532142 0.719521 0.665605
O O17 0.304249 0.000000 0.738495
O O18 0.824350 0.500000 0.596614
O O19 0.000000 0.226348 0.500000
#
# Coordination Sequence:
#
# PCOD9150987 Si02
#       7
#     4   4   4   4   4   4   4
#     4  11  24  41  62  88 118 151 189 236 290 344
#     4  10  20  37  61  86 114 150 191 234 286 343
#     4   9  18  31  54  83 109 144 192 240 281 333
#     4   9  18  34  53  80 114 146 186 236 286 337
#     4   9  21  39  56  81 118 155 188 233 290 342
#     4  11  24  41  60  85 118 153 194 240 286 342
#     4  10  22  38  58  82 114 155 193 236 292 344
#
# _framework density 22.081018
#
# number of rings (size 3 to 8) (size 9 to 14) (size 15 to 20)
#    0.000    2.143    0.000    2.143    2.000    8.000 
#    0.000    2.857    0.000    0.000    0.000    0.000 
#    0.000    0.000    0.000    0.000    0.000    0.000 
#
# Total GULP energy -156425.410481 kJ/mol
# GULP energy per Si atom -5586.621803 kJ/mol
# Density = 2.203076 g / cm^3
# Si number density = 22.081018 Si / 1000 Ang^3
#
#
#
# Elastic Constant Matrix: (Units=GPa)
#
#
# Indices 1 2 3 4 5 6 
#
# 1 110.6816 -0.5300 37.0736 0.0000 2.2585 0.0000
# 2 -0.5300 23.5276 -8.7212 0.0000 1.7179 0.0000
# 3 37.0736 -8.7212 77.9017 0.0000 -23.3379 0.0000
# 4 0.0000 0.0000 0.0000 -8.3379 0.0000 -7.2946
# 5 2.2585 1.7179 -23.3379 0.0000 27.3754 0.0000
# 6 0.0000 0.0000 0.0000 -7.2946 0.0000 19.4745
#
#
#
# Elastic Compliance Matrix: (Units=1/GPa)
#
#
# Indices 1 2 3 4 5 6 
#
# 1 0.011978 -0.002238 -0.008333 0.000000 -0.007952 0.000000
# 2 -0.002238 0.044839 0.007114 0.000000 0.003436 0.000000
# 3 -0.008333 0.007114 0.023732 0.000000 0.020473 0.000000
# 4 0.000000 0.000000 0.000000 -0.090332 0.000000 -0.033836
# 5 -0.007952 0.003436 0.020473 0.000000 0.054423 0.000000
# 6 0.000000 0.000000 0.000000 -0.033836 0.000000 0.038675
#
#
# Mechanical properties :
#
#
# Convention : Reuss Voigt Hill
#
# Bulk Modulus (GPa) = 13.58050 29.75064 21.66557
# Shear Modulus (GPa) = 43.56393 19.98829 31.77611
#
# Velocity S-wave (km/s) = 4.44657 3.01196 3.79762
# Velocity P-wave (km/s) = 5.70318 5.05950 5.39096
#
# Compressibility (1/GPa) = 0.07363498
#
# Stress axis : x y z
#
# Youngs Moduli (GPa) = 83.48886 22.30199 42.13691
#
# Poissons Ratio (x) = 0.04992 0.35112
# Poissons Ratio (y) = 0.18689 -0.29978
# Poissons Ratio (z) = 0.69571 -0.15867
#
# Static dielectric constant tensor:
#      x y z
#    x 1.844980 0.000000 -0.004050 
#    y 0.000000 1.792460 0.000000 
#    z -0.004050 0.000000 1.776370 
# 
# From -- ./inp_files/92611.got.cif
#   From: 2010.05.17/outbox.cif.g08.bks.cpg/sg10_47_cif.got.tgz:92611.got - 2010.06.03 11:33:40.
