data_PCOD9150258
_publ_section_title
;
Structure prediction by ZEFSAII (Michael W. Deem and Ramdas Pophale) SiO2 
 PCOD9150258
Probable space group: P 2/M
;
_chemical_formula_sum "Si O2"
_cell_formula_units_Z 32
_cell_length_a 9.242832
_cell_length_b 21.490209
_cell_length_c 16.077379
_cell_angle_alpha 90.000000
_cell_angle_beta 150.974954
_cell_angle_gamma 90.000000
_cell_volume 1549.439028
_symmetry_space_group_name_H-M "P 2/M"
_symmetry_group_IT_number 10
_symmetry_cell_setting 'monoclinic'
loop_
_space_group_symop_operation_xyz
x,y,z
-x,y,-z
-x,-y,-z
x,-y,z
loop_
_atom_site_type_symbol
_atom_site_label
_atom_site_fract_x
_atom_site_fract_y
_atom_site_fract_z
Si Si1 0.352797 0.626556 0.178094
Si Si2 0.146551 0.926826 0.157737
Si Si3 0.724307 0.426094 0.035129
Si Si4 0.843685 0.345305 0.649713
Si Si5 0.765571 0.735466 0.457073
Si Si6 0.853551 0.924866 0.182787
Si Si7 0.156300 0.432164 0.499264
Si Si8 0.201752 0.122035 0.518690
O O1 0.506811 0.688438 0.294527
O O2 0.492902 0.572689 0.306087
O O3 0.432494 0.602021 0.125795
O O4 0.000000 0.631390 0.000000
O O5 0.501198 0.919263 0.331473
O O6 0.012722 0.902625 0.177550
O O7 0.070336 0.000000 0.120532
O O8 0.000000 0.899623 0.000000
O O9 0.814794 0.500000 0.067872
O O10 0.966957 0.371250 0.178009
O O11 0.500000 0.426249 0.000000
O O12 0.500000 0.336434 0.500000
O O13 0.905170 0.289260 0.614851
O O14 0.885377 0.402740 0.609310
O O15 0.679731 0.807019 0.426035
O O16 0.000000 0.736302 0.500000
O O17 0.003927 0.894033 0.338762
O O18 0.891670 0.000000 0.209566
O O19 0.500000 0.912356 0.000000
O O20 0.027958 0.500000 0.431237
O O21 0.000000 0.399996 0.500000
O O22 0.000000 0.113811 0.500000
#
# Coordination Sequence:
#
# PCOD9150258 Si02
#       8
#     4   4   4   4   4   4   4   4
#     4  11  22  37  57  80 108 142 184 236 291 345
#     4  10  21  38  62  94 132 171 209 255 310 366
#     4  11  22  35  55  84 111 136 175 230 290 349
#     4  11  22  36  55  80 109 141 180 233 292 344
#     4  10  23  44  61  76 109 158 203 236 283 359
#     4  10  21  39  64  96 133 169 207 254 312 375
#     4  10  20  36  57  77 105 149 187 219 280 367
#     4  11  23  39  62  91 122 164 217 267 314 368
#
# _framework density 20.652633999999999
#
# number of rings (size 3 to 8) (size 9 to 14) (size 15 to 20)
#    0.000    1.500    0.000    6.750    0.000    9.500 
#    0.000    4.375    0.000    0.000    0.000    0.000 
#    0.000    0.000    0.000    0.000    0.000    0.000 
#
# Total GULP energy -178296.686685 kJ/mol
# GULP energy per Si atom -5571.771459 kJ/mol
# Density = 2.060563 g / cm^3
# Si number density = 20.652634 Si / 1000 Ang^3
#
#
#
# Elastic Constant Matrix: (Units=GPa)
#
#
# Indices 1 2 3 4 5 6 
#
# 1 114.2309 19.1179 39.8723 0.0000 -17.7868 0.0000
# 2 19.1179 37.7937 3.5736 0.0000 -10.2264 0.0000
# 3 39.8723 3.5736 115.2461 0.0000 -15.6466 0.0000
# 4 0.0000 0.0000 0.0000 8.6283 0.0000 -19.1371
# 5 -17.7868 -10.2264 -15.6466 0.0000 39.1402 0.0000
# 6 0.0000 0.0000 0.0000 -19.1371 0.0000 38.1580
#
#
#
# Elastic Compliance Matrix: (Units=1/GPa)
#
#
# Indices 1 2 3 4 5 6 
#
# 1 0.011085 -0.004616 -0.003354 0.000000 0.002491 0.000000
# 2 -0.004616 0.030397 0.001531 0.000000 0.006456 0.000000
# 3 -0.003354 0.001531 0.010190 0.000000 0.002950 0.000000
# 4 0.000000 0.000000 0.000000 -1.031537 0.000000 -0.517341
# 5 0.002491 0.006456 0.002950 0.000000 0.029547 0.000000
# 6 0.000000 0.000000 0.000000 -0.517341 0.000000 -0.233252
#
#
# Mechanical properties :
#
#
# Convention : Reuss Voigt Hill
#
# Bulk Modulus (GPa) = 25.77712 43.59981 34.68846
# Shear Modulus (GPa) = -4.31869 30.83242 13.25687
#
# Velocity S-wave (km/s) = -1.44763 3.86800 2.53632
# Velocity P-wave (km/s) = 3.11676 6.41135 5.04081
#
# Compressibility (1/GPa) = 0.03879410
#
# Stress axis : x y z
#
# Youngs Moduli (GPa) = 90.20933 32.89821 98.13112
#
# Poissons Ratio (x) = 0.15187 0.32913
# Poissons Ratio (y) = 0.41644 -0.15025
# Poissons Ratio (z) = 0.30256 -0.05037
#
# Static dielectric constant tensor:
#      x y z
#    x 1.773080 0.000000 0.012980 
#    y 0.000000 1.753380 0.000000 
#    z 0.012980 0.000000 1.789380 
# 
# From -- ./inp_files/62718.got.cif
#   From: 2010.05.17/outbox.cif.g08.bks.cpg/sg10_32_cif.got.tgz:62718.got - 2010.06.03 11:33:40.
