data_PCOD9150711
_publ_section_title
;
Structure prediction by ZEFSAII (Michael W. Deem and Ramdas Pophale) SiO2 
 PCOD9150711
Probable space group: P 2/M
;
_chemical_formula_sum "Si O2"
_cell_formula_units_Z 20
_cell_length_a 9.626361
_cell_length_b 17.016639
_cell_length_c 9.981612
_cell_angle_alpha 90.000000
_cell_angle_beta 136.522657
_cell_angle_gamma 90.000000
_cell_volume 1125.039505
_symmetry_space_group_name_H-M "P 2/M"
_symmetry_group_IT_number 10
_symmetry_cell_setting 'monoclinic'
loop_
_space_group_symop_operation_xyz
x,y,z
-x,y,-z
-x,-y,-z
x,-y,z
loop_
_atom_site_type_symbol
_atom_site_label
_atom_site_fract_x
_atom_site_fract_y
_atom_site_fract_z
Si Si1 0.630533 0.500000 0.952427
Si Si2 0.084680 0.086965 0.410731
Si Si3 0.188998 0.090644 0.032300
Si Si4 0.454392 0.800459 0.625161
Si Si5 0.428631 0.616559 0.605214
Si Si6 0.934844 0.500000 0.609915
O O1 0.568648 0.572594 0.812662
O O2 0.500000 0.500000 0.000000
O O3 0.864054 0.500000 0.159454
O O4 0.249954 0.153199 0.509537
O O5 0.000000 0.087707 0.500000
O O6 0.174169 0.000000 0.444977
O O7 0.903274 0.097089 0.179740
O O8 0.363795 0.153423 0.176389
O O9 0.257970 0.000000 0.102738
O O10 0.000000 0.104346 0.000000
O O11 0.500000 0.805964 0.500000
O O12 0.431551 0.708625 0.640630
O O13 0.500000 0.605971 0.500000
O O14 0.210178 0.574897 0.464773
O O15 0.000000 0.500000 0.500000
#
# Coordination Sequence:
#
# PCOD9150711 Si02
#       6
#     2   4   4   4   4   2
#     4  11  21  43  68  91 116 155 197 240 295 365
#     4  10  22  39  57  86 123 161 205 251 301 350
#     4  10  20  36  62  89 116 161 215 247 285 356
#     4  11  22  39  61  88 124 160 197 253 301 350
#     4  10  24  41  60  95 124 150 203 247 294 364
#     4  11  21  41  68  85 118 157 189 240 301 359
#
# _framework density 17.777152999999998
#
# number of rings (size 3 to 8) (size 9 to 14) (size 15 to 20)
#    0.000    1.600    4.000    1.800    0.000    5.600 
#    3.600    3.000    0.000    0.000    0.000    0.000 
#    0.000    0.000    0.000    0.000    0.000    0.000 
#
# Total GULP energy -111612.550491 kJ/mol
# GULP energy per Si atom -5580.627525 kJ/mol
# Density = 1.773669 g / cm^3
# Si number density = 17.777153 Si / 1000 Ang^3
#
#
#
# Elastic Constant Matrix: (Units=GPa)
#
#
# Indices 1 2 3 4 5 6 
#
# 1 71.9779 74.3043 49.6757 0.0000 6.3766 0.0000
# 2 74.3043 188.5181 89.6521 0.0000 15.0569 0.0000
# 3 49.6757 89.6521 146.5677 0.0000 7.5555 0.0000
# 4 0.0000 0.0000 0.0000 227.3735 0.0000 -14.1862
# 5 6.3766 15.0569 7.5555 0.0000 35.9392 0.0000
# 6 0.0000 0.0000 0.0000 -14.1862 0.0000 22.0061
#
#
#
# Elastic Compliance Matrix: (Units=1/GPa)
#
#
# Indices 1 2 3 4 5 6 
#
# 1 0.024565 -0.008049 -0.003388 0.000000 -0.000274 0.000000
# 2 -0.008049 0.010293 -0.003457 0.000000 -0.002158 0.000000
# 3 -0.003388 -0.003457 0.010089 0.000000 -0.000072 0.000000
# 4 0.000000 0.000000 0.000000 0.004582 0.000000 0.002954
# 5 -0.000274 -0.002158 -0.000072 0.000000 0.028792 0.000000
# 6 0.000000 0.000000 0.000000 0.002954 0.000000 0.047346
#
#
# Mechanical properties :
#
#
# Convention : Reuss Voigt Hill
#
# Bulk Modulus (GPa) = 65.96595 92.70311 79.33453
# Shear Modulus (GPa) = 31.15060 69.95919 50.55489
#
# Velocity S-wave (km/s) = 4.19057 6.28004 5.33853
# Velocity P-wave (km/s) = 7.78474 10.23942 9.09527
#
# Compressibility (1/GPa) = 0.01515934
#
# Stress axis : x y z
#
# Youngs Moduli (GPa) = 40.70818 97.14932 99.11438
#
# Poissons Ratio (x) = 0.78197 0.33581
# Poissons Ratio (y) = 0.32767 0.34263
# Poissons Ratio (z) = 0.13793 0.33584
#
# Static dielectric constant tensor:
#      x y z
#    x 1.593580 0.000000 -0.005760 
#    y 0.000000 1.622940 0.000000 
#    z -0.005760 0.000000 1.590330 
# 
# From -- ./inp_files/19751.got.cif
#   From: 2010.05.17/outbox.cif.g08.bks.cpg/sg10_10_cif.got.tgz:19751.got - 2010.06.03 11:33:40.
