data_PCOD9150171
_publ_section_title
;
Structure prediction by ZEFSAII (Michael W. Deem and Ramdas Pophale) SiO2 
 PCOD9150171
Probable space group: P 2/M
;
_chemical_formula_sum "Si O2"
_cell_formula_units_Z 22
_cell_length_a 5.284122
_cell_length_b 18.340276
_cell_length_c 12.085293
_cell_angle_alpha 90.000000
_cell_angle_beta 75.970229
_cell_angle_gamma 90.000000
_cell_volume 1136.275598
_symmetry_space_group_name_H-M "P 2/M"
_symmetry_group_IT_number 10
_symmetry_cell_setting 'monoclinic'
loop_
_space_group_symop_operation_xyz
x,y,z
-x,y,-z
-x,-y,-z
x,-y,z
loop_
_atom_site_type_symbol
_atom_site_label
_atom_site_fract_x
_atom_site_fract_y
_atom_site_fract_z
Si Si1 0.291570 0.500000 0.920706
Si Si2 0.219805 0.340335 0.878295
Si Si3 0.266441 0.874264 0.970406
Si Si4 0.126543 0.854303 0.371588
Si Si5 0.335842 0.916153 0.724915
Si Si6 0.233607 0.253032 0.164205
O O1 0.307845 0.424037 0.853106
O O2 0.500000 0.500000 0.000000
O O3 0.000000 0.500000 0.000000
O O4 0.491857 0.297267 0.870774
O O5 0.030188 0.301702 0.810729
O O6 0.000000 0.341167 0.000000
O O7 0.228115 0.805009 0.059889
O O8 0.500000 0.916067 0.000000
O O9 0.323581 0.864438 0.835325
O O10 0.000000 0.915720 0.000000
O O11 0.389072 0.900449 0.362503
O O12 0.210305 0.789473 0.281475
O O13 0.000000 0.830848 0.500000
O O14 0.909150 0.899012 0.326298
O O15 0.329053 0.000000 0.761649
#
# Coordination Sequence:
#
# PCOD9150171 Si02
#       6
#     2   4   4   4   4   4
#     4  10  20  36  48  90 133 172 197 222 280 370
#     4  11  22  33  61  89 130 165 194 234 293 361
#     4  12  21  37  60  88 123 145 193 240 300 373
#     4  12  27  46  63  86 120 156 213 265 296 362
#     4  12  26  44  66  89 118 157 200 254 318 376
#     4  12  22  38  61  92 119 166 197 246 308 353
#
# _framework density 19.361502000000002
#
# number of rings (size 3 to 8) (size 9 to 14) (size 15 to 20)
#    0.000    0.364    3.636    7.636    0.000    2.909 
#    0.000    0.000    0.000    0.000    0.000    3.818 
#    0.000    0.000    0.000    0.000    0.000    0.000 
#
# Total GULP energy -122632.675065 kJ/mol
# GULP energy per Si atom -5574.212503 kJ/mol
# Density = 1.931743 g / cm^3
# Si number density = 19.361502 Si / 1000 Ang^3
#
#
#
# Elastic Constant Matrix: (Units=GPa)
#
#
# Indices 1 2 3 4 5 6 
#
# 1 181.8210 49.7349 17.4153 0.0000 -16.1952 0.0000
# 2 49.7349 139.1951 37.5453 0.0000 -4.8783 0.0000
# 3 17.4153 37.5453 94.5958 0.0000 -16.1476 0.0000
# 4 0.0000 0.0000 0.0000 266.6544 0.0000 376.4448
# 5 -16.1952 -4.8783 -16.1476 0.0000 21.9924 0.0000
# 6 0.0000 0.0000 0.0000 376.4448 0.0000 539.1019
#
#
#
# Elastic Compliance Matrix: (Units=1/GPa)
#
#
# Indices 1 2 3 4 5 6 
#
# 1 0.006493 -0.002294 0.000508 0.000000 0.004645 0.000000
# 2 -0.002294 0.008864 -0.003485 0.000000 -0.002282 0.000000
# 3 0.000508 -0.003485 0.013483 0.000000 0.009501 0.000000
# 4 0.000000 0.000000 0.000000 0.263845 0.000000 -0.184238
# 5 0.004645 -0.002282 0.009501 0.000000 0.055361 0.000000
# 6 0.000000 0.000000 0.000000 -0.184238 0.000000 0.130505
#
#
# Mechanical properties :
#
#
# Convention : Reuss Voigt Hill
#
# Bulk Modulus (GPa) = 54.65414 69.44476 62.04945
# Shear Modulus (GPa) = 10.09710 186.27751 98.18730
#
# Velocity S-wave (km/s) = 2.28612 9.81932 7.12901
# Velocity P-wave (km/s) = 5.93785 12.82592 9.99405
#
# Compressibility (1/GPa) = 0.01829688
#
# Stress axis : x y z
#
# Youngs Moduli (GPa) = 154.02323 112.81620 74.16820
#
# Poissons Ratio (x) = 0.25881 -0.03769
# Poissons Ratio (y) = 0.35334 0.25850
# Poissons Ratio (z) = -0.07828 0.39321
#
# Static dielectric constant tensor:
#      x y z
#    x 1.782440 0.000000 -0.007200 
#    y 0.000000 1.720550 0.000000 
#    z -0.007200 0.000000 1.691150 
# 
# From -- ./inp_files/39361.got.cif
#   From: 2010.05.17/outbox.cif.g08.bks.cpg/sg10_20_cif.got.tgz:39361.got - 2010.06.03 11:33:40.
