data_PCOD9150692
_publ_section_title
;
Structure prediction by ZEFSAII (Michael W. Deem and Ramdas Pophale) SiO2 
 PCOD9150692
Probable space group: P 2/M
;
_chemical_formula_sum "Si O2"
_cell_formula_units_Z 24
_cell_length_a 12.981426
_cell_length_b 10.080827
_cell_length_c 8.739706
_cell_angle_alpha 90.000000
_cell_angle_beta 80.893550
_cell_angle_gamma 90.000000
_cell_volume 1129.293293
_symmetry_space_group_name_H-M "P 2/M"
_symmetry_group_IT_number 10
_symmetry_cell_setting 'monoclinic'
loop_
_space_group_symop_operation_xyz
x,y,z
-x,y,-z
-x,-y,-z
x,-y,z
loop_
_atom_site_type_symbol
_atom_site_label
_atom_site_fract_x
_atom_site_fract_y
_atom_site_fract_z
Si Si1 0.487011 0.655274 0.325228
Si Si2 0.963765 0.651903 0.745480
Si Si3 0.838029 0.846493 0.979908
Si Si4 0.832373 0.288246 0.490909
Si Si5 0.724293 0.353002 0.221113
Si Si6 0.686264 0.143240 0.726614
O O1 0.500000 0.694182 0.500000
O O2 0.459471 0.500000 0.326031
O O3 0.601794 0.670111 0.225768
O O4 0.398250 0.742331 0.269378
O O5 0.987244 0.500000 0.788702
O O6 0.926274 0.753684 0.882840
O O7 0.873043 0.643759 0.637281
O O8 0.063453 0.714444 0.636015
O O9 0.747892 0.850710 0.871309
O O10 0.867383 0.000000 0.005341
O O11 0.790575 0.764331 0.131330
O O12 0.749647 0.354711 0.396357
O O13 0.773187 0.161300 0.572743
O O14 0.751910 0.500000 0.152795
O O15 0.634898 0.000000 0.723214
#
# Coordination Sequence:
#
# PCOD9150692 Si02
#       6
#     4   4   4   4   4   4
#     4  10  21  37  60  91 120 148 188 244 295 340
#     4  10  20  37  64  91 114 151 196 241 295 347
#     4  10  24  42  57  81 121 160 196 238 287 345
#     4  10  20  36  61  92 118 146 193 247 290 342
#     4  11  22  38  60  87 118 152 192 240 294 347
#     4  10  22  40  61  85 117 160 198 236 287 346
#
# _framework density 21.252229
#
# number of rings (size 3 to 8) (size 9 to 14) (size 15 to 20)
#    0.000    1.833    1.667    2.500    0.000    7.667 
#    0.000    9.167    0.000    0.000    0.000    0.000 
#    0.000    0.000    0.000    0.000    0.000    0.000 
#
# Total GULP energy -133903.267990 kJ/mol
# GULP energy per Si atom -5579.302833 kJ/mol
# Density = 2.120386 g / cm^3
# Si number density = 21.252229 Si / 1000 Ang^3
#
#
#
# Elastic Constant Matrix: (Units=GPa)
#
#
# Indices 1 2 3 4 5 6 
#
# 1 84.9742 37.8313 18.1396 0.0000 6.4999 0.0000
# 2 37.8313 106.3268 59.1927 0.0000 -0.9736 0.0000
# 3 18.1396 59.1927 65.8232 0.0000 -2.9753 0.0000
# 4 0.0000 0.0000 0.0000 17.2072 0.0000 9.0372
# 5 6.4999 -0.9736 -2.9753 0.0000 23.4328 0.0000
# 6 0.0000 0.0000 0.0000 9.0372 0.0000 24.3056
#
#
#
# Elastic Compliance Matrix: (Units=1/GPa)
#
#
# Indices 1 2 3 4 5 6 
#
# 1 0.014417 -0.005711 0.000977 0.000000 -0.004112 0.000000
# 2 -0.005711 0.021140 -0.017425 0.000000 0.000250 0.000000
# 3 0.000977 -0.017425 0.030725 0.000000 0.002906 0.000000
# 4 0.000000 0.000000 0.000000 0.072218 0.000000 -0.026852
# 5 -0.004112 0.000250 0.002906 0.000000 0.044195 0.000000
# 6 0.000000 0.000000 0.000000 -0.026852 0.000000 0.051127
#
#
# Mechanical properties :
#
#
# Convention : Reuss Voigt Hill
#
# Bulk Modulus (GPa) = 45.53273 54.16128 49.84701
# Shear Modulus (GPa) = 17.51552 22.45316 19.98434
#
# Velocity S-wave (km/s) = 2.87396 3.25392 3.06982
# Velocity P-wave (km/s) = 5.69950 6.29743 6.00591
#
# Compressibility (1/GPa) = 0.02196222
#
# Stress axis : x y z
#
# Youngs Moduli (GPa) = 69.36303 47.30346 32.54728
#
# Poissons Ratio (x) = 0.27015 -0.03179
# Poissons Ratio (y) = 0.39613 0.56715
# Poissons Ratio (z) = -0.06776 0.82429
#
# Static dielectric constant tensor:
#      x y z
#    x 1.807800 0.000000 0.002260 
#    y 0.000000 1.755650 0.000000 
#    z 0.002260 0.000000 1.772830 
# 
# From -- ./inp_files/27055.got.cif
#   From: 2010.05.17/outbox.cif.g08.bks.cpg/sg10_14_cif.got.tgz:27055.got - 2010.06.03 11:33:40.
