data_PCOD9150106
_publ_section_title
;
Structure prediction by ZEFSAII (Michael W. Deem and Ramdas Pophale) SiO2 
 PCOD9150106
Probable space group: P 2/M
;
_chemical_formula_sum "Si O2"
_cell_formula_units_Z 32
_cell_length_a 17.347366
_cell_length_b 12.849177
_cell_length_c 13.861279
_cell_angle_alpha 90.000000
_cell_angle_beta 148.616774
_cell_angle_gamma 90.000000
_cell_volume 1608.975923
_symmetry_space_group_name_H-M "P 2/M"
_symmetry_group_IT_number 10
_symmetry_cell_setting 'monoclinic'
loop_
_space_group_symop_operation_xyz
x,y,z
-x,y,-z
-x,-y,-z
x,-y,z
loop_
_atom_site_type_symbol
_atom_site_label
_atom_site_fract_x
_atom_site_fract_y
_atom_site_fract_z
Si Si1 0.642885 0.382934 0.859835
Si Si2 0.572751 0.229090 0.481111
Si Si3 0.006963 0.618856 0.734950
Si Si4 0.477222 0.285432 0.083793
Si Si5 0.940753 0.168031 0.582249
Si Si6 0.855140 0.621713 0.780820
Si Si7 0.328100 0.117803 0.600115
Si Si8 0.771453 0.885935 0.204471
O O1 0.620887 0.500000 0.800360
O O2 0.555188 0.301585 0.701428
O O3 0.568934 0.369609 0.886465
O O4 0.819254 0.364532 0.054558
O O5 0.500000 0.185084 0.500000
O O6 0.716819 0.302662 0.651731
O O7 0.618599 0.145249 0.449845
O O8 0.991775 0.500000 0.683422
O O9 0.957663 0.707708 0.608437
O O10 0.908977 0.629384 0.727147
O O11 0.607849 0.211120 0.264141
O O12 0.500000 0.325934 0.000000
O O13 0.343393 0.204198 0.934472
O O14 0.847864 0.127724 0.573420
O O15 0.852329 0.132667 0.392780
O O16 0.103075 0.121616 0.742894
O O17 0.815750 0.500000 0.757323
O O18 0.000000 0.645787 0.000000
O O19 0.371983 0.000000 0.674264
O O20 0.702638 0.000000 0.131865
#
# Coordination Sequence:
#
# PCOD9150106 Si02
#       8
#     4   4   4   4   4   4   4   4
#     4  10  22  40  60  85 119 157 195 238 291 350
#     4  11  23  39  61  88 115 154 195 246 289 348
#     4  10  20  37  58  83 115 150 187 236 288 343
#     4  11  22  37  58  86 120 155 196 240 287 351
#     4  11  20  37  57  85 114 149 193 240 289 342
#     4  10  20  35  59  89 115 144 184 232 287 343
#     4  11  23  39  61  86 116 156 196 243 297 343
#     4  11  22  36  59  85 114 150 198 249 287 334
#
# _framework density 19.888428000000001
#
# number of rings (size 3 to 8) (size 9 to 14) (size 15 to 20)
#    0.000    1.375    3.750    3.000    0.000    3.000 
#    0.000    1.875    0.000    0.375    0.000    0.000 
#    0.000    0.000    0.000    0.000    0.000    0.000 
#
# Total GULP energy -178673.920851 kJ/mol
# GULP energy per Si atom -5583.560027 kJ/mol
# Density = 1.984316 g / cm^3
# Si number density = 19.888428 Si / 1000 Ang^3
#
#
#
# Elastic Constant Matrix: (Units=GPa)
#
#
# Indices 1 2 3 4 5 6 
#
# 1 107.8980 -0.0126 5.3848 0.0000 10.1874 0.0000
# 2 -0.0126 67.6999 3.8323 0.0000 2.2236 0.0000
# 3 5.3848 3.8323 32.0389 0.0000 10.8071 0.0000
# 4 0.0000 0.0000 0.0000 -1.8925 0.0000 -14.3650
# 5 10.1874 2.2236 10.8071 0.0000 28.4864 0.0000
# 6 0.0000 0.0000 0.0000 -14.3650 0.0000 16.2126
#
#
#
# Elastic Compliance Matrix: (Units=1/GPa)
#
#
# Indices 1 2 3 4 5 6 
#
# 1 0.009601 0.000139 -0.000537 0.000000 -0.003241 0.000000
# 2 0.000139 0.014881 -0.001599 0.000000 -0.000604 0.000000
# 3 -0.000537 -0.001599 0.035993 0.000000 -0.013338 0.000000
# 4 0.000000 0.000000 0.000000 -0.068397 0.000000 -0.060603
# 5 -0.003241 -0.000604 -0.013338 0.000000 0.041371 0.000000
# 6 0.000000 0.000000 0.000000 -0.060603 0.000000 0.007984
#
#
# Mechanical properties :
#
#
# Convention : Reuss Voigt Hill
#
# Bulk Modulus (GPa) = 17.70568 25.11619 21.41093
# Shear Modulus (GPa) = 77.81537 21.79012 49.80274
#
# Velocity S-wave (km/s) = 6.26186 3.31360 5.00953
# Velocity P-wave (km/s) = 7.82324 5.22455 6.65203
#
# Compressibility (1/GPa) = 0.05647905
#
# Stress axis : x y z
#
# Youngs Moduli (GPa) = 104.15800 67.19754 27.78346
#
# Poissons Ratio (x) = -0.00932 0.01492
# Poissons Ratio (y) = -0.01444 0.04444
# Poissons Ratio (z) = 0.05595 0.10748
#
# Static dielectric constant tensor:
#      x y z
#    x 1.739920 0.000000 0.002260 
#    y 0.000000 1.669560 0.000000 
#    z 0.002260 0.000000 1.717330 
# 
# From -- ./inp_files/69172.got.cif
#   From: 2010.05.17/outbox.cif.g08.bks.cpg/sg10_35_cif.got.tgz:69172.got - 2010.06.03 11:33:40.
