data_PCOD9150384
_publ_section_title
;
Structure prediction by ZEFSAII (Michael W. Deem and Ramdas Pophale) SiO2 
 PCOD9150384
Probable space group: P 2/M
;
_chemical_formula_sum "Si O2"
_cell_formula_units_Z 32
_cell_length_a 15.230103
_cell_length_b 24.516608
_cell_length_c 9.172061
_cell_angle_alpha 90.000000
_cell_angle_beta 149.696633
_cell_angle_gamma 90.000000
_cell_volume 1728.059848
_symmetry_space_group_name_H-M "P 2/M"
_symmetry_group_IT_number 10
_symmetry_cell_setting 'monoclinic'
loop_
_space_group_symop_operation_xyz
x,y,z
-x,y,-z
-x,-y,-z
x,-y,z
loop_
_atom_site_type_symbol
_atom_site_label
_atom_site_fract_x
_atom_site_fract_y
_atom_site_fract_z
Si Si1 0.972722 0.151469 0.633633
Si Si2 0.852856 0.750231 0.666442
Si Si3 0.458247 0.641483 0.270865
Si Si4 0.311108 0.641756 0.655458
Si Si5 0.800241 0.563016 0.260817
Si Si6 0.647152 0.876557 0.833404
Si Si7 0.321363 0.936747 0.830077
Si Si8 0.487398 0.763405 0.306323
O O1 0.910402 0.202897 0.637560
O O2 0.831012 0.103509 0.439893
O O3 0.000000 0.163566 0.500000
O O4 0.161412 0.131182 0.959237
O O5 0.811050 0.694394 0.521164
O O6 0.673568 0.764527 0.494006
O O7 0.000000 0.742363 0.000000
O O8 0.500000 0.638983 0.500000
O O9 0.633788 0.629766 0.431218
O O10 0.405205 0.704216 0.155600
O O11 0.314948 0.598752 0.014801
O O12 0.229691 0.591987 0.626627
O O13 0.500000 0.653529 0.000000
O O14 0.744307 0.500000 0.183953
O O15 0.000000 0.565403 0.500000
O O16 0.500000 0.884050 0.500000
O O17 0.609877 0.819531 0.866446
O O18 0.649394 0.923377 0.957432
O O19 0.274413 0.000000 0.742914
O O20 0.500000 0.925961 0.000000
O O21 0.500000 0.764196 0.500000
#
# Coordination Sequence:
#
# PCOD9150384 Si02
#       8
#     4   4   4   4   4   4   4   4
#     4  10  23  37  56  85 115 151 187 224 281 337
#     4  11  21  35  58  86 115 144 183 229 273 327
#     4   9  19  36  58  81 107 142 183 224 268 323
#     4   9  21  37  55  80 109 147 182 218 276 332
#     4  10  22  38  55  77 107 143 183 228 275 324
#     4  10  20  36  58  83 113 147 186 229 275 327
#     4  10  22  40  59  79 108 148 191 234 280 330
#     4   9  18  33  53  81 114 142 174 220 275 325
#
# _framework density 18.517876999999999
#
# number of rings (size 3 to 8) (size 9 to 14) (size 15 to 20)
#    0.000    2.250    0.000    2.250    0.000   16.000 
#    0.000    0.000    0.000    3.750    0.000    0.000 
#    0.000    0.000    0.000    0.000    0.000    0.000 
#
# Total GULP energy -178504.662591 kJ/mol
# GULP energy per Si atom -5578.270706 kJ/mol
# Density = 1.847573 g / cm^3
# Si number density = 18.517877 Si / 1000 Ang^3
#
#
#
# Elastic Constant Matrix: (Units=GPa)
#
#
# Indices 1 2 3 4 5 6 
#
# 1 88.9851 43.2902 29.5030 0.0000 1.7806 0.0000
# 2 43.2902 105.2992 55.2639 0.0000 16.4284 0.0000
# 3 29.5030 55.2639 91.4479 0.0000 15.9802 0.0000
# 4 0.0000 0.0000 0.0000 -22.7605 0.0000 12.9325
# 5 1.7806 16.4284 15.9802 0.0000 21.8273 0.0000
# 6 0.0000 0.0000 0.0000 12.9325 0.0000 24.5911
#
#
#
# Elastic Compliance Matrix: (Units=1/GPa)
#
#
# Indices 1 2 3 4 5 6 
#
# 1 0.014569 -0.005589 -0.002121 0.000000 0.004571 0.000000
# 2 -0.005589 0.016534 -0.006988 0.000000 -0.006873 0.000000
# 3 -0.002121 -0.006988 0.017078 0.000000 -0.007071 0.000000
# 4 0.000000 0.000000 0.000000 -0.033828 0.000000 0.017790
# 5 0.004571 -0.006873 -0.007071 0.000000 0.055791 0.000000
# 6 0.000000 0.000000 0.000000 0.017790 0.000000 0.031309
#
#
# Mechanical properties :
#
#
# Convention : Reuss Voigt Hill
#
# Bulk Modulus (GPa) = 53.23612 60.20517 56.72064
# Shear Modulus (GPa) = 36.46657 15.24325 25.85491
#
# Velocity S-wave (km/s) = 4.44245 2.87220 3.74065
# Velocity P-wave (km/s) = 7.42460 6.60165 7.02519
#
# Compressibility (1/GPa) = 0.01878424
#
# Stress axis : x y z
#
# Youngs Moduli (GPa) = 68.63956 60.48036 58.55494
#
# Poissons Ratio (x) = 0.33805 0.12421
# Poissons Ratio (y) = 0.38366 0.40917
# Poissons Ratio (z) = 0.14560 0.42262
#
# Static dielectric constant tensor:
#      x y z
#    x 1.650130 0.000000 -0.007080 
#    y 0.000000 1.643370 0.000000 
#    z -0.007080 0.000000 1.643120 
# 
# From -- ./inp_files/30608.got.cif
#   From: 2010.05.17/outbox.cif.g08.bks.cpg/sg10_16_cif.got.tgz:30608.got - 2010.06.03 11:33:40.
