data_PCOD9150621
_publ_section_title
;
Structure prediction by ZEFSAII (Michael W. Deem and Ramdas Pophale) SiO2 
 PCOD9150621
Probable space group: P 2/M
;
_chemical_formula_sum "Si O2"
_cell_formula_units_Z 28
_cell_length_a 22.030576
_cell_length_b 12.900139
_cell_length_c 11.768130
_cell_angle_alpha 90.000000
_cell_angle_beta 26.601826
_cell_angle_gamma 90.000000
_cell_volume 1497.613502
_symmetry_space_group_name_H-M "P 2/M"
_symmetry_group_IT_number 10
_symmetry_cell_setting 'monoclinic'
loop_
_space_group_symop_operation_xyz
x,y,z
-x,y,-z
-x,-y,-z
x,-y,z
loop_
_atom_site_type_symbol
_atom_site_label
_atom_site_fract_x
_atom_site_fract_y
_atom_site_fract_z
Si Si1 0.427922 0.118237 0.244045
Si Si2 0.334451 0.247999 0.058264
Si Si3 0.153321 0.883420 0.199946
Si Si4 0.626871 0.617621 0.225350
Si Si5 0.155516 0.624735 0.531749
Si Si6 0.154584 0.766719 0.746263
Si Si7 0.859281 0.707501 0.971222
O O1 0.272972 0.157395 0.504598
O O2 0.433683 0.000000 0.277552
O O3 0.500000 0.118176 0.000000
O O4 0.520793 0.197887 0.158022
O O5 0.240281 0.159047 0.160620
O O6 0.267839 0.308489 0.275539
O O7 0.343541 0.329554 0.942245
O O8 0.155509 0.805759 0.088858
O O9 0.000000 0.885446 0.500000
O O10 0.196010 0.000000 0.097409
O O11 0.500000 0.670314 0.500000
O O12 0.591050 0.500000 0.261086
O O13 0.754983 0.626042 0.093171
O O14 0.172224 0.500000 0.496484
O O15 0.156135 0.666750 0.660291
O O16 0.010719 0.660678 0.721786
O O17 0.178829 0.737422 0.836579
O O18 0.000000 0.809688 0.000000
#
# Coordination Sequence:
#
# PCOD9150621 Si02
#       7
#     4   4   4   4   4   4   4
#     4  11  23  41  65  89 120 161 200 245 308 369
#     4  11  21  39  60  90 123 157 200 258 299 366
#     4  10  20  36  60  89 121 159 198 244 303 359
#     4  10  21  36  57  84 118 161 203 250 306 360
#     4  11  22  38  61  90 123 163 209 254 308 364
#     4  10  23  42  62  91 127 160 203 257 304 363
#     4  10  21  38  60  88 123 160 201 254 303 363
#
# _framework density 18.696413
#
# number of rings (size 3 to 8) (size 9 to 14) (size 15 to 20)
#    0.000    1.571    2.857    2.143    0.000    4.000 
#    0.000    6.429    0.000    4.714    0.000    0.000 
#    0.000    0.000    0.000    0.000    0.000    0.000 
#
# Total GULP energy -156154.726849 kJ/mol
# GULP energy per Si atom -5576.954530 kJ/mol
# Density = 1.865386 g / cm^3
# Si number density = 18.696413 Si / 1000 Ang^3
#
#
#
# Elastic Constant Matrix: (Units=GPa)
#
#
# Indices 1 2 3 4 5 6 
#
# 1 74.2163 22.6386 24.3453 0.0000 6.3534 0.0000
# 2 22.6386 98.4857 33.9237 0.0000 -3.6824 0.0000
# 3 24.3453 33.9237 103.4909 0.0000 -4.5974 0.0000
# 4 0.0000 0.0000 0.0000 13.4287 0.0000 -11.5692
# 5 6.3534 -3.6824 -4.5974 0.0000 29.2112 0.0000
# 6 0.0000 0.0000 0.0000 -11.5692 0.0000 11.5339
#
#
#
# Elastic Compliance Matrix: (Units=1/GPa)
#
#
# Indices 1 2 3 4 5 6 
#
# 1 0.015642 -0.002729 -0.002972 0.000000 -0.004214 0.000000
# 2 -0.002729 0.011944 -0.003202 0.000000 0.001595 0.000000
# 3 -0.002972 -0.003202 0.011503 0.000000 0.002053 0.000000
# 4 0.000000 0.000000 0.000000 0.548249 0.000000 0.549929
# 5 -0.004214 0.001595 0.002053 0.000000 0.035674 0.000000
# 6 0.000000 0.000000 0.000000 0.549929 0.000000 0.638316
#
#
# Mechanical properties :
#
#
# Convention : Reuss Voigt Hill
#
# Bulk Modulus (GPa) = 46.98966 48.66756 47.82861
# Shear Modulus (GPa) = 3.88733 23.85378 13.87056
#
# Velocity S-wave (km/s) = 1.44350 3.57578 2.72671
# Velocity P-wave (km/s) = 5.28827 6.56774 5.96242
#
# Compressibility (1/GPa) = 0.02128128
#
# Stress axis : x y z
#
# Youngs Moduli (GPa) = 63.92863 83.72547 86.93583
#
# Poissons Ratio (x) = 0.22852 0.25840
# Poissons Ratio (y) = 0.17449 0.27838
# Poissons Ratio (z) = 0.19001 0.26810
#
# Static dielectric constant tensor:
#      x y z
#    x 1.641110 0.000000 -0.034920 
#    y 0.000000 1.636150 0.000000 
#    z -0.034920 0.000000 1.741750 
# 
# From -- ./inp_files/55787.got.cif
#   From: 2010.05.17/outbox.cif.g08.bks.cpg/sg10_28_cif.got.tgz:55787.got - 2010.06.03 11:33:40.
