data_PCOD9150703
_publ_section_title
;
Structure prediction by ZEFSAII (Michael W. Deem and Ramdas Pophale) SiO2 
 PCOD9150703
Probable space group: P 2/M
;
_chemical_formula_sum "Si O2"
_cell_formula_units_Z 28
_cell_length_a 7.498032
_cell_length_b 30.094338
_cell_length_c 8.589107
_cell_angle_alpha 90.000000
_cell_angle_beta 141.673833
_cell_angle_gamma 90.000000
_cell_volume 1201.899082
_symmetry_space_group_name_H-M "P 2/M"
_symmetry_group_IT_number 10
_symmetry_cell_setting 'monoclinic'
loop_
_space_group_symop_operation_xyz
x,y,z
-x,y,-z
-x,-y,-z
x,-y,z
loop_
_atom_site_type_symbol
_atom_site_label
_atom_site_fract_x
_atom_site_fract_y
_atom_site_fract_z
Si Si1 0.847961 0.550606 0.562853
Si Si2 0.748370 0.302408 0.056755
Si Si3 0.730522 0.399108 0.923031
Si Si4 0.443824 0.870951 0.274934
Si Si5 0.445172 0.226805 0.278202
Si Si6 0.775513 0.950089 0.071849
Si Si7 0.000000 0.737902 0.500000
Si Si8 0.000000 0.099649 0.500000
O O1 0.767093 0.500000 0.547281
O O2 0.554957 0.579902 0.350207
O O3 0.000000 0.551540 0.500000
O O4 0.106469 0.566863 0.850911
O O5 0.005401 0.296033 0.353844
O O6 0.500000 0.285014 0.000000
O O7 0.666684 0.352154 0.958147
O O8 0.741766 0.267990 0.912265
O O9 0.000000 0.386943 0.000000
O O10 0.500000 0.874651 0.500000
O O11 0.313206 0.821955 0.159177
O O12 0.722345 0.871542 0.350782
O O13 0.272262 0.913434 0.092900
O O14 0.500000 0.230877 0.500000
O O15 0.742675 0.230587 0.384054
O O16 0.005478 0.931964 0.351894
O O17 0.826853 0.000000 0.051407
O O18 0.500000 0.951032 0.000000
#
# Coordination Sequence:
#
# PCOD9150703 Si02
#       8
#     4   4   4   4   4   4   2   2
#     4  11  25  47  73 102 141 190 239 288 349 419
#     4  10  24  42  63  92 126 172 219 273 332 407
#     4  12  27  42  71 105 142 182 231 292 354 417
#     4  10  22  39  58  89 121 158 206 263 320 393
#     4  10  23  40  63  89 125 164 213 269 329 401
#     4   9  19  36  59  86 119 157 205 258 315 390
#     4  10  23  40  64  89 122 168 213 274 327 396
#     4  10  20  36  62  83 118 162 205 258 320 390
#
# _framework density 23.296465999999999
#
# number of rings (size 3 to 8) (size 9 to 14) (size 15 to 20)
#    0.000    1.714    0.000    2.786    7.000   10.571 
#    0.000    3.571    0.000    0.000    0.000    0.000 
#    0.000    0.000    0.000    0.000    0.000    0.000 
#
# Total GULP energy -156040.303711 kJ/mol
# GULP energy per Si atom -5572.867990 kJ/mol
# Density = 2.324344 g / cm^3
# Si number density = 23.296466 Si / 1000 Ang^3
#
#
#
# Elastic Constant Matrix: (Units=GPa)
#
#
# Indices 1 2 3 4 5 6 
#
# 1 119.8703 16.9530 8.8762 0.0000 2.6924 0.0000
# 2 16.9530 188.8569 69.1234 0.0000 -12.4560 0.0000
# 3 8.8762 69.1234 79.1491 0.0000 -12.3802 0.0000
# 4 0.0000 0.0000 0.0000 -65.6888 0.0000 27.7515
# 5 2.6924 -12.4560 -12.3802 0.0000 31.7229 0.0000
# 6 0.0000 0.0000 0.0000 27.7515 0.0000 29.8321
#
#
#
# Elastic Compliance Matrix: (Units=1/GPa)
#
#
# Indices 1 2 3 4 5 6 
#
# 1 0.008502 -0.000624 -0.000596 0.000000 -0.001199 0.000000
# 2 -0.000624 0.007834 -0.006691 0.000000 0.000518 0.000000
# 3 -0.000596 -0.006691 0.019321 0.000000 0.004964 0.000000
# 4 0.000000 0.000000 0.000000 -0.010928 0.000000 0.010166
# 5 -0.001199 0.000518 0.004964 0.000000 0.033765 0.000000
# 6 0.000000 0.000000 0.000000 0.010166 0.000000 0.024064
#
#
# Mechanical properties :
#
#
# Convention : Reuss Voigt Hill
#
# Bulk Modulus (GPa) = 50.41596 64.19795 57.30695
# Shear Modulus (GPa) = 47.62339 18.70147 33.16243
#
# Velocity S-wave (km/s) = 4.52622 2.83638 3.77702
# Velocity P-wave (km/s) = 7.00026 6.19221 6.60860
#
# Compressibility (1/GPa) = 0.01983499
#
# Stress axis : x y z
#
# Youngs Moduli (GPa) = 117.62375 127.64754 51.75763
#
# Poissons Ratio (x) = 0.07967 0.03084
# Poissons Ratio (y) = 0.07341 0.34630
# Poissons Ratio (z) = 0.07009 0.85406
#
# Static dielectric constant tensor:
#      x y z
#    x 1.467360 0.000000 0.962370 
#    y 0.000000 1.859530 0.000000 
#    z 0.962370 0.000000 4.812880 
# 
# From -- ./inp_files/20860.got.cif
#   From: 2010.05.17/outbox.cif.g08.bks.cpg/sg10_11_cif.got.tgz:20860.got - 2010.06.03 11:33:40.
