data_PCOD9150794
_publ_section_title
;
Structure prediction by ZEFSAII (Michael W. Deem and Ramdas Pophale) SiO2 
 PCOD9150794
Probable space group: P 2/M
;
_chemical_formula_sum "Si O2"
_cell_formula_units_Z 32
_cell_length_a 21.036019
_cell_length_b 13.165569
_cell_length_c 9.121305
_cell_angle_alpha 90.000000
_cell_angle_beta 145.395372
_cell_angle_gamma 90.000000
_cell_volume 1434.629836
_symmetry_space_group_name_H-M "P 2/M"
_symmetry_group_IT_number 10
_symmetry_cell_setting 'monoclinic'
loop_
_space_group_symop_operation_xyz
x,y,z
-x,y,-z
-x,-y,-z
x,-y,z
loop_
_atom_site_type_symbol
_atom_site_label
_atom_site_fract_x
_atom_site_fract_y
_atom_site_fract_z
Si Si1 0.622051 0.381664 0.807346
Si Si2 0.400059 0.380972 0.899330
Si Si3 0.158560 0.616126 0.330228
Si Si4 0.082568 0.200481 0.981656
Si Si5 0.786841 0.207329 0.048748
Si Si6 0.838130 0.793347 0.478822
Si Si7 0.698707 0.882711 0.463849
Si Si8 0.419207 0.884111 0.474534
O O1 0.500000 0.378552 0.500000
O O2 0.657923 0.500000 0.874397
O O3 0.711837 0.309998 0.898628
O O4 0.616791 0.343269 0.966618
O O5 0.428552 0.500000 0.980781
O O6 0.293389 0.382461 0.589085
O O7 0.500000 0.331377 0.000000
O O8 0.122691 0.500000 0.252972
O O9 0.138667 0.673414 0.447019
O O10 0.107537 0.692573 0.113760
O O11 0.956322 0.161381 0.758762
O O12 0.108961 0.216057 0.861245
O O13 0.180863 0.128261 0.227013
O O14 0.701816 0.121798 0.830907
O O15 0.819862 0.185899 0.276496
O O16 0.731117 0.827022 0.373256
O O17 0.607989 0.842825 0.412201
O O18 0.672383 0.000000 0.384206
O O19 0.500000 0.839845 0.500000
O O20 0.456893 0.000000 0.568950
#
# Coordination Sequence:
#
# PCOD9150794 Si02
#       8
#     4   4   4   4   4   4   4   4
#     4  10  21  36  55  80 113 151 191 236 286 344
#     4   9  18  33  53  78 107 142 184 237 291 335
#     4  10  20  37  57  79 112 151 193 241 291 346
#     4  10  23  37  57  82 112 154 198 241 298 342
#     4  11  22  38  56  83 116 154 193 239 294 353
#     4  11  22  38  56  84 116 148 195 253 291 337
#     4   9  19  38  63  87 112 147 190 234 285 341
#     4   9  19  39  63  87 119 154 187 227 280 349
#
# _framework density 22.305405
#
# number of rings (size 3 to 8) (size 9 to 14) (size 15 to 20)
#    0.000    2.125    1.250    2.250    1.750    3.000 
#    2.250    0.625    0.000    8.250    0.000    0.000 
#    0.000    0.000    0.000    0.000    0.000    0.000 
#
# Total GULP energy -178275.281183 kJ/mol
# GULP energy per Si atom -5571.102537 kJ/mol
# Density = 2.225464 g / cm^3
# Si number density = 22.305405 Si / 1000 Ang^3
#
#
#
# Elastic Constant Matrix: (Units=GPa)
#
#
# Indices 1 2 3 4 5 6 
#
# 1 156.3021 14.5101 24.1285 0.0000 -11.8963 0.0000
# 2 14.5101 64.4646 -7.9699 0.0000 -10.5323 0.0000
# 3 24.1285 -7.9699 67.8406 0.0000 -12.9214 0.0000
# 4 0.0000 0.0000 0.0000 7.3153 0.0000 -5.4507
# 5 -11.8963 -10.5323 -12.9214 0.0000 41.9782 0.0000
# 6 0.0000 0.0000 0.0000 -5.4507 0.0000 12.2133
#
#
#
# Elastic Compliance Matrix: (Units=1/GPa)
#
#
# Indices 1 2 3 4 5 6 
#
# 1 0.007015 -0.001772 -0.002559 0.000000 0.000756 0.000000
# 2 -0.001772 0.017155 0.003580 0.000000 0.004904 0.000000
# 3 -0.002559 0.003580 0.017107 0.000000 0.005439 0.000000
# 4 0.000000 0.000000 0.000000 0.204807 0.000000 0.091404
# 5 0.000756 0.004904 0.005439 0.000000 0.026940 0.000000
# 6 0.000000 0.000000 0.000000 0.091404 0.000000 0.122671
#
#
# Mechanical properties :
#
#
# Convention : Reuss Voigt Hill
#
# Bulk Modulus (GPa) = 25.14210 38.88275 32.01242
# Shear Modulus (GPa) = 12.18156 29.49725 20.83941
#
# Velocity S-wave (km/s) = 2.33947 3.64046 3.05991
# Velocity P-wave (km/s) = 4.31204 5.92794 5.18335
#
# Compressibility (1/GPa) = 0.03977393
#
# Stress axis : x y z
#
# Youngs Moduli (GPa) = 142.55284 58.29215 58.45537
#
# Poissons Ratio (x) = 0.10329 0.14960
# Poissons Ratio (y) = 0.25259 -0.20925
# Poissons Ratio (z) = 0.36482 -0.20866
#
# Static dielectric constant tensor:
#      x y z
#    x 1.902210 0.000000 0.017350 
#    y 0.000000 1.874350 0.000000 
#    z 0.017350 0.000000 1.850570 
# 
# From -- ./inp_files/35175.got.cif
#   From: 2010.05.17/outbox.cif.g08.bks.cpg/sg10_18_cif.got.tgz:35175.got - 2010.06.03 11:33:40.
