data_PCOD9150092
_publ_section_title
;
Structure prediction by ZEFSAII (Michael W. Deem and Ramdas Pophale) SiO2 
 PCOD9150092
Probable space group: P 2/M
;
_chemical_formula_sum "Si O2"
_cell_formula_units_Z 32
_cell_length_a 27.714469
_cell_length_b 8.076202
_cell_length_c 11.858205
_cell_angle_alpha 90.000000
_cell_angle_beta 145.790513
_cell_angle_gamma 90.000000
_cell_volume 1492.241883
_symmetry_space_group_name_H-M "P 2/M"
_symmetry_group_IT_number 10
_symmetry_cell_setting 'monoclinic'
loop_
_space_group_symop_operation_xyz
x,y,z
-x,y,-z
-x,-y,-z
x,-y,z
loop_
_atom_site_type_symbol
_atom_site_label
_atom_site_fract_x
_atom_site_fract_y
_atom_site_fract_z
Si Si1 0.578112 0.299757 0.568051
Si Si2 0.732172 0.797931 0.476708
Si Si3 0.620378 0.200579 0.053549
Si Si4 0.890214 0.185250 0.356463
Si Si5 0.055862 0.688361 0.777342
Si Si6 0.081009 0.800377 0.082154
Si Si7 0.293466 0.693364 0.998900
Si Si8 0.432671 0.806001 0.707493
O O1 0.500000 0.254547 0.500000
O O2 0.575842 0.500000 0.549510
O O3 0.572616 0.215693 0.436955
O O4 0.664550 0.254675 0.802083
O O5 0.698358 0.755498 0.286932
O O6 0.826785 0.739099 0.693310
O O7 0.654317 0.737179 0.406196
O O8 0.735027 0.000000 0.488934
O O9 0.637270 0.278500 0.964984
O O10 0.617674 0.000000 0.037789
O O11 0.527954 0.256953 0.922638
O O12 0.899747 0.217045 0.241046
O O13 0.791951 0.209938 0.196839
O O14 0.955335 0.301720 0.549467
O O15 0.918521 0.000000 0.438100
O O16 0.085977 0.500000 0.831154
O O17 0.070741 0.756171 0.930847
O O18 0.081374 0.000000 0.091510
O O19 0.000000 0.739868 0.000000
O O20 0.272120 0.500000 0.965129
O O21 0.433263 0.000000 0.739811
#
# Coordination Sequence:
#
# PCOD9150092 Si02
#       8
#     4   4   4   4   4   4   4   4
#     4  10  21  38  56  79 119 163 196 236 298 359
#     4   9  20  38  59  86 117 155 202 254 306 353
#     4  10  20  36  59  86 117 158 205 254 303 357
#     4  11  23  41  66  93 121 157 202 248 299 363
#     4  11  23  42  65  92 126 158 196 247 308 364
#     4  10  22  40  62  88 121 164 210 253 301 362
#     4  11  23  38  58  87 123 160 198 247 303 360
#     4  10  20  35  59  87 116 152 203 258 303 352
#
# _framework density 21.444244000000001
#
# number of rings (size 3 to 8) (size 9 to 14) (size 15 to 20)
#    0.000    1.750    1.250    3.750    3.500    3.000 
#    0.000    1.250    0.000    1.500    0.000    0.000 
#    0.000    0.000    0.000    0.000    0.000    0.000 
#
# Total GULP energy -178748.663386 kJ/mol
# GULP energy per Si atom -5585.895731 kJ/mol
# Density = 2.139544 g / cm^3
# Si number density = 21.444244 Si / 1000 Ang^3
#
#
#
# Elastic Constant Matrix: (Units=GPa)
#
#
# Indices 1 2 3 4 5 6 
#
# 1 54.9854 -2.7420 44.7251 0.0000 6.4819 0.0000
# 2 -2.7420 23.0687 1.0995 0.0000 4.6129 0.0000
# 3 44.7251 1.0995 131.8210 0.0000 3.7902 0.0000
# 4 0.0000 0.0000 0.0000 14.0339 0.0000 -6.2394
# 5 6.4819 4.6129 3.7902 0.0000 37.4168 0.0000
# 6 0.0000 0.0000 0.0000 -6.2394 0.0000 72.1387
#
#
#
# Elastic Compliance Matrix: (Units=1/GPa)
#
#
# Indices 1 2 3 4 5 6 
#
# 1 0.026000 0.004338 -0.008738 0.000000 -0.004154 0.000000
# 2 0.004338 0.045174 -0.001672 0.000000 -0.006151 0.000000
# 3 -0.008738 -0.001672 0.010546 0.000000 0.000652 0.000000
# 4 0.000000 0.000000 0.000000 0.074106 0.000000 0.006410
# 5 -0.004154 -0.006151 0.000652 0.000000 0.028138 0.000000
# 6 0.000000 0.000000 0.000000 0.006410 0.000000 0.014417
#
#
# Mechanical properties :
#
#
# Convention : Reuss Voigt Hill
#
# Bulk Modulus (GPa) = 14.37284 32.89335 23.63309
# Shear Modulus (GPa) = 21.39338 35.83737 28.61538
#
# Velocity S-wave (km/s) = 3.16195 4.09245 3.65692
# Velocity P-wave (km/s) = 4.47745 6.14029 5.37358
#
# Compressibility (1/GPa) = 0.06957569
#
# Stress axis : x y z
#
# Youngs Moduli (GPa) = 38.46106 22.13663 94.82230
#
# Poissons Ratio (x) = -0.09602 0.82859
# Poissons Ratio (y) = -0.16683 0.15850
# Poissons Ratio (z) = 0.33608 0.03700
#
# Static dielectric constant tensor:
#      x y z
#    x 1.779020 0.000000 0.029260 
#    y 0.000000 1.765410 0.000000 
#    z 0.029260 0.000000 1.771910 
# 
# From -- ./inp_files/58311.got.cif
#   From: 2010.05.17/outbox.cif.g08.bks.cpg/sg10_30_cif.got.tgz:58311.got - 2010.06.03 11:33:40.
