data_PCOD9150567
_publ_section_title
;
Structure prediction by ZEFSAII (Michael W. Deem and Ramdas Pophale) SiO2 
 PCOD9150567
Probable space group: P 2/M
;
_chemical_formula_sum "Si O2"
_cell_formula_units_Z 28
_cell_length_a 7.256748
_cell_length_b 30.512088
_cell_length_c 8.391215
_cell_angle_alpha 90.000000
_cell_angle_beta 140.411685
_cell_angle_gamma 90.000000
_cell_volume 1184.022996
_symmetry_space_group_name_H-M "P 2/M"
_symmetry_group_IT_number 10
_symmetry_cell_setting 'monoclinic'
loop_
_space_group_symop_operation_xyz
x,y,z
-x,y,-z
-x,-y,-z
x,-y,z
loop_
_atom_site_type_symbol
_atom_site_label
_atom_site_fract_x
_atom_site_fract_y
_atom_site_fract_z
Si Si1 0.629199 0.548712 0.411854
Si Si2 0.785952 0.303267 0.077830
Si Si3 0.794920 0.401885 0.094561
Si Si4 0.434339 0.871488 0.266881
Si Si5 0.433348 0.224424 0.266367
Si Si6 0.782172 0.950808 0.072817
Si Si7 0.000000 0.747641 0.500000
Si Si8 0.000000 0.098016 0.500000
O O1 0.500000 0.545046 0.500000
O O2 0.699199 0.500000 0.395327
O O3 0.925901 0.577437 0.629543
O O4 0.347444 0.567694 0.133658
O O5 0.864264 0.352586 0.083887
O O6 0.010574 0.283230 0.352066
O O7 0.500000 0.304669 0.000000
O O8 0.730233 0.267702 0.904029
O O9 0.500000 0.397119 0.000000
O O10 0.500000 0.874338 0.500000
O O11 0.296771 0.823551 0.147280
O O12 0.719018 0.873155 0.343894
O O13 0.266352 0.914079 0.092227
O O14 0.500000 0.227192 0.500000
O O15 0.715740 0.224474 0.340218
O O16 0.011659 0.933000 0.352533
O O17 0.835707 0.000000 0.052108
O O18 0.500000 0.952048 0.000000
#
# Coordination Sequence:
#
# PCOD9150567 Si02
#       8
#     4   4   4   4   4   4   2   2
#     4  11  25  45  66  97 140 182 224 278 341 403
#     4   9  22  39  62  89 123 166 203 267 325 387
#     4  11  24  41  70  99 132 173 227 282 336 402
#     4  10  22  38  58  86 119 154 202 256 309 379
#     4  10  22  40  60  88 122 160 208 258 316 388
#     4   9  19  36  58  84 117 153 200 252 308 378
#     4  10  21  40  62  85 124 160 205 262 319 378
#     4  10  20  36  60  85 112 160 199 250 314 376
#
# _framework density 23.648191000000001
#
# number of rings (size 3 to 8) (size 9 to 14) (size 15 to 20)
#    0.000    2.000    0.000    1.929    6.000   11.714 
#    2.571    3.571    0.000    0.000    0.000    0.000 
#    0.000    0.000    0.000    0.000    0.000    0.000 
#
# Total GULP energy -156142.325472 kJ/mol
# GULP energy per Si atom -5576.511624 kJ/mol
# Density = 2.359437 g / cm^3
# Si number density = 23.648191 Si / 1000 Ang^3
#
#
#
# Elastic Constant Matrix: (Units=GPa)
#
#
# Indices 1 2 3 4 5 6 
#
# 1 106.3571 22.6408 8.3155 0.0000 12.0820 0.0000
# 2 22.6408 247.0428 81.0756 0.0000 -7.3964 0.0000
# 3 8.3155 81.0756 93.2087 0.0000 -4.6576 0.0000
# 4 0.0000 0.0000 0.0000 -214.0554 0.0000 -39.9547
# 5 12.0820 -7.3964 -4.6576 0.0000 45.7721 0.0000
# 6 0.0000 0.0000 0.0000 -39.9547 0.0000 46.8973
#
#
#
# Elastic Compliance Matrix: (Units=1/GPa)
#
#
# Indices 1 2 3 4 5 6 
#
# 1 0.009933 -0.000920 -0.000226 0.000000 -0.002794 0.000000
# 2 -0.000920 0.005758 -0.004893 0.000000 0.000675 0.000000
# 3 -0.000226 -0.004893 0.015045 0.000000 0.000800 0.000000
# 4 0.000000 0.000000 0.000000 -0.004031 0.000000 -0.003434
# 5 -0.002794 0.000675 0.000800 0.000000 0.022775 0.000000
# 6 0.000000 0.000000 0.000000 -0.003434 0.000000 0.018398
#
#
# Mechanical properties :
#
#
# Convention : Reuss Voigt Hill
#
# Bulk Modulus (GPa) = 53.59276 74.51918 64.05597
# Shear Modulus (GPa) = 58.02196 -1.97210 28.02493
#
# Velocity S-wave (km/s) = 4.95870 -0.91419 3.44623
# Velocity P-wave (km/s) = 7.44961 5.51957 6.55600
#
# Compressibility (1/GPa) = 0.01865924
#
# Stress axis : x y z
#
# Youngs Moduli (GPa) = 100.67349 173.66690 66.46911
#
# Poissons Ratio (x) = 0.15977 0.01499
# Poissons Ratio (y) = 0.09262 0.32522
# Poissons Ratio (z) = 0.02271 0.84971
#
# Static dielectric constant tensor:
#      x y z
#    x 2.034420 0.000000 -0.006630 
#    y 0.000000 1.910090 0.000000 
#    z -0.006630 0.000000 1.994970 
# 
# From -- ./inp_files/20861.got.cif
#   From: 2010.05.17/outbox.cif.g08.bks.cpg/sg10_11_cif.got.tgz:20861.got - 2010.06.03 11:33:40.
