data_PCOD9150861
_publ_section_title
;
Structure prediction by ZEFSAII (Michael W. Deem and Ramdas Pophale) SiO2 
 PCOD9150861
Probable space group: P 2/M
;
_chemical_formula_sum "Si O2"
_cell_formula_units_Z 24
_cell_length_a 14.703222
_cell_length_b 8.629900
_cell_length_c 15.449324
_cell_angle_alpha 90.000000
_cell_angle_beta 39.231225
_cell_angle_gamma 90.000000
_cell_volume 1239.809648
_symmetry_space_group_name_H-M "P 2/M"
_symmetry_group_IT_number 10
_symmetry_cell_setting 'monoclinic'
loop_
_space_group_symop_operation_xyz
x,y,z
-x,y,-z
-x,-y,-z
x,-y,z
loop_
_atom_site_type_symbol
_atom_site_label
_atom_site_fract_x
_atom_site_fract_y
_atom_site_fract_z
Si Si1 0.622138 0.812407 0.044419
Si Si2 0.297922 0.814744 0.309742
Si Si3 0.193843 0.187866 0.929503
Si Si4 0.166900 0.685403 0.574408
Si Si5 0.148015 0.314887 0.259935
Si Si6 0.134160 0.187282 0.783864
O O1 0.456231 0.765747 0.160667
O O2 0.688432 0.761993 0.087979
O O3 0.627723 0.000000 0.035795
O O4 0.724828 0.747409 0.894710
O O5 0.271960 0.757587 0.425977
O O6 0.179358 0.745330 0.332944
O O7 0.290578 0.000000 0.312116
O O8 0.208928 0.237360 0.818657
O O9 0.195347 0.000000 0.926858
O O10 0.034398 0.231429 0.080374
O O11 0.173490 0.500000 0.565258
O O12 0.192945 0.741355 0.652659
O O13 0.005408 0.736360 0.665322
O O14 0.149619 0.500000 0.259230
O O15 0.140503 0.000000 0.773478
#
# Coordination Sequence:
#
# PCOD9150861 Si02
#       6
#     4   4   4   4   4   4
#     4  10  20  37  59  84 112 141 180 227 271 321
#     4  11  24  38  56  81 109 146 186 225 272 322
#     4   8  15  30  56  86 110 135 175 226 271 315
#     4  11  23  38  55  80 113 147 182 224 273 323
#     4  11  23  38  57  81 109 145 185 225 273 324
#     4   9  16  31  58  85 107 139 180 223 271 317
#
# _framework density 19.357809
#
# number of rings (size 3 to 8) (size 9 to 14) (size 15 to 20)
#    0.000    2.000    1.667    3.500    0.000    7.333 
#    0.000    3.333    0.000    5.000    0.000    0.000 
#    0.000    0.000    0.000    0.000    0.000    0.000 
#
# Total GULP energy -134031.967739 kJ/mol
# GULP energy per Si atom -5584.665322 kJ/mol
# Density = 1.931375 g / cm^3
# Si number density = 19.357809 Si / 1000 Ang^3
#
#
#
# Elastic Constant Matrix: (Units=GPa)
#
#
# Indices 1 2 3 4 5 6 
#
# 1 57.7041 2.4585 -8.4266 0.0000 17.4331 0.0000
# 2 2.4585 14.4118 7.3955 0.0000 -4.3382 0.0000
# 3 -8.4266 7.3955 60.0928 0.0000 9.2521 0.0000
# 4 0.0000 0.0000 0.0000 54.2519 0.0000 24.0034
# 5 17.4331 -4.3382 9.2521 0.0000 28.9531 0.0000
# 6 0.0000 0.0000 0.0000 24.0034 0.0000 31.7190
#
#
#
# Elastic Compliance Matrix: (Units=1/GPa)
#
#
# Indices 1 2 3 4 5 6 
#
# 1 0.025268 -0.014702 0.008450 0.000000 -0.020117 0.000000
# 2 -0.014702 0.089122 -0.017300 0.000000 0.027734 0.000000
# 3 0.008450 -0.017300 0.022231 0.000000 -0.014784 0.000000
# 4 0.000000 0.000000 0.000000 0.027711 0.000000 -0.020970
# 5 -0.020117 0.027734 -0.014784 0.000000 0.055531 0.000000
# 6 0.000000 0.000000 0.000000 -0.020970 0.000000 0.047396
#
#
# Mechanical properties :
#
#
# Convention : Reuss Voigt Hill
#
# Bulk Modulus (GPa) = 11.17113 15.00706 13.08910
# Shear Modulus (GPa) = 14.52639 31.70355 23.11497
#
# Velocity S-wave (km/s) = 2.74234 4.05132 3.45931
# Velocity P-wave (km/s) = 3.97626 5.44551 4.76782
#
# Compressibility (1/GPa) = 0.08951648
#
# Stress axis : x y z
#
# Youngs Moduli (GPa) = 39.57613 11.22061 44.98205
#
# Poissons Ratio (x) = 0.16497 -0.38009
# Poissons Ratio (y) = 0.58186 0.77818
# Poissons Ratio (z) = -0.33441 0.19411
#
# Static dielectric constant tensor:
#      x y z
#    x 1.682620 0.000000 0.003650 
#    y 0.000000 1.652870 0.000000 
#    z 0.003650 0.000000 1.659660 
# 
# From -- ./inp_files/66301.got.cif
#   From: 2010.05.17/outbox.cif.g08.bks.cpg/sg10_34_cif.got.tgz:66301.got - 2010.06.03 11:33:40.
