data_PCOD9150242
_publ_section_title
;
Structure prediction by ZEFSAII (Michael W. Deem and Ramdas Pophale) SiO2 
 PCOD9150242
Probable space group: P 2/M
;
_chemical_formula_sum "Si O2"
_cell_formula_units_Z 22
_cell_length_a 6.985697
_cell_length_b 13.015927
_cell_length_c 9.728263
_cell_angle_alpha 90.000000
_cell_angle_beta 65.640262
_cell_angle_gamma 90.000000
_cell_volume 805.797663
_symmetry_space_group_name_H-M "P 2/M"
_symmetry_group_IT_number 10
_symmetry_cell_setting 'monoclinic'
loop_
_space_group_symop_operation_xyz
x,y,z
-x,y,-z
-x,-y,-z
x,-y,z
loop_
_atom_site_type_symbol
_atom_site_label
_atom_site_fract_x
_atom_site_fract_y
_atom_site_fract_z
Si Si1 0.282613 0.889339 0.917644
Si Si2 0.623387 0.613349 0.818101
Si Si3 0.183611 0.163462 0.628865
Si Si4 0.000000 0.708960 0.000000
Si Si5 0.129450 0.389611 0.707068
Si Si6 0.695974 0.165815 0.695634
O O1 0.235532 0.875727 0.765721
O O2 0.532762 0.886827 0.844848
O O3 0.206695 0.000000 0.987870
O O4 0.164390 0.790895 0.016508
O O5 0.565343 0.500000 0.778378
O O6 0.876281 0.608586 0.765544
O O7 0.612971 0.715911 0.730029
O O8 0.500000 0.624223 0.000000
O O9 0.308142 0.124871 0.459160
O O10 0.214889 0.287381 0.613408
O O11 0.935767 0.150968 0.670619
O O12 0.858546 0.636194 0.135191
O O13 0.212441 0.500000 0.639682
#
# Coordination Sequence:
#
# PCOD9150242 Si02
#       6
#     4   4   4   2   4   4
#     4  11  23  39  59  81 108 145 189 236 284 329
#     4   9  17  30  51  80 111 144 183 222 266 328
#     4   9  21  37  55  83 115 144 184 231 270 325
#     4  10  20  36  56  82 116 144 180 234 278 326
#     4   9  17  31  54  81 112 150 181 215 271 330
#     4  10  20  37  58  81 112 149 183 225 279 326
#
# _framework density 27.302139
#
# number of rings (size 3 to 8) (size 9 to 14) (size 15 to 20)
#    0.000    2.364    0.000    2.182    0.000    2.909 
#    0.000    9.091    0.000   16.909    0.000    0.000 
#    0.000    0.000    0.000    0.000    0.000    0.000 
#
# Total GULP energy -123020.189298 kJ/mol
# GULP energy per Si atom -5591.826786 kJ/mol
# Density = 2.724000 g / cm^3
# Si number density = 27.302139 Si / 1000 Ang^3
#
#
#
# Elastic Constant Matrix: (Units=GPa)
#
#
# Indices 1 2 3 4 5 6 
#
# 1 88.6015 6.4047 4.6699 0.0000 -12.6631 0.0000
# 2 6.4047 161.1112 -8.9068 0.0000 -0.9618 0.0000
# 3 4.6699 -8.9068 118.9186 0.0000 -0.5409 0.0000
# 4 0.0000 0.0000 0.0000 -30.1912 0.0000 18.1574
# 5 -12.6631 -0.9618 -0.5409 0.0000 37.1024 0.0000
# 6 0.0000 0.0000 0.0000 18.1574 0.0000 -53.6145
#
#
#
# Elastic Compliance Matrix: (Units=1/GPa)
#
#
# Indices 1 2 3 4 5 6 
#
# 1 0.011925 -0.000477 -0.000486 0.000000 0.004051 0.000000
# 2 -0.000477 0.006253 0.000487 0.000000 0.000006 0.000000
# 3 -0.000486 0.000487 0.008465 0.000000 -0.000030 0.000000
# 4 0.000000 0.000000 0.000000 -0.041594 0.000000 -0.014087
# 5 0.004051 0.000006 -0.000030 0.000000 0.028335 0.000000
# 6 0.000000 0.000000 0.000000 -0.014087 0.000000 -0.023422
#
#
# Mechanical properties :
#
#
# Convention : Reuss Voigt Hill
#
# Bulk Modulus (GPa) = 38.92215 41.44076 40.18146
# Shear Modulus (GPa) = -9536.77502 15.09026 -4760.84238
#
# Velocity S-wave (km/s) = -59.16615 2.35354 -41.80367
# Velocity P-wave (km/s) = 68.21455 4.75363 48.11771
#
# Compressibility (1/GPa) = 0.02569231
#
# Stress axis : x y z
#
# Youngs Moduli (GPa) = 83.85408 159.92812 118.14010
#
# Poissons Ratio (x) = 0.07624 0.05737
# Poissons Ratio (y) = 0.03998 -0.05754
# Poissons Ratio (z) = 0.04072 -0.07790
#
# Static dielectric constant tensor:
#      x y z
#    x 2.296420 0.000000 0.096270 
#    y 0.000000 2.084180 0.000000 
#    z 0.096270 0.000000 2.086220 
# 
# From -- ./inp_files/41947.got.cif
#   From: 2010.05.17/outbox.cif.g08.bks.cpg/sg10_21_cif.got.tgz:41947.got - 2010.06.03 11:33:40.
