data_PCOD9150157
_publ_section_title
;
Structure prediction by ZEFSAII (Michael W. Deem and Ramdas Pophale) SiO2 
 PCOD9150157
Probable space group: P 2/M
;
_chemical_formula_sum "Si O2"
_cell_formula_units_Z 26
_cell_length_a 11.462586
_cell_length_b 21.277375
_cell_length_c 7.640268
_cell_angle_alpha 90.000000
_cell_angle_beta 40.106192
_cell_angle_gamma 90.000000
_cell_volume 1200.422728
_symmetry_space_group_name_H-M "P 2/M"
_symmetry_group_IT_number 10
_symmetry_cell_setting 'monoclinic'
loop_
_space_group_symop_operation_xyz
x,y,z
-x,y,-z
-x,-y,-z
x,-y,z
loop_
_atom_site_type_symbol
_atom_site_label
_atom_site_fract_x
_atom_site_fract_y
_atom_site_fract_z
Si Si1 0.767672 0.069317 0.444680
Si Si2 0.500000 0.274847 0.000000
Si Si3 0.525107 0.170669 0.260772
Si Si4 0.823950 0.929542 0.957265
Si Si5 0.720644 0.386070 0.859954
Si Si6 0.388342 0.424834 0.466720
Si Si7 0.031897 0.571973 0.725697
O O1 0.631079 0.124942 0.632077
O O2 0.961612 0.078289 0.312266
O O3 0.697857 0.000000 0.571871
O O4 0.795127 0.068826 0.201737
O O5 0.508554 0.232761 0.164094
O O6 0.324668 0.320018 0.180095
O O7 0.500000 0.181127 0.500000
O O8 0.706488 0.128889 0.027055
O O9 0.771721 0.000000 0.953685
O O10 0.826507 0.429199 0.600582
O O11 0.864392 0.386285 0.854906
O O12 0.528693 0.410669 0.150027
O O13 0.500000 0.397695 0.500000
O O14 0.376030 0.500000 0.496569
O O15 0.178570 0.404210 0.699027
O O16 0.970681 0.500000 0.829028
#
# Coordination Sequence:
#
# PCOD9150157 Si02
#       7
#     4   2   4   4   4   4   4
#     4   8  14  29  57  89 116 145 188 247 310 364
#     4  12  26  42  56  84 118 166 216 246 280 352
#     4  10  21  39  59  81 115 157 201 248 295 350
#     4   8  14  29  57  89 115 145 191 246 311 365
#     4  11  21  40  57  82 116 154 200 243 287 352
#     4  10  20  35  61  94 124 147 177 237 310 371
#     4  10  20  38  67  92 110 145 192 247 310 366
#
# _framework density 21.659037999999999
#
# number of rings (size 3 to 8) (size 9 to 14) (size 15 to 20)
#    0.000    2.308    1.538    3.231    0.000    4.308 
#    5.538    3.846    0.000    1.846    0.000    0.000 
#    0.000    0.000    0.000    0.000    0.000    0.000 
#
# Total GULP energy -144976.734770 kJ/mol
# GULP energy per Si atom -5576.028260 kJ/mol
# Density = 2.160974 g / cm^3
# Si number density = 21.659038 Si / 1000 Ang^3
#
#
#
# Elastic Constant Matrix: (Units=GPa)
#
#
# Indices 1 2 3 4 5 6 
#
# 1 141.6699 58.7512 32.9651 0.0000 -25.4100 0.0000
# 2 58.7512 103.3397 34.0705 0.0000 -17.0513 0.0000
# 3 32.9651 34.0705 59.1980 0.0000 -18.3742 0.0000
# 4 0.0000 0.0000 0.0000 -1.8927 0.0000 -14.8659
# 5 -25.4100 -17.0513 -18.3742 0.0000 43.3672 0.0000
# 6 0.0000 0.0000 0.0000 -14.8659 0.0000 52.9026
#
#
#
# Elastic Compliance Matrix: (Units=1/GPa)
#
#
# Indices 1 2 3 4 5 6 
#
# 1 0.009953 -0.004478 -0.001959 0.000000 0.003241 0.000000
# 2 -0.004478 0.014118 -0.005439 0.000000 0.000623 0.000000
# 3 -0.001959 -0.005439 0.023136 0.000000 0.006516 0.000000
# 4 0.000000 0.000000 0.000000 -0.164743 0.000000 -0.046294
# 5 0.003241 0.000623 0.006516 0.000000 0.027964 0.000000
# 6 0.000000 0.000000 0.000000 -0.046294 0.000000 0.005894
#
#
# Mechanical properties :
#
#
# Convention : Reuss Voigt Hill
#
# Bulk Modulus (GPa) = 42.63315 61.75347 52.19331
# Shear Modulus (GPa) = -95.95599 30.77012 -32.59293
#
# Velocity S-wave (km/s) = -6.66327 3.77325 -3.88341
# Velocity P-wave (km/s) = 6.28270 6.89614 2.01052
#
# Compressibility (1/GPa) = 0.02345593
#
# Stress axis : x y z
#
# Youngs Moduli (GPa) = 100.47442 70.82924 43.22214
#
# Poissons Ratio (x) = 0.31715 0.08469
# Poissons Ratio (y) = 0.44989 0.23508
# Poissons Ratio (z) = 0.19686 0.38523
#
# Static dielectric constant tensor:
#      x y z
#    x 1.992530 0.000000 0.093040 
#    y 0.000000 1.749250 0.000000 
#    z 0.093040 0.000000 1.847810 
# 
# From -- ./inp_files/26019.got.cif
#   From: 2010.05.17/outbox.cif.g08.bks.cpg/sg10_14_cif.got.tgz:26019.got - 2010.06.03 11:33:40.
