data_PCOD9150964
_publ_section_title
;
Structure prediction by ZEFSAII (Michael W. Deem and Ramdas Pophale) SiO2 
 PCOD9150964
Probable space group: P 2/M
;
_chemical_formula_sum "Si O2"
_cell_formula_units_Z 24
_cell_length_a 4.928176
_cell_length_b 10.712596
_cell_length_c 21.762465
_cell_angle_alpha 90.000000
_cell_angle_beta 58.585300
_cell_angle_gamma 90.000000
_cell_volume 980.506238
_symmetry_space_group_name_H-M "P 2/M"
_symmetry_group_IT_number 10
_symmetry_cell_setting 'monoclinic'
loop_
_space_group_symop_operation_xyz
x,y,z
-x,y,-z
-x,-y,-z
x,-y,z
loop_
_atom_site_type_symbol
_atom_site_label
_atom_site_fract_x
_atom_site_fract_y
_atom_site_fract_z
Si Si1 0.347661 0.500000 0.660136
Si Si2 0.839646 0.000000 0.234333
Si Si3 0.259814 0.356136 0.844041
Si Si4 0.047460 0.500000 0.571641
Si Si5 0.147713 0.783410 0.545737
Si Si6 0.557499 0.253804 0.921009
Si Si7 0.448033 0.000000 0.862963
Si Si8 0.449573 0.756198 0.298829
O O1 0.062325 0.500000 0.645182
O O2 0.382437 0.633805 0.689976
O O3 0.691931 0.500000 0.586968
O O4 0.802731 0.000000 0.163430
O O5 0.667635 0.122867 0.279026
O O6 0.205816 0.000000 0.209331
O O7 0.233743 0.500000 0.828440
O O8 0.350898 0.348430 0.904637
O O9 0.539566 0.285716 0.773637
O O10 0.929799 0.286244 0.868464
O O11 0.182029 0.633298 0.539463
O O12 0.500000 0.837307 0.500000
O O13 0.000000 0.827968 0.500000
O O14 0.889802 0.792402 0.631241
O O15 0.446611 0.121237 0.906288
O O16 0.500000 0.259961 0.000000
#
# Coordination Sequence:
#
# PCOD9150964 Si02
#       8
#     2   2   4   2   4   4   2   4
#     4  10  22  37  68  94 129 170 218 280 344 398
#     4  12  26  44  73  99 138 181 238 291 344 421
#     4  12  26  46  72 104 144 187 232 287 349 421
#     4  10  20  37  60  96 130 166 215 278 345 414
#     4  11  23  39  63  96 137 178 226 287 353 414
#     4  12  26  46  73 105 144 183 231 288 349 420
#     4  12  23  46  70 105 136 179 234 291 350 407
#     4  11  24  46  67 100 133 182 230 287 344 413
#
# _framework density 24.477153999999999
#
# number of rings (size 3 to 8) (size 9 to 14) (size 15 to 20)
#    0.000    0.667    4.167    3.750    0.000   10.000 
#    0.000    3.333    0.000    0.000    0.000    0.000 
#    0.000    0.000    0.000    0.000    0.000    0.000 
#
# Total GULP energy -134165.957341 kJ/mol
# GULP energy per Si atom -5590.248223 kJ/mol
# Density = 2.442144 g / cm^3
# Si number density = 24.477154 Si / 1000 Ang^3
#
#
#
# Elastic Constant Matrix: (Units=GPa)
#
#
# Indices 1 2 3 4 5 6 
#
# 1 84.8787 -3.4179 10.4771 0.0000 6.1977 0.0000
# 2 -3.4179 112.6616 16.0816 0.0000 -2.5680 0.0000
# 3 10.4771 16.0816 92.3488 0.0000 -5.0036 0.0000
# 4 0.0000 0.0000 0.0000 25.6293 0.0000 -6.7552
# 5 6.1977 -2.5680 -5.0036 0.0000 33.3653 0.0000
# 6 0.0000 0.0000 0.0000 -6.7552 0.0000 1.3701
#
#
#
# Elastic Compliance Matrix: (Units=1/GPa)
#
#
# Indices 1 2 3 4 5 6 
#
# 1 0.012182 0.000543 -0.001610 0.000000 -0.002462 0.000000
# 2 0.000543 0.009134 -0.001633 0.000000 0.000357 0.000000
# 3 -0.001610 -0.001633 0.011398 0.000000 0.001883 0.000000
# 4 0.000000 0.000000 0.000000 -0.130283 0.000000 -0.642328
# 5 -0.002462 0.000357 0.001883 0.000000 0.030738 0.000000
# 6 0.000000 0.000000 0.000000 -0.642328 0.000000 -2.436998
#
#
# Mechanical properties :
#
#
# Convention : Reuss Voigt Hill
#
# Bulk Modulus (GPa) = 36.61126 37.35228 36.98177
# Shear Modulus (GPa) = -2.00858 29.85617 13.92380
#
# Velocity S-wave (km/s) = -0.90685 3.49629 2.38764
# Velocity P-wave (km/s) = 3.72737 5.62067 4.76892
#
# Compressibility (1/GPa) = 0.02731400
#
# Stress axis : x y z
#
# Youngs Moduli (GPa) = 82.08874 109.48303 87.73833
#
# Poissons Ratio (x) = -0.05948 0.14127
# Poissons Ratio (y) = -0.04460 0.14326
# Poissons Ratio (z) = 0.13217 0.17877
#
# Static dielectric constant tensor:
#      x y z
#    x 1.342760 0.000000 0.011380 
#    y 0.000000 1.920600 0.000000 
#    z 0.011380 0.000000 2.029780 
# 
# From -- ./inp_files/81055.got.cif
#   From: 2010.05.17/outbox.cif.g08.bks.cpg/sg10_41_cif.got.tgz:81055.got - 2010.06.03 11:33:40.
