data_PCOD9150922
_publ_section_title
;
Structure prediction by ZEFSAII (Michael W. Deem and Ramdas Pophale) SiO2 
 PCOD9150922
Probable space group: P 2/M
;
_chemical_formula_sum "Si O2"
_cell_formula_units_Z 32
_cell_length_a 11.090638
_cell_length_b 18.748436
_cell_length_c 13.828531
_cell_angle_alpha 90.000000
_cell_angle_beta 148.345590
_cell_angle_gamma 90.000000
_cell_volume 1508.991855
_symmetry_space_group_name_H-M "P 2/M"
_symmetry_group_IT_number 10
_symmetry_cell_setting 'monoclinic'
loop_
_space_group_symop_operation_xyz
x,y,z
-x,y,-z
-x,-y,-z
x,-y,z
loop_
_atom_site_type_symbol
_atom_site_label
_atom_site_fract_x
_atom_site_fract_y
_atom_site_fract_z
Si Si1 0.858063 0.343517 0.183969
Si Si2 0.771689 0.579800 0.775771
Si Si3 0.266474 0.578082 0.526221
Si Si4 0.384571 0.673018 0.779055
Si Si5 0.133314 0.084118 0.489772
Si Si6 0.996161 0.185902 0.223693
Si Si7 0.529600 0.812084 0.791040
Si Si8 0.233281 0.256537 0.222961
O O1 0.735055 0.348611 0.203591
O O2 0.953063 0.263703 0.240379
O O3 0.060387 0.400323 0.314241
O O4 0.652899 0.351112 0.966323
O O5 0.779222 0.500000 0.731836
O O6 0.521542 0.577823 0.656914
O O7 0.756740 0.662709 0.729588
O O8 0.000000 0.580065 0.000000
O O9 0.220723 0.500000 0.535603
O O10 0.261585 0.636169 0.606607
O O11 0.394414 0.757693 0.769337
O O12 0.384634 0.117898 0.673757
O O13 0.000000 0.095891 0.500000
O O14 0.029408 0.128168 0.329197
O O15 0.135110 0.000000 0.471701
O O16 0.201814 0.200518 0.288271
O O17 0.770121 0.170409 0.005816
O O18 0.574714 0.767371 0.722914
O O19 0.000000 0.254718 0.000000
#
# Coordination Sequence:
#
# PCOD9150922 Si02
#       8
#     4   4   4   4   4   4   4   4
#     4  10  22  36  56  90 119 154 213 267 308 370
#     4   9  18  34  59  88 121 167 215 263 322 375
#     4  11  22  37  57  82 118 163 207 262 325 377
#     4  10  20  37  60  84 117 161 210 262 315 368
#     4  11  25  43  65  96 130 164 204 249 303 373
#     4  10  22  40  66  95 124 162 206 257 312 371
#     4  10  20  40  65  93 125 164 204 256 311 370
#     4   9  18  36  64  93 124 161 212 260 311 370
#
# _framework density 21.206211
#
# number of rings (size 3 to 8) (size 9 to 14) (size 15 to 20)
#    0.000    2.000    1.250    1.875    1.750    4.000 
#    0.000    4.375    0.000    3.750    0.000    0.000 
#    0.000    0.000    0.000    0.000    0.000    0.000 
#
# Total GULP energy -178674.561295 kJ/mol
# GULP energy per Si atom -5583.580040 kJ/mol
# Density = 2.115794 g / cm^3
# Si number density = 21.206211 Si / 1000 Ang^3
#
#
#
# Elastic Constant Matrix: (Units=GPa)
#
#
# Indices 1 2 3 4 5 6 
#
# 1 81.8959 50.9219 24.0305 0.0000 -0.6571 0.0000
# 2 50.9219 112.7436 47.2081 0.0000 -2.3659 0.0000
# 3 24.0305 47.2081 96.4312 0.0000 2.5142 0.0000
# 4 0.0000 0.0000 0.0000 88.2309 0.0000 -29.7919
# 5 -0.6571 -2.3659 2.5142 0.0000 26.1704 0.0000
# 6 0.0000 0.0000 0.0000 -29.7919 0.0000 42.1955
#
#
#
# Elastic Compliance Matrix: (Units=1/GPa)
#
#
# Indices 1 2 3 4 5 6 
#
# 1 0.017008 -0.007438 -0.000592 0.000000 -0.000188 0.000000
# 2 -0.007438 0.014471 -0.005273 0.000000 0.001628 0.000000
# 3 -0.000592 -0.005273 0.013145 0.000000 -0.001754 0.000000
# 4 0.000000 0.000000 0.000000 0.014882 0.000000 0.010507
# 5 -0.000188 0.001628 -0.001754 0.000000 0.038522 0.000000
# 6 0.000000 0.000000 0.000000 0.010507 0.000000 0.031118
#
#
# Mechanical properties :
#
#
# Convention : Reuss Voigt Hill
#
# Bulk Modulus (GPa) = 55.50242 59.48795 57.49518
# Shear Modulus (GPa) = 30.91048 42.58007 36.74527
#
# Velocity S-wave (km/s) = 3.82201 4.48583 4.16716
# Velocity P-wave (km/s) = 6.76066 7.41237 7.09400
#
# Compressibility (1/GPa) = 0.01801723
#
# Stress axis : x y z
#
# Youngs Moduli (GPa) = 58.79754 69.10270 76.07446
#
# Poissons Ratio (x) = 0.51396 0.04505
# Poissons Ratio (y) = 0.43731 0.40117
# Poissons Ratio (z) = 0.03482 0.36441
#
# Static dielectric constant tensor:
#      x y z
#    x 1.855930 0.000000 -0.026580 
#    y 0.000000 1.704250 0.000000 
#    z -0.026580 0.000000 1.810750 
# 
# From -- ./inp_files/65430.got.cif
#   From: 2010.05.17/outbox.cif.g08.bks.cpg/sg10_33_cif.got.tgz:65430.got - 2010.06.03 11:33:40.
