data_PCOD9150971
_publ_section_title
;
Structure prediction by ZEFSAII (Michael W. Deem and Ramdas Pophale) SiO2 
 PCOD9150971
Probable space group: P 2/M
;
_chemical_formula_sum "Si O2"
_cell_formula_units_Z 32
_cell_length_a 29.475666
_cell_length_b 7.758561
_cell_length_c 12.430716
_cell_angle_alpha 90.000000
_cell_angle_beta 147.070309
_cell_angle_gamma 90.000000
_cell_volume 1545.353949
_symmetry_space_group_name_H-M "P 2/M"
_symmetry_group_IT_number 10
_symmetry_cell_setting 'monoclinic'
loop_
_space_group_symop_operation_xyz
x,y,z
-x,y,-z
-x,-y,-z
x,-y,z
loop_
_atom_site_type_symbol
_atom_site_label
_atom_site_fract_x
_atom_site_fract_y
_atom_site_fract_z
Si Si1 0.842951 0.291228 0.919118
Si Si2 0.343340 0.300624 0.423846
Si Si3 0.002536 0.793339 0.381989
Si Si4 0.344227 0.208832 0.962472
Si Si5 0.501720 0.707418 0.126750
Si Si6 0.095932 0.291697 0.192363
Si Si7 0.400636 0.798781 0.307577
Si Si8 0.841734 0.203455 0.450382
O O1 0.842697 0.500000 0.921429
O O2 0.749761 0.225449 0.756974
O O3 0.864484 0.235358 0.840899
O O4 0.916438 0.239425 0.146936
O O5 0.335099 0.500000 0.441643
O O6 0.417706 0.225491 0.645872
O O7 0.371250 0.293564 0.356102
O O8 0.082114 0.725913 0.471362
O O9 0.000000 0.727609 0.500000
O O10 0.011811 0.000000 0.406363
O O11 0.251276 0.273828 0.752408
O O12 0.343561 0.000000 0.963079
O O13 0.416524 0.255804 0.021901
O O14 0.367256 0.269335 0.128092
O O15 0.508863 0.500000 0.136950
O O16 0.500000 0.770908 0.000000
O O17 0.099046 0.500000 0.202189
O O18 0.136831 0.225412 0.382170
O O19 0.000000 0.237498 0.000000
O O20 0.500000 0.791499 0.500000
O O21 0.375778 0.000000 0.268457
O O22 0.837368 0.000000 0.417343
#
# Coordination Sequence:
#
# PCOD9150971 Si02
#       8
#     4   4   4   4   4   4   4   4
#     4  10  22  39  58  84 116 149 188 235 282 332
#     4  10  22  38  57  84 116 148 187 235 281 331
#     4  10  22  39  59  83 114 152 190 231 281 336
#     4  10  22  39  58  84 116 149 188 235 282 332
#     4  10  22  39  59  83 114 152 190 231 281 336
#     4  10  20  37  61  84 110 147 190 235 282 333
#     4  10  20  37  61  84 110 147 190 235 282 333
#     4  10  22  38  57  84 116 148 187 235 281 331
#
# _framework density 20.707229999999999
#
# number of rings (size 3 to 8) (size 9 to 14) (size 15 to 20)
#    0.000    2.000    2.500    0.000    3.500    3.000 
#    0.000    0.000    0.000    0.000    0.000    0.000 
#    0.000    0.000    0.000    0.000    0.000    0.000 
#
# Total GULP energy -178633.547451 kJ/mol
# GULP energy per Si atom -5582.298358 kJ/mol
# Density = 2.066010 g / cm^3
# Si number density = 20.707230 Si / 1000 Ang^3
#
#
#
# Elastic Constant Matrix: (Units=GPa)
#
#
# Indices 1 2 3 4 5 6 
#
# 1 167.0557 7.3538 108.3515 0.0000 -7.2444 0.0000
# 2 7.3538 27.5174 9.0324 0.0000 3.6525 0.0000
# 3 108.3515 9.0324 202.7320 0.0000 -4.2328 0.0000
# 4 0.0000 0.0000 0.0000 27.5602 0.0000 -2.5795
# 5 -7.2444 3.6525 -4.2328 0.0000 36.0809 0.0000
# 6 0.0000 0.0000 0.0000 -2.5795 0.0000 37.1072
#
#
#
# Elastic Compliance Matrix: (Units=1/GPa)
#
#
# Indices 1 2 3 4 5 6 
#
# 1 0.009250 -0.001059 -0.004868 0.000000 0.001393 0.000000
# 2 -0.001059 0.037567 -0.001194 0.000000 -0.004156 0.000000
# 3 -0.004868 -0.001194 0.007588 0.000000 0.000034 0.000000
# 4 0.000000 0.000000 0.000000 0.036522 0.000000 0.002539
# 5 0.001393 -0.004156 0.000034 0.000000 0.028420 0.000000
# 6 0.000000 0.000000 0.000000 0.002539 0.000000 0.027125
#
#
# Mechanical properties :
#
#
# Convention : Reuss Voigt Hill
#
# Bulk Modulus (GPa) = 24.89843 71.86452 48.38147
# Shear Modulus (GPa) = 28.71868 38.32082 33.51975
#
# Velocity S-wave (km/s) = 3.72814 4.30653 4.02773
# Velocity P-wave (km/s) = 5.53011 7.71418 6.71159
#
# Compressibility (1/GPa) = 0.04016317
#
# Stress axis : x y z
#
# Youngs Moduli (GPa) = 108.10659 26.61886 131.78678
#
# Poissons Ratio (x) = 0.02820 0.64147
# Poissons Ratio (y) = 0.11451 0.15741
# Poissons Ratio (z) = 0.52621 0.03179
#
# Static dielectric constant tensor:
#      x y z
#    x 1.695600 0.000000 0.027020 
#    y 0.000000 1.793310 0.000000 
#    z 0.027020 0.000000 1.722930 
# 
# From -- ./inp_files/49882.got.cif
#   From: 2010.05.17/outbox.cif.g08.bks.cpg/sg10_25_cif.got.tgz:49882.got - 2010.06.03 11:33:40.
