data_PCOD9150954
_publ_section_title
;
Structure prediction by ZEFSAII (Michael W. Deem and Ramdas Pophale) SiO2 
 PCOD9150954
Probable space group: P 2/M
;
_chemical_formula_sum "Si O2"
_cell_formula_units_Z 32
_cell_length_a 11.318739
_cell_length_b 14.561255
_cell_length_c 15.106772
_cell_angle_alpha 90.000000
_cell_angle_beta 40.329801
_cell_angle_gamma 90.000000
_cell_volume 1611.379720
_symmetry_space_group_name_H-M "P 2/M"
_symmetry_group_IT_number 10
_symmetry_cell_setting 'monoclinic'
loop_
_space_group_symop_operation_xyz
x,y,z
-x,y,-z
-x,-y,-z
x,-y,z
loop_
_atom_site_type_symbol
_atom_site_label
_atom_site_fract_x
_atom_site_fract_y
_atom_site_fract_z
Si Si1 0.446912 0.103404 0.847911
Si Si2 0.835518 0.397245 0.021670
Si Si3 0.957782 0.248424 0.197906
Si Si4 0.641363 0.666402 0.496491
Si Si5 0.195529 0.798618 0.340224
Si Si6 0.658599 0.748202 0.224173
Si Si7 0.780490 0.399677 0.605372
Si Si8 0.800612 0.891741 0.849583
O O1 0.657329 0.127515 0.710965
O O2 0.342447 0.175932 0.849148
O O3 0.405062 0.000000 0.846750
O O4 0.382415 0.114734 0.986210
O O5 0.800173 0.500000 0.010439
O O6 0.672321 0.351399 0.169812
O O7 0.000000 0.402158 0.000000
O O8 0.894303 0.326595 0.911653
O O9 0.816790 0.291280 0.348648
O O10 0.836518 0.236779 0.180372
O O11 0.043275 0.152533 0.178139
O O12 0.500000 0.626606 0.500000
O O13 0.516740 0.744803 0.612995
O O14 0.722430 0.610170 0.534493
O O15 0.272761 0.696228 0.316144
O O16 0.187248 0.825536 0.242126
O O17 0.000000 0.806222 0.500000
O O18 0.711211 0.500000 0.675767
O O19 0.000000 0.401310 0.500000
O O20 0.824896 0.000000 0.813412
#
# Coordination Sequence:
#
# PCOD9150954 Si02
#       8
#     4   4   4   4   4   4   4   4
#     4  11  23  40  63  90 119 158 206 257 312 373
#     4   9  18  34  57  83 116 162 207 245 296 364
#     4  10  20  37  60  88 127 162 203 257 312 368
#     4  10  21  38  62  92 130 168 210 261 316 376
#     4  11  23  43  66  87 122 161 202 258 311 369
#     4  10  20  38  58  88 127 165 199 256 315 375
#     4  10  21  38  62  91 126 165 205 252 314 376
#     4  11  24  40  62  91 121 159 209 261 313 377
#
# _framework density 19.858758999999999
#
# number of rings (size 3 to 8) (size 9 to 14) (size 15 to 20)
#    0.000    1.750    2.500    2.250    0.000    3.750 
#    0.000    4.375    0.000    3.000    0.000    0.000 
#    0.000    0.000    0.000    0.000    0.000    0.000 
#
# Total GULP energy -178233.068648 kJ/mol
# GULP energy per Si atom -5569.783395 kJ/mol
# Density = 1.981356 g / cm^3
# Si number density = 19.858759 Si / 1000 Ang^3
#
#
#
# Elastic Constant Matrix: (Units=GPa)
#
#
# Indices 1 2 3 4 5 6 
#
# 1 86.2694 42.2404 17.1386 0.0000 10.8360 0.0000
# 2 42.2404 112.3602 39.1513 0.0000 16.4574 0.0000
# 3 17.1386 39.1513 93.9692 0.0000 5.6035 0.0000
# 4 0.0000 0.0000 0.0000 13.3625 0.0000 0.9484
# 5 10.8360 16.4574 5.6035 0.0000 24.2019 0.0000
# 6 0.0000 0.0000 0.0000 0.9484 0.0000 19.2551
#
#
#
# Elastic Compliance Matrix: (Units=1/GPa)
#
#
# Indices 1 2 3 4 5 6 
#
# 1 0.014425 -0.004819 -0.000440 0.000000 -0.003080 0.000000
# 2 -0.004819 0.013013 -0.004202 0.000000 -0.005719 0.000000
# 3 -0.000440 -0.004202 0.012463 0.000000 0.000169 0.000000
# 4 0.000000 0.000000 0.000000 0.075099 0.000000 -0.003699
# 5 -0.003080 -0.005719 0.000169 0.000000 0.046548 0.000000
# 6 0.000000 0.000000 0.000000 -0.003699 0.000000 0.052116
#
#
# Mechanical properties :
#
#
# Convention : Reuss Voigt Hill
#
# Bulk Modulus (GPa) = 47.66316 54.40659 51.03487
# Shear Modulus (GPa) = 20.87002 24.30181 22.58592
#
# Velocity S-wave (km/s) = 3.24531 3.50198 3.37609
# Velocity P-wave (km/s) = 6.17219 6.61877 6.39938
#
# Compressibility (1/GPa) = 0.02098056
#
# Stress axis : x y z
#
# Youngs Moduli (GPa) = 69.32314 76.84499 80.24003
#
# Poissons Ratio (x) = 0.37029 0.03528
# Poissons Ratio (y) = 0.33404 0.33717
# Poissons Ratio (z) = 0.03048 0.32290
#
# Static dielectric constant tensor:
#      x y z
#    x 1.784480 0.000000 -0.017340 
#    y 0.000000 1.676390 0.000000 
#    z -0.017340 0.000000 1.717080 
# 
# From -- ./inp_files/65097.got.cif
#   From: 2010.05.17/outbox.cif.g08.bks.cpg/sg10_33_cif.got.tgz:65097.got - 2010.06.03 11:33:40.
