data_PCOD9150373
_publ_section_title
;
Structure prediction by ZEFSAII (Michael W. Deem and Ramdas Pophale) SiO2 
 PCOD9150373
Probable space group: P 2/M
;
_chemical_formula_sum "Si O2"
_cell_formula_units_Z 32
_cell_length_a 14.861292
_cell_length_b 9.488138
_cell_length_c 12.086225
_cell_angle_alpha 90.000000
_cell_angle_beta 94.392735
_cell_angle_gamma 90.000000
_cell_volume 1699.223890
_symmetry_space_group_name_H-M "P 2/M"
_symmetry_group_IT_number 10
_symmetry_cell_setting 'monoclinic'
loop_
_space_group_symop_operation_xyz
x,y,z
-x,y,-z
-x,-y,-z
x,-y,z
loop_
_atom_site_type_symbol
_atom_site_label
_atom_site_fract_x
_atom_site_fract_y
_atom_site_fract_z
Si Si1 0.514050 0.831034 0.373384
Si Si2 0.340616 0.167279 0.205286
Si Si3 0.161573 0.663456 0.574030
Si Si4 0.334121 0.664503 0.743081
Si Si5 0.186011 0.164007 0.363941
Si Si6 0.973914 0.164939 0.301805
Si Si7 0.712564 0.331500 0.012682
Si Si8 0.080700 0.335078 0.919365
O O1 0.500000 0.787662 0.500000
O O2 0.425636 0.800026 0.291529
O O3 0.597448 0.755389 0.322559
O O4 0.527886 0.000000 0.374671
O O5 0.251178 0.198042 0.268510
O O6 0.336143 0.252691 0.091575
O O7 0.342266 0.000000 0.181975
O O8 0.139357 0.500000 0.553264
O O9 0.235597 0.672459 0.678112
O O10 0.202193 0.734497 0.468653
O O11 0.075671 0.752361 0.604858
O O12 0.361586 0.500000 0.743118
O O13 0.325434 0.709149 0.870107
O O14 0.081565 0.177819 0.320934
O O15 0.202915 0.000000 0.396743
O O16 0.940843 0.235795 0.185584
O O17 0.950351 0.000000 0.304527
O O18 0.702298 0.500000 0.000091
O O19 0.820422 0.301646 0.022651
O O20 0.083677 0.500000 0.883370
O O21 0.000000 0.321233 0.000000
#
# Coordination Sequence:
#
# PCOD9150373 Si02
#       8
#     4   4   4   4   4   4   4   4
#     4  10  22  41  65  91 118 151 192 240 296 355
#     4  10  22  40  61  87 119 152 193 244 292 351
#     4  11  22  38  59  84 117 155 200 245 291 353
#     4  10  22  40  61  86 119 155 194 245 295 349
#     4  10  22  39  57  83 120 156 194 243 299 351
#     4  11  22  35  55  84 118 155 196 244 296 351
#     4  10  21  39  59  84 120 156 196 243 293 348
#     4  10  20  36  58  82 115 159 204 249 291 342
#
# _framework density 18.832127
#
# number of rings (size 3 to 8) (size 9 to 14) (size 15 to 20)
#    0.000    1.750    1.250    2.625    0.000    7.500 
#    0.000    2.500    0.000    0.000    0.000    0.000 
#    0.000    0.000    0.000    0.000    0.000    0.000 
#
# Total GULP energy -178811.083140 kJ/mol
# GULP energy per Si atom -5587.846348 kJ/mol
# Density = 1.878926 g / cm^3
# Si number density = 18.832127 Si / 1000 Ang^3
#
#
#
# Elastic Constant Matrix: (Units=GPa)
#
#
# Indices 1 2 3 4 5 6 
#
# 1 81.3396 41.1047 43.3673 0.0000 -15.3484 0.0000
# 2 41.1047 67.2706 63.7292 0.0000 -0.3490 0.0000
# 3 43.3673 63.7292 128.7520 0.0000 6.0321 0.0000
# 4 0.0000 0.0000 0.0000 33.8488 0.0000 5.4440
# 5 -15.3484 -0.3490 6.0321 0.0000 25.4340 0.0000
# 6 0.0000 0.0000 0.0000 5.4440 0.0000 18.5609
#
#
#
# Elastic Compliance Matrix: (Units=1/GPa)
#
#
# Indices 1 2 3 4 5 6 
#
# 1 0.021642 -0.010632 -0.002661 0.000000 0.013546 0.000000
# 2 -0.010632 0.033565 -0.012897 0.000000 -0.002897 0.000000
# 3 -0.002661 -0.012897 0.015301 0.000000 -0.005412 0.000000
# 4 0.000000 0.000000 0.000000 0.031006 0.000000 -0.009094
# 5 0.013546 -0.002897 -0.005412 0.000000 0.048735 0.000000
# 6 0.000000 0.000000 0.000000 -0.009094 0.000000 0.056544
#
#
# Mechanical properties :
#
#
# Convention : Reuss Voigt Hill
#
# Bulk Modulus (GPa) = 55.16908 63.75163 59.46035
# Shear Modulus (GPa) = 18.85251 24.17947 21.51599
#
# Velocity S-wave (km/s) = 3.16742 3.58711 3.38378
# Velocity P-wave (km/s) = 6.53724 7.14721 6.84902
#
# Compressibility (1/GPa) = 0.01812610
#
# Stress axis : x y z
#
# Youngs Moduli (GPa) = 46.20596 29.79291 65.35719
#
# Poissons Ratio (x) = 0.31677 0.17395
# Poissons Ratio (y) = 0.49128 0.84290
# Poissons Ratio (z) = 0.12298 0.38424
#
# Static dielectric constant tensor:
#      x y z
#    x 1.648530 0.000000 0.001160 
#    y 0.000000 1.628620 0.000000 
#    z 0.001160 0.000000 1.636770 
# 
# From -- ./inp_files/49939.got.cif
#   From: 2010.05.17/outbox.cif.g08.bks.cpg/sg10_25_cif.got.tgz:49939.got - 2010.06.03 11:33:40.
