data_PCOD9150050
_publ_section_title
;
Structure prediction by ZEFSAII (Michael W. Deem and Ramdas Pophale) SiO2 
 PCOD9150050
Probable space group: P 2/M
;
_chemical_formula_sum "Si O2"
_cell_formula_units_Z 24
_cell_length_a 7.427914
_cell_length_b 10.861454
_cell_length_c 19.133015
_cell_angle_alpha 90.000000
_cell_angle_beta 46.667565
_cell_angle_gamma 90.000000
_cell_volume 1122.799548
_symmetry_space_group_name_H-M "P 2/M"
_symmetry_group_IT_number 10
_symmetry_cell_setting 'monoclinic'
loop_
_space_group_symop_operation_xyz
x,y,z
-x,y,-z
-x,-y,-z
x,-y,z
loop_
_atom_site_type_symbol
_atom_site_label
_atom_site_fract_x
_atom_site_fract_y
_atom_site_fract_z
Si Si1 0.724174 0.000000 0.107308
Si Si2 0.374809 0.500000 0.907497
Si Si3 0.921781 0.753054 0.801657
Si Si4 0.765156 0.858657 0.611733
Si Si5 0.282719 0.000000 0.112913
Si Si6 0.345191 0.140179 0.607958
Si Si7 0.509696 0.747067 0.190480
Si Si8 0.133463 0.500000 0.120200
O O1 0.457137 0.000000 0.135615
O O2 0.689135 0.864907 0.150739
O O3 0.000000 0.000000 0.000000
O O4 0.360745 0.617232 0.859452
O O5 0.629337 0.500000 0.888030
O O6 0.188947 0.500000 0.022813
O O7 0.892669 0.882069 0.849250
O O8 0.654895 0.749639 0.836148
O O9 0.982998 0.631501 0.828465
O O10 0.122187 0.773530 0.688152
O O11 0.531647 0.863570 0.622702
O O12 0.685238 0.765303 0.694005
O O13 0.000000 0.827116 0.500000
O O14 0.806052 0.000000 0.627609
O O15 0.500000 0.000000 0.000000
O O16 0.500000 0.180679 0.500000
O O17 0.255656 0.000000 0.618394
#
# Coordination Sequence:
#
# PCOD9150050 Si02
#       8
#     2   2   4   4   2   4   4   2
#     4  10  22  36  55  80 115 152 189 238 283 334
#     4   9  20  38  59  81 113 157 195 233 281 341
#     4  10  20  36  58  85 115 149 192 239 283 335
#     4  10  20  35  58  86 118 152 185 232 291 344
#     4  10  22  32  55  86 111 146 193 242 281 328
#     4  10  20  35  58  89 118 146 186 238 289 339
#     4  10  20  38  58  83 115 152 192 233 286 339
#     4   9  20  36  58  82 116 154 192 234 288 335
#
# _framework density 21.375140999999999
#
# number of rings (size 3 to 8) (size 9 to 14) (size 15 to 20)
#    0.000    2.167    1.667    1.000    7.000    2.667 
#    0.000    2.083    0.000    0.000    0.000    0.000 
#    0.000    0.000    0.000    0.000    0.000    0.000 
#
# Total GULP energy -133665.293381 kJ/mol
# GULP energy per Si atom -5569.387224 kJ/mol
# Density = 2.132649 g / cm^3
# Si number density = 21.375141 Si / 1000 Ang^3
#
#
#
# Elastic Constant Matrix: (Units=GPa)
#
#
# Indices 1 2 3 4 5 6 
#
# 1 75.2421 21.9611 -7.0552 0.0000 -1.8175 0.0000
# 2 21.9611 187.0224 109.9645 0.0000 8.5219 0.0000
# 3 -7.0552 109.9645 140.5790 0.0000 7.8775 0.0000
# 4 0.0000 0.0000 0.0000 22.2314 0.0000 3.6035
# 5 -1.8175 8.5219 7.8775 0.0000 31.0691 0.0000
# 6 0.0000 0.0000 0.0000 3.6035 0.0000 -15.4674
#
#
#
# Elastic Compliance Matrix: (Units=1/GPa)
#
#
# Indices 1 2 3 4 5 6 
#
# 1 0.014865 -0.004068 0.003872 0.000000 0.001004 0.000000
# 2 -0.004068 0.011031 -0.008775 0.000000 -0.001039 0.000000
# 3 0.003872 -0.008775 0.014226 0.000000 -0.000974 0.000000
# 4 0.000000 0.000000 0.000000 0.043345 0.000000 0.010098
# 5 0.001004 -0.001039 -0.000974 0.000000 0.032777 0.000000
# 6 0.000000 0.000000 0.000000 0.010098 0.000000 -0.062299
#
#
# Mechanical properties :
#
#
# Convention : Reuss Voigt Hill
#
# Bulk Modulus (GPa) = 45.08441 72.50938 58.79690
# Shear Modulus (GPa) = 63.06751 26.09817 44.58284
#
# Velocity S-wave (km/s) = 5.43775 3.49801 4.57194
# Velocity P-wave (km/s) = 7.78224 7.09301 7.44560
#
# Compressibility (1/GPa) = 0.02218062
#
# Stress axis : x y z
#
# Youngs Moduli (GPa) = 67.27233 90.65029 70.29226
#
# Poissons Ratio (x) = 0.36873 -0.27214
# Poissons Ratio (y) = 0.27364 0.61681
# Poissons Ratio (z) = -0.26045 0.79545
#
# Static dielectric constant tensor:
#      x y z
#    x 1.830890 0.000000 -0.016320 
#    y 0.000000 1.834600 0.000000 
#    z -0.016320 0.000000 1.771050 
# 
# From -- ./inp_files/82436.got.cif
#   From: 2010.05.17/outbox.cif.g08.bks.cpg/sg10_42_cif.got.tgz:82436.got - 2010.06.03 11:33:40.
