data_PCOD9150405
_publ_section_title
;
Structure prediction by ZEFSAII (Michael W. Deem and Ramdas Pophale) SiO2 
 PCOD9150405
Probable space group: P 2/M
;
_chemical_formula_sum "Si O2"
_cell_formula_units_Z 24
_cell_length_a 15.655226
_cell_length_b 11.539842
_cell_length_c 14.465314
_cell_angle_alpha 90.000000
_cell_angle_beta 28.945935
_cell_angle_gamma 90.000000
_cell_volume 1264.789251
_symmetry_space_group_name_H-M "P 2/M"
_symmetry_group_IT_number 10
_symmetry_cell_setting 'monoclinic'
loop_
_space_group_symop_operation_xyz
x,y,z
-x,y,-z
-x,-y,-z
x,-y,z
loop_
_atom_site_type_symbol
_atom_site_label
_atom_site_fract_x
_atom_site_fract_y
_atom_site_fract_z
Si Si1 0.062486 0.133251 0.342954
Si Si2 0.445321 0.136941 0.944660
Si Si3 0.266957 0.363038 0.814866
Si Si4 0.135446 0.367784 0.735318
Si Si5 0.265251 0.188191 0.469848
Si Si6 0.460565 0.875109 0.646194
O O1 0.000000 0.186389 0.500000
O O2 0.900194 0.133611 0.426672
O O3 0.112563 0.000000 0.317816
O O4 0.244063 0.180716 0.128754
O O5 0.583123 0.203961 0.750435
O O6 0.458802 0.000000 0.904562
O O7 0.500000 0.144218 0.000000
O O8 0.325801 0.500000 0.771794
O O9 0.245286 0.342186 0.724927
O O10 0.372130 0.250248 0.751815
O O11 0.070035 0.355061 0.043253
O O12 0.169296 0.500000 0.682963
O O13 0.189390 0.297449 0.595232
O O14 0.362718 0.121736 0.460335
O O15 0.500000 0.874706 0.500000
O O16 0.364756 0.000000 0.756350
#
# Coordination Sequence:
#
# PCOD9150405 Si02
#       6
#     4   4   4   4   4   4
#     4  10  20  36  58  84 116 157 203 250 301 360
#     4  10  20  36  58  87 119 155 206 255 296 366
#     4   9  19  41  65  84 114 166 222 266 302 356
#     4   9  20  39  63  87 112 152 215 270 306 361
#     4  12  22  36  59  87 124 163 201 246 315 372
#     4  11  23  37  52  87 135 168 199 252 316 378
#
# _framework density 18.975493
#
# number of rings (size 3 to 8) (size 9 to 14) (size 15 to 20)
#    0.000    1.833    3.333    2.500    2.333    1.000 
#    0.000    3.333    0.000    1.000    0.000    0.000 
#    0.000    0.000    0.000    0.000    0.000    0.000 
#
# Total GULP energy -133659.636565 kJ/mol
# GULP energy per Si atom -5569.151524 kJ/mol
# Density = 1.893230 g / cm^3
# Si number density = 18.975493 Si / 1000 Ang^3
#
#
#
# Elastic Constant Matrix: (Units=GPa)
#
#
# Indices 1 2 3 4 5 6 
#
# 1 96.6954 25.7839 36.0641 0.0000 -1.3918 0.0000
# 2 25.7839 101.1435 35.9616 0.0000 -4.9379 0.0000
# 3 36.0641 35.9616 102.0883 0.0000 7.0952 0.0000
# 4 0.0000 0.0000 0.0000 21.2352 0.0000 -0.7846
# 5 -1.3918 -4.9379 7.0952 0.0000 37.8723 0.0000
# 6 0.0000 0.0000 0.0000 -0.7846 0.0000 15.1202
#
#
#
# Elastic Compliance Matrix: (Units=1/GPa)
#
#
# Indices 1 2 3 4 5 6 
#
# 1 0.012224 -0.001729 -0.003774 0.000000 0.000931 0.000000
# 2 -0.001729 0.011739 -0.003674 0.000000 0.002155 0.000000
# 3 -0.003774 -0.003674 0.012630 0.000000 -0.002984 0.000000
# 4 0.000000 0.000000 0.000000 0.047182 0.000000 0.002448
# 5 0.000931 0.002155 -0.002984 0.000000 0.027279 0.000000
# 6 0.000000 0.000000 0.000000 0.002448 0.000000 0.066264
#
#
# Mechanical properties :
#
#
# Convention : Reuss Voigt Hill
#
# Bulk Modulus (GPa) = 54.82709 55.06072 54.94391
# Shear Modulus (GPa) = 24.78295 28.32005 26.55150
#
# Velocity S-wave (km/s) = 3.61785 3.86742 3.74472
# Velocity P-wave (km/s) = 6.81235 7.00160 6.90762
#
# Compressibility (1/GPa) = 0.01823916
#
# Stress axis : x y z
#
# Youngs Moduli (GPa) = 81.80845 85.18382 79.17446
#
# Poissons Ratio (x) = 0.14727 0.29879
# Poissons Ratio (y) = 0.14144 0.29092
# Poissons Ratio (z) = 0.30873 0.31300
#
# Static dielectric constant tensor:
#      x y z
#    x 1.666300 0.000000 -0.014080 
#    y 0.000000 1.684180 0.000000 
#    z -0.014080 0.000000 1.708230 
# 
# From -- ./inp_files/67259.got.cif
#   From: 2010.05.17/outbox.cif.g08.bks.cpg/sg10_34_cif.got.tgz:67259.got - 2010.06.03 11:33:40.
