data_PCOD9150158
_publ_section_title
;
Structure prediction by ZEFSAII (Michael W. Deem and Ramdas Pophale) SiO2 
 PCOD9150158
Probable space group: P 2/M
;
_chemical_formula_sum "Si O2"
_cell_formula_units_Z 28
_cell_length_a 10.554009
_cell_length_b 11.754414
_cell_length_c 17.615225
_cell_angle_alpha 90.000000
_cell_angle_beta 35.268980
_cell_angle_gamma 90.000000
_cell_volume 1261.813625
_symmetry_space_group_name_H-M "P 2/M"
_symmetry_group_IT_number 10
_symmetry_cell_setting 'monoclinic'
loop_
_space_group_symop_operation_xyz
x,y,z
-x,y,-z
-x,-y,-z
x,-y,z
loop_
_atom_site_type_symbol
_atom_site_label
_atom_site_fract_x
_atom_site_fract_y
_atom_site_fract_z
Si Si1 0.991124 0.727569 0.657574
Si Si2 0.597759 0.133599 0.824483
Si Si3 0.352632 0.124690 0.643148
Si Si4 0.113187 0.672641 0.762153
Si Si5 0.485414 0.500000 0.598321
Si Si6 0.278454 0.123598 0.412654
Si Si7 0.610231 0.373453 0.030020
Si Si8 0.011088 0.500000 0.584087
O O1 0.815831 0.824754 0.763382
O O2 0.122818 0.683399 0.665823
O O3 0.135471 0.777742 0.519198
O O4 0.891610 0.611680 0.674313
O O5 0.664959 0.135506 0.702745
O O6 0.446423 0.246630 0.909619
O O7 0.537070 0.000000 0.871714
O O8 0.500000 0.169010 0.500000
O O9 0.145588 0.197413 0.768011
O O10 0.507239 0.120986 0.640171
O O11 0.283858 0.000000 0.651559
O O12 0.322157 0.606469 0.693996
O O13 0.875326 0.625934 0.895513
O O14 0.500000 0.500000 0.500000
O O15 0.727505 0.500000 0.517845
O O16 0.168027 0.000000 0.478876
O O17 0.556591 0.500000 0.090410
O O18 0.500000 0.373015 0.000000
O O19 0.000000 0.500000 0.500000
#
# Coordination Sequence:
#
# PCOD9150158 Si02
#       8
#     4   4   4   4   2   4   4   2
#     4  12  22  38  63 101 137 176 221 282 356 416
#     4  11  25  43  67  97 136 187 238 286 345 418
#     4  10  20  35  61  95 131 169 215 276 346 417
#     4  12  22  39  66  99 130 176 228 287 347 414
#     4  12  22  40  66  95 139 178 224 271 353 426
#     4  10  21  40  62  93 137 179 216 276 358 423
#     4  11  25  46  70  92 133 184 236 295 349 406
#     4  12  26  38  61 102 144 182 221 278 339 431
#
# _framework density 22.190283000000001
#
# number of rings (size 3 to 8) (size 9 to 14) (size 15 to 20)
#    0.000    0.857    5.000    3.000    1.000    2.571 
#    1.286    0.714    0.000    3.429    0.000    0.000 
#    0.000    0.000    0.000    0.000    0.000    0.000 
#
# Total GULP energy -156022.403512 kJ/mol
# GULP energy per Si atom -5572.228697 kJ/mol
# Density = 2.213978 g / cm^3
# Si number density = 22.190283 Si / 1000 Ang^3
#
#
#
# Elastic Constant Matrix: (Units=GPa)
#
#
# Indices 1 2 3 4 5 6 
#
# 1 84.8351 11.8178 10.0475 0.0000 -12.6188 0.0000
# 2 11.8178 191.0927 59.1015 0.0000 -4.3524 0.0000
# 3 10.0475 59.1015 58.9540 0.0000 -20.4433 0.0000
# 4 0.0000 0.0000 0.0000 38.2594 0.0000 -1.8546
# 5 -12.6188 -4.3524 -20.4433 0.0000 27.6828 0.0000
# 6 0.0000 0.0000 0.0000 -1.8546 0.0000 35.2683
#
#
#
# Elastic Compliance Matrix: (Units=1/GPa)
#
#
# Indices 1 2 3 4 5 6 
#
# 1 0.012754 -0.000953 0.001002 0.000000 0.006404 0.000000
# 2 -0.000953 0.008461 -0.010766 0.000000 -0.007055 0.000000
# 3 0.001002 -0.010766 0.036504 0.000000 0.025722 0.000000
# 4 0.000000 0.000000 0.000000 0.026204 0.000000 0.001378
# 5 0.006404 -0.007055 0.025722 0.000000 0.056929 0.000000
# 6 0.000000 0.000000 0.000000 0.001378 0.000000 0.028427
#
#
# Mechanical properties :
#
#
# Convention : Reuss Voigt Hill
#
# Bulk Modulus (GPa) = 27.55882 55.20169 41.38025
# Shear Modulus (GPa) = 24.65387 37.16978 30.91182
#
# Velocity S-wave (km/s) = 3.33681 4.09717 3.73639
# Velocity P-wave (km/s) = 5.22418 6.87844 6.10758
#
# Compressibility (1/GPa) = 0.03628603
#
# Stress axis : x y z
#
# Youngs Moduli (GPa) = 78.40556 118.18788 27.39408
#
# Poissons Ratio (x) = 0.11262 -0.02746
# Poissons Ratio (y) = 0.07471 0.29493
# Poissons Ratio (z) = -0.07859 1.27244
#
# Static dielectric constant tensor:
#      x y z
#    x 1.839090 0.000000 -0.006080 
#    y 0.000000 1.959480 0.000000 
#    z -0.006080 0.000000 1.886100 
# 
# From -- ./inp_files/83962.got.cif
#   From: 2010.05.17/outbox.cif.g08.bks.cpg/sg10_42_cif.got.tgz:83962.got - 2010.06.03 11:33:40.
