data_PCOD9150767
_publ_section_title
;
Structure prediction by ZEFSAII (Michael W. Deem and Ramdas Pophale) SiO2 
 PCOD9150767
Probable space group: P 2/M
;
_chemical_formula_sum "Si O2"
_cell_formula_units_Z 26
_cell_length_a 5.801715
_cell_length_b 16.257018
_cell_length_c 13.304360
_cell_angle_alpha 90.000000
_cell_angle_beta 113.844376
_cell_angle_gamma 90.000000
_cell_volume 1147.743141
_symmetry_space_group_name_H-M "P 2/M"
_symmetry_group_IT_number 10
_symmetry_cell_setting 'monoclinic'
loop_
_space_group_symop_operation_xyz
x,y,z
-x,y,-z
-x,-y,-z
x,-y,z
loop_
_atom_site_type_symbol
_atom_site_label
_atom_site_fract_x
_atom_site_fract_y
_atom_site_fract_z
Si Si1 0.272830 0.186771 0.786654
Si Si2 0.000000 0.668581 0.500000
Si Si3 0.981806 0.650419 0.724080
Si Si4 0.494654 0.252305 0.373276
Si Si5 0.213801 0.406130 0.961266
Si Si6 0.799223 0.090775 0.682702
Si Si7 0.264068 0.906008 0.086351
O O1 0.088555 0.260809 0.784241
O O2 0.418515 0.230131 0.722700
O O3 0.487246 0.146331 0.891291
O O4 0.091104 0.113890 0.716642
O O5 0.950972 0.628790 0.380847
O O6 0.750874 0.723144 0.474462
O O7 0.088118 0.592465 0.828656
O O8 0.685433 0.668792 0.667639
O O9 0.360522 0.168017 0.383213
O O10 0.255175 0.500000 0.005414
O O11 0.500000 0.369549 0.000000
O O12 0.000000 0.369489 0.000000
O O13 0.763152 0.089406 0.797306
O O14 0.737655 0.000000 0.632789
O O15 0.287257 0.000000 0.052799
O O16 0.000000 0.871068 0.000000
#
# Coordination Sequence:
#
# PCOD9150767 Si02
#       7
#     4   2   4   4   4   4   4
#     4   9  18  32  48  76 111 153 200 266 320 382
#     4  10  20  36  66  90 124 164 210 276 332 382
#     4  10  21  39  63  94 125 166 213 265 323 384
#     4   9  19  35  54  84 117 157 206 267 332 385
#     4  10  24  47  74 104 143 184 217 256 314 390
#     4   9  17  31  49  69 103 153 208 265 324 391
#     4   9  17  29  43  64 102 151 204 260 322 380
#
# _framework density 22.653154000000001
#
# number of rings (size 3 to 8) (size 9 to 14) (size 15 to 20)
#    0.000    2.615    0.000    0.923    4.308    1.231 
#    8.308    3.077    0.000   14.769    0.000    0.000 
#    0.000    0.000    0.000    0.000    0.000    0.923 
#
# Total GULP energy -144766.997344 kJ/mol
# GULP energy per Si atom -5567.961436 kJ/mol
# Density = 2.260159 g / cm^3
# Si number density = 22.653154 Si / 1000 Ang^3
#
#
#
# Elastic Constant Matrix: (Units=GPa)
#
#
# Indices 1 2 3 4 5 6 
#
# 1 109.5405 4.3680 43.1313 0.0000 17.2685 0.0000
# 2 4.3680 29.2115 4.6601 0.0000 6.9738 0.0000
# 3 43.1313 4.6601 122.7603 0.0000 1.5143 0.0000
# 4 0.0000 0.0000 0.0000 806.6851 0.0000-1356.4423
# 5 17.2685 6.9738 1.5143 0.0000 51.0553 0.0000
# 6 0.0000 0.0000 0.0000-1356.4423 0.0000 2322.1857
#
#
#
# Elastic Compliance Matrix: (Units=1/GPa)
#
#
# Indices 1 2 3 4 5 6 
#
# 1 0.011250 -0.000185 -0.003900 0.000000 -0.003664 0.000000
# 2 -0.000185 0.035594 -0.001227 0.000000 -0.004763 0.000000
# 3 -0.003900 -0.001227 0.009548 0.000000 0.001204 0.000000
# 4 0.000000 0.000000 0.000000 0.069658 0.000000 0.040689
# 5 -0.003664 -0.004763 0.001204 0.000000 0.021441 0.000000
# 6 0.000000 0.000000 0.000000 0.040689 0.000000 0.024198
#
#
# Mechanical properties :
#
#
# Convention : Reuss Voigt Hill
#
# Bulk Modulus (GPa) = 21.85044 40.64791 31.24918
# Shear Modulus (GPa) = 25.30752 649.94208 337.62480
#
# Velocity S-wave (km/s) = 3.34604 16.95680 12.22148
# Velocity P-wave (km/s) = 4.95929 20.03397 14.59374
#
# Compressibility (1/GPa) = 0.04576566
#
# Stress axis : x y z
#
# Youngs Moduli (GPa) = 88.89048 28.09491 104.73327
#
# Poissons Ratio (x) = 0.00520 0.40850
# Poissons Ratio (y) = 0.01646 0.12854
# Poissons Ratio (z) = 0.34670 0.03448
#
# Static dielectric constant tensor:
#      x y z
#    x 1.912220 0.000000 -0.014940 
#    y 0.000000 1.862230 0.000000 
#    z -0.014940 0.000000 1.877230 
# 
# From -- ./inp_files/59349.got.cif
#   From: 2010.05.17/outbox.cif.g08.bks.cpg/sg10_30_cif.got.tgz:59349.got - 2010.06.03 11:33:40.
