data_PCOD9150639
_publ_section_title
;
Structure prediction by ZEFSAII (Michael W. Deem and Ramdas Pophale) SiO2 
 PCOD9150639
Probable space group: P 2/M
;
_chemical_formula_sum "Si O2"
_cell_formula_units_Z 28
_cell_length_a 16.121752
_cell_length_b 11.278499
_cell_length_c 18.821631
_cell_angle_alpha 90.000000
_cell_angle_beta 23.541944
_cell_angle_gamma 90.000000
_cell_volume 1366.944671
_symmetry_space_group_name_H-M "P 2/M"
_symmetry_group_IT_number 10
_symmetry_cell_setting 'monoclinic'
loop_
_space_group_symop_operation_xyz
x,y,z
-x,y,-z
-x,-y,-z
x,-y,z
loop_
_atom_site_type_symbol
_atom_site_label
_atom_site_fract_x
_atom_site_fract_y
_atom_site_fract_z
Si Si1 0.187637 0.869593 0.622781
Si Si2 0.324642 0.371146 0.577629
Si Si3 0.909750 0.366336 0.996919
Si Si4 0.331930 0.638060 0.072720
Si Si5 0.728576 0.787685 0.023144
Si Si6 0.909025 0.627904 0.493111
Si Si7 0.286797 0.124933 0.380722
O O1 0.318897 0.752623 0.540548
O O2 0.196900 0.874674 0.530715
O O3 0.259737 0.000000 0.592637
O O4 0.951680 0.848490 0.834408
O O5 0.500000 0.366796 0.500000
O O6 0.344900 0.500000 0.523589
O O7 0.104939 0.374599 0.790665
O O8 0.833586 0.500000 0.072115
O O9 0.747298 0.290113 0.080311
O O10 0.000000 0.316356 0.000000
O O11 0.383592 0.500000 0.017664
O O12 0.103433 0.641986 0.287240
O O13 0.500000 0.680430 0.000000
O O14 0.319286 0.708886 0.009258
O O15 0.535186 0.872927 0.185534
O O16 0.804676 0.500000 0.558296
O O17 0.778290 0.747514 0.597424
O O18 0.000000 0.618003 0.500000
O O19 0.217120 0.000000 0.400740
#
# Coordination Sequence:
#
# PCOD9150639 Si02
#       7
#     4   4   4   4   4   4   4
#     4  10  22  40  59  84 120 158 200 253 303 359
#     4   9  19  35  58  85 115 150 196 249 306 363
#     4   9  19  34  54  85 121 154 197 250 303 361
#     4  10  20  36  60  92 127 159 200 253 307 367
#     4  11  21  38  63  84 119 165 204 251 306 359
#     4  10  21  39  63  92 124 158 201 254 308 365
#     4  11  24  40  61  89 122 162 205 250 304 366
#
# _framework density 20.483639
#
# number of rings (size 3 to 8) (size 9 to 14) (size 15 to 20)
#    0.000    2.000    1.429    1.714    2.000    4.000 
#    0.000    0.000    0.000    4.286    0.000    0.000 
#    0.000    0.000    0.000    0.000    0.000    0.000 
#
# Total GULP energy -156074.690654 kJ/mol
# GULP energy per Si atom -5574.096095 kJ/mol
# Density = 2.043702 g / cm^3
# Si number density = 20.483639 Si / 1000 Ang^3
#
#
#
# Elastic Constant Matrix: (Units=GPa)
#
#
# Indices 1 2 3 4 5 6 
#
# 1 78.5438 59.0500 -5.8134 0.0000 2.1149 0.0000
# 2 59.0500 187.8735 23.6226 0.0000 -17.2115 0.0000
# 3 -5.8134 23.6226 54.6694 0.0000 -0.0717 0.0000
# 4 0.0000 0.0000 0.0000 57.6838 0.0000 41.3336
# 5 2.1149 -17.2115 -0.0717 0.0000 26.0498 0.0000
# 6 0.0000 0.0000 0.0000 41.3336 0.0000 -30.0310
#
#
#
# Elastic Compliance Matrix: (Units=1/GPa)
#
#
# Indices 1 2 3 4 5 6 
#
# 1 0.018542 -0.007018 0.004996 0.000000 -0.006128 0.000000
# 2 -0.007018 0.008668 -0.004483 0.000000 0.006284 0.000000
# 3 0.004996 -0.004483 0.020756 0.000000 -0.003311 0.000000
# 4 0.000000 0.000000 0.000000 0.008728 0.000000 0.012013
# 5 -0.006128 0.006284 -0.003311 0.000000 0.043029 0.000000
# 6 0.000000 0.000000 0.000000 0.012013 0.000000 -0.016765
#
#
# Mechanical properties :
#
#
# Convention : Reuss Voigt Hill
#
# Bulk Modulus (GPa) = 28.60710 52.75612 40.68161
# Shear Modulus (GPa) = 46.45960 27.02235 36.74098
#
# Velocity S-wave (km/s) = 4.76766 3.63604 4.23977
# Velocity P-wave (km/s) = 6.65609 6.59082 6.62354
#
# Compressibility (1/GPa) = 0.03495636
#
# Stress axis : x y z
#
# Youngs Moduli (GPa) = 53.93020 115.36834 48.17894
#
# Poissons Ratio (x) = 0.80962 -0.24070
# Poissons Ratio (y) = 0.37846 0.21600
# Poissons Ratio (z) = -0.26944 0.51724
#
# Static dielectric constant tensor:
#      x y z
#    x 1.718710 0.000000 -0.021090 
#    y 0.000000 1.782310 0.000000 
#    z -0.021090 0.000000 1.749100 
# 
# From -- ./inp_files/85813.got.cif
#   From: 2010.05.17/outbox.cif.g08.bks.cpg/sg10_43_cif.got.tgz:85813.got - 2010.06.03 11:33:40.
