data_PCOD9150831
_publ_section_title
;
Structure prediction by ZEFSAII (Michael W. Deem and Ramdas Pophale) SiO2 
 PCOD9150831
Probable space group: P 2/M
;
_chemical_formula_sum "Si O2"
_cell_formula_units_Z 32
_cell_length_a 31.291233
_cell_length_b 7.838470
_cell_length_c 13.255886
_cell_angle_alpha 90.000000
_cell_angle_beta 27.376770
_cell_angle_gamma 90.000000
_cell_volume 1495.096713
_symmetry_space_group_name_H-M "P 2/M"
_symmetry_group_IT_number 10
_symmetry_cell_setting 'monoclinic'
loop_
_space_group_symop_operation_xyz
x,y,z
-x,y,-z
-x,-y,-z
x,-y,z
loop_
_atom_site_type_symbol
_atom_site_label
_atom_site_fract_x
_atom_site_fract_y
_atom_site_fract_z
Si Si1 0.225192 0.301527 0.173773
Si Si2 0.598790 0.706880 0.525902
Si Si3 0.216000 0.295874 0.971393
Si Si4 0.102429 0.199742 0.614796
Si Si5 0.100806 0.793340 0.018305
Si Si6 0.400331 0.705580 0.246784
Si Si7 0.562957 0.201345 0.274885
Si Si8 0.797074 0.795281 0.397468
O O1 0.199004 0.500000 0.235498
O O2 0.194522 0.230700 0.128527
O O3 0.177029 0.213625 0.369258
O O4 0.336760 0.286108 0.942355
O O5 0.598499 0.500000 0.524879
O O6 0.615034 0.764232 0.606160
O O7 0.500808 0.768763 0.688823
O O8 0.683804 0.768590 0.277949
O O9 0.225104 0.500000 0.962559
O O10 0.142153 0.261402 0.038722
O O11 0.144195 0.272965 0.630940
O O12 0.003578 0.269335 0.784709
O O13 0.085030 0.000000 0.671873
O O14 0.101757 0.000000 0.017015
O O15 0.164243 0.732966 0.791458
O O16 0.403755 0.500000 0.240881
O O17 0.311767 0.755697 0.366606
O O18 0.500000 0.768505 0.000000
O O19 0.500000 0.267220 0.500000
O O20 0.578232 0.000000 0.257948
O O21 0.806502 0.000000 0.376930
#
# Coordination Sequence:
#
# PCOD9150831 Si02
#       8
#     4   4   4   4   4   4   4   4
#     4  11  24  41  60  85 120 161 201 243 294 351
#     4  10  20  37  58  82 117 160 197 238 291 346
#     4  10  21  38  61  87 118 155 199 246 290 345
#     4  10  23  42  61  87 121 155 195 246 302 354
#     4  10  21  39  65  90 115 152 196 245 302 359
#     4  10  22  38  57  86 121 155 191 237 291 348
#     4  11  23  37  58  87 118 153 194 240 286 344
#     4  10  21  39  63  89 118 154 196 243 294 355
#
# _framework density 21.403296000000001
#
# number of rings (size 3 to 8) (size 9 to 14) (size 15 to 20)
#    0.000    1.750    2.500    1.125    1.750    5.750 
#    0.000    2.500    0.000    2.250    0.000    0.000 
#    0.000    0.000    0.000    0.000    0.000    0.000 
#
# Total GULP energy -178814.204491 kJ/mol
# GULP energy per Si atom -5587.943890 kJ/mol
# Density = 2.135458 g / cm^3
# Si number density = 21.403296 Si / 1000 Ang^3
#
#
#
# Elastic Constant Matrix: (Units=GPa)
#
#
# Indices 1 2 3 4 5 6 
#
# 1 146.8204 -11.4585 20.0542 0.0000 -16.8271 0.0000
# 2 -11.4585 22.0515 -13.0859 0.0000 3.5457 0.0000
# 3 20.0542 -13.0859 53.6772 0.0000 -19.1409 0.0000
# 4 0.0000 0.0000 0.0000 8.3890 0.0000 -6.2221
# 5 -16.8271 3.5457 -19.1409 0.0000 32.5086 0.0000
# 6 0.0000 0.0000 0.0000 -6.2221 0.0000 26.9623
#
#
#
# Elastic Compliance Matrix: (Units=1/GPa)
#
#
# Indices 1 2 3 4 5 6 
#
# 1 0.007514 0.002793 -0.001074 0.000000 0.002953 0.000000
# 2 0.002793 0.054194 0.013387 0.000000 0.003417 0.000000
# 3 -0.001074 0.013387 0.027310 0.000000 0.014064 0.000000
# 4 0.000000 0.000000 0.000000 0.143820 0.000000 0.033189
# 5 0.002953 0.003417 0.014064 0.000000 0.040198 0.000000
# 6 0.000000 0.000000 0.000000 0.033189 0.000000 0.044748
#
#
# Mechanical properties :
#
#
# Convention : Reuss Voigt Hill
#
# Bulk Modulus (GPa) = 8.38713 23.72984 16.05849
# Shear Modulus (GPa) = 15.27583 28.70795 21.99189
#
# Velocity S-wave (km/s) = 2.67444 3.66633 3.20894
# Velocity P-wave (km/s) = 3.66933 5.38829 4.60965
#
# Compressibility (1/GPa) = 0.11923025
#
# Stress axis : x y z
#
# Youngs Moduli (GPa) = 133.08412 18.45211 36.61701
#
# Poissons Ratio (x) = -0.05153 0.03931
# Poissons Ratio (y) = -0.37166 -0.49019
# Poissons Ratio (z) = 0.14288 -0.24702
#
# Static dielectric constant tensor:
#      x y z
#    x 1.770220 0.000000 0.011780 
#    y 0.000000 1.781230 0.000000 
#    z 0.011780 0.000000 1.752950 
# 
# From -- ./inp_files/55189.got.cif
#   From: 2010.05.17/outbox.cif.g08.bks.cpg/sg10_28_cif.got.tgz:55189.got - 2010.06.03 11:33:40.
