data_PCOD9150827
_publ_section_title
;
Structure prediction by ZEFSAII (Michael W. Deem and Ramdas Pophale) SiO2 
 PCOD9150827
Probable space group: P 2/M
;
_chemical_formula_sum "Si O2"
_cell_formula_units_Z 28
_cell_length_a 27.212390
_cell_length_b 7.559678
_cell_length_c 9.994433
_cell_angle_alpha 90.000000
_cell_angle_beta 35.622371
_cell_angle_gamma 90.000000
_cell_volume 1197.511342
_symmetry_space_group_name_H-M "P 2/M"
_symmetry_group_IT_number 10
_symmetry_cell_setting 'monoclinic'
loop_
_space_group_symop_operation_xyz
x,y,z
-x,y,-z
-x,-y,-z
x,-y,z
loop_
_atom_site_type_symbol
_atom_site_label
_atom_site_fract_x
_atom_site_fract_y
_atom_site_fract_z
Si Si1 0.359378 0.792106 0.089310
Si Si2 0.075014 0.708531 0.922373
Si Si3 0.206609 0.202731 0.250421
Si Si4 0.256512 0.285265 0.561981
Si Si5 0.720519 0.298313 0.190787
Si Si6 0.529175 0.209076 0.588573
Si Si7 0.978945 0.785542 0.396039
O O1 0.281238 0.715294 0.175395
O O2 0.333623 0.773800 0.299890
O O3 0.364181 0.000000 0.041673
O O4 0.451326 0.720685 0.848963
O O5 0.079424 0.500000 0.881941
O O6 0.048935 0.730292 0.134322
O O7 0.168689 0.778479 0.691810
O O8 0.000000 0.787715 0.000000
O O9 0.112467 0.280610 0.453756
O O10 0.196825 0.000000 0.317666
O O11 0.240448 0.203197 0.023391
O O12 0.257629 0.500000 0.562423
O O13 0.258145 0.223161 0.711011
O O14 0.751774 0.500000 0.114796
O O15 0.619357 0.297029 0.405980
O O16 0.500000 0.226146 0.500000
O O17 0.542390 0.000000 0.587307
O O18 0.000000 0.726167 0.500000
O O19 0.975638 0.000000 0.406496
#
# Coordination Sequence:
#
# PCOD9150827 Si02
#       7
#     4   4   4   4   4   4   4
#     4  10  21  37  60  85 107 144 191 231 277 335
#     4  10  21  38  59  81 111 153 195 232 279 335
#     4  10  20  37  58  82 114 148 187 236 285 332
#     4  10  23  40  55  81 120 153 184 232 285 333
#     4  11  23  37  57  85 116 151 189 228 281 340
#     4  10  20  39  62  84 114 146 184 234 282 330
#     4  10  21  35  55  85 115 145 186 236 286 334
#
# _framework density 23.381823000000001
#
# number of rings (size 3 to 8) (size 9 to 14) (size 15 to 20)
#    0.000    1.857    1.429    2.143    0.000    4.857 
#    0.000    2.857    0.000    0.000    0.000    0.000 
#    0.000    0.000    0.000    0.000    0.000    0.000 
#
# Total GULP energy -156560.150964 kJ/mol
# GULP energy per Si atom -5591.433963 kJ/mol
# Density = 2.332861 g / cm^3
# Si number density = 23.381823 Si / 1000 Ang^3
#
#
#
# Elastic Constant Matrix: (Units=GPa)
#
#
# Indices 1 2 3 4 5 6 
#
# 1 28.9642 3.3376 -7.8352 0.0000 -0.9307 0.0000
# 2 3.3376 57.7140 -13.2687 0.0000 -4.0814 0.0000
# 3 -7.8352 -13.2687 112.3855 0.0000 -8.5402 0.0000
# 4 0.0000 0.0000 0.0000 12.9121 0.0000 26.4086
# 5 -0.9307 -4.0814 -8.5402 0.0000 42.0170 0.0000
# 6 0.0000 0.0000 0.0000 26.4086 0.0000 56.1888
#
#
#
# Elastic Compliance Matrix: (Units=1/GPa)
#
#
# Indices 1 2 3 4 5 6 
#
# 1 0.035370 -0.001417 0.002384 0.000000 0.001130 0.000000
# 2 -0.001417 0.018068 0.002199 0.000000 0.002171 0.000000
# 3 0.002384 0.002199 0.009491 0.000000 0.002195 0.000000
# 4 0.000000 0.000000 0.000000 1.999596 0.000000 -0.939808
# 5 0.001130 0.002171 0.002195 0.000000 0.024482 0.000000
# 6 0.000000 0.000000 0.000000 -0.939808 0.000000 0.459505
#
#
# Mechanical properties :
#
#
# Convention : Reuss Voigt Hill
#
# Bulk Modulus (GPa) = 14.43800 18.17011 16.30406
# Shear Modulus (GPa) = 1.95064 36.67892 19.31478
#
# Velocity S-wave (km/s) = 0.91437 3.96497 2.87724
# Velocity P-wave (km/s) = 2.70241 5.36183 4.24572
#
# Compressibility (1/GPa) = 0.06926168
#
# Stress axis : x y z
#
# Youngs Moduli (GPa) = 28.27247 55.34669 105.36659
#
# Poissons Ratio (x) = 0.07844 -0.25124
# Poissons Ratio (y) = 0.04007 -0.23174
# Poissons Ratio (z) = -0.06741 -0.12173
#
# Static dielectric constant tensor:
#      x y z
#    x 1.892290 0.000000 -0.007960 
#    y 0.000000 1.695850 0.000000 
#    z -0.007960 0.000000 1.836760 
# 
# From -- ./inp_files/36928.got.cif
#   From: 2010.05.17/outbox.cif.g08.bks.cpg/sg10_19_cif.got.tgz:36928.got - 2010.06.03 11:33:40.
