data_PCOD9150515
_publ_section_title
;
Structure prediction by ZEFSAII (Michael W. Deem and Ramdas Pophale) SiO2 
 PCOD9150515
Probable space group: P 2/M
;
_chemical_formula_sum "Si O2"
_cell_formula_units_Z 32
_cell_length_a 11.826945
_cell_length_b 7.763398
_cell_length_c 15.740606
_cell_angle_alpha 90.000000
_cell_angle_beta 87.325204
_cell_angle_gamma 90.000000
_cell_volume 1443.685036
_symmetry_space_group_name_H-M "P 2/M"
_symmetry_group_IT_number 10
_symmetry_cell_setting 'monoclinic'
loop_
_space_group_symop_operation_xyz
x,y,z
-x,y,-z
-x,-y,-z
x,-y,z
loop_
_atom_site_type_symbol
_atom_site_label
_atom_site_fract_x
_atom_site_fract_y
_atom_site_fract_z
Si Si1 0.178802 0.702707 0.899357
Si Si2 0.930876 0.205738 0.584670
Si Si3 0.156866 0.696800 0.082001
Si Si4 0.325318 0.708060 0.450202
Si Si5 0.998772 0.199090 0.232883
Si Si6 0.595811 0.290702 0.189669
Si Si7 0.569830 0.290148 0.378252
Si Si8 0.410858 0.201677 0.073650
O O1 0.193317 0.500000 0.915778
O O2 0.302041 0.774495 0.872585
O O3 0.100748 0.720324 0.819939
O O4 0.129419 0.772815 0.989520
O O5 0.796631 0.234491 0.577995
O O6 0.974185 0.273356 0.674797
O O7 0.000000 0.273472 0.500000
O O8 0.948235 0.000000 0.585960
O O9 0.113960 0.500000 0.088519
O O10 0.106125 0.788470 0.165851
O O11 0.292514 0.702305 0.079232
O O12 0.323810 0.500000 0.448987
O O13 0.352965 0.765909 0.545649
O O14 0.438703 0.762862 0.395701
O O15 0.968582 0.000000 0.244909
O O16 0.594787 0.500000 0.187110
O O17 0.614352 0.235966 0.285602
O O18 0.477253 0.224964 0.159044
O O19 0.569477 0.500000 0.380653
O O20 0.389259 0.000000 0.058137
O O21 0.500000 0.267449 0.000000
#
# Coordination Sequence:
#
# PCOD9150515 Si02
#       8
#     4   4   4   4   4   4   4   4
#     4  10  22  39  61  89 120 155 202 249 293 350
#     4  10  24  44  60  81 119 159 194 239 295 355
#     4  11  23  41  64  88 119 157 199 249 300 353
#     4   9  18  36  61  88 116 147 190 241 292 344
#     4  11  25  42  62  87 117 156 201 248 301 355
#     4  10  20  36  59  86 119 159 198 240 292 349
#     4   8  17  34  58  89 120 147 184 239 294 343
#     4  11  23  38  57  86 123 159 197 238 286 347
#
# _framework density 22.165500000000002
#
# number of rings (size 3 to 8) (size 9 to 14) (size 15 to 20)
#    0.000    2.000    1.250    2.250    3.500    4.750 
#    0.000    1.875    0.000    0.000    0.000    0.000 
#    0.000    0.000    0.000    0.000    0.000    0.000 
#
# Total GULP energy -178716.648301 kJ/mol
# GULP energy per Si atom -5584.895259 kJ/mol
# Density = 2.211505 g / cm^3
# Si number density = 22.165500 Si / 1000 Ang^3
#
#
#
# Elastic Constant Matrix: (Units=GPa)
#
#
# Indices 1 2 3 4 5 6 
#
# 1 96.5181 -6.7272 42.3178 0.0000 18.4894 0.0000
# 2 -6.7272 37.8983 7.0032 0.0000 -2.7607 0.0000
# 3 42.3178 7.0032 149.5091 0.0000 8.6512 0.0000
# 4 0.0000 0.0000 0.0000 14.6738 0.0000 7.2958
# 5 18.4894 -2.7607 8.6512 0.0000 27.2606 0.0000
# 6 0.0000 0.0000 0.0000 7.2958 0.0000 44.9038
#
#
#
# Elastic Compliance Matrix: (Units=1/GPa)
#
#
# Indices 1 2 3 4 5 6 
#
# 1 0.013573 0.002486 -0.003504 0.000000 -0.007842 0.000000
# 2 0.002486 0.027340 -0.002085 0.000000 0.001745 0.000000
# 3 -0.003504 -0.002085 0.007796 0.000000 -0.000308 0.000000
# 4 0.000000 0.000000 0.000000 0.074137 0.000000 -0.012046
# 5 -0.007842 0.001745 -0.000308 0.000000 0.042276 0.000000
# 6 0.000000 0.000000 0.000000 -0.012046 0.000000 0.024227
#
#
# Mechanical properties :
#
#
# Convention : Reuss Voigt Hill
#
# Bulk Modulus (GPa) = 23.52898 41.01256 32.27077
# Shear Modulus (GPa) = 23.84088 33.45645 28.64867
#
# Velocity S-wave (km/s) = 3.28317 3.88931 3.59902
# Velocity P-wave (km/s) = 5.00104 6.22190 5.64457
#
# Compressibility (1/GPa) = 0.04250079
#
# Stress axis : x y z
#
# Youngs Moduli (GPa) = 73.67761 36.57648 128.27162
#
# Poissons Ratio (x) = -0.09091 0.44951
# Poissons Ratio (y) = -0.18313 0.26746
# Poissons Ratio (z) = 0.25819 0.07627
#
# Static dielectric constant tensor:
#      x y z
#    x 1.791370 0.000000 -0.006820 
#    y 0.000000 1.813720 0.000000 
#    z -0.006820 0.000000 1.846160 
# 
# From -- ./inp_files/63770.got.cif
#   From: 2010.05.17/outbox.cif.g08.bks.cpg/sg10_32_cif.got.tgz:63770.got - 2010.06.03 11:33:40.
