data_PCOD9150658
_publ_section_title
;
Structure prediction by ZEFSAII (Michael W. Deem and Ramdas Pophale) SiO2 
 PCOD9150658
Probable space group: P 2/M
;
_chemical_formula_sum "Si O2"
_cell_formula_units_Z 28
_cell_length_a 20.816570
_cell_length_b 9.386338
_cell_length_c 14.535990
_cell_angle_alpha 90.000000
_cell_angle_beta 31.125893
_cell_angle_gamma 90.000000
_cell_volume 1468.160421
_symmetry_space_group_name_H-M "P 2/M"
_symmetry_group_IT_number 10
_symmetry_cell_setting 'monoclinic'
loop_
_space_group_symop_operation_xyz
x,y,z
-x,y,-z
-x,-y,-z
x,-y,z
loop_
_atom_site_type_symbol
_atom_site_label
_atom_site_fract_x
_atom_site_fract_y
_atom_site_fract_z
Si Si1 0.719306 0.330646 0.880557
Si Si2 0.189717 0.669100 0.034271
Si Si3 0.644779 0.831975 0.299362
Si Si4 0.954348 0.833706 0.249473
Si Si5 0.246872 0.836926 0.340425
Si Si6 0.539643 0.829874 0.775697
Si Si7 0.257692 0.172932 0.623885
O O1 0.702891 0.500000 0.894252
O O2 0.770338 0.267687 0.723110
O O3 0.806249 0.300323 0.861808
O O4 0.587041 0.255457 0.060941
O O5 0.188898 0.500000 0.022494
O O6 0.311157 0.738776 0.839629
O O7 0.073472 0.741985 0.127203
O O8 0.500000 0.816788 0.500000
O O9 0.720267 0.786896 0.298160
O O10 0.667678 0.000000 0.253184
O O11 0.860754 0.828402 0.451242
O O12 0.871161 0.782329 0.265326
O O13 0.988859 0.000000 0.192276
O O14 0.374700 0.808826 0.239009
O O15 0.252088 0.000000 0.299901
O O16 0.626189 0.784989 0.583293
O O17 0.515760 0.000000 0.796617
O O18 0.257005 0.000000 0.621200
#
# Coordination Sequence:
#
# PCOD9150658 Si02
#       7
#     4   4   4   4   4   4   4
#     4  11  23  35  49  74 110 149 182 217 265 316
#     4  11  25  40  52  74 111 148 181 220 264 312
#     4  10  20  36  61  88 109 136 175 216 263 319
#     4   9  19  38  60  80 104 137 179 223 266 314
#     4   9  19  35  57  83 107 135 175 224 271 314
#     4   9  17  33  57  83 110 137 171 219 270 320
#     4   8  16  33  58  85 109 134 171 222 271 313
#
# _framework density 19.071484000000002
#
# number of rings (size 3 to 8) (size 9 to 14) (size 15 to 20)
#    0.000    2.429    0.000    3.857    0.000    7.714 
#    0.000    9.286    0.000    0.000    0.000    0.000 
#    0.000    0.000    0.000    0.000    0.000    0.000 
#
# Total GULP energy -156340.414631 kJ/mol
# GULP energy per Si atom -5583.586237 kJ/mol
# Density = 1.902808 g / cm^3
# Si number density = 19.071484 Si / 1000 Ang^3
#
#
#
# Elastic Constant Matrix: (Units=GPa)
#
#
# Indices 1 2 3 4 5 6 
#
# 1 81.2585 43.8233 11.8792 0.0000 5.4274 0.0000
# 2 43.8233 46.2115 12.4650 0.0000 -1.6735 0.0000
# 3 11.8792 12.4650 19.8148 0.0000 -9.6940 0.0000
# 4 0.0000 0.0000 0.0000 -28.3704 0.0000 32.1103
# 5 5.4274 -1.6735 -9.6940 0.0000 25.5484 0.0000
# 6 0.0000 0.0000 0.0000 32.1103 0.0000 -8.4296
#
#
#
# Elastic Compliance Matrix: (Units=1/GPa)
#
#
# Indices 1 2 3 4 5 6 
#
# 1 0.026844 -0.024356 -0.005331 0.000000 -0.009321 0.000000
# 2 -0.024356 0.048816 -0.014750 0.000000 0.002775 0.000000
# 3 -0.005331 -0.014750 0.077389 0.000000 0.029531 0.000000
# 4 0.000000 0.000000 0.000000 0.010645 0.000000 0.040547
# 5 -0.009321 0.002775 0.029531 0.000000 0.052508 0.000000
# 6 0.000000 0.000000 0.000000 0.040547 0.000000 0.035825
#
#
# Mechanical properties :
#
#
# Convention : Reuss Voigt Hill
#
# Bulk Modulus (GPa) = 15.58236 31.51332 23.54784
# Shear Modulus (GPa) = 13.80103 3.02416 8.41260
#
# Velocity S-wave (km/s) = 2.69299 1.26061 2.10254
# Velocity P-wave (km/s) = 4.22585 4.32187 4.27413
#
# Compressibility (1/GPa) = 0.06417512
#
# Stress axis : x y z
#
# Youngs Moduli (GPa) = 37.25271 20.48514 12.92170
#
# Poissons Ratio (x) = 0.49893 0.06889
# Poissons Ratio (y) = 0.90732 0.19059
# Poissons Ratio (z) = 0.19861 0.30215
#
# Static dielectric constant tensor:
#      x y z
#    x 1.678660 0.000000 0.005260 
#    y 0.000000 1.625560 0.000000 
#    z 0.005260 0.000000 1.666380 
# 
# From -- ./inp_files/49340.got.cif
#   From: 2010.05.17/outbox.cif.g08.bks.cpg/sg10_25_cif.got.tgz:49340.got - 2010.06.03 11:33:40.
