data_PCOD9150707
_publ_section_title
;
Structure prediction by ZEFSAII (Michael W. Deem and Ramdas Pophale) SiO2 
 PCOD9150707
Probable space group: P 2/M
;
_chemical_formula_sum "Si O2"
_cell_formula_units_Z 28
_cell_length_a 9.276804
_cell_length_b 18.049144
_cell_length_c 17.488943
_cell_angle_alpha 90.000000
_cell_angle_beta 149.085436
_cell_angle_gamma 90.000000
_cell_volume 1504.451838
_symmetry_space_group_name_H-M "P 2/M"
_symmetry_group_IT_number 10
_symmetry_cell_setting 'monoclinic'
loop_
_space_group_symop_operation_xyz
x,y,z
-x,y,-z
-x,-y,-z
x,-y,z
loop_
_atom_site_type_symbol
_atom_site_label
_atom_site_fract_x
_atom_site_fract_y
_atom_site_fract_z
Si Si1 0.663264 0.916243 0.185197
Si Si2 0.164003 0.789076 0.151080
Si Si3 0.829852 0.500000 0.999343
Si Si4 0.191144 0.347331 0.755443
Si Si5 0.262316 0.782674 0.669289
Si Si6 0.158788 0.500000 0.656180
Si Si7 0.141686 0.346866 0.906554
Si Si8 0.032811 0.915447 0.829759
O O1 0.659480 0.853379 0.245529
O O2 0.898243 0.898776 0.227633
O O3 0.715356 0.000000 0.236256
O O4 0.349723 0.915470 0.007645
O O5 0.471716 0.765043 0.263177
O O6 0.003547 0.718058 0.112001
O O7 0.144807 0.854835 0.204898
O O8 0.000000 0.814264 0.000000
O O9 0.502960 0.500000 0.821777
O O10 0.915512 0.428475 0.087483
O O11 0.000000 0.500000 0.000000
O O12 0.165236 0.283161 0.681172
O O13 0.091943 0.424272 0.671826
O O14 0.062366 0.338051 0.781323
O O15 0.523544 0.343740 0.926711
O O16 0.000000 0.803572 0.500000
O O17 0.000000 0.500000 0.500000
O O18 0.924328 0.000000 0.787178
#
# Coordination Sequence:
#
# PCOD9150707 Si02
#       8
#     4   4   2   4   4   2   4   4
#     4   9  18  36  59  83 113 149 187 230 283 337
#     4  12  21  35  58  87 113 144 189 239 282 327
#     4  10  21  35  61  89 116 142 182 246 281 314
#     4  10  20  38  60  85 112 150 190 232 275 334
#     4  12  25  38  55  82 119 153 185 227 287 342
#     4  10  21  37  61  85 116 155 186 218 279 346
#     4  10  20  36  62  87 111 142 194 238 279 322
#     4   9  18  34  60  88 110 141 190 241 281 324
#
# _framework density 18.611429000000001
#
# number of rings (size 3 to 8) (size 9 to 14) (size 15 to 20)
#    0.000    1.714    2.857    3.000    2.000    5.143 
#    0.000    2.857    0.000    2.571    0.000    0.000 
#    0.000    0.000    0.000    0.000    0.000    0.000 
#
# Total GULP energy -156033.405447 kJ/mol
# GULP energy per Si atom -5572.621623 kJ/mol
# Density = 1.856907 g / cm^3
# Si number density = 18.611429 Si / 1000 Ang^3
#
#
#
# Elastic Constant Matrix: (Units=GPa)
#
#
# Indices 1 2 3 4 5 6 
#
# 1 92.0225 50.0923 8.4501 0.0000 -15.5101 0.0000
# 2 50.0923 101.7285 4.8753 0.0000 -14.9095 0.0000
# 3 8.4501 4.8753 26.9805 0.0000 -2.7319 0.0000
# 4 0.0000 0.0000 0.0000 9.3981 0.0000 -14.3530
# 5 -15.5101 -14.9095 -2.7319 0.0000 14.5365 0.0000
# 6 0.0000 0.0000 0.0000 -14.3530 0.0000 36.9977
#
#
#
# Elastic Compliance Matrix: (Units=1/GPa)
#
#
# Indices 1 2 3 4 5 6 
#
# 1 0.016363 -0.006401 -0.002921 0.000000 0.010345 0.000000
# 2 -0.006401 0.014095 0.000235 0.000000 0.007671 0.000000
# 3 -0.002921 0.000235 0.038375 0.000000 0.004336 0.000000
# 4 0.000000 0.000000 0.000000 0.261104 0.000000 0.101293
# 5 0.010345 0.007671 0.004336 0.000000 0.088512 0.000000
# 6 0.000000 0.000000 0.000000 0.101293 0.000000 0.066325
#
#
# Mechanical properties :
#
#
# Convention : Reuss Voigt Hill
#
# Bulk Modulus (GPa) = 19.73990 38.61853 29.17921
# Shear Modulus (GPa) = 9.61842 22.67404 16.14623
#
# Velocity S-wave (km/s) = 2.27579 3.49418 2.94861
# Velocity P-wave (km/s) = 4.18748 6.08884 5.22537
#
# Compressibility (1/GPa) = 0.05065882
#
# Stress axis : x y z
#
# Youngs Moduli (GPa) = 61.11262 70.94619 26.05844
#
# Poissons Ratio (x) = 0.45415 0.07611
# Poissons Ratio (y) = 0.39120 -0.00611
# Poissons Ratio (z) = 0.17849 -0.01665
#
# Static dielectric constant tensor:
#      x y z
#    x 1.564970 0.000000 -0.002960 
#    y 0.000000 1.635530 0.000000 
#    z -0.002960 0.000000 1.641750 
# 
# From -- ./inp_files/62409.got.cif
#   From: 2010.05.17/outbox.cif.g08.bks.cpg/sg10_32_cif.got.tgz:62409.got - 2010.06.03 11:33:40.
