data_PCOD9150107
_publ_section_title
;
Structure prediction by ZEFSAII (Michael W. Deem and Ramdas Pophale) SiO2 
 PCOD9150107
Probable space group: P 2/M
;
_chemical_formula_sum "Si O2"
_cell_formula_units_Z 20
_cell_length_a 14.154013
_cell_length_b 7.546259
_cell_length_c 14.488612
_cell_angle_alpha 90.000000
_cell_angle_beta 149.619000
_cell_angle_gamma 90.000000
_cell_volume 782.657965
_symmetry_space_group_name_H-M "P 2/M"
_symmetry_group_IT_number 10
_symmetry_cell_setting 'monoclinic'
loop_
_space_group_symop_operation_xyz
x,y,z
-x,y,-z
-x,-y,-z
x,-y,z
loop_
_atom_site_type_symbol
_atom_site_label
_atom_site_fract_x
_atom_site_fract_y
_atom_site_fract_z
Si Si1 0.998058 0.785094 0.281442
Si Si2 0.404564 0.790049 0.068460
Si Si3 0.810690 0.701416 0.378255
Si Si4 0.411117 0.784076 0.283682
Si Si5 0.794426 0.785958 0.716848
O O1 0.151877 0.712946 0.480624
O O2 0.039887 0.729697 0.211433
O O3 0.013742 0.000000 0.298695
O O4 0.791465 0.725615 0.138103
O O5 0.602038 0.766484 0.185421
O O6 0.412516 0.719198 0.180217
O O7 0.379686 0.000000 0.054481
O O8 0.811937 0.500000 0.348165
O O9 0.000000 0.792456 0.500000
O O10 0.605642 0.746082 0.499708
O O11 0.246004 0.722908 0.213474
O O12 0.400111 0.000000 0.270150
O O13 0.810750 0.000000 0.737548
#
# Coordination Sequence:
#
# PCOD9150107 Si02
#       5
#     4   4   4   4   4
#     4  10  20  35  59  89 116 143 180 228 278 325
#     4  10  20  35  59  89 116 143 180 228 278 325
#     4  11  25  43  60  77 104 146 189 231 282 337
#     4   8  13  24  47  80 116 149 178 213 261 317
#     4   8  13  24  47  80 116 149 178 213 261 317
#
# _framework density 25.553947999999998
#
# number of rings (size 3 to 8) (size 9 to 14) (size 15 to 20)
#    0.000    2.600    2.000    1.800    0.000    4.000 
#    0.000    8.000    0.000    2.400    0.000    2.800 
#    0.000    0.000    0.000    0.000    0.000    0.000 
#
# Total GULP energy -111698.901861 kJ/mol
# GULP energy per Si atom -5584.945093 kJ/mol
# Density = 2.549579 g / cm^3
# Si number density = 25.553948 Si / 1000 Ang^3
#
#
#
# Elastic Constant Matrix: (Units=GPa)
#
#
# Indices 1 2 3 4 5 6 
#
# 1 110.5727 5.9025 35.9354 0.0000 26.4717 0.0000
# 2 5.9025 62.8250 8.6354 0.0000 -0.3486 0.0000
# 3 35.9354 8.6354 123.2701 0.0000 26.4580 0.0000
# 4 0.0000 0.0000 0.0000 174.7804 0.0000 7.9574
# 5 26.4717 -0.3486 26.4580 0.0000 47.1638 0.0000
# 6 0.0000 0.0000 0.0000 7.9574 0.0000 50.0904
#
#
#
# Elastic Compliance Matrix: (Units=1/GPa)
#
#
# Indices 1 2 3 4 5 6 
#
# 1 0.010952 -0.000773 -0.002067 0.000000 -0.004993 0.000000
# 2 -0.000773 0.016157 -0.001166 0.000000 0.001207 0.000000
# 3 -0.002067 -0.001166 0.009720 0.000000 -0.004301 0.000000
# 4 0.000000 0.000000 0.000000 0.005763 0.000000 -0.000916
# 5 -0.004993 0.001207 -0.004301 0.000000 0.026427 0.000000
# 6 0.000000 0.000000 0.000000 -0.000916 0.000000 0.020109
#
#
# Mechanical properties :
#
#
# Convention : Reuss Voigt Hill
#
# Bulk Modulus (GPa) = 34.70015 44.17938 39.43976
# Shear Modulus (GPa) = 46.84081 70.81988 58.83035
#
# Velocity S-wave (km/s) = 4.28602 5.27011 4.80333
# Velocity P-wave (km/s) = 6.17268 7.37280 6.79927
#
# Compressibility (1/GPa) = 0.02881832
#
# Stress axis : x y z
#
# Youngs Moduli (GPa) = 91.30560 61.89372 102.88470
#
# Poissons Ratio (x) = 0.04782 0.21265
# Poissons Ratio (y) = 0.07054 0.11993
# Poissons Ratio (z) = 0.18872 0.07215
#
# Static dielectric constant tensor:
#      x y z
#    x 2.092330 0.000000 0.053450 
#    y 0.000000 1.983670 0.000000 
#    z 0.053450 0.000000 2.018260 
# 
# From -- ./inp_files/24516.got.cif
#   From: 2010.05.17/outbox.cif.g08.bks.cpg/sg10_13_cif.got.tgz:24516.got - 2010.06.03 11:33:40.
