data_PCOD9150851
_publ_section_title
;
Structure prediction by ZEFSAII (Michael W. Deem and Ramdas Pophale) SiO2 
 PCOD9150851
Probable space group: P 2/M
;
_chemical_formula_sum "Si O2"
_cell_formula_units_Z 28
_cell_length_a 15.153847
_cell_length_b 7.748220
_cell_length_c 22.299598
_cell_angle_alpha 90.000000
_cell_angle_beta 150.451518
_cell_angle_gamma 90.000000
_cell_volume 1291.247786
_symmetry_space_group_name_H-M "P 2/M"
_symmetry_group_IT_number 10
_symmetry_cell_setting 'monoclinic'
loop_
_space_group_symop_operation_xyz
x,y,z
-x,y,-z
-x,-y,-z
x,-y,z
loop_
_atom_site_type_symbol
_atom_site_label
_atom_site_fract_x
_atom_site_fract_y
_atom_site_fract_z
Si Si1 0.380986 0.708238 0.342155
Si Si2 0.176400 0.300254 0.569949
Si Si3 0.407028 0.211838 0.883566
Si Si4 0.452567 0.200101 0.157819
Si Si5 0.200138 0.793633 0.110523
Si Si6 0.234272 0.708440 0.380054
Si Si7 0.000744 0.797436 0.348531
O O1 0.383037 0.500000 0.343571
O O2 0.312381 0.765854 0.237384
O O3 0.254295 0.764434 0.322767
O O4 0.582054 0.764521 0.478076
O O5 0.198401 0.500000 0.600481
O O6 0.356580 0.206915 0.695580
O O7 0.000000 0.231816 0.500000
O O8 0.134585 0.289206 0.474862
O O9 0.512030 0.274871 0.887017
O O10 0.200335 0.267872 0.760242
O O11 0.404619 0.000000 0.880838
O O12 0.500000 0.264445 0.000000
O O13 0.305812 0.278540 0.115492
O O14 0.404011 0.000000 0.119689
O O15 0.186524 0.000000 0.094089
O O16 0.000000 0.723658 0.000000
O O17 0.230817 0.500000 0.378453
O O18 0.068692 0.771793 0.321179
O O19 0.003115 0.000000 0.363748
#
# Coordination Sequence:
#
# PCOD9150851 Si02
#       7
#     4   4   4   4   4   4   4
#     4   9  19  37  58  79 107 147 186 224 274 335
#     4  11  22  35  55  82 114 147 181 228 281 327
#     4   9  19  35  54  77 107 145 184 219 264 326
#     4  10  20  37  59  81 111 148 185 230 278 330
#     4  10  22  37  55  82 113 146 186 237 285 321
#     4   9  19  36  57  81 112 144 177 224 282 333
#     4  11  21  33  55  85 112 143 184 226 269 327
#
# _framework density 21.684452
#
# number of rings (size 3 to 8) (size 9 to 14) (size 15 to 20)
#    0.000    2.143    1.429    2.571    0.000    6.000 
#    0.000    4.286    0.000    3.857    0.000    0.000 
#    0.000    0.000    0.000    0.000    0.000    0.000 
#
# Total GULP energy -156428.251929 kJ/mol
# GULP energy per Si atom -5586.723283 kJ/mol
# Density = 2.163510 g / cm^3
# Si number density = 21.684452 Si / 1000 Ang^3
#
#
#
# Elastic Constant Matrix: (Units=GPa)
#
#
# Indices 1 2 3 4 5 6 
#
# 1 208.4687 5.2209 62.0949 0.0000 -0.3063 0.0000
# 2 5.2209 36.1749 -1.3110 0.0000 3.4590 0.0000
# 3 62.0949 -1.3110 71.7246 0.0000 -13.9738 0.0000
# 4 0.0000 0.0000 0.0000 6.7966 0.0000 -11.5235
# 5 -0.3063 3.4590 -13.9738 0.0000 30.4722 0.0000
# 6 0.0000 0.0000 0.0000 -11.5235 0.0000 25.5916
#
#
#
# Elastic Compliance Matrix: (Units=1/GPa)
#
#
# Indices 1 2 3 4 5 6 
#
# 1 0.006711 -0.000937 -0.006362 0.000000 -0.002744 0.000000
# 2 -0.000937 0.028078 0.000770 0.000000 -0.002843 0.000000
# 3 -0.006362 0.000770 0.021341 0.000000 0.009635 0.000000
# 4 0.000000 0.000000 0.000000 0.622018 0.000000 0.280086
# 5 -0.002744 -0.002843 0.009635 0.000000 0.037530 0.000000
# 6 0.000000 0.000000 0.000000 0.280086 0.000000 0.165194
#
#
# Mechanical properties :
#
#
# Convention : Reuss Voigt Hill
#
# Bulk Modulus (GPa) = 23.21578 49.81976 36.51777
# Shear Modulus (GPa) = 5.50486 29.26297 17.38391
#
# Velocity S-wave (km/s) = 1.59503 3.67753 2.83446
# Velocity P-wave (km/s) = 3.75787 6.40758 5.25255
#
# Compressibility (1/GPa) = 0.04307414
#
# Stress axis : x y z
#
# Youngs Moduli (GPa) = 149.00303 35.61449 46.85774
#
# Poissons Ratio (x) = 0.03336 0.29810
# Poissons Ratio (y) = 0.13959 -0.03609
# Poissons Ratio (z) = 0.94794 -0.02743
#
# Static dielectric constant tensor:
#      x y z
#    x 1.817180 0.000000 0.011260 
#    y 0.000000 1.800520 0.000000 
#    z 0.011260 0.000000 1.743150 
# 
# From -- ./inp_files/49130.got.cif
#   From: 2010.05.17/outbox.cif.g08.bks.cpg/sg10_25_cif.got.tgz:49130.got - 2010.06.03 11:33:40.
