data_PCOD9150808
_publ_section_title
;
Structure prediction by ZEFSAII (Michael W. Deem and Ramdas Pophale) SiO2 
 PCOD9150808
Probable space group: P 2/M
;
_chemical_formula_sum "Si O2"
_cell_formula_units_Z 24
_cell_length_a 16.165573
_cell_length_b 8.750711
_cell_length_c 10.260019
_cell_angle_alpha 90.000000
_cell_angle_beta 71.812277
_cell_angle_gamma 90.000000
_cell_volume 1378.872222
_symmetry_space_group_name_H-M "P 2/M"
_symmetry_group_IT_number 10
_symmetry_cell_setting 'monoclinic'
loop_
_space_group_symop_operation_xyz
x,y,z
-x,y,-z
-x,-y,-z
x,-y,z
loop_
_atom_site_type_symbol
_atom_site_label
_atom_site_fract_x
_atom_site_fract_y
_atom_site_fract_z
Si Si1 0.738813 0.816146 0.027817
Si Si2 0.928593 0.316989 0.929734
Si Si3 0.596194 0.682106 0.593005
Si Si4 0.593957 0.816031 0.310398
Si Si5 0.269577 0.816604 0.268654
Si Si6 0.068152 0.815933 0.356515
O O1 0.665153 0.772891 0.167420
O O2 0.748884 0.000000 0.026279
O O3 0.832355 0.743356 0.010979
O O4 0.713856 0.776433 0.891125
O O5 0.927174 0.500000 0.927579
O O6 0.950327 0.255257 0.775193
O O7 0.000000 0.266321 0.000000
O O8 0.591429 0.500000 0.584834
O O9 0.618626 0.752789 0.440662
O O10 0.500927 0.748276 0.674546
O O11 0.666143 0.732964 0.665204
O O12 0.587962 0.000000 0.318874
O O13 0.168078 0.778929 0.343956
O O14 0.280308 0.000000 0.277689
O O15 0.000000 0.766975 0.500000
O O16 0.063484 0.000000 0.346232
#
# Coordination Sequence:
#
# PCOD9150808 Si02
#       6
#     4   4   4   4   4   4
#     4   9  20  37  58  80 101 133 178 221 259 304
#     4  10  21  35  52  78 111 142 171 209 261 316
#     4  11  22  35  52  78 109 140 173 209 256 314
#     4  10  20  37  58  78 102 135 175 219 263 303
#     4   9  18  35  55  77 105 135 172 217 261 305
#     4   9  19  36  57  79 103 136 180 223 258 300
#
# _framework density 17.405528
#
# number of rings (size 3 to 8) (size 9 to 14) (size 15 to 20)
#    0.000    2.333    0.000    4.500    0.000    7.667 
#    0.000    8.333    0.000    0.000    0.000    0.000 
#    0.000    0.000    0.000    0.000    0.000    0.000 
#
# Total GULP energy -133949.752089 kJ/mol
# GULP energy per Si atom -5581.239670 kJ/mol
# Density = 1.736591 g / cm^3
# Si number density = 17.405528 Si / 1000 Ang^3
#
#
#
# Elastic Constant Matrix: (Units=GPa)
#
#
# Indices 1 2 3 4 5 6 
#
# 1 144.4632 57.4157 127.1383 0.0000 12.1045 0.0000
# 2 57.4157 55.2903 56.8261 0.0000 0.5695 0.0000
# 3 127.1383 56.8261 159.1759 0.0000 -20.1163 0.0000
# 4 0.0000 0.0000 0.0000 222.0673 0.0000 223.9695
# 5 12.1045 0.5695 -20.1163 0.0000 34.5780 0.0000
# 6 0.0000 0.0000 0.0000 223.9695 0.0000 236.0774
#
#
#
# Elastic Compliance Matrix: (Units=1/GPa)
#
#
# Indices 1 2 3 4 5 6 
#
# 1 0.057735 -0.009082 -0.049012 0.000000 -0.048575 0.000000
# 2 -0.009082 0.031615 -0.003990 0.000000 0.000337 0.000000
# 3 -0.049012 -0.003990 0.052921 0.000000 0.048011 0.000000
# 4 0.000000 0.000000 0.000000 0.104332 0.000000 -0.098981
# 5 -0.048575 0.000337 0.048011 0.000000 0.073850 0.000000
# 6 0.000000 0.000000 0.000000 -0.098981 0.000000 0.098141
#
#
# Mechanical properties :
#
#
# Convention : Reuss Voigt Hill
#
# Bulk Modulus (GPa) = 55.23430 93.52106 74.37768
# Shear Modulus (GPa) = 9.11086 106.38115 57.74600
#
# Velocity S-wave (km/s) = 2.29038 7.82636 5.76618
# Velocity P-wave (km/s) = 6.22873 11.64115 9.33578
#
# Compressibility (1/GPa) = 0.01810469
#
# Stress axis : x y z
#
# Youngs Moduli (GPa) = 17.32037 31.63099 18.89597
#
# Poissons Ratio (x) = 0.28726 0.92612
# Poissons Ratio (y) = 0.15730 0.07540
# Poissons Ratio (z) = 0.84890 0.12621
#
# Static dielectric constant tensor:
#      x y z
#    x 1.567220 0.000000 -0.007710 
#    y 0.000000 1.581250 0.000000 
#    z -0.007710 0.000000 1.576590 
# 
# From -- ./inp_files/27096.got.cif
#   From: 2010.05.17/outbox.cif.g08.bks.cpg/sg10_14_cif.got.tgz:27096.got - 2010.06.03 11:33:40.
