data_PCOD9150674
_publ_section_title
;
Structure prediction by ZEFSAII (Michael W. Deem and Ramdas Pophale) SiO2 
 PCOD9150674
Probable space group: P 2/M
;
_chemical_formula_sum "Si O2"
_cell_formula_units_Z 32
_cell_length_a 12.786165
_cell_length_b 7.922261
_cell_length_c 14.897491
_cell_angle_alpha 90.000000
_cell_angle_beta 88.824732
_cell_angle_gamma 90.000000
_cell_volume 1508.728903
_symmetry_space_group_name_H-M "P 2/M"
_symmetry_group_IT_number 10
_symmetry_cell_setting 'monoclinic'
loop_
_space_group_symop_operation_xyz
x,y,z
-x,y,-z
-x,-y,-z
x,-y,z
loop_
_atom_site_type_symbol
_atom_site_label
_atom_site_fract_x
_atom_site_fract_y
_atom_site_fract_z
Si Si1 0.326673 0.701271 0.732418
Si Si2 0.381674 0.794866 0.528318
Si Si3 0.821193 0.300905 0.993007
Si Si4 0.881690 0.197721 0.791693
Si Si5 0.552779 0.695005 0.763282
Si Si6 0.892774 0.294905 0.181724
Si Si7 0.397284 0.803254 0.050692
Si Si8 0.730737 0.193497 0.640209
O O1 0.322023 0.500000 0.745946
O O2 0.347691 0.739616 0.627783
O O3 0.434337 0.759127 0.777956
O O4 0.216423 0.764534 0.772443
O O5 0.500000 0.739177 0.500000
O O6 0.297252 0.731834 0.456224
O O7 0.382338 0.000000 0.525382
O O8 0.807288 0.500000 0.004269
O O9 0.860465 0.269751 0.891479
O O10 0.707436 0.218236 0.003404
O O11 0.891111 0.245512 0.076090
O O12 0.811975 0.270024 0.710886
O O13 0.004515 0.222366 0.773300
O O14 0.854104 0.000000 0.798860
O O15 0.549875 0.500000 0.733170
O O16 0.612920 0.707197 0.855744
O O17 0.618289 0.801317 0.691481
O O18 0.899505 0.500000 0.186851
O O19 0.412622 0.000000 0.071560
O O20 0.500000 0.737591 0.000000
O O21 0.764475 0.000000 0.625158
#
# Coordination Sequence:
#
# PCOD9150674 Si02
#       8
#     4   4   4   4   4   4   4   4
#     4  10  22  39  59  87 120 153 194 246 296 348
#     4  10  20  36  61  89 117 154 193 234 295 361
#     4  11  22  38  61  86 115 154 199 245 293 347
#     4  11  23  39  61  87 118 155 200 247 290 345
#     4  11  21  34  57  85 115 152 192 234 291 352
#     4  10  23  42  60  82 118 158 198 246 297 346
#     4  11  23  36  52  80 119 158 194 237 289 346
#     4  10  21  38  58  85 120 150 186 239 294 346
#
# _framework density 21.209907999999999
#
# number of rings (size 3 to 8) (size 9 to 14) (size 15 to 20)
#    0.000    1.500    2.500    2.625    0.000    6.750 
#    0.000    0.625    0.000    3.750    0.000    0.000 
#    0.000    0.000    0.000    0.000    0.000    0.000 
#
# Total GULP energy -178688.893323 kJ/mol
# GULP energy per Si atom -5584.027916 kJ/mol
# Density = 2.116163 g / cm^3
# Si number density = 21.209908 Si / 1000 Ang^3
#
#
#
# Elastic Constant Matrix: (Units=GPa)
#
#
# Indices 1 2 3 4 5 6 
#
# 1 119.4829 -7.1705 30.7384 0.0000 18.0514 0.0000
# 2 -7.1705 22.8383 -4.3097 0.0000 1.2055 0.0000
# 3 30.7384 -4.3097 73.3342 0.0000 21.0168 0.0000
# 4 0.0000 0.0000 0.0000 21.7200 0.0000 -2.3331
# 5 18.0514 1.2055 21.0168 0.0000 31.4353 0.0000
# 6 0.0000 0.0000 0.0000 -2.3331 0.0000 21.7824
#
#
#
# Elastic Compliance Matrix: (Units=1/GPa)
#
#
# Indices 1 2 3 4 5 6 
#
# 1 0.009853 0.002756 -0.002865 0.000000 -0.003848 0.000000
# 2 0.002756 0.045512 0.003059 0.000000 -0.005373 0.000000
# 3 -0.002865 0.003059 0.018035 0.000000 -0.010529 0.000000
# 4 0.000000 0.000000 0.000000 0.046576 0.000000 0.004989
# 5 -0.003848 -0.005373 -0.010529 0.000000 0.041267 0.000000
# 6 0.000000 0.000000 0.000000 0.004989 0.000000 0.046443
#
#
# Mechanical properties :
#
#
# Convention : Reuss Voigt Hill
#
# Bulk Modulus (GPa) = 12.61024 28.24132 20.42578
# Shear Modulus (GPa) = 21.90873 28.08069 24.99471
#
# Velocity S-wave (km/s) = 3.21744 3.64255 3.43657
# Velocity P-wave (km/s) = 4.44532 5.57090 5.03963
#
# Compressibility (1/GPa) = 0.07930065
#
# Stress axis : x y z
#
# Youngs Moduli (GPa) = 101.48877 21.97207 55.44899
#
# Poissons Ratio (x) = -0.06056 0.15887
# Poissons Ratio (y) = -0.27971 -0.16964
# Poissons Ratio (z) = 0.29079 -0.06722
#
# Static dielectric constant tensor:
#      x y z
#    x 1.777620 0.000000 0.014270 
#    y 0.000000 1.767770 0.000000 
#    z 0.014270 0.000000 1.777830 
# 
# From -- ./inp_files/49946.got.cif
#   From: 2010.05.17/outbox.cif.g08.bks.cpg/sg10_25_cif.got.tgz:49946.got - 2010.06.03 11:33:40.
