data_PCOD9150943
_publ_section_title
;
Structure prediction by ZEFSAII (Michael W. Deem and Ramdas Pophale) SiO2 
 PCOD9150943
Probable space group: P 2/M
;
_chemical_formula_sum "Si O2"
_cell_formula_units_Z 24
_cell_length_a 19.482846
_cell_length_b 7.962055
_cell_length_c 27.462717
_cell_angle_alpha 90.000000
_cell_angle_beta 17.532228
_cell_angle_gamma 90.000000
_cell_volume 1283.325688
_symmetry_space_group_name_H-M "P 2/M"
_symmetry_group_IT_number 10
_symmetry_cell_setting 'monoclinic'
loop_
_space_group_symop_operation_xyz
x,y,z
-x,y,-z
-x,-y,-z
x,-y,z
loop_
_atom_site_type_symbol
_atom_site_label
_atom_site_fract_x
_atom_site_fract_y
_atom_site_fract_z
Si Si1 0.210999 0.500000 0.748475
Si Si2 0.033041 0.189365 0.035747
Si Si3 0.968483 0.202080 0.465478
Si Si4 0.168875 0.187923 0.596651
Si Si5 0.459885 0.300893 0.309488
Si Si6 0.756355 0.500000 0.385664
Si Si7 0.755901 0.300085 0.811538
O O1 0.482448 0.500000 0.570186
O O2 0.155223 0.500000 0.729051
O O3 0.108988 0.334421 0.842318
O O4 0.965507 0.000000 0.095518
O O5 0.300116 0.218664 0.865892
O O6 0.000000 0.206056 0.000000
O O7 0.737125 0.269813 0.597129
O O8 0.000000 0.256392 0.500000
O O9 0.174465 0.259191 0.291002
O O10 0.957437 0.000000 0.471758
O O11 0.365977 0.225655 0.423674
O O12 0.169065 0.333395 0.636289
O O13 0.936657 0.204630 0.722893
O O14 0.195001 0.000000 0.598490
O O15 0.491578 0.500000 0.294461
O O16 0.789289 0.500000 0.796272
O O17 0.500000 0.257290 0.000000
#
# Coordination Sequence:
#
# PCOD9150943 Si02
#       7
#     2   4   4   4   4   2   4
#     4  11  25  42  64  86 125 162 189 255 299 355
#     4  11  23  40  64  95 123 154 201 249 304 361
#     4  10  21  37  56  85 123 160 202 251 307 366
#     4  11  21  38  64  89 119 158 202 250 297 354
#     4  11  20  36  63  89 121 156 199 252 301 363
#     4  11  24  44  61  88 120 158 210 236 299 366
#     4  10  20  37  60  87 119 155 207 258 295 357
#
# _framework density 18.701411
#
# number of rings (size 3 to 8) (size 9 to 14) (size 15 to 20)
#    0.000    1.333    2.500    5.750    0.000    5.333 
#    3.000    1.667    0.000    0.000    0.000    0.000 
#    0.000    0.000    0.000    0.000    0.000    0.000 
#
# Total GULP energy -134148.254477 kJ/mol
# GULP energy per Si atom -5589.510603 kJ/mol
# Density = 1.865885 g / cm^3
# Si number density = 18.701411 Si / 1000 Ang^3
#
#
#
# Elastic Constant Matrix: (Units=GPa)
#
#
# Indices 1 2 3 4 5 6 
#
# 1 91.4516 44.7714 29.7307 0.0000 21.8078 0.0000
# 2 44.7714 155.7316 35.5028 0.0000 19.9847 0.0000
# 3 29.7307 35.5028 82.7235 0.0000 9.3214 0.0000
# 4 0.0000 0.0000 0.0000 75.4197 0.0000 -50.8538
# 5 21.8078 19.9847 9.3214 0.0000 18.0377 0.0000
# 6 0.0000 0.0000 0.0000 -50.8538 0.0000 55.4926
#
#
#
# Elastic Compliance Matrix: (Units=1/GPa)
#
#
# Indices 1 2 3 4 5 6 
#
# 1 0.016949 -0.001978 -0.003377 0.000000 -0.016554 0.000000
# 2 -0.001978 0.008202 -0.002182 0.000000 -0.005568 0.000000
# 3 -0.003377 -0.002182 0.014341 0.000000 -0.000911 0.000000
# 4 0.000000 0.000000 0.000000 0.034702 0.000000 0.031801
# 5 -0.016554 -0.005568 -0.000911 0.000000 0.082093 0.000000
# 6 0.000000 0.000000 0.000000 0.031801 0.000000 0.047163
#
#
# Mechanical properties :
#
#
# Convention : Reuss Voigt Hill
#
# Bulk Modulus (GPa) = 40.95368 61.10185 51.02776
# Shear Modulus (GPa) = 22.05915 44.45012 33.25463
#
# Velocity S-wave (km/s) = 3.43818 4.88057 4.22143
# Velocity P-wave (km/s) = 6.14066 8.03138 7.14880
#
# Compressibility (1/GPa) = 0.02441783
#
# Stress axis : x y z
#
# Youngs Moduli (GPa) = 59.00183 121.92214 69.72967
#
# Poissons Ratio (x) = 0.24121 0.23547
# Poissons Ratio (y) = 0.11673 0.15212
# Poissons Ratio (z) = 0.19924 0.26599
#
# Static dielectric constant tensor:
#      x y z
#    x 1.632560 0.000000 -0.007660 
#    y 0.000000 1.651880 0.000000 
#    z -0.007660 0.000000 1.628900 
# 
# From -- ./inp_files/90024.got.cif
#   From: 2010.05.17/outbox.cif.g08.bks.cpg/sg10_46_cif.got.tgz:90024.got - 2010.06.03 11:33:40.
