data_PCOD9150797
_publ_section_title
;
Structure prediction by ZEFSAII (Michael W. Deem and Ramdas Pophale) SiO2 
 PCOD9150797
Probable space group: P 2/M
;
_chemical_formula_sum "Si O2"
_cell_formula_units_Z 28
_cell_length_a 15.413627
_cell_length_b 12.664818
_cell_length_c 9.663759
_cell_angle_alpha 90.000000
_cell_angle_beta 61.195174
_cell_angle_gamma 90.000000
_cell_volume 1653.049654
_symmetry_space_group_name_H-M "P 2/M"
_symmetry_group_IT_number 10
_symmetry_cell_setting 'monoclinic'
loop_
_space_group_symop_operation_xyz
x,y,z
-x,y,-z
-x,-y,-z
x,-y,z
loop_
_atom_site_type_symbol
_atom_site_label
_atom_site_fract_x
_atom_site_fract_y
_atom_site_fract_z
Si Si1 0.598813 0.372251 0.337326
Si Si2 0.946434 0.500000 0.187650
Si Si3 0.908293 0.500000 0.672732
Si Si4 0.399791 0.376831 0.988690
Si Si5 0.774155 0.698274 0.693823
Si Si6 0.206303 0.693196 0.647217
Si Si7 0.912337 0.118571 0.678296
Si Si8 0.051975 0.875339 0.812068
O O1 0.500000 0.342467 0.500000
O O2 0.607358 0.500000 0.340278
O O3 0.589644 0.345498 0.180768
O O4 0.698020 0.324508 0.329476
O O5 0.874923 0.600962 0.264898
O O6 0.038804 0.500000 0.221008
O O7 0.000000 0.500000 0.000000
O O8 0.844455 0.603106 0.689885
O O9 0.000000 0.500000 0.500000
O O10 0.366987 0.500000 0.012850
O O11 0.500000 0.372561 0.000000
O O12 0.321830 0.311094 0.137267
O O13 0.760139 0.687576 0.539497
O O14 0.828803 0.806952 0.683991
O O15 0.148147 0.802432 0.721550
O O16 0.000000 0.113274 0.500000
O O17 0.967654 0.162550 0.770214
O O18 0.876422 0.000000 0.734729
O O19 0.072810 0.000000 0.766748
O O20 0.000000 0.867968 0.000000
#
# Coordination Sequence:
#
# PCOD9150797 Si02
#       8
#     4   2   2   4   4   4   4   4
#     4  10  22  39  59  81 113 146 186 231 281 338
#     4  12  26  34  49  78 119 150 183 222 277 334
#     4  12  22  36  49  78 117 152 181 218 275 334
#     4  10  22  39  59  83 110 146 188 232 278 336
#     4  12  22  34  57  82 112 148 188 229 276 331
#     4  12  22  36  55  82 112 151 184 229 281 330
#     4  10  20  37  57  80 112 152 195 229 267 322
#     4  10  22  38  56  81 113 152 194 233 271 324
#
# _framework density 16.938389000000001
#
# number of rings (size 3 to 8) (size 9 to 14) (size 15 to 20)
#    0.000    1.143    4.286    2.571    4.000    1.143 
#    0.000    0.000    0.000    0.857    0.000    0.000 
#    0.000    0.000    0.000    0.000    0.000    0.000 
#
# Total GULP energy -156276.281432 kJ/mol
# GULP energy per Si atom -5581.295765 kJ/mol
# Density = 1.689984 g / cm^3
# Si number density = 16.938389 Si / 1000 Ang^3
#
#
#
# Elastic Constant Matrix: (Units=GPa)
#
#
# Indices 1 2 3 4 5 6 
#
# 1 96.7689 31.9739 52.0939 0.0000 21.1342 0.0000
# 2 31.9739 59.5028 24.1398 0.0000 -6.8959 0.0000
# 3 52.0939 24.1398 135.5787 0.0000 15.5200 0.0000
# 4 0.0000 0.0000 0.0000 43.7219 0.0000 -28.0053
# 5 21.1342 -6.8959 15.5200 0.0000 37.1100 0.0000
# 6 0.0000 0.0000 0.0000 -28.0053 0.0000 62.9346
#
#
#
# Elastic Compliance Matrix: (Units=1/GPa)
#
#
# Indices 1 2 3 4 5 6 
#
# 1 0.017690 -0.009035 -0.004036 0.000000 -0.010066 0.000000
# 2 -0.009035 0.023639 -0.001921 0.000000 0.010342 0.000000
# 3 -0.004036 -0.001921 0.009501 0.000000 -0.002032 0.000000
# 4 0.000000 0.000000 0.000000 0.031990 0.000000 0.014235
# 5 -0.010066 0.010342 -0.002032 0.000000 0.035451 0.000000
# 6 0.000000 0.000000 0.000000 0.014235 0.000000 0.022224
#
#
# Mechanical properties :
#
#
# Convention : Reuss Voigt Hill
#
# Bulk Modulus (GPa) = 47.97179 56.47396 52.22288
# Shear Modulus (GPa) = 28.18031 40.99615 34.58823
#
# Velocity S-wave (km/s) = 4.08327 4.92500 4.52375
# Velocity P-wave (km/s) = 7.11432 8.10889 7.62783
#
# Compressibility (1/GPa) = 0.02084558
#
# Stress axis : x y z
#
# Youngs Moduli (GPa) = 56.52789 42.30332 105.24809
#
# Poissons Ratio (x) = 0.38221 0.42482
# Poissons Ratio (y) = 0.51073 0.20220
# Poissons Ratio (z) = 0.22817 0.08127
#
# Static dielectric constant tensor:
#      x y z
#    x 1.542450 0.000000 0.009650 
#    y 0.000000 1.571720 0.000000 
#    z 0.009650 0.000000 1.603110 
# 
# From -- ./inp_files/28541.got.cif
#   From: 2010.05.17/outbox.cif.g08.bks.cpg/sg10_15_cif.got.tgz:28541.got - 2010.06.03 11:33:40.
