data_PCOD9150618
_publ_section_title
;
Structure prediction by ZEFSAII (Michael W. Deem and Ramdas Pophale) SiO2 
 PCOD9150618
Probable space group: P 2/M
;
_chemical_formula_sum "Si O2"
_cell_formula_units_Z 26
_cell_length_a 14.860669
_cell_length_b 7.129775
_cell_length_c 19.320743
_cell_angle_alpha 90.000000
_cell_angle_beta 148.022073
_cell_angle_gamma 90.000000
_cell_volume 1084.126224
_symmetry_space_group_name_H-M "P 2/M"
_symmetry_group_IT_number 10
_symmetry_cell_setting 'monoclinic'
loop_
_space_group_symop_operation_xyz
x,y,z
-x,y,-z
-x,-y,-z
x,-y,z
loop_
_atom_site_type_symbol
_atom_site_label
_atom_site_fract_x
_atom_site_fract_y
_atom_site_fract_z
Si Si1 0.391193 0.772915 0.861198
Si Si2 0.725004 0.500000 0.408289
Si Si3 0.672777 0.772917 0.650260
Si Si4 0.997187 0.224904 0.604867
Si Si5 0.975981 0.772428 0.749428
Si Si6 0.316941 0.225596 0.044383
Si Si7 0.575088 0.225875 0.739244
O O1 0.195335 0.718260 0.730605
O O2 0.502984 0.709839 0.868783
O O3 0.387937 0.000000 0.860924
O O4 0.500000 0.716429 0.000000
O O5 0.595834 0.337005 0.355938
O O6 0.861378 0.335966 0.471988
O O7 0.500000 0.715213 0.500000
O O8 0.659168 0.720671 0.721452
O O9 0.832465 0.710408 0.709250
O O10 0.678289 0.000000 0.652491
O O11 0.945451 0.280295 0.650370
O O12 0.986036 0.000000 0.588313
O O13 0.977694 0.000000 0.750342
O O14 0.160018 0.710255 0.896087
O O15 0.304290 0.268886 0.116636
O O16 0.318371 0.000000 0.039544
O O17 0.542731 0.000000 0.716807
#
# Coordination Sequence:
#
# PCOD9150618 Si02
#       7
#     4   2   4   4   4   4   4
#     4   9  15  30  59  91 119 149 187 234 291 348
#     4  12  24  40  59  83 113 159 205 235 288 345
#     4   9  17  31  54  84 116 154 195 236 285 337
#     4  10  20  36  60  89 119 147 188 247 291 339
#     4   9  16  30  58  91 118 148 191 238 290 350
#     4   9  17  32  58  89 117 153 193 233 294 352
#     4  10  22  40  59  81 117 157 195 243 289 339
#
# _framework density 23.982448000000002
#
# number of rings (size 3 to 8) (size 9 to 14) (size 15 to 20)
#    0.000    2.462    1.538    1.385    0.000    3.077 
#    0.000   10.000    0.000    4.615    0.000    0.000 
#    0.000    0.000    0.000    0.000    0.000    0.000 
#
# Total GULP energy -144923.111201 kJ/mol
# GULP energy per Si atom -5573.965815 kJ/mol
# Density = 2.392786 g / cm^3
# Si number density = 23.982448 Si / 1000 Ang^3
#
#
#
# Elastic Constant Matrix: (Units=GPa)
#
#
# Indices 1 2 3 4 5 6 
#
# 1 106.3538 -7.8931 22.0720 0.0000 -2.9132 0.0000
# 2 -7.8931 151.2459 0.5158 0.0000 4.8980 0.0000
# 3 22.0720 0.5158 59.6935 0.0000 10.6274 0.0000
# 4 0.0000 0.0000 0.0000 452.4010 0.0000 234.4364
# 5 -2.9132 4.8980 10.6274 0.0000 46.1624 0.0000
# 6 0.0000 0.0000 0.0000 234.4364 0.0000 83.3520
#
#
#
# Elastic Compliance Matrix: (Units=1/GPa)
#
#
# Indices 1 2 3 4 5 6 
#
# 1 0.010333 0.000503 -0.004100 0.000000 0.001542 0.000000
# 2 0.000503 0.006659 -0.000129 0.000000 -0.000645 0.000000
# 3 -0.004100 -0.000129 0.019096 0.000000 -0.004641 0.000000
# 4 0.000000 0.000000 0.000000 -0.004831 0.000000 0.013589
# 5 0.001542 -0.000645 -0.004641 0.000000 0.022897 0.000000
# 6 0.000000 0.000000 0.000000 0.013589 0.000000 -0.026223
#
#
# Mechanical properties :
#
#
# Convention : Reuss Voigt Hill
#
# Bulk Modulus (GPa) = 34.91915 38.52029 36.71972
# Shear Modulus (GPa) = 111.29364 136.55631 123.92498
#
# Velocity S-wave (km/s) = 6.81961 7.55405 7.19621
# Velocity P-wave (km/s) = 8.75222 9.60113 9.18648
#
# Compressibility (1/GPa) = 0.02863758
#
# Stress axis : x y z
#
# Youngs Moduli (GPa) = 96.77731 150.16488 52.36832
#
# Poissons Ratio (x) = -0.07557 0.21469
# Poissons Ratio (y) = -0.04871 0.00674
# Poissons Ratio (z) = 0.39675 0.01934
#
# Static dielectric constant tensor:
#      x y z
#    x 1.890090 0.000000 -0.043510 
#    y 0.000000 1.974940 0.000000 
#    z -0.043510 0.000000 1.915360 
# 
# From -- ./inp_files/84812.got.cif
#   From: 2010.05.17/outbox.cif.g08.bks.cpg/sg10_43_cif.got.tgz:84812.got - 2010.06.03 11:33:40.
