data_PCOD9150427
_publ_section_title
;
Structure prediction by ZEFSAII (Michael W. Deem and Ramdas Pophale) SiO2 
 PCOD9150427
Probable space group: P 2/M
;
_chemical_formula_sum "Si O2"
_cell_formula_units_Z 28
_cell_length_a 11.083126
_cell_length_b 13.785714
_cell_length_c 13.147472
_cell_angle_alpha 90.000000
_cell_angle_beta 135.090898
_cell_angle_gamma 90.000000
_cell_volume 1418.171334
_symmetry_space_group_name_H-M "P 2/M"
_symmetry_group_IT_number 10
_symmetry_cell_setting 'monoclinic'
loop_
_space_group_symop_operation_xyz
x,y,z
-x,y,-z
-x,-y,-z
x,-y,z
loop_
_atom_site_type_symbol
_atom_site_label
_atom_site_fract_x
_atom_site_fract_y
_atom_site_fract_z
Si Si1 0.406871 0.790670 0.688691
Si Si2 0.891522 0.758345 0.340253
Si Si3 0.821730 0.112374 0.600754
Si Si4 0.866743 0.725098 0.772859
Si Si5 0.244585 0.286295 0.071311
Si Si6 0.643663 0.386547 0.496827
Si Si7 0.306784 0.389806 0.914894
O O1 0.277847 0.799337 0.706088
O O2 0.341805 0.868939 0.568691
O O3 0.602208 0.790901 0.840512
O O4 0.383783 0.687143 0.613958
O O5 0.822518 0.680070 0.220435
O O6 0.000000 0.716387 0.500000
O O7 0.016923 0.835523 0.360220
O O8 0.792599 0.174536 0.685283
O O9 0.853105 0.000000 0.635946
O O10 0.784395 0.689547 0.828563
O O11 0.818461 0.647215 0.657386
O O12 0.062982 0.745263 0.917364
O O13 0.294991 0.374609 0.028717
O O14 0.500000 0.372251 0.500000
O O15 0.644771 0.500000 0.469285
O O16 0.273796 0.500000 0.866571
O O17 0.500000 0.364259 0.000000
#
# Coordination Sequence:
#
# PCOD9150427 Si02
#       7
#     4   4   4   4   4   4   4
#     4  10  21  37  63  88 124 162 201 259 308 365
#     4  10  21  40  63  88 120 164 198 261 312 357
#     4  10  22  43  69  94 116 154 210 263 318 377
#     4  10  22  39  62  88 125 167 202 261 306 362
#     4  11  21  39  60  86 130 165 202 246 310 367
#     4  10  20  36  58  87 123 165 213 252 296 358
#     4  11  23  38  61  92 127 169 211 248 296 365
#
# _framework density 19.743735999999998
#
# number of rings (size 3 to 8) (size 9 to 14) (size 15 to 20)
#    0.000    1.714    4.286    0.000    0.000    5.143 
#    0.000    5.000    0.000    1.286    0.000    0.000 
#    0.000    0.000    0.000    0.000    0.000    0.000 
#
# Total GULP energy -156123.459959 kJ/mol
# GULP energy per Si atom -5575.837856 kJ/mol
# Density = 1.969880 g / cm^3
# Si number density = 19.743736 Si / 1000 Ang^3
#
#
#
# Elastic Constant Matrix: (Units=GPa)
#
#
# Indices 1 2 3 4 5 6 
#
# 1 56.0723 5.3792 17.2081 0.0000 -4.4705 0.0000
# 2 5.3792 84.3253 11.3910 0.0000 -10.8748 0.0000
# 3 17.2081 11.3910 77.5260 0.0000 3.7142 0.0000
# 4 0.0000 0.0000 0.0000 12.4242 0.0000 3.9480
# 5 -4.4705 -10.8748 3.7142 0.0000 36.2581 0.0000
# 6 0.0000 0.0000 0.0000 3.9480 0.0000 9.3720
#
#
#
# Elastic Compliance Matrix: (Units=1/GPa)
#
#
# Indices 1 2 3 4 5 6 
#
# 1 0.019433 -0.000289 -0.004403 0.000000 0.002760 0.000000
# 2 -0.000289 0.012657 -0.001985 0.000000 0.003964 0.000000
# 3 -0.004403 -0.001985 0.014293 0.000000 -0.002603 0.000000
# 4 0.000000 0.000000 0.000000 0.092928 0.000000 -0.039147
# 5 0.002760 0.003964 -0.002603 0.000000 0.029376 0.000000
# 6 0.000000 0.000000 0.000000 -0.039147 0.000000 0.123192
#
#
# Mechanical properties :
#
#
# Convention : Reuss Voigt Hill
#
# Bulk Modulus (GPa) = 30.27792 31.76446 31.02119
# Shear Modulus (GPa) = 15.81061 23.87388 19.84224
#
# Velocity S-wave (km/s) = 2.83290 3.48111 3.17360
# Velocity P-wave (km/s) = 5.10580 5.68162 5.40139
#
# Compressibility (1/GPa) = 0.03302736
#
# Stress axis : x y z
#
# Youngs Moduli (GPa) = 51.45822 79.00978 69.96584
#
# Poissons Ratio (x) = 0.02282 0.30808
# Poissons Ratio (y) = 0.01486 0.13891
# Poissons Ratio (z) = 0.22659 0.15687
#
# Static dielectric constant tensor:
#      x y z
#    x 1.775360 0.000000 0.028540 
#    y 0.000000 1.636730 0.000000 
#    z 0.028540 0.000000 1.711370 
# 
# From -- ./inp_files/64951.got.cif
#   From: 2010.05.17/outbox.cif.g08.bks.cpg/sg10_33_cif.got.tgz:64951.got - 2010.06.03 11:33:40.
