data_PCOD9150558
_publ_section_title
;
Structure prediction by ZEFSAII (Michael W. Deem and Ramdas Pophale) SiO2 
 PCOD9150558
Probable space group: P 2/M
;
_chemical_formula_sum "Si O2"
_cell_formula_units_Z 24
_cell_length_a 12.614788
_cell_length_b 9.020235
_cell_length_c 24.235108
_cell_angle_alpha 90.000000
_cell_angle_beta 154.146297
_cell_angle_gamma 90.000000
_cell_volume 1202.551626
_symmetry_space_group_name_H-M "P 2/M"
_symmetry_group_IT_number 10
_symmetry_cell_setting 'monoclinic'
loop_
_space_group_symop_operation_xyz
x,y,z
-x,y,-z
-x,-y,-z
x,-y,z
loop_
_atom_site_type_symbol
_atom_site_label
_atom_site_fract_x
_atom_site_fract_y
_atom_site_fract_z
Si Si1 0.979492 0.675241 0.426105
Si Si2 0.349534 0.671191 0.507226
Si Si3 0.157747 0.823835 0.247455
Si Si4 0.419365 0.822797 0.836893
Si Si5 0.943661 0.180149 0.035131
Si Si6 0.874286 0.674350 0.207255
O O1 0.917224 0.500000 0.390091
O O2 0.779772 0.772182 0.301364
O O3 0.000000 0.708931 0.500000
O O4 0.233237 0.696471 0.513020
O O5 0.428118 0.500000 0.538582
O O6 0.582344 0.772177 0.608123
O O7 0.121808 0.693043 0.359735
O O8 0.942059 0.751345 0.181825
O O9 0.132501 0.777657 0.171569
O O10 0.135175 0.000000 0.240660
O O11 0.338290 0.747545 0.856250
O O12 0.416890 0.000000 0.842583
O O13 0.679918 0.776560 0.934878
O O14 0.944441 0.000000 0.032674
O O15 0.000000 0.235711 0.000000
O O16 0.830265 0.500000 0.179949
#
# Coordination Sequence:
#
# PCOD9150558 Si02
#       6
#     4   4   4   4   4   4
#     4   9  19  35  55  80 115 154 186 226 285 340
#     4   9  19  35  54  80 115 152 183 223 285 342
#     4  11  22  35  58  86 113 148 193 237 276 332
#     4  10  20  36  60  84 110 145 193 240 275 329
#     4   9  21  40  57  79 116 155 185 228 290 335
#     4  10  21  39  60  82 117 152 181 229 294 347
#
# _framework density 19.957564000000001
#
# number of rings (size 3 to 8) (size 9 to 14) (size 15 to 20)
#    0.000    2.333    0.000    3.000    2.333    6.333 
#    0.000    6.667    0.000    4.000    0.000    0.000 
#    0.000    0.000    0.000    0.000    0.000    0.000 
#
# Total GULP energy -134016.177095 kJ/mol
# GULP energy per Si atom -5584.007379 kJ/mol
# Density = 1.991214 g / cm^3
# Si number density = 19.957564 Si / 1000 Ang^3
#
#
#
# Elastic Constant Matrix: (Units=GPa)
#
#
# Indices 1 2 3 4 5 6 
#
# 1 136.0023 41.8980 23.0540 0.0000 -4.1377 0.0000
# 2 41.8980 54.6321 27.1621 0.0000 7.2951 0.0000
# 3 23.0540 27.1621 47.1822 0.0000 12.8072 0.0000
# 4 0.0000 0.0000 0.0000 58.4961 0.0000 9.9792
# 5 -4.1377 7.2951 12.8072 0.0000 24.0064 0.0000
# 6 0.0000 0.0000 0.0000 9.9792 0.0000 31.9302
#
#
#
# Elastic Compliance Matrix: (Units=1/GPa)
#
#
# Indices 1 2 3 4 5 6 
#
# 1 0.010150 -0.007441 -0.002063 0.000000 0.005112 0.000000
# 2 -0.007441 0.031099 -0.013277 0.000000 -0.003650 0.000000
# 3 -0.002063 -0.013277 0.033732 0.000000 -0.014317 0.000000
# 4 0.000000 0.000000 0.000000 0.018058 0.000000 -0.005644
# 5 0.005112 -0.003650 -0.014317 0.000000 0.051284 0.000000
# 6 0.000000 0.000000 0.000000 -0.005644 0.000000 0.033082
#
#
# Mechanical properties :
#
#
# Convention : Reuss Voigt Hill
#
# Bulk Modulus (GPa) = 33.99146 46.89386 40.44266
# Shear Modulus (GPa) = 21.47997 32.60004 27.04000
#
# Velocity S-wave (km/s) = 3.28423 4.04600 3.68486
# Velocity P-wave (km/s) = 5.60807 6.73607 6.19778
#
# Compressibility (1/GPa) = 0.02941916
#
# Stress axis : x y z
#
# Youngs Moduli (GPa) = 98.51732 32.15495 29.64535
#
# Poissons Ratio (x) = 0.23927 0.06117
# Poissons Ratio (y) = 0.73309 0.39360
# Poissons Ratio (z) = 0.20328 0.42692
#
# Static dielectric constant tensor:
#      x y z
#    x 1.719020 0.000000 -0.018860 
#    y 0.000000 1.668780 0.000000 
#    z -0.018860 0.000000 1.712410 
# 
# From -- ./inp_files/56547.got.cif
#   From: 2010.05.17/outbox.cif.g08.bks.cpg/sg10_29_cif.got.tgz:56547.got - 2010.06.03 11:33:40.
