data_PCOD9150915
_publ_section_title
;
Structure prediction by ZEFSAII (Michael W. Deem and Ramdas Pophale) SiO2 
 PCOD9150915
Probable space group: P 2/M
;
_chemical_formula_sum "Si O2"
_cell_formula_units_Z 32
_cell_length_a 15.349215
_cell_length_b 11.575008
_cell_length_c 16.342928
_cell_angle_alpha 90.000000
_cell_angle_beta 143.314141
_cell_angle_gamma 90.000000
_cell_volume 1734.691941
_symmetry_space_group_name_H-M "P 2/M"
_symmetry_group_IT_number 10
_symmetry_cell_setting 'monoclinic'
loop_
_space_group_symop_operation_xyz
x,y,z
-x,y,-z
-x,-y,-z
x,-y,z
loop_
_atom_site_type_symbol
_atom_site_label
_atom_site_fract_x
_atom_site_fract_y
_atom_site_fract_z
Si Si1 0.857183 0.306193 0.703862
Si Si2 0.411321 0.629801 0.606696
Si Si3 0.703528 0.635126 0.747406
Si Si4 0.796470 0.135126 0.252593
Si Si5 0.681612 0.129841 0.984063
Si Si6 0.181613 0.629841 0.984065
Si Si7 0.911322 0.129801 0.606696
Si Si8 0.642818 0.193807 0.296138
O O1 0.738759 0.367013 0.556120
O O2 0.779877 0.294452 0.733094
O O3 0.893644 0.192533 0.679300
O O4 0.010849 0.367588 0.833893
O O5 0.458231 0.500000 0.657576
O O6 0.542019 0.679584 0.649339
O O7 0.393643 0.692533 0.679300
O O8 0.694734 0.500000 0.712711
O O9 0.793012 0.636949 0.899248
O O10 0.706987 0.136949 0.100751
O O11 0.720122 0.205548 0.266905
O O12 0.957979 0.179584 0.350660
O O13 0.805264 0.000000 0.287287
O O14 0.749999 0.250000 0.999999
O O15 0.737579 0.000000 0.000908
O O16 0.510849 0.132411 0.833892
O O17 0.237579 0.500000 0.000909
O O18 0.761243 0.132987 0.443880
O O19 0.958232 0.000000 0.657576
#
# Coordination Sequence:
#
# PCOD9150915 Si02
#       8
#     4   4   4   4   4   4   4   4
#     4  11  21  35  61  86 114 150 194 236 286 341
#     4  10  21  37  58  85 118 150 187 237 289 343
#     4  10  20  37  60  84 112 149 193 237 282 341
#     4  10  20  37  60  84 112 149 193 237 282 341
#     4  11  22  38  59  86 117 152 194 242 289 341
#     4  11  22  38  59  86 117 152 194 242 289 341
#     4  10  21  37  58  85 118 150 187 237 289 343
#     4  11  21  35  61  86 114 150 194 236 286 341
#
# _framework density 18.44708
#
# number of rings (size 3 to 8) (size 9 to 14) (size 15 to 20)
#    0.000    1.500    2.500    3.750    0.000    4.000 
#    0.000    1.250    0.000    6.000    0.000    0.000 
#    0.000    0.000    0.000    0.000    0.000    0.000 
#
# Total GULP energy -178304.889727 kJ/mol
# GULP energy per Si atom -5572.027804 kJ/mol
# Density = 1.840509 g / cm^3
# Si number density = 18.447080 Si / 1000 Ang^3
#
#
#
# Elastic Constant Matrix: (Units=GPa)
#
#
# Indices 1 2 3 4 5 6 
#
# 1 131.3590 65.3690 24.9581 0.0000 -0.7811 0.0000
# 2 65.3690 86.4776 18.5361 0.0000 -4.6812 0.0000
# 3 24.9581 18.5361 96.9776 0.0000 22.7112 0.0000
# 4 0.0000 0.0000 0.0000 2.5592 0.0000 7.3104
# 5 -0.7811 -4.6812 22.7112 0.0000 30.0994 0.0000
# 6 0.0000 0.0000 0.0000 7.3104 0.0000 20.2068
#
#
#
# Elastic Compliance Matrix: (Units=1/GPa)
#
#
# Indices 1 2 3 4 5 6 
#
# 1 0.012398 -0.009057 -0.001464 0.000000 0.000018 0.000000
# 2 -0.009057 0.019171 -0.002401 0.000000 0.004558 0.000000
# 3 -0.001464 -0.002401 0.013657 0.000000 -0.010716 0.000000
# 4 0.000000 0.000000 0.000000-11.691073 0.000000 4.229611
# 5 0.000018 0.004558 -0.010716 0.000000 0.042018 0.000000
# 6 0.000000 0.000000 0.000000 4.229611 0.000000 -1.480705
#
#
# Mechanical properties :
#
#
# Convention : Reuss Voigt Hill
#
# Bulk Modulus (GPa) = 51.59208 59.17117 55.38163
# Shear Modulus (GPa) = -0.38308 24.30316 11.96004
#
# Velocity S-wave (km/s) = -0.45619 3.63361 2.54902
# Velocity P-wave (km/s) = 5.26791 7.05337 6.22498
#
# Compressibility (1/GPa) = 0.01938282
#
# Stress axis : x y z
#
# Youngs Moduli (GPa) = 80.65761 52.16106 73.22329
#
# Poissons Ratio (x) = 0.47243 0.10718
# Poissons Ratio (y) = 0.73052 0.17580
# Poissons Ratio (z) = 0.11806 0.12523
#
# Static dielectric constant tensor:
#      x y z
#    x 1.630820 0.000000 0.030380 
#    y 0.000000 1.688190 0.000000 
#    z 0.030380 0.000000 1.655630 
# 
# From -- ./inp_files/67370.got.cif
#   From: 2010.05.17/outbox.cif.g08.bks.cpg/sg10_34_cif.got.tgz:67370.got - 2010.06.03 11:33:40.
