data_PCOD9150521
_publ_section_title
;
Structure prediction by ZEFSAII (Michael W. Deem and Ramdas Pophale) SiO2 
 PCOD9150521
Probable space group: P 2/M
;
_chemical_formula_sum "Si O2"
_cell_formula_units_Z 32
_cell_length_a 12.599848
_cell_length_b 8.176429
_cell_length_c 28.835649
_cell_angle_alpha 90.000000
_cell_angle_beta 30.377570
_cell_angle_gamma 90.000000
_cell_volume 1502.271007
_symmetry_space_group_name_H-M "P 2/M"
_symmetry_group_IT_number 10
_symmetry_cell_setting 'monoclinic'
loop_
_space_group_symop_operation_xyz
x,y,z
-x,y,-z
-x,-y,-z
x,-y,z
loop_
_atom_site_type_symbol
_atom_site_label
_atom_site_fract_x
_atom_site_fract_y
_atom_site_fract_z
Si Si1 0.131702 0.805255 0.708380
Si Si2 0.199285 0.807569 0.240154
Si Si3 0.012451 0.194825 0.135676
Si Si4 0.273398 0.312648 0.315225
Si Si5 0.465653 0.692341 0.959736
Si Si6 0.173856 0.190515 0.492853
Si Si7 0.451335 0.809098 0.712979
Si Si8 0.566321 0.690085 0.525538
O O1 0.346867 0.710734 0.634927
O O2 0.007269 0.748220 0.709809
O O3 0.994543 0.783352 0.806021
O O4 0.175876 0.000000 0.687820
O O5 0.243190 0.722628 0.272304
O O6 0.387006 0.781375 0.132800
O O7 0.172646 0.000000 0.259193
O O8 0.785210 0.255244 0.203161
O O9 0.029562 0.000000 0.119666
O O10 0.221749 0.280922 0.039315
O O11 0.329306 0.500000 0.301314
O O12 0.454167 0.207022 0.271377
O O13 0.050959 0.274817 0.423732
O O14 0.518145 0.500000 0.938753
O O15 0.500000 0.750887 0.000000
O O16 0.361793 0.260299 0.390111
O O17 0.259665 0.210251 0.512826
O O18 0.143618 0.000000 0.493072
O O19 0.434780 0.000000 0.705200
O O20 0.500000 0.752531 0.500000
O O21 0.628138 0.500000 0.499299
#
# Coordination Sequence:
#
# PCOD9150521 Si02
#       8
#     4   4   4   4   4   4   4   4
#     4  10  20  36  59  87 117 156 202 248 300 359
#     4  11  23  41  66  91 122 165 210 254 301 364
#     4  10  20  39  64  92 121 155 204 253 298 359
#     4  12  26  42  61  90 127 162 204 257 313 368
#     4  11  23  38  61  96 132 164 197 246 311 371
#     4  11  22  40  64  89 119 161 213 259 299 359
#     4  10  22  42  66  90 120 161 211 259 301 355
#     4  11  23  35  51  82 124 165 201 247 308 367
#
# _framework density 21.301085
#
# number of rings (size 3 to 8) (size 9 to 14) (size 15 to 20)
#    0.000    1.250    2.500    3.750    0.000    8.000 
#    0.000    0.625    0.000    3.750    0.000    0.000 
#    0.000    0.000    0.000    0.000    0.000    0.000 
#
# Total GULP energy -178879.620190 kJ/mol
# GULP energy per Si atom -5589.988131 kJ/mol
# Density = 2.125260 g / cm^3
# Si number density = 21.301085 Si / 1000 Ang^3
#
#
#
# Elastic Constant Matrix: (Units=GPa)
#
#
# Indices 1 2 3 4 5 6 
#
# 1 109.4502 -5.2018 24.1448 0.0000 -20.6251 0.0000
# 2 -5.2018 17.6111 -3.6174 0.0000 2.9008 0.0000
# 3 24.1448 -3.6174 78.2177 0.0000 -17.0755 0.0000
# 4 0.0000 0.0000 0.0000 83.1095 0.0000 52.0282
# 5 -20.6251 2.9008 -17.0755 0.0000 29.7044 0.0000
# 6 0.0000 0.0000 0.0000 52.0282 0.0000 57.4662
#
#
#
# Elastic Compliance Matrix: (Units=1/GPa)
#
#
# Indices 1 2 3 4 5 6 
#
# 1 0.010816 0.001777 -0.001892 0.000000 0.006249 0.000000
# 2 0.001777 0.058188 0.001340 0.000000 -0.003679 0.000000
# 3 -0.001892 0.001340 0.014998 0.000000 0.007177 0.000000
# 4 0.000000 0.000000 0.000000 0.027774 0.000000 -0.025146
# 5 0.006249 -0.003679 0.007177 0.000000 0.042488 0.000000
# 6 0.000000 0.000000 0.000000 -0.025146 0.000000 0.040168
#
#
# Mechanical properties :
#
#
# Convention : Reuss Voigt Hill
#
# Bulk Modulus (GPa) = 11.56746 26.21449 18.89097
# Shear Modulus (GPa) = 22.64481 46.71957 34.68219
#
# Velocity S-wave (km/s) = 3.26403 4.68834 4.03946
# Velocity P-wave (km/s) = 4.43254 6.45297 5.53571
#
# Compressibility (1/GPa) = 0.08644941
#
# Stress axis : x y z
#
# Youngs Moduli (GPa) = 92.45551 17.18562 66.67704
#
# Poissons Ratio (x) = -0.03053 0.12618
# Poissons Ratio (y) = -0.16427 -0.08931
# Poissons Ratio (z) = 0.17497 -0.02302
#
# Static dielectric constant tensor:
#      x y z
#    x 1.791420 0.000000 0.017770 
#    y 0.000000 1.741580 0.000000 
#    z 0.017770 0.000000 1.791780 
# 
# From -- ./inp_files/94983.got.cif
#   From: 2010.05.17/outbox.cif.g08.bks.cpg/sg10_48_cif.got.tgz:94983.got - 2010.06.03 11:33:40.
