data_PCOD9150994
_publ_section_title
;
Structure prediction by ZEFSAII (Michael W. Deem and Ramdas Pophale) SiO2 
 PCOD9150994
Probable space group: P 2/M
;
_chemical_formula_sum "Si O2"
_cell_formula_units_Z 28
_cell_length_a 17.411377
_cell_length_b 7.411824
_cell_length_c 18.829075
_cell_angle_alpha 90.000000
_cell_angle_beta 32.872138
_cell_angle_gamma 90.000000
_cell_volume 1318.863688
_symmetry_space_group_name_H-M "P 2/M"
_symmetry_group_IT_number 10
_symmetry_cell_setting 'monoclinic'
loop_
_space_group_symop_operation_xyz
x,y,z
-x,y,-z
-x,-y,-z
x,-y,z
loop_
_atom_site_type_symbol
_atom_site_label
_atom_site_fract_x
_atom_site_fract_y
_atom_site_fract_z
Si Si1 0.943341 0.500000 0.623351
Si Si2 0.871140 0.783534 0.441770
Si Si3 0.556709 0.785848 0.685317
Si Si4 0.555947 0.716586 0.380848
Si Si5 0.649167 0.500000 0.924778
Si Si6 0.981293 0.784434 0.200865
Si Si7 0.134210 0.705309 0.858982
Si Si8 0.304299 0.780584 0.986028
O O1 0.776929 0.500000 0.768757
O O2 0.000000 0.500000 0.500000
O O3 0.011336 0.675803 0.607045
O O4 0.713044 0.721117 0.584815
O O5 0.900929 0.743053 0.336080
O O6 0.883073 0.000000 0.441880
O O7 0.533886 0.752858 0.619457
O O8 0.424492 0.723981 0.835610
O O9 0.560160 0.000000 0.692255
O O10 0.500000 0.784751 0.500000
O O11 0.566201 0.500000 0.379948
O O12 0.713874 0.789022 0.245663
O O13 0.500000 0.500000 0.000000
O O14 0.667019 0.672587 0.963507
O O15 0.901435 0.701455 0.196301
O O16 0.977897 0.000000 0.193464
O O17 0.146538 0.733186 0.080626
O O18 0.142628 0.500000 0.880729
O O19 0.000000 0.794484 0.000000
O O20 0.307898 0.000000 0.992766
#
# Coordination Sequence:
#
# PCOD9150994 Si02
#       8
#     2   4   4   4   2   4   4   4
#     4  12  28  46  72 104 130 167 206 250 318 389
#     4  10  23  43  66  98 130 166 216 261 311 377
#     4  10  22  39  63  92 125 173 221 266 322 373
#     4  10  21  35  50  83 126 168 215 271 324 369
#     4  12  28  46  72 104 130 168 206 246 324 392
#     4  10  20  37  61  86 119 165 215 263 313 371
#     4  10  21  33  50  81 120 160 211 264 319 366
#     4  10  23  43  66  98 132 166 216 266 315 381
#
# _framework density 21.230397
#
# number of rings (size 3 to 8) (size 9 to 14) (size 15 to 20)
#    0.000    1.714    1.429    1.714    6.000    1.714 
#    0.000    0.000    0.000    0.000    0.000    0.000 
#    0.000    0.000    0.000    0.000    0.000    0.000 
#
# Total GULP energy -156457.016143 kJ/mol
# GULP energy per Si atom -5587.750577 kJ/mol
# Density = 2.118208 g / cm^3
# Si number density = 21.230397 Si / 1000 Ang^3
#
#
#
# Elastic Constant Matrix: (Units=GPa)
#
#
# Indices 1 2 3 4 5 6 
#
# 1 66.6556 3.8297 12.4454 0.0000 -9.8095 0.0000
# 2 3.8297 68.0356 9.3434 0.0000 -1.6578 0.0000
# 3 12.4454 9.3434 127.9275 0.0000 -13.3820 0.0000
# 4 0.0000 0.0000 0.0000 -0.0202 0.0000 6.6563
# 5 -9.8095 -1.6578 -13.3820 0.0000 45.2638 0.0000
# 6 0.0000 0.0000 0.0000 6.6563 0.0000 -48.6138
#
#
#
# Elastic Compliance Matrix: (Units=1/GPa)
#
#
# Indices 1 2 3 4 5 6 
#
# 1 0.015704 -0.000650 -0.001163 0.000000 0.003036 0.000000
# 2 -0.000650 0.014876 -0.001012 0.000000 0.000105 0.000000
# 3 -0.001163 -0.001012 0.008228 0.000000 0.002144 0.000000
# 4 0.000000 0.000000 0.000000 1.122072 0.000000 0.153636
# 5 0.003036 0.000105 0.002144 0.000000 0.023388 0.000000
# 6 0.000000 0.000000 0.000000 0.153636 0.000000 0.000466
#
#
# Mechanical properties :
#
#
# Convention : Reuss Voigt Hill
#
# Bulk Modulus (GPa) = 30.15893 34.87285 32.51589
# Shear Modulus (GPa) = 4.16168 15.12598 9.64383
#
# Velocity S-wave (km/s) = 1.40161 2.67211 2.13362
# Velocity P-wave (km/s) = 4.10557 5.09723 4.62804
#
# Compressibility (1/GPa) = 0.03315768
#
# Stress axis : x y z
#
# Youngs Moduli (GPa) = 63.67925 67.22076 121.53315
#
# Poissons Ratio (x) = 0.04371 0.14130
# Poissons Ratio (y) = 0.04141 0.12303
# Poissons Ratio (z) = 0.07404 0.06805
#
# Static dielectric constant tensor:
#      x y z
#    x 1.707990 0.000000 -0.006020 
#    y 0.000000 1.770980 0.000000 
#    z -0.006020 0.000000 1.820990 
# 
# From -- ./inp_files/77736.got.cif
#   From: 2010.05.17/outbox.cif.g08.bks.cpg/sg10_39_cif.got.tgz:77736.got - 2010.06.03 11:33:40.
