data_PCOD9150229
_publ_section_title
;
Structure prediction by ZEFSAII (Michael W. Deem and Ramdas Pophale) SiO2 
 PCOD9150229
Probable space group: P 2/M
;
_chemical_formula_sum "Si O2"
_cell_formula_units_Z 30
_cell_length_a 12.323233
_cell_length_b 9.335673
_cell_length_c 14.780690
_cell_angle_alpha 90.000000
_cell_angle_beta 64.262255
_cell_angle_gamma 90.000000
_cell_volume 1531.754295
_symmetry_space_group_name_H-M "P 2/M"
_symmetry_group_IT_number 10
_symmetry_cell_setting 'monoclinic'
loop_
_space_group_symop_operation_xyz
x,y,z
-x,y,-z
-x,-y,-z
x,-y,z
loop_
_atom_site_type_symbol
_atom_site_label
_atom_site_fract_x
_atom_site_fract_y
_atom_site_fract_z
Si Si1 0.641521 0.333134 0.431187
Si Si2 0.198325 0.828475 0.755889
Si Si3 0.729471 0.664517 0.587969
Si Si4 0.273110 0.829276 0.122499
Si Si5 0.000000 0.746221 0.500000
Si Si6 0.696162 0.830803 0.098086
Si Si7 0.555363 0.327063 0.812063
Si Si8 0.979994 0.166934 0.711648
O O1 0.500000 0.328305 0.500000
O O2 0.676325 0.500000 0.404321
O O3 0.684566 0.242069 0.331129
O O4 0.703962 0.270689 0.498921
O O5 0.205538 0.798351 0.860050
O O6 0.084670 0.772324 0.738586
O O7 0.202620 0.000000 0.742964
O O8 0.690234 0.500000 0.592594
O O9 0.645702 0.722106 0.698268
O O10 0.871631 0.667794 0.554680
O O11 0.385646 0.741544 0.120010
O O12 0.152191 0.775121 0.216417
O O13 0.291352 0.000000 0.133555
O O14 0.258792 0.810392 0.020404
O O15 0.992352 0.823187 0.405124
O O16 0.577005 0.736102 0.154650
O O17 0.664382 0.000000 0.118789
O O18 0.553796 0.500000 0.817318
O O19 0.971623 0.000000 0.738539
#
# Coordination Sequence:
#
# PCOD9150229 Si02
#       8
#     4   4   4   4   2   4   4   4
#     4  10  20  36  56  79 111 151 190 229 279 340
#     4  10  21  38  57  83 113 147 194 239 283 333
#     4  10  21  34  54  83 112 148 187 225 281 343
#     4  10  21  39  60  85 116 152 191 233 288 345
#     4  12  18  36  58  80 112 146 184 234 282 340
#     4  10  22  39  60  83 114 154 193 236 285 340
#     4  11  22  38  60  88 118 149 190 239 286 338
#     4  10  21  36  58  86 115 147 187 238 289 339
#
# _framework density 19.585386
#
# number of rings (size 3 to 8) (size 9 to 14) (size 15 to 20)
#    0.000    1.733    2.667    2.000    0.000    4.533 
#    0.000    4.667    0.000    0.000    0.000    2.800 
#    0.000    0.000    0.000    0.000    0.000    0.000 
#
# Total GULP energy -167238.550002 kJ/mol
# GULP energy per Si atom -5574.618333 kJ/mol
# Density = 1.954081 g / cm^3
# Si number density = 19.585386 Si / 1000 Ang^3
#
#
#
# Elastic Constant Matrix: (Units=GPa)
#
#
# Indices 1 2 3 4 5 6 
#
# 1 95.2208 21.6296 32.1081 0.0000 14.6781 0.0000
# 2 21.6296 27.8409 21.2122 0.0000 5.6679 0.0000
# 3 32.1081 21.2122 85.6926 0.0000 10.9928 0.0000
# 4 0.0000 0.0000 0.0000 16.7716 0.0000 -0.2153
# 5 14.6781 5.6679 10.9928 0.0000 37.4681 0.0000
# 6 0.0000 0.0000 0.0000 -0.2153 0.0000 15.6289
#
#
#
# Elastic Compliance Matrix: (Units=1/GPa)
#
#
# Indices 1 2 3 4 5 6 
#
# 1 0.013747 -0.007885 -0.002765 0.000000 -0.003381 0.000000
# 2 -0.007885 0.049267 -0.009021 0.000000 -0.001717 0.000000
# 3 -0.002765 -0.009021 0.015197 0.000000 -0.002011 0.000000
# 4 0.000000 0.000000 0.000000 0.059635 0.000000 0.000822
# 5 -0.003381 -0.001717 -0.002011 0.000000 0.028864 0.000000
# 6 0.000000 0.000000 0.000000 0.000822 0.000000 0.063995
#
#
# Mechanical properties :
#
#
# Convention : Reuss Voigt Hill
#
# Bulk Modulus (GPa) = 25.72768 39.85047 32.78908
# Shear Modulus (GPa) = 17.66777 22.89401 20.28089
#
# Velocity S-wave (km/s) = 3.00674 3.42268 3.22143
# Velocity P-wave (km/s) = 5.02182 6.00090 5.53306
#
# Compressibility (1/GPa) = 0.03886864
#
# Stress axis : x y z
#
# Youngs Moduli (GPa) = 72.74573 20.29772 65.80400
#
# Poissons Ratio (x) = 0.16004 0.18196
# Poissons Ratio (y) = 0.57357 0.59361
# Poissons Ratio (z) = 0.20116 0.18310
#
# Static dielectric constant tensor:
#      x y z
#    x 1.715770 0.000000 0.025680 
#    y 0.000000 1.664910 0.000000 
#    z 0.025680 0.000000 1.716320 
# 
# From -- ./inp_files/63715.got.cif
#   From: 2010.05.17/outbox.cif.g08.bks.cpg/sg10_32_cif.got.tgz:63715.got - 2010.06.03 11:33:40.
