data_PCOD9150511
_publ_section_title
;
Structure prediction by ZEFSAII (Michael W. Deem and Ramdas Pophale) SiO2 
 PCOD9150511
Probable space group: P 2/M
;
_chemical_formula_sum "Si O2"
_cell_formula_units_Z 32
_cell_length_a 24.802344
_cell_length_b 7.655444
_cell_length_c 15.510017
_cell_angle_alpha 90.000000
_cell_angle_beta 28.191519
_cell_angle_gamma 90.000000
_cell_volume 1391.246045
_symmetry_space_group_name_H-M "P 2/M"
_symmetry_group_IT_number 10
_symmetry_cell_setting 'monoclinic'
loop_
_space_group_symop_operation_xyz
x,y,z
-x,y,-z
-x,-y,-z
x,-y,z
loop_
_atom_site_type_symbol
_atom_site_label
_atom_site_fract_x
_atom_site_fract_y
_atom_site_fract_z
Si Si1 0.624805 0.789102 0.855137
Si Si2 0.030238 0.797106 0.365520
Si Si3 0.614576 0.703203 0.383938
Si Si4 0.671765 0.199675 0.493005
Si Si5 0.133991 0.706171 0.550568
Si Si6 0.263414 0.787733 0.956115
Si Si7 0.921908 0.701317 0.185581
Si Si8 0.424023 0.213177 0.886939
O O1 0.730195 0.730717 0.648318
O O2 0.625117 0.000000 0.852563
O O3 0.500000 0.730729 0.000000
O O4 0.636640 0.734172 0.938690
O O5 0.924642 0.788911 0.449839
O O6 0.000000 0.716254 0.500000
O O7 0.141690 0.724400 0.161914
O O8 0.060188 0.000000 0.340081
O O9 0.500000 0.773537 0.500000
O O10 0.595255 0.500000 0.433049
O O11 0.646374 0.797484 0.426815
O O12 0.709178 0.718357 0.176929
O O13 0.789698 0.295951 0.343861
O O14 0.555945 0.270634 0.699254
O O15 0.687708 0.000000 0.500183
O O16 0.111413 0.500000 0.579397
O O17 0.080541 0.778397 0.714646
O O18 0.265774 0.000000 0.947604
O O19 0.357756 0.732811 0.894088
O O20 0.960443 0.500000 0.140316
O O21 0.000000 0.781486 0.000000
O O22 0.426394 0.000000 0.882211
#
# Coordination Sequence:
#
# PCOD9150511 Si02
#       8
#     4   4   4   4   4   4   4   4
#     4  10  20  37  63  90 119 155 198 247 303 361
#     4  10  22  41  66  92 123 163 205 254 308 360
#     4  11  23  38  57  86 125 166 200 239 303 371
#     4  11  22  38  64  92 119 152 202 260 304 352
#     4  11  24  41  62  90 126 165 204 252 306 364
#     4  10  20  36  59  86 117 155 203 250 298 354
#     4  10  24  45  63  83 120 167 206 248 307 368
#     4   9  18  34  58  88 120 152 188 244 307 356
#
# _framework density 23.000965999999998
#
# number of rings (size 3 to 8) (size 9 to 14) (size 15 to 20)
#    0.000    1.750    1.250    2.625    1.750    5.750 
#    0.000    3.125    0.000    0.000    0.000    0.000 
#    0.000    0.000    0.000    0.000    0.000    0.000 
#
# Total GULP energy -178919.948927 kJ/mol
# GULP energy per Si atom -5591.248404 kJ/mol
# Density = 2.294861 g / cm^3
# Si number density = 23.000966 Si / 1000 Ang^3
#
#
#
# Elastic Constant Matrix: (Units=GPa)
#
#
# Indices 1 2 3 4 5 6 
#
# 1 70.5706 -10.7107 17.9523 0.0000 18.1852 0.0000
# 2 -10.7107 48.7068 -6.4178 0.0000 4.0768 0.0000
# 3 17.9523 -6.4178 141.3858 0.0000 20.6531 0.0000
# 4 0.0000 0.0000 0.0000 25.0185 0.0000 27.8818
# 5 18.1852 4.0768 20.6531 0.0000 43.1018 0.0000
# 6 0.0000 0.0000 0.0000 27.8818 0.0000 59.6455
#
#
#
# Elastic Compliance Matrix: (Units=1/GPa)
#
#
# Indices 1 2 3 4 5 6 
#
# 1 0.016859 0.004178 -0.000919 0.000000 -0.007068 0.000000
# 2 0.004178 0.021961 0.001105 0.000000 -0.004369 0.000000
# 3 -0.000919 0.001105 0.007740 0.000000 -0.003426 0.000000
# 4 0.000000 0.000000 0.000000 0.083438 0.000000 -0.039004
# 5 -0.007068 -0.004369 -0.003426 0.000000 0.028238 0.000000
# 6 0.000000 0.000000 0.000000 -0.039004 0.000000 0.034998
#
#
# Mechanical properties :
#
#
# Convention : Reuss Voigt Hill
#
# Bulk Modulus (GPa) = 18.08693 29.14564 23.61628
# Shear Modulus (GPa) = 24.63834 42.87579 33.75707
#
# Velocity S-wave (km/s) = 3.27645 4.32219 3.83513
# Velocity P-wave (km/s) = 4.71106 6.13249 5.46816
#
# Compressibility (1/GPa) = 0.05528854
#
# Stress axis : x y z
#
# Youngs Moduli (GPa) = 59.31412 45.53527 129.19829
#
# Poissons Ratio (x) = -0.19025 0.11867
# Poissons Ratio (y) = -0.24781 -0.14271
# Poissons Ratio (z) = 0.05448 -0.05030
#
# Static dielectric constant tensor:
#      x y z
#    x 1.834710 0.000000 0.017000 
#    y 0.000000 1.876880 0.000000 
#    z 0.017000 0.000000 1.862470 
# 
# From -- ./inp_files/71489.got.cif
#   From: 2010.05.17/outbox.cif.g08.bks.cpg/sg10_36_cif.got.tgz:71489.got - 2010.06.03 11:33:40.
