data_PCOD9150947
_publ_section_title
;
Structure prediction by ZEFSAII (Michael W. Deem and Ramdas Pophale) SiO2 
 PCOD9150947
Probable space group: P 2/M
;
_chemical_formula_sum "Si O2"
_cell_formula_units_Z 18
_cell_length_a 7.530070
_cell_length_b 22.401856
_cell_length_c 7.887617
_cell_angle_alpha 90.000000
_cell_angle_beta 37.348095
_cell_angle_gamma 90.000000
_cell_volume 807.181629
_symmetry_space_group_name_H-M "P 2/M"
_symmetry_group_IT_number 10
_symmetry_cell_setting 'monoclinic'
loop_
_space_group_symop_operation_xyz
x,y,z
-x,y,-z
-x,-y,-z
x,-y,z
loop_
_atom_site_type_symbol
_atom_site_label
_atom_site_fract_x
_atom_site_fract_y
_atom_site_fract_z
Si Si1 0.833562 0.693611 0.804132
Si Si2 0.676525 0.107548 0.706089
Si Si3 0.834699 0.563760 0.804462
Si Si4 0.173113 0.800764 0.709002
Si Si5 0.664665 0.000000 0.198813
O O1 0.882236 0.628315 0.852092
O O2 0.000000 0.693848 0.500000
O O3 0.962191 0.747152 0.814946
O O4 0.500000 0.701540 0.000000
O O5 0.760307 0.154091 0.495221
O O6 0.000000 0.080970 0.500000
O O7 0.450800 0.057518 0.814264
O O8 0.500000 0.135665 0.000000
O O9 0.901274 0.500000 0.841465
O O10 0.000000 0.564064 0.500000
O O11 0.500000 0.563360 0.000000
O O12 0.500000 0.777473 0.500000
O O13 0.000000 0.829896 0.000000
O O14 0.500000 0.000000 0.500000
O O15 0.000000 0.000000 0.000000
#
# Coordination Sequence:
#
# PCOD9150947 Si02
#       5
#     4   4   4   4   2
#     4  10  20  37  60  87 120 163 213 263 314 375
#     4  12  26  47  73 100 129 168 218 261 305 369
#     4   8  14  26  49  81 113 148 200 262 313 361
#     4  12  26  43  63  94 133 173 213 261 323 379
#     4  12  26  48  74 104 137 166 201 254 322 378
#
# _framework density 22.299816
#
# number of rings (size 3 to 8) (size 9 to 14) (size 15 to 20)
#    0.000    1.333    0.000    6.000    0.000    3.556 
#    0.000    0.000    0.000    1.333    0.000    0.000 
#    0.000    0.000    0.000    0.000    0.000    0.222 
#
# Total GULP energy -100522.231930 kJ/mol
# GULP energy per Si atom -5584.568441 kJ/mol
# Density = 2.224906 g / cm^3
# Si number density = 22.299816 Si / 1000 Ang^3
#
#
#
# Elastic Constant Matrix: (Units=GPa)
#
#
# Indices 1 2 3 4 5 6 
#
# 1 87.9852 63.6742 52.1870 0.0000 -23.9422 0.0000
# 2 63.6742 166.2383 36.1787 0.0000 -3.7233 0.0000
# 3 52.1870 36.1787 203.0510 0.0000 -18.0662 0.0000
# 4 0.0000 0.0000 0.0000 23.7486 0.0000 -22.0847
# 5 -23.9422 -3.7233 -18.0662 0.0000 52.0382 0.0000
# 6 0.0000 0.0000 0.0000 -22.0847 0.0000 -178.4078
#
#
#
# Elastic Compliance Matrix: (Units=1/GPa)
#
#
# Indices 1 2 3 4 5 6 
#
# 1 0.020486 -0.006947 -0.003336 0.000000 0.007770 0.000000
# 2 -0.006947 0.008614 0.000022 0.000000 -0.002572 0.000000
# 3 -0.003336 0.000022 0.005822 0.000000 0.000488 0.000000
# 4 0.000000 0.000000 0.000000 0.037761 0.000000 -0.004674
# 5 0.007770 -0.002572 0.000488 0.000000 0.022777 0.000000
# 6 0.000000 0.000000 0.000000 -0.004674 0.000000 -0.005027
#
#
# Mechanical properties :
#
#
# Convention : Reuss Voigt Hill
#
# Bulk Modulus (GPa) = 69.44635 84.59491 77.02063
# Shear Modulus (GPa) = 43.19481 -0.17520 21.50981
#
# Velocity S-wave (km/s) = 4.40591 -0.28060 3.10913
# Velocity P-wave (km/s) = 7.55596 6.15732 6.89221
#
# Compressibility (1/GPa) = 0.01439961
#
# Stress axis : x y z
#
# Youngs Moduli (GPa) = 48.81411 116.09174 171.76735
#
# Poissons Ratio (x) = 0.80645 0.57303
# Poissons Ratio (y) = 0.33909 -0.00373
# Poissons Ratio (z) = 0.16285 -0.00252
#
# Static dielectric constant tensor:
#      x y z
#    x 1.861020 0.000000 0.039490 
#    y 0.000000 1.863800 0.000000 
#    z 0.039490 0.000000 1.774320 
# 
# From -- ./inp_files/20071.got.cif
#   From: 2010.05.17/outbox.cif.g08.bks.cpg/sg10_11_cif.got.tgz:20071.got - 2010.06.03 11:33:40.
