data_PCOD9150250
_publ_section_title
;
Structure prediction by ZEFSAII (Michael W. Deem and Ramdas Pophale) SiO2 
 PCOD9150250
Probable space group: P 2/M
;
_chemical_formula_sum "Si O2"
_cell_formula_units_Z 32
_cell_length_a 6.947745
_cell_length_b 18.509241
_cell_length_c 11.891148
_cell_angle_alpha 90.000000
_cell_angle_beta 94.927006
_cell_angle_gamma 90.000000
_cell_volume 1523.521341
_symmetry_space_group_name_H-M "P 2/M"
_symmetry_group_IT_number 10
_symmetry_cell_setting 'monoclinic'
loop_
_space_group_symop_operation_xyz
x,y,z
-x,y,-z
-x,-y,-z
x,-y,z
loop_
_atom_site_type_symbol
_atom_site_label
_atom_site_fract_x
_atom_site_fract_y
_atom_site_fract_z
Si Si1 0.432886 0.831751 0.367513
Si Si2 0.926346 0.079433 0.608056
Si Si3 0.346171 0.582930 0.657587
Si Si4 0.788958 0.416497 0.589446
Si Si5 0.463637 0.668103 0.880085
Si Si6 0.188531 0.710225 0.255421
Si Si7 0.136499 0.787284 0.897953
Si Si8 0.289527 0.917420 0.786318
O O1 0.500000 0.836899 0.500000
O O2 0.249755 0.882576 0.344927
O O3 0.347157 0.753135 0.338160
O O4 0.579433 0.864099 0.283664
O O5 0.000000 0.119241 0.500000
O O6 0.100752 0.073445 0.700807
O O7 0.856404 0.000000 0.567348
O O8 0.295693 0.500000 0.679533
O O9 0.566577 0.583048 0.622111
O O10 0.355525 0.627189 0.773162
O O11 0.220222 0.606037 0.542406
O O12 0.854640 0.500000 0.600254
O O13 0.883553 0.358854 0.678061
O O14 0.676216 0.688008 0.842944
O O15 0.323562 0.735215 0.904145
O O16 0.500000 0.627511 0.000000
O O17 0.009343 0.760042 0.208480
O O18 0.219037 0.868394 0.886515
O O19 0.000000 0.782368 0.000000
O O20 0.363483 0.000000 0.811621
#
# Coordination Sequence:
#
# PCOD9150250 Si02
#       8
#     4   4   4   4   4   4   4   4
#     4  12  23  35  61  96 129 163 203 250 315 379
#     4  10  20  36  56  84 125 163 195 239 302 375
#     4   8  16  33  60  93 129 168 206 249 307 373
#     4   8  16  34  60  91 129 169 205 247 304 370
#     4  11  22  39  64  90 121 163 212 266 317 370
#     4  11  23  38  63  93 124 164 209 261 313 373
#     4  12  25  44  65  87 120 161 214 270 326 370
#     4  11  24  41  61  88 121 163 211 258 315 382
#
# _framework density 21.003973999999999
#
# number of rings (size 3 to 8) (size 9 to 14) (size 15 to 20)
#    0.000    1.625    5.000    1.125    3.500    1.000 
#    0.000    2.500    0.000    3.375    0.000    0.000 
#    0.000    0.000    0.000    0.000    0.000    0.000 
#
# Total GULP energy -178418.590817 kJ/mol
# GULP energy per Si atom -5575.580963 kJ/mol
# Density = 2.095617 g / cm^3
# Si number density = 21.003974 Si / 1000 Ang^3
#
#
#
# Elastic Constant Matrix: (Units=GPa)
#
#
# Indices 1 2 3 4 5 6 
#
# 1 73.2685 16.1728 21.9693 0.0000 -9.2095 0.0000
# 2 16.1728 91.6366 51.2663 0.0000 -6.1508 0.0000
# 3 21.9693 51.2663 93.2704 0.0000 -12.7645 0.0000
# 4 0.0000 0.0000 0.0000 19.3253 0.0000 2.3990
# 5 -9.2095 -6.1508 -12.7645 0.0000 31.9209 0.0000
# 6 0.0000 0.0000 0.0000 2.3990 0.0000 15.2232
#
#
#
# Elastic Compliance Matrix: (Units=1/GPa)
#
#
# Indices 1 2 3 4 5 6 
#
# 1 0.015031 -0.001013 -0.002557 0.000000 0.003119 0.000000
# 2 -0.001013 0.015833 -0.008555 0.000000 -0.000662 0.000000
# 3 -0.002557 -0.008555 0.016608 0.000000 0.004255 0.000000
# 4 0.000000 0.000000 0.000000 0.052778 0.000000 -0.008317
# 5 0.003119 -0.000662 0.004255 0.000000 0.033801 0.000000
# 6 0.000000 0.000000 0.000000 -0.008317 0.000000 0.067000
#
#
# Mechanical properties :
#
#
# Convention : Reuss Voigt Hill
#
# Bulk Modulus (GPa) = 43.06078 48.55472 45.80775
# Shear Modulus (GPa) = 21.45546 24.54500 23.00023
#
# Velocity S-wave (km/s) = 3.19955 3.42217 3.31273
# Velocity P-wave (km/s) = 5.84767 6.22753 6.04059
#
# Compressibility (1/GPa) = 0.02322299
#
# Stress axis : x y z
#
# Youngs Moduli (GPa) = 66.53048 63.15966 60.21137
#
# Poissons Ratio (x) = 0.06398 0.15395
# Poissons Ratio (y) = 0.06740 0.51508
# Poissons Ratio (z) = 0.17010 0.54031
#
# Static dielectric constant tensor:
#      x y z
#    x 1.871850 0.000000 -0.199760 
#    y 0.000000 1.814890 0.000000 
#    z -0.199760 0.000000 2.204500 
# 
# From -- ./inp_files/59433.got.cif
#   From: 2010.05.17/outbox.cif.g08.bks.cpg/sg10_30_cif.got.tgz:59433.got - 2010.06.03 11:33:40.
