data_PCOD9150536
_publ_section_title
;
Structure prediction by ZEFSAII (Michael W. Deem and Ramdas Pophale) SiO2 
 PCOD9150536
Probable space group: P 2/M
;
_chemical_formula_sum "Si O2"
_cell_formula_units_Z 32
_cell_length_a 15.218163
_cell_length_b 9.111351
_cell_length_c 22.782625
_cell_angle_alpha 90.000000
_cell_angle_beta 31.709607
_cell_angle_gamma 90.000000
_cell_volume 1660.412312
_symmetry_space_group_name_H-M "P 2/M"
_symmetry_group_IT_number 10
_symmetry_cell_setting 'monoclinic'
loop_
_space_group_symop_operation_xyz
x,y,z
-x,y,-z
-x,-y,-z
x,-y,z
loop_
_atom_site_type_symbol
_atom_site_label
_atom_site_fract_x
_atom_site_fract_y
_atom_site_fract_z
Si Si1 0.990411 0.675312 0.247020
Si Si2 0.417677 0.825580 0.714575
Si Si3 0.761721 0.173865 0.576023
Si Si4 0.943406 0.674327 0.656024
Si Si5 0.327715 0.175249 0.631807
Si Si6 0.367971 0.824105 0.219881
Si Si7 0.166134 0.671658 0.944364
Si Si8 0.243604 0.824261 0.018728
O O1 0.996855 0.500000 0.235818
O O2 0.991646 0.708966 0.315518
O O3 0.150714 0.749342 0.125632
O O4 0.826282 0.739265 0.308854
O O5 0.614430 0.799459 0.612514
O O6 0.356117 0.790566 0.684242
O O7 0.316404 0.733834 0.819759
O O8 0.390307 0.000000 0.741005
O O9 0.685846 0.212282 0.682701
O O10 0.926248 0.260378 0.464753
O O11 0.799786 0.000000 0.554880
O O12 0.933126 0.500000 0.655595
O O13 0.763101 0.745178 0.747605
O O14 0.500000 0.207677 0.500000
O O15 0.296758 0.000000 0.644441
O O16 0.353254 0.000000 0.222099
O O17 0.560302 0.785359 0.098176
O O18 0.189923 0.500000 0.944719
O O19 0.156713 0.764364 0.009104
O O20 0.000000 0.687379 0.000000
O O21 0.228937 0.000000 0.030156
#
# Coordination Sequence:
#
# PCOD9150536 Si02
#       8
#     4   4   4   4   4   4   4   4
#     4  11  25  43  60  86 127 167 205 251 307 365
#     4  10  20  36  59  88 120 155 198 248 299 353
#     4  10  20  39  64  91 124 157 198 253 308 362
#     4  11  25  41  60  89 123 162 204 249 306 369
#     4  10  21  38  63  92 121 161 211 257 301 353
#     4  10  22  41  65  92 120 155 200 255 313 361
#     4  11  23  37  56  86 122 159 197 239 296 361
#     4  11  23  42  66  90 119 157 206 256 305 360
#
# _framework density 19.272321000000002
#
# number of rings (size 3 to 8) (size 9 to 14) (size 15 to 20)
#    0.000    1.500    1.250    3.375    0.000   10.750 
#    0.000    2.500    0.000    0.000    0.000    0.000 
#    0.000    0.000    0.000    0.000    0.000    0.000 
#
# Total GULP energy -178925.428600 kJ/mol
# GULP energy per Si atom -5591.419644 kJ/mol
# Density = 1.922846 g / cm^3
# Si number density = 19.272321 Si / 1000 Ang^3
#
#
#
# Elastic Constant Matrix: (Units=GPa)
#
#
# Indices 1 2 3 4 5 6 
#
# 1 72.7283 31.3869 15.3380 0.0000 -12.1442 0.0000
# 2 31.3869 32.5140 34.7202 0.0000 -4.5837 0.0000
# 3 15.3380 34.7202 91.1375 0.0000 1.6928 0.0000
# 4 0.0000 0.0000 0.0000 -208.5554 0.0000 89.7314
# 5 -12.1442 -4.5837 1.6928 0.0000 28.1011 0.0000
# 6 0.0000 0.0000 0.0000 89.7314 0.0000 -1.4431
#
#
#
# Elastic Compliance Matrix: (Units=1/GPa)
#
#
# Indices 1 2 3 4 5 6 
#
# 1 0.028425 -0.036055 0.008843 0.000000 0.005870 0.000000
# 2 -0.036055 0.100339 -0.032208 0.000000 0.002726 0.000000
# 3 0.008843 -0.032208 0.021805 0.000000 -0.002746 0.000000
# 4 0.000000 0.000000 0.000000 0.000186 0.000000 0.011577
# 5 0.005870 0.002726 -0.002746 0.000000 0.038733 0.000000
# 6 0.000000 0.000000 0.000000 0.011577 0.000000 0.026908
#
#
# Mechanical properties :
#
#
# Convention : Reuss Voigt Hill
#
# Bulk Modulus (GPa) = 31.51733 39.91889 35.71811
# Shear Modulus (GPa) = 14.45869 -28.71716 -7.12924
#
# Velocity S-wave (km/s) = 2.74201 -3.86433 -1.92542
# Velocity P-wave (km/s) = 5.13945 0.92047 3.69197
#
# Compressibility (1/GPa) = 0.03172858
#
# Stress axis : x y z
#
# Youngs Moduli (GPa) = 35.18021 9.96624 45.86009
#
# Poissons Ratio (x) = 0.35933 -0.40553
# Poissons Ratio (y) = 1.26842 1.47707
# Poissons Ratio (z) = -0.31109 0.32100
#
# Static dielectric constant tensor:
#      x y z
#    x 1.667760 0.000000 0.001010 
#    y 0.000000 1.641550 0.000000 
#    z 0.001010 0.000000 1.655300 
# 
# From -- ./inp_files/89501.got.cif
#   From: 2010.05.17/outbox.cif.g08.bks.cpg/sg10_45_cif.got.tgz:89501.got - 2010.06.03 11:33:40.
