data_PCOD9150466
_publ_section_title
;
Structure prediction by ZEFSAII (Michael W. Deem and Ramdas Pophale) SiO2 
 PCOD9150466
Probable space group: P 2/M
;
_chemical_formula_sum "Si O2"
_cell_formula_units_Z 20
_cell_length_a 11.099474
_cell_length_b 10.531908
_cell_length_c 10.364007
_cell_angle_alpha 90.000000
_cell_angle_beta 44.306136
_cell_angle_gamma 90.000000
_cell_volume 846.249731
_symmetry_space_group_name_H-M "P 2/M"
_symmetry_group_IT_number 10
_symmetry_cell_setting 'monoclinic'
loop_
_space_group_symop_operation_xyz
x,y,z
-x,y,-z
-x,-y,-z
x,-y,z
loop_
_atom_site_type_symbol
_atom_site_label
_atom_site_fract_x
_atom_site_fract_y
_atom_site_fract_z
Si Si1 0.883192 0.646491 0.701434
Si Si2 0.703412 0.276198 0.360146
Si Si3 0.737018 0.648250 0.065342
Si Si4 0.355552 0.735598 0.314175
Si Si5 0.161737 0.000000 0.470173
Si Si6 0.143234 0.000000 0.776794
O O1 0.934994 0.500000 0.673377
O O2 0.699118 0.659832 0.771209
O O3 0.000000 0.707599 0.500000
O O4 0.868870 0.699241 0.856366
O O5 0.500000 0.301877 0.500000
O O6 0.792979 0.343135 0.170798
O O7 0.736364 0.314907 0.483072
O O8 0.743206 0.127898 0.305682
O O9 0.703184 0.500000 0.062341
O O10 0.558828 0.723941 0.182119
O O11 0.285940 0.878557 0.356847
O O12 0.000000 0.000000 0.500000
O O13 0.080826 0.000000 0.676301
O O14 0.000000 0.000000 0.000000
#
# Coordination Sequence:
#
# PCOD9150466 Si02
#       6
#     4   4   4   4   2   2
#     4  10  21  37  56  79 111 151 191 233 283 336
#     4   9  20  36  57  83 113 146 185 230 281 338
#     4  10  21  37  58  86 116 147 189 237 283 336
#     4  10  20  36  59  83 112 148 187 232 282 335
#     4  10  22  39  57  85 120 150 186 235 282 333
#     4  10  21  37  58  83 112 150 189 229 280 335
#
# _framework density 23.633686000000001
#
# number of rings (size 3 to 8) (size 9 to 14) (size 15 to 20)
#    0.000    2.200    0.000    2.100    0.000   13.200 
#    0.000    2.000    0.000    4.200    0.000    0.000 
#    0.000    0.000    0.000    0.000    0.000    0.000 
#
# Total GULP energy -111641.357667 kJ/mol
# GULP energy per Si atom -5582.067883 kJ/mol
# Density = 2.357989 g / cm^3
# Si number density = 23.633686 Si / 1000 Ang^3
#
#
#
# Elastic Constant Matrix: (Units=GPa)
#
#
# Indices 1 2 3 4 5 6 
#
# 1 42.2892 11.6103 21.9611 0.0000 8.2483 0.0000
# 2 11.6103 82.4675 13.6626 0.0000 1.3896 0.0000
# 3 21.9611 13.6626 178.3306 0.0000 25.0089 0.0000
# 4 0.0000 0.0000 0.0000 61.5282 0.0000 -27.9410
# 5 8.2483 1.3896 25.0089 0.0000 42.8063 0.0000
# 6 0.0000 0.0000 0.0000 -27.9410 0.0000 51.1962
#
#
#
# Elastic Compliance Matrix: (Units=1/GPa)
#
#
# Indices 1 2 3 4 5 6 
#
# 1 0.026541 -0.003259 -0.002523 0.000000 -0.003534 0.000000
# 2 -0.003259 0.012683 -0.000654 0.000000 0.000599 0.000000
# 3 -0.002523 -0.000654 0.006424 0.000000 -0.003245 0.000000
# 4 0.000000 0.000000 0.000000 0.021608 0.000000 0.011793
# 5 -0.003534 0.000599 -0.003245 0.000000 0.025919 0.000000
# 6 0.000000 0.000000 0.000000 0.011793 0.000000 0.025969
#
#
# Mechanical properties :
#
#
# Convention : Reuss Voigt Hill
#
# Bulk Modulus (GPa) = 30.51131 44.17282 37.34207
# Shear Modulus (GPa) = 34.97939 48.16303 41.57121
#
# Velocity S-wave (km/s) = 3.85133 4.51921 4.19857
# Velocity P-wave (km/s) = 5.71972 6.77954 6.27205
#
# Compressibility (1/GPa) = 0.03277473
#
# Stress axis : x y z
#
# Youngs Moduli (GPa) = 37.67743 78.84486 155.67720
#
# Poissons Ratio (x) = 0.25696 0.39280
# Poissons Ratio (y) = 0.12279 0.10186
# Poissons Ratio (z) = 0.09507 0.05159
#
# Static dielectric constant tensor:
#      x y z
#    x 1.944940 0.000000 0.001080 
#    y 0.000000 1.860930 0.000000 
#    z 0.001080 0.000000 1.979990 
# 
# From -- ./inp_files/23887.got.cif
#   From: 2010.05.17/outbox.cif.g08.bks.cpg/sg10_12_cif.got.tgz:23887.got - 2010.06.03 11:33:40.
