data_PCOD9150364
_publ_section_title
;
Structure prediction by ZEFSAII (Michael W. Deem and Ramdas Pophale) SiO2 
 PCOD9150364
Probable space group: P 2/M
;
_chemical_formula_sum "Si O2"
_cell_formula_units_Z 32
_cell_length_a 12.786312
_cell_length_b 8.655387
_cell_length_c 29.697403
_cell_angle_alpha 90.000000
_cell_angle_beta 149.594136
_cell_angle_gamma 90.000000
_cell_volume 1663.433745
_symmetry_space_group_name_H-M "P 2/M"
_symmetry_group_IT_number 10
_symmetry_cell_setting 'monoclinic'
loop_
_space_group_symop_operation_xyz
x,y,z
-x,y,-z
-x,-y,-z
x,-y,z
loop_
_atom_site_type_symbol
_atom_site_label
_atom_site_fract_x
_atom_site_fract_y
_atom_site_fract_z
Si Si1 0.722007 0.822123 0.108200
Si Si2 0.385679 0.314823 0.753160
Si Si3 0.476766 0.813026 0.602626
Si Si4 0.084839 0.316233 0.904116
Si Si5 0.061512 0.187496 0.395037
Si Si6 0.479554 0.185485 0.102107
Si Si7 0.618583 0.313431 0.749247
Si Si8 0.716387 0.178920 0.608342
O O1 0.873691 0.728350 0.132518
O O2 0.663411 0.764041 0.136089
O O3 0.792352 0.000000 0.136704
O O4 0.500000 0.821922 0.000000
O O5 0.386999 0.500000 0.754539
O O6 0.489857 0.252260 0.837251
O O7 0.507251 0.262636 0.753676
O O8 0.151655 0.254408 0.666735
O O9 0.254784 0.772340 0.498808
O O10 0.508083 0.749606 0.663781
O O11 0.653828 0.754329 0.633470
O O12 0.488347 0.000000 0.607237
O O13 0.102395 0.500000 0.915615
O O14 0.858286 0.265299 0.835504
O O15 0.264339 0.238148 0.000217
O O16 0.118709 0.244477 0.365656
O O17 0.049278 0.000000 0.388733
O O18 0.487030 0.000000 0.105766
O O19 0.614130 0.500000 0.746296
O O20 0.500000 0.177030 0.500000
O O21 0.775359 0.000000 0.637732
#
# Coordination Sequence:
#
# PCOD9150364 Si02
#       8
#     4   4   4   4   4   4   4   4
#     4   8  16  32  54  82 113 140 169 211 267 325
#     4  11  24  40  55  74 105 147 190 224 264 321
#     4   9  18  34  59  85 108 140 179 219 266 322
#     4  10  20  36  58  82 110 144 180 219 265 319
#     4   9  18  35  58  84 112 139 174 223 272 316
#     4  10  21  38  59  83 111 140 173 221 275 321
#     4  10  24  41  53  73 109 148 184 225 269 314
#     4   7  12  27  52  81 110 137 167 209 266 324
#
# _framework density 19.237316
#
# number of rings (size 3 to 8) (size 9 to 14) (size 15 to 20)
#    0.000    2.750    0.000    3.375    0.000    7.250 
#    0.000    9.375    0.000    2.250    0.000    0.000 
#    0.000    0.000    0.000    0.000    0.000    0.000 
#
# Total GULP energy -178514.609418 kJ/mol
# GULP energy per Si atom -5578.581544 kJ/mol
# Density = 1.919353 g / cm^3
# Si number density = 19.237316 Si / 1000 Ang^3
#
#
#
# Elastic Constant Matrix: (Units=GPa)
#
#
# Indices 1 2 3 4 5 6 
#
# 1 223.1126 40.2267 91.5684 0.0000 1.9023 0.0000
# 2 40.2267 21.9026 26.4429 0.0000 3.2608 0.0000
# 3 91.5684 26.4429 102.2810 0.0000 2.5685 0.0000
# 4 0.0000 0.0000 0.0000 11.9762 0.0000 5.4424
# 5 1.9023 3.2608 2.5685 0.0000 35.0612 0.0000
# 6 0.0000 0.0000 0.0000 5.4424 0.0000 27.4330
#
#
#
# Elastic Compliance Matrix: (Units=1/GPa)
#
#
# Indices 1 2 3 4 5 6 
#
# 1 0.008154 -0.009091 -0.004969 0.000000 0.000767 0.000000
# 2 -0.009091 0.077369 -0.011717 0.000000 -0.005844 0.000000
# 3 -0.004969 -0.011717 0.017252 0.000000 0.000095 0.000000
# 4 0.000000 0.000000 0.000000 0.091773 0.000000 -0.018207
# 5 0.000767 -0.005844 0.000095 0.000000 0.029016 0.000000
# 6 0.000000 0.000000 0.000000 -0.018207 0.000000 0.040064
#
#
# Mechanical properties :
#
#
# Convention : Reuss Voigt Hill
#
# Bulk Modulus (GPa) = 19.52294 73.75247 46.63770
# Shear Modulus (GPa) = 15.04866 27.49796 21.27331
#
# Velocity S-wave (km/s) = 2.79993 3.78485 3.32902
# Velocity P-wave (km/s) = 4.54129 7.58430 6.25080
#
# Compressibility (1/GPa) = 0.05122180
#
# Stress axis : x y z
#
# Youngs Moduli (GPa) = 122.64173 12.92511 57.96380
#
# Poissons Ratio (x) = 0.11750 0.28801
# Poissons Ratio (y) = 1.11492 0.67915
# Poissons Ratio (z) = 0.60938 0.15144
#
# Static dielectric constant tensor:
#      x y z
#    x 1.682840 0.000000 0.003720 
#    y 0.000000 1.653350 0.000000 
#    z 0.003720 0.000000 1.675870 
# 
# From -- ./inp_files/95028.got.cif
#   From: 2010.05.17/outbox.cif.g08.bks.cpg/sg10_48_cif.got.tgz:95028.got - 2010.06.03 11:33:40.
