data_PCOD9150835
_publ_section_title
;
Structure prediction by ZEFSAII (Michael W. Deem and Ramdas Pophale) SiO2 
 PCOD9150835
Probable space group: P 2/M
;
_chemical_formula_sum "Si O2"
_cell_formula_units_Z 17
_cell_length_a 16.382228
_cell_length_b 8.253890
_cell_length_c 5.013715
_cell_angle_alpha 90.000000
_cell_angle_beta 85.194567
_cell_angle_gamma 90.000000
_cell_volume 675.557029
_symmetry_space_group_name_H-M "P 2/M"
_symmetry_group_IT_number 10
_symmetry_cell_setting 'monoclinic'
loop_
_space_group_symop_operation_xyz
x,y,z
-x,y,-z
-x,-y,-z
x,-y,z
loop_
_atom_site_type_symbol
_atom_site_label
_atom_site_fract_x
_atom_site_fract_y
_atom_site_fract_z
Si Si1 0.602900 0.833850 0.024497
Si Si2 0.250435 0.500000 0.604833
Si Si3 0.205952 0.817453 0.885533
Si Si4 0.500000 0.000000 0.500000
Si Si5 0.364604 0.500000 0.082710
Si Si6 0.050974 0.804394 0.240889
O O1 0.586766 0.665019 0.891525
O O2 0.583924 0.000000 0.856948
O O3 0.700194 0.832110 0.047049
O O4 0.555495 0.861982 0.311924
O O5 0.203473 0.666589 0.685055
O O6 0.287889 0.500000 0.302693
O O7 0.327494 0.500000 0.792737
O O8 0.182511 0.000000 0.789097
O O9 0.145264 0.774328 0.143615
O O10 0.000000 0.736153 0.500000
O O11 0.046473 0.000000 0.259744
O O12 0.000000 0.751381 0.000000
#
# Coordination Sequence:
#
# PCOD9150835 Si02
#       6
#     4   2   4   1   2   4
#     4   8  17  33  58  89 116 154 193 236 285 348
#     4  10  22  36  58  90 112 150 204 234 276 358
#     4   9  18  36  59  82 117 158 191 240 292 339
#     4   8  16  34  60  94 118 146 196 240 280 358
#     4  10  20  37  58  83 120 152 190 242 284 335
#     4   9  18  32  52  81 113 146 191 236 282 338
#
# _framework density 25.164418999999999
#
# number of rings (size 3 to 8) (size 9 to 14) (size 15 to 20)
#    0.706    2.353    0.000    0.000    0.000    5.176 
#    0.000    8.235    0.000   16.941    0.000    0.000 
#    0.000    0.000    0.000    0.000    0.000    0.000 
#
# Total GULP energy -94709.505786 kJ/mol
# GULP energy per Si atom -5571.147399 kJ/mol
# Density = 2.510714 g / cm^3
# Si number density = 25.164419 Si / 1000 Ang^3
#
#
#
# Elastic Constant Matrix: (Units=GPa)
#
#
# Indices 1 2 3 4 5 6 
#
# 1 128.8831 15.0415 80.2901 0.0000 -48.5014 0.0000
# 2 15.0415 217.4087 61.8670 0.0000 -20.3996 0.0000
# 3 80.2901 61.8670 149.8085 0.0000 -53.8717 0.0000
# 4 0.0000 0.0000 0.0000 378.7087 0.0000 -47.4726
# 5 -48.5014 -20.3996 -53.8717 0.0000 51.6696 0.0000
# 6 0.0000 0.0000 0.0000 -47.4726 0.0000 4.3455
#
#
#
# Elastic Compliance Matrix: (Units=1/GPa)
#
#
# Indices 1 2 3 4 5 6 
#
# 1 0.013809 0.001224 -0.004914 0.000000 0.008323 0.000000
# 2 0.001224 0.005323 -0.002696 0.000000 0.000439 0.000000
# 3 -0.004914 -0.002696 0.013408 0.000000 0.008302 0.000000
# 4 0.000000 0.000000 0.000000 -0.007148 0.000000 -0.078086
# 5 0.008323 0.000439 0.008302 0.000000 0.035995 0.000000
# 6 0.000000 0.000000 0.000000 -0.078086 0.000000 -0.622924
#
#
# Mechanical properties :
#
#
# Convention : Reuss Voigt Hill
#
# Bulk Modulus (GPa) = 50.58726 90.05529 70.32128
# Shear Modulus (GPa) = -9.22212 109.53821 50.15804
#
# Velocity S-wave (km/s) = -1.91643 6.60481 4.46938
# Velocity P-wave (km/s) = 3.90505 9.69686 7.39184
#
# Compressibility (1/GPa) = 0.01976782
#
# Stress axis : x y z
#
# Youngs Moduli (GPa) = 72.41598 187.84709 74.58397
#
# Poissons Ratio (x) = -0.22988 0.36647
# Poissons Ratio (y) = -0.08862 0.20111
# Poissons Ratio (z) = 0.35582 0.50651
#
# Static dielectric constant tensor:
#      x y z
#    x 1.733940 0.000000 -0.197500 
#    y 0.000000 2.100850 0.000000 
#    z -0.197500 0.000000 1.621980 
# 
# From -- ./inp_files/10503.got.cif
#   From: 2010.05.17/outbox.cif.g08.bks.cpg/sg10_6_cif.got.tgz:10503.got - 2010.06.03 11:33:40.
