data_PCOD9150626
_publ_section_title
;
Structure prediction by ZEFSAII (Michael W. Deem and Ramdas Pophale) SiO2 
 PCOD9150626
Probable space group: P 2/M
;
_chemical_formula_sum "Si O2"
_cell_formula_units_Z 28
_cell_length_a 30.533966
_cell_length_b 8.641580
_cell_length_c 10.410569
_cell_angle_alpha 90.000000
_cell_angle_beta 146.322212
_cell_angle_gamma 90.000000
_cell_volume 1523.244121
_symmetry_space_group_name_H-M "P 2/M"
_symmetry_group_IT_number 10
_symmetry_cell_setting 'monoclinic'
loop_
_space_group_symop_operation_xyz
x,y,z
-x,y,-z
-x,-y,-z
x,-y,z
loop_
_atom_site_type_symbol
_atom_site_label
_atom_site_fract_x
_atom_site_fract_y
_atom_site_fract_z
Si Si1 0.663584 0.684529 0.643198
Si Si2 0.233363 0.814910 0.341565
Si Si3 0.089857 0.185275 0.592078
Si Si4 0.500980 0.184612 0.849333
Si Si5 0.922390 0.684908 0.150113
Si Si6 0.262440 0.814710 0.915686
Si Si7 0.330124 0.315455 0.817233
O O1 0.672639 0.500000 0.664950
O O2 0.715943 0.755756 0.656278
O O3 0.573443 0.731720 0.396062
O O4 0.693243 0.753437 0.849827
O O5 0.273624 0.748790 0.567296
O O6 0.234964 0.000000 0.347778
O O7 0.144665 0.754489 0.104510
O O8 0.096208 0.257819 0.750047
O O9 0.169498 0.219326 0.709190
O O10 0.010208 0.252999 0.336557
O O11 0.082376 0.000000 0.587671
O O12 0.493661 0.000000 0.813652
O O13 0.500000 0.215628 0.000000
O O14 0.583386 0.243766 0.994373
O O15 0.920854 0.500000 0.143244
O O16 0.296534 0.736063 0.872313
O O17 0.271624 0.000000 0.929395
O O18 0.334790 0.500000 0.819543
#
# Coordination Sequence:
#
# PCOD9150626 Si02
#       7
#     4   4   4   4   4   4   4
#     4  12  24  39  65  96 126 160 208 261 310 361
#     4  12  23  40  63  91 125 165 211 254 308 374
#     4  10  20  36  60  89 125 165 206 252 308 370
#     4  11  23  41  66  93 125 164 208 254 308 369
#     4  11  21  34  59  93 126 159 206 261 310 357
#     4  11  24  43  65  91 128 170 208 250 311 378
#     4  12  26  43  65  93 127 163 206 260 315 368
#
# _framework density 18.381822
#
# number of rings (size 3 to 8) (size 9 to 14) (size 15 to 20)
#    0.000    0.714    2.857    7.286    0.000    2.857 
#    0.000    3.571    0.000    4.286    0.000    0.000 
#    0.000    0.000    0.000    0.000    0.000    0.000 
#
# Total GULP energy -156674.474647 kJ/mol
# GULP energy per Si atom -5595.516952 kJ/mol
# Density = 1.833998 g / cm^3
# Si number density = 18.381822 Si / 1000 Ang^3
#
#
#
# Elastic Constant Matrix: (Units=GPa)
#
#
# Indices 1 2 3 4 5 6 
#
# 1 97.6072 28.1987 42.3175 0.0000 -0.1255 0.0000
# 2 28.1987 83.1192 10.1500 0.0000 0.7826 0.0000
# 3 42.3175 10.1500 104.6411 0.0000 2.1941 0.0000
# 4 0.0000 0.0000 0.0000 52.4370 0.0000 32.3095
# 5 -0.1255 0.7826 2.1941 0.0000 30.5646 0.0000
# 6 0.0000 0.0000 0.0000 32.3095 0.0000 92.8222
#
#
#
# Elastic Compliance Matrix: (Units=1/GPa)
#
#
# Indices 1 2 3 4 5 6 
#
# 1 0.013628 -0.004001 -0.005134 0.000000 0.000527 0.000000
# 2 -0.004001 0.013352 0.000331 0.000000 -0.000382 0.000000
# 3 -0.005134 0.000331 0.011619 0.000000 -0.000864 0.000000
# 4 0.000000 0.000000 0.000000 0.024277 0.000000 -0.008450
# 5 0.000527 -0.000382 -0.000864 0.000000 0.032792 0.000000
# 6 0.000000 0.000000 0.000000 -0.008450 0.000000 0.013715
#
#
# Mechanical properties :
#
#
# Convention : Reuss Voigt Hill
#
# Bulk Modulus (GPa) = 47.64308 49.63332 48.63820
# Shear Modulus (GPa) = 37.31722 48.81150 43.06436
#
# Velocity S-wave (km/s) = 4.51057 5.15867 4.84547
# Velocity P-wave (km/s) = 7.28710 7.90838 7.60409
#
# Compressibility (1/GPa) = 0.02098941
#
# Stress axis : x y z
#
# Youngs Moduli (GPa) = 73.38028 74.89773 86.06816
#
# Poissons Ratio (x) = 0.29969 0.44188
# Poissons Ratio (y) = 0.29362 -0.02849
# Poissons Ratio (z) = 0.37674 -0.02480
#
# Static dielectric constant tensor:
#      x y z
#    x 1.605120 0.000000 0.017090 
#    y 0.000000 1.612640 0.000000 
#    z 0.017090 0.000000 1.617320 
# 
# From -- ./inp_files/37288.got.cif
#   From: 2010.05.17/outbox.cif.g08.bks.cpg/sg10_19_cif.got.tgz:37288.got - 2010.06.03 11:33:40.
