data_PCOD9150653
_publ_section_title
;
Structure prediction by ZEFSAII (Michael W. Deem and Ramdas Pophale) SiO2 
 PCOD9150653
Probable space group: P 2/M
;
_chemical_formula_sum "Si O2"
_cell_formula_units_Z 24
_cell_length_a 17.043816
_cell_length_b 7.740238
_cell_length_c 15.620210
_cell_angle_alpha 90.000000
_cell_angle_beta 142.008480
_cell_angle_gamma 90.000000
_cell_volume 1268.433534
_symmetry_space_group_name_H-M "P 2/M"
_symmetry_group_IT_number 10
_symmetry_cell_setting 'monoclinic'
loop_
_space_group_symop_operation_xyz
x,y,z
-x,y,-z
-x,-y,-z
x,-y,z
loop_
_atom_site_type_symbol
_atom_site_label
_atom_site_fract_x
_atom_site_fract_y
_atom_site_fract_z
Si Si1 0.600729 0.699726 0.655877
Si Si2 0.849967 0.791091 0.623597
Si Si3 0.558278 0.793860 0.319131
Si Si4 0.121116 0.796312 0.155252
Si Si5 0.202105 0.500000 0.695477
Si Si6 0.400519 0.799877 0.837146
Si Si7 0.021738 0.500000 0.374518
O O1 0.500000 0.776769 0.500000
O O2 0.617413 0.500000 0.646493
O O3 0.536806 0.713508 0.693797
O O4 0.742011 0.776154 0.772203
O O5 0.704533 0.753462 0.469857
O O6 0.865293 0.735420 0.735473
O O7 0.942809 0.671974 0.647757
O O8 0.869509 0.000000 0.631426
O O9 0.540738 0.747692 0.204499
O O10 0.542452 0.000000 0.313694
O O11 0.097418 0.000000 0.143365
O O12 0.000000 0.721345 0.000000
O O13 0.288022 0.669837 0.761870
O O14 0.110437 0.500000 0.534679
O O15 0.120715 0.500000 0.712053
O O16 0.357510 0.000000 0.790795
O O17 0.500000 0.792037 0.000000
#
# Coordination Sequence:
#
# PCOD9150653 Si02
#       7
#     4   4   4   4   2   4   2
#     4  11  23  35  58  92 122 157 202 253 299 359
#     4  10  21  39  63  86 119 164 204 253 303 354
#     4  10  20  36  61  87 114 156 203 251 300 349
#     4  10  22  41  61  84 122 166 202 247 305 362
#     4  11  23  40  62  91 119 159 195 253 310 365
#     4  10  22  42  65  89 122 160 200 254 313 365
#     4  11  24  38  63  90 121 155 203 253 302 363
#
# _framework density 18.920974000000001
#
# number of rings (size 3 to 8) (size 9 to 14) (size 15 to 20)
#    0.000    1.667    3.333    0.750    3.500    1.667 
#    3.000    1.667    0.000    0.000    0.000    0.000 
#    0.000    0.000    0.000    0.000    0.000    0.000 
#
# Total GULP energy -133953.459962 kJ/mol
# GULP energy per Si atom -5581.394165 kJ/mol
# Density = 1.887791 g / cm^3
# Si number density = 18.920974 Si / 1000 Ang^3
#
#
#
# Elastic Constant Matrix: (Units=GPa)
#
#
# Indices 1 2 3 4 5 6 
#
# 1 154.1759 36.6184 52.8138 0.0000 -6.5033 0.0000
# 2 36.6184 51.5187 17.8494 0.0000 -1.3087 0.0000
# 3 52.8138 17.8494 98.6254 0.0000 -15.1090 0.0000
# 4 0.0000 0.0000 0.0000 15.5347 0.0000 1.2151
# 5 -6.5033 -1.3087 -15.1090 0.0000 27.0709 0.0000
# 6 0.0000 0.0000 0.0000 1.2151 0.0000 29.5740
#
#
#
# Elastic Compliance Matrix: (Units=1/GPa)
#
#
# Indices 1 2 3 4 5 6 
#
# 1 0.009033 -0.005053 -0.003967 0.000000 -0.000288 0.000000
# 2 -0.005053 0.023571 -0.001718 0.000000 -0.001033 0.000000
# 3 -0.003967 -0.001718 0.013577 0.000000 0.006542 0.000000
# 4 0.000000 0.000000 0.000000 0.064580 0.000000 -0.002653
# 5 -0.000288 -0.001033 0.006542 0.000000 0.040472 0.000000
# 6 0.000000 0.000000 0.000000 -0.002653 0.000000 0.033923
#
#
# Mechanical properties :
#
#
# Convention : Reuss Voigt Hill
#
# Bulk Modulus (GPa) = 40.47886 57.65368 49.06627
# Shear Modulus (GPa) = 23.27026 27.57181 25.42103
#
# Velocity S-wave (km/s) = 3.51075 3.82148 3.66941
# Velocity P-wave (km/s) = 6.15418 7.07167 6.62882
#
# Compressibility (1/GPa) = 0.02470425
#
# Stress axis : x y z
#
# Youngs Moduli (GPa) = 110.70495 42.42442 73.65588
#
# Poissons Ratio (x) = 0.21439 0.29217
# Poissons Ratio (y) = 0.55944 0.12655
# Poissons Ratio (z) = 0.43914 0.07289
#
# Static dielectric constant tensor:
#      x y z
#    x 1.633530 0.000000 -0.019290 
#    y 0.000000 1.666980 0.000000 
#    z -0.019290 0.000000 1.667720 
# 
# From -- ./inp_files/66350.got.cif
#   From: 2010.05.17/outbox.cif.g08.bks.cpg/sg10_34_cif.got.tgz:66350.got - 2010.06.03 11:33:40.
