data_PCOD9150085
_publ_section_title
;
Structure prediction by ZEFSAII (Michael W. Deem and Ramdas Pophale) SiO2 
 PCOD9150085
Probable space group: P 2/M
;
_chemical_formula_sum "Si O2"
_cell_formula_units_Z 24
_cell_length_a 15.629469
_cell_length_b 7.702094
_cell_length_c 20.027382
_cell_angle_alpha 90.000000
_cell_angle_beta 22.691270
_cell_angle_gamma 90.000000
_cell_volume 930.037745
_symmetry_space_group_name_H-M "P 2/M"
_symmetry_group_IT_number 10
_symmetry_cell_setting 'monoclinic'
loop_
_space_group_symop_operation_xyz
x,y,z
-x,y,-z
-x,-y,-z
x,-y,z
loop_
_atom_site_type_symbol
_atom_site_label
_atom_site_fract_x
_atom_site_fract_y
_atom_site_fract_z
Si Si1 0.150749 0.712460 0.486212
Si Si2 0.685355 0.291592 0.777925
Si Si3 0.267902 0.704793 0.542049
Si Si4 0.705885 0.697351 0.274768
Si Si5 0.227929 0.205551 0.064443
Si Si6 0.188628 0.200508 0.948584
O O1 0.154531 0.500000 0.484565
O O2 0.246987 0.766795 0.345774
O O3 0.278912 0.777140 0.458786
O O4 0.891633 0.768087 0.674381
O O5 0.690945 0.500000 0.776044
O O6 0.429759 0.241984 0.969288
O O7 0.316458 0.500000 0.504709
O O8 0.456685 0.773470 0.455936
O O9 0.011637 0.722813 0.744829
O O10 0.714765 0.500000 0.294626
O O11 0.920052 0.792867 0.149102
O O12 0.750426 0.698312 0.162264
O O13 0.283204 0.272934 0.949830
O O14 0.204503 0.000000 0.075137
O O15 0.250804 0.000000 0.893552
#
# Coordination Sequence:
#
# PCOD9150085 Si02
#       6
#     4   4   4   4   4   4
#     4   8  16  33  58  84 104 131 174 218 265 317
#     4   9  17  34  60  82 103 134 174 221 265 309
#     4  10  21  36  54  78 108 140 174 215 264 314
#     4  10  20  35  59  86 105 128 173 226 265 304
#     4  11  24  37  50  75 110 146 180 212 255 312
#     4  10  21  37  56  77 106 143 176 210 260 318
#
# _framework density 25.805403999999999
#
# number of rings (size 3 to 8) (size 9 to 14) (size 15 to 20)
#    0.000    2.333    0.000    4.500    0.000    6.667 
#    0.000   10.000    0.000    0.000    0.000    0.000 
#    0.000    0.000    0.000    0.000    0.000    0.000 
#
# Total GULP energy -134206.887843 kJ/mol
# GULP energy per Si atom -5591.953660 kJ/mol
# Density = 2.574667 g / cm^3
# Si number density = 25.805404 Si / 1000 Ang^3
#
#
#
# Elastic Constant Matrix: (Units=GPa)
#
#
# Indices 1 2 3 4 5 6 
#
# 1 95.4272 -1.2131 17.8548 0.0000 -32.8498 0.0000
# 2 -1.2131 64.5325 -0.4797 0.0000 -3.0678 0.0000
# 3 17.8548 -0.4797 137.7654 0.0000 -37.1590 0.0000
# 4 0.0000 0.0000 0.0000 292.0585 0.0000 -80.2933
# 5 -32.8498 -3.0678 -37.1590 0.0000 53.8771 0.0000
# 6 0.0000 0.0000 0.0000 -80.2933 0.0000 27.9434
#
#
#
# Elastic Compliance Matrix: (Units=1/GPa)
#
#
# Indices 1 2 3 4 5 6 
#
# 1 0.013327 0.000662 0.000586 0.000000 0.008568 0.000000
# 2 0.000662 0.015586 0.000389 0.000000 0.001560 0.000000
# 3 0.000586 0.000389 0.008952 0.000000 0.006553 0.000000
# 4 0.000000 0.000000 0.000000 0.016302 0.000000 0.046843
# 5 0.008568 0.001560 0.006553 0.000000 0.028393 0.000000
# 6 0.000000 0.000000 0.000000 0.046843 0.000000 0.170386
#
#
# Mechanical properties :
#
#
# Convention : Reuss Voigt Hill
#
# Bulk Modulus (GPa) = 24.30767 36.67211 30.48989
# Shear Modulus (GPa) = 18.98366 93.54668 56.26517
#
# Velocity S-wave (km/s) = 2.71522 6.02740 4.67450
# Velocity P-wave (km/s) = 4.38976 7.91715 6.40122
#
# Compressibility (1/GPa) = 0.04113928
#
# Stress axis : x y z
#
# Youngs Moduli (GPa) = 75.03365 64.16203 111.70970
#
# Poissons Ratio (x) = -0.04249 -0.06546
# Poissons Ratio (y) = -0.04969 -0.04347
# Poissons Ratio (z) = -0.04397 -0.02497
#
# Static dielectric constant tensor:
#      x y z
#    x 2.048180 0.000000 0.032760 
#    y 0.000000 1.923770 0.000000 
#    z 0.032760 0.000000 2.128360 
# 
# From -- ./inp_files/33769.got.cif
#   From: 2010.05.17/outbox.cif.g08.bks.cpg/sg10_17_cif.got.tgz:33769.got - 2010.06.03 11:33:40.
