data_PCOD9150780
_publ_section_title
;
Structure prediction by ZEFSAII (Michael W. Deem and Ramdas Pophale) SiO2 
 PCOD9150780
Probable space group: P 2/M
;
_chemical_formula_sum "Si O2"
_cell_formula_units_Z 28
_cell_length_a 9.116021
_cell_length_b 15.413293
_cell_length_c 11.712637
_cell_angle_alpha 90.000000
_cell_angle_beta 61.602473
_cell_angle_gamma 90.000000
_cell_volume 1447.687326
_symmetry_space_group_name_H-M "P 2/M"
_symmetry_group_IT_number 10
_symmetry_cell_setting 'monoclinic'
loop_
_space_group_symop_operation_xyz
x,y,z
-x,y,-z
-x,-y,-z
x,-y,z
loop_
_atom_site_type_symbol
_atom_site_label
_atom_site_fract_x
_atom_site_fract_y
_atom_site_fract_z
Si Si1 0.311381 0.352385 0.311094
Si Si2 0.647672 0.730761 0.147198
Si Si3 0.697175 0.590699 0.445492
Si Si4 0.457980 0.903850 0.150142
Si Si5 0.228179 0.600472 0.089615
Si Si6 0.107489 0.176818 0.348312
Si Si7 0.913736 0.279314 0.235846
O O1 0.499750 0.320883 0.264859
O O2 0.260668 0.408844 0.436605
O O3 0.300309 0.395700 0.191251
O O4 0.192850 0.268453 0.349962
O O5 0.569844 0.824704 0.152929
O O6 0.816560 0.741888 0.155896
O O7 0.679050 0.670663 0.024749
O O8 0.500000 0.591598 0.500000
O O9 0.761179 0.500000 0.369222
O O10 0.776896 0.676441 0.366457
O O11 0.264379 0.882473 0.251976
O O12 0.497724 0.000000 0.181027
O O13 0.500000 0.904892 0.000000
O O14 0.231605 0.500000 0.048415
O O15 0.046091 0.643962 0.164147
O O16 0.000000 0.148103 0.500000
O O17 0.998129 0.201506 0.276464
#
# Coordination Sequence:
#
# PCOD9150780 Si02
#       7
#     4   4   4   4   4   4   4
#     4  10  20  37  56  81 113 160 208 247 291 348
#     4  11  22  39  61  85 121 156 199 243 305 363
#     4  11  21  33  52  80 115 159 208 251 290 341
#     4  10  22  43  68  93 120 155 200 251 307 375
#     4  11  24  37  55  85 123 163 207 255 298 349
#     4  10  20  37  64  90 120 156 201 247 309 366
#     4  11  22  37  57  85 120 160 197 245 308 353
#
# _framework density 19.341193000000001
#
# number of rings (size 3 to 8) (size 9 to 14) (size 15 to 20)
#    0.000    1.429    2.857    4.286    0.000    3.714 
#    0.000    2.857    0.000    4.286    0.000    0.000 
#    0.000    0.000    0.000    0.000    0.000    0.000 
#
# Total GULP energy -156098.896676 kJ/mol
# GULP energy per Si atom -5574.960596 kJ/mol
# Density = 1.929717 g / cm^3
# Si number density = 19.341193 Si / 1000 Ang^3
#
#
#
# Elastic Constant Matrix: (Units=GPa)
#
#
# Indices 1 2 3 4 5 6 
#
# 1 99.0204 29.2613 22.7577 0.0000 2.3153 0.0000
# 2 29.2613 111.9629 33.9205 0.0000 -0.6482 0.0000
# 3 22.7577 33.9205 82.0790 0.0000 -3.8222 0.0000
# 4 0.0000 0.0000 0.0000 157.0836 0.0000 -65.4915
# 5 2.3153 -0.6482 -3.8222 0.0000 27.9263 0.0000
# 6 0.0000 0.0000 0.0000 -65.4915 0.0000 38.8659
#
#
#
# Elastic Compliance Matrix: (Units=1/GPa)
#
#
# Indices 1 2 3 4 5 6 
#
# 1 0.011323 -0.002283 -0.002256 0.000000 -0.001301 0.000000
# 2 -0.002283 0.010673 -0.003782 0.000000 -0.000081 0.000000
# 3 -0.002256 -0.003782 0.014469 0.000000 0.002080 0.000000
# 4 0.000000 0.000000 0.000000 0.021401 0.000000 0.036062
# 5 -0.001301 -0.000081 0.002080 0.000000 0.036199 0.000000
# 6 0.000000 0.000000 0.000000 0.036062 0.000000 0.086497
#
#
# Mechanical properties :
#
#
# Convention : Reuss Voigt Hill
#
# Bulk Modulus (GPa) = 50.44808 51.66015 51.05411
# Shear Modulus (GPa) = 24.53247 58.58335 41.55791
#
# Velocity S-wave (km/s) = 3.56533 5.50955 4.64041
# Velocity P-wave (km/s) = 6.56419 8.20009 7.42732
#
# Compressibility (1/GPa) = 0.01982236
#
# Stress axis : x y z
#
# Youngs Moduli (GPa) = 88.31899 93.69041 69.11465
#
# Poissons Ratio (x) = 0.21390 0.15595
# Poissons Ratio (y) = 0.20164 0.26137
# Poissons Ratio (z) = 0.19928 0.35431
#
# Static dielectric constant tensor:
#      x y z
#    x 1.693290 0.000000 -0.010850 
#    y 0.000000 1.642600 0.000000 
#    z -0.010850 0.000000 1.734460 
# 
# From -- ./inp_files/42855.got.cif
#   From: 2010.05.17/outbox.cif.g08.bks.cpg/sg10_22_cif.got.tgz:42855.got - 2010.06.03 11:33:40.
