data_PCOD9150958
_publ_section_title
;
Structure prediction by ZEFSAII (Michael W. Deem and Ramdas Pophale) SiO2 
 PCOD9150958
Probable space group: P 2/M
;
_chemical_formula_sum "Si O2"
_cell_formula_units_Z 28
_cell_length_a 21.792060
_cell_length_b 8.128125
_cell_length_c 14.914667
_cell_angle_alpha 90.000000
_cell_angle_beta 150.667990
_cell_angle_gamma 90.000000
_cell_volume 1294.144274
_symmetry_space_group_name_H-M "P 2/M"
_symmetry_group_IT_number 10
_symmetry_cell_setting 'monoclinic'
loop_
_space_group_symop_operation_xyz
x,y,z
-x,y,-z
-x,-y,-z
x,-y,z
loop_
_atom_site_type_symbol
_atom_site_label
_atom_site_fract_x
_atom_site_fract_y
_atom_site_fract_z
Si Si1 0.756957 0.301487 0.916770
Si Si2 0.366315 0.310080 0.418495
Si Si3 0.035447 0.192802 0.289040
Si Si4 0.563183 0.698357 0.812484
Si Si5 0.600474 0.807424 0.056228
Si Si6 0.110546 0.689929 0.576928
Si Si7 0.870594 0.196147 0.782505
O O1 0.770699 0.500000 0.924494
O O2 0.662654 0.244444 0.717706
O O3 0.697653 0.269477 0.938313
O O4 0.890701 0.218308 0.078597
O O5 0.404744 0.500000 0.455632
O O6 0.465126 0.236930 0.613852
O O7 0.235187 0.296784 0.302458
O O8 0.064615 0.289966 0.416305
O O9 0.114220 0.243012 0.302039
O O10 0.058991 0.000000 0.336129
O O11 0.549616 0.500000 0.803887
O O12 0.548797 0.775395 0.890905
O O13 0.745595 0.750607 0.239037
O O14 0.607700 0.000000 0.084335
O O15 0.500000 0.734920 0.000000
O O16 0.119856 0.500000 0.615587
O O17 0.000000 0.764620 0.500000
O O18 0.842278 0.000000 0.750908
O O19 0.000000 0.221013 0.000000
#
# Coordination Sequence:
#
# PCOD9150958 Si02
#       7
#     4   4   4   4   4   4   4
#     4  10  20  37  60  89 126 161 198 246 298 358
#     4  10  21  36  59  89 120 158 202 245 294 356
#     4  11  23  38  61  90 123 161 201 248 303 360
#     4  10  22  40  62  89 121 159 201 249 304 358
#     4  11  26  46  66  92 126 165 210 261 316 374
#     4  11  25  45  69  96 125 160 207 263 319 375
#     4  10  21  38  56  81 121 162 197 243 298 354
#
# _framework density 21.635919000000001
#
# number of rings (size 3 to 8) (size 9 to 14) (size 15 to 20)
#    0.000    1.571    1.429    2.571    2.000   10.000 
#    0.000    0.000    0.000    2.571    0.000    0.000 
#    0.000    0.000    0.000    0.000    0.000    0.000 
#
# Total GULP energy -156371.743689 kJ/mol
# GULP energy per Si atom -5584.705132 kJ/mol
# Density = 2.158667 g / cm^3
# Si number density = 21.635919 Si / 1000 Ang^3
#
#
#
# Elastic Constant Matrix: (Units=GPa)
#
#
# Indices 1 2 3 4 5 6 
#
# 1 160.7402 16.5290 42.7750 0.0000 4.8808 0.0000
# 2 16.5290 16.0489 7.0828 0.0000 17.1367 0.0000
# 3 42.7750 7.0828 91.5584 0.0000 1.0965 0.0000
# 4 0.0000 0.0000 0.0000 43.8898 0.0000 -6.9757
# 5 4.8808 17.1367 1.0965 0.0000 30.0669 0.0000
# 6 0.0000 0.0000 0.0000 -6.9757 0.0000 26.3632
#
#
#
# Elastic Compliance Matrix: (Units=1/GPa)
#
#
# Indices 1 2 3 4 5 6 
#
# 1 0.008311 -0.015323 -0.002787 0.000000 0.007486 0.000000
# 2 -0.015323 0.199889 -0.006973 0.000000 -0.111185 0.000000
# 3 -0.002787 -0.006973 0.012716 0.000000 0.003963 0.000000
# 4 0.000000 0.000000 0.000000 0.023785 0.000000 0.006293
# 5 0.007486 -0.111185 0.003963 0.000000 0.095270 0.000000
# 6 0.000000 0.000000 0.000000 0.006293 0.000000 0.039597
#
#
# Mechanical properties :
#
#
# Convention : Reuss Voigt Hill
#
# Bulk Modulus (GPa) = 5.85650 44.56900 25.21275
# Shear Modulus (GPa) = 10.27431 33.52803 21.90117
#
# Velocity S-wave (km/s) = 2.18152 3.94083 3.18505
# Velocity P-wave (km/s) = 3.00967 6.43048 5.02042
#
# Compressibility (1/GPa) = 0.17075047
#
# Stress axis : x y z
#
# Youngs Moduli (GPa) = 120.31810 5.00277 78.64049
#
# Poissons Ratio (x) = 0.07666 0.21919
# Poissons Ratio (y) = 1.84364 0.54834
# Poissons Ratio (z) = 0.33535 0.03488
#
# Static dielectric constant tensor:
#      x y z
#    x 1.785200 0.000000 0.009310 
#    y 0.000000 1.773320 0.000000 
#    z 0.009310 0.000000 1.793510 
# 
# From -- ./inp_files/70313.got.cif
#   From: 2010.05.17/outbox.cif.g08.bks.cpg/sg10_36_cif.got.tgz:70313.got - 2010.06.03 11:33:40.
