data_PCOD9150650
_publ_section_title
;
Structure prediction by ZEFSAII (Michael W. Deem and Ramdas Pophale) SiO2 
 PCOD9150650
Probable space group: P 2/M
;
_chemical_formula_sum "Si O2"
_cell_formula_units_Z 28
_cell_length_a 31.915294
_cell_length_b 8.643685
_cell_length_c 10.533525
_cell_angle_alpha 90.000000
_cell_angle_beta 147.371547
_cell_angle_gamma 90.000000
_cell_volume 1566.796522
_symmetry_space_group_name_H-M "P 2/M"
_symmetry_group_IT_number 10
_symmetry_cell_setting 'monoclinic'
loop_
_space_group_symop_operation_xyz
x,y,z
-x,y,-z
-x,-y,-z
x,-y,z
loop_
_atom_site_type_symbol
_atom_site_label
_atom_site_fract_x
_atom_site_fract_y
_atom_site_fract_z
Si Si1 0.662865 0.813138 0.672022
Si Si2 0.258003 0.812752 0.390220
Si Si3 0.080705 0.186849 0.545585
Si Si4 0.505837 0.186638 0.663112
Si Si5 0.907264 0.812079 0.127961
Si Si6 0.234610 0.685010 0.835337
Si Si7 0.330322 0.314784 0.832062
O O1 0.694525 0.766946 0.615046
O O2 0.573924 0.767165 0.471139
O O3 0.667220 0.000000 0.690530
O O4 0.716795 0.747534 0.920880
O O5 0.295931 0.747632 0.613391
O O6 0.258667 0.000000 0.398031
O O7 0.168789 0.760726 0.141323
O O8 0.098255 0.231206 0.737272
O O9 0.146819 0.255792 0.625801
O O10 0.991832 0.236455 0.293302
O O11 0.084234 0.000000 0.548159
O O12 0.500000 0.232446 0.500000
O O13 0.511575 0.000000 0.681990
O O14 0.582610 0.256125 0.920787
O O15 0.907358 0.000000 0.127109
O O16 0.235305 0.500000 0.840017
O O17 0.277062 0.737777 0.814943
O O18 0.330313 0.500000 0.830168
#
# Coordination Sequence:
#
# PCOD9150650 Si02
#       7
#     4   4   4   4   4   4   4
#     4  10  20  36  61  87 109 138 182 234 280 325
#     4  10  20  37  59  83 112 145 183 227 277 328
#     4   9  16  31  57  85 111 139 181 232 277 322
#     4  10  20  36  61  88 109 137 184 234 280 326
#     4   8  15  30  56  86 111 139 177 229 281 323
#     4  11  22  35  53  81 113 148 188 225 269 328
#     4  11  25  40  54  77 115 156 187 221 274 332
#
# _framework density 17.870858999999999
#
# number of rings (size 3 to 8) (size 9 to 14) (size 15 to 20)
#    0.000    2.143    2.857    1.714    0.000    3.714 
#    0.000    5.714    0.000    4.286    0.000    0.000 
#    0.000    0.000    0.000    0.000    0.000    0.000 
#
# Total GULP energy -156262.964757 kJ/mol
# GULP energy per Si atom -5580.820170 kJ/mol
# Density = 1.783018 g / cm^3
# Si number density = 17.870859 Si / 1000 Ang^3
#
#
#
# Elastic Constant Matrix: (Units=GPa)
#
#
# Indices 1 2 3 4 5 6 
#
# 1 153.6156 32.9447 102.8145 0.0000 15.0080 0.0000
# 2 32.9447 11.4770 30.9983 0.0000 2.9947 0.0000
# 3 102.8145 30.9983 174.8268 0.0000 11.1248 0.0000
# 4 0.0000 0.0000 0.0000 -39.9836 0.0000 3.2005
# 5 15.0080 2.9947 11.1248 0.0000 35.8947 0.0000
# 6 0.0000 0.0000 0.0000 3.2005 0.0000 18.8336
#
#
#
# Elastic Compliance Matrix: (Units=1/GPa)
#
#
# Indices 1 2 3 4 5 6 
#
# 1 0.017878 -0.043466 -0.002613 0.000000 -0.003038 0.000000
# 2 -0.043466 0.273716 -0.023130 0.000000 0.002506 0.000000
# 3 -0.002613 -0.023130 0.011390 0.000000 -0.000508 0.000000
# 4 0.000000 0.000000 0.000000 -0.024675 0.000000 0.004193
# 5 -0.003038 0.002506 -0.000508 0.000000 0.029078 0.000000
# 6 0.000000 0.000000 0.000000 0.004193 0.000000 0.052384
#
#
# Mechanical properties :
#
#
# Convention : Reuss Voigt Hill
#
# Bulk Modulus (GPa) = 6.07659 74.82605 40.45132
# Shear Modulus (GPa) = 9.04085 14.49306 11.76696
#
# Velocity S-wave (km/s) = 2.25166 2.85088 2.56880
# Velocity P-wave (km/s) = 3.18867 7.26622 5.61095
#
# Compressibility (1/GPa) = 0.16456604
#
# Stress axis : x y z
#
# Youngs Moduli (GPa) = 55.93598 3.65342 87.79395
#
# Poissons Ratio (x) = 0.15880 0.22945
# Poissons Ratio (y) = 2.43131 2.03065
# Poissons Ratio (z) = 0.14619 0.08450
#
# Static dielectric constant tensor:
#      x y z
#    x 1.608930 0.000000 0.021820 
#    y 0.000000 1.602550 0.000000 
#    z 0.021820 0.000000 1.587490 
# 
# From -- ./inp_files/36684.got.cif
#   From: 2010.05.17/outbox.cif.g08.bks.cpg/sg10_19_cif.got.tgz:36684.got - 2010.06.03 11:33:40.
