data_PCOD9150299
_publ_section_title
;
Structure prediction by ZEFSAII (Michael W. Deem and Ramdas Pophale) SiO2 
 PCOD9150299
Probable space group: P 2/M
;
_chemical_formula_sum "Si O2"
_cell_formula_units_Z 24
_cell_length_a 19.205838
_cell_length_b 7.573712
_cell_length_c 15.184668
_cell_angle_alpha 90.000000
_cell_angle_beta 149.961942
_cell_angle_gamma 90.000000
_cell_volume 1105.647333
_symmetry_space_group_name_H-M "P 2/M"
_symmetry_group_IT_number 10
_symmetry_cell_setting 'monoclinic'
loop_
_space_group_symop_operation_xyz
x,y,z
-x,y,-z
-x,-y,-z
x,-y,z
loop_
_atom_site_type_symbol
_atom_site_label
_atom_site_fract_x
_atom_site_fract_y
_atom_site_fract_z
Si Si1 0.982797 0.709084 0.723525
Si Si2 0.609540 0.798248 0.554283
Si Si3 0.879983 0.203652 0.307463
Si Si4 0.336018 0.786518 0.583396
Si Si5 0.436508 0.784298 0.024958
Si Si6 0.113742 0.288671 0.049953
O O1 0.006063 0.500000 0.742298
O O2 0.817146 0.737353 0.549530
O O3 0.056622 0.793008 0.720520
O O4 0.054638 0.773173 0.892096
O O5 0.500000 0.709741 0.500000
O O6 0.639614 0.721965 0.490262
O O7 0.748792 0.799502 0.763542
O O8 0.561049 0.000000 0.484565
O O9 0.000000 0.286774 0.500000
O O10 0.864301 0.000000 0.320532
O O11 0.723265 0.277357 0.139716
O O12 0.458986 0.726542 0.783080
O O13 0.337335 0.000000 0.583245
O O14 0.435536 0.000000 0.027271
O O15 0.500000 0.733606 0.000000
O O16 0.137933 0.500000 0.070782
O O17 0.000000 0.258629 0.000000
#
# Coordination Sequence:
#
# PCOD9150299 Si02
#       6
#     4   4   4   4   4   4
#     4  11  23  38  58  84 115 152 193 238 282 331
#     4  10  22  36  55  85 116 146 188 240 289 335
#     4  10  21  38  63  91 115 146 187 231 285 345
#     4  10  20  36  57  82 112 149 189 233 286 339
#     4   9  18  34  58  85 113 143 180 227 277 336
#     4  10  21  39  58  79 112 155 198 233 276 335
#
# _framework density 21.70674
#
# number of rings (size 3 to 8) (size 9 to 14) (size 15 to 20)
#    0.000    2.000    1.667    1.500    2.333    5.000 
#    0.000    0.833    0.000    2.000    0.000    0.000 
#    0.000    0.000    0.000    0.000    0.000    0.000 
#
# Total GULP energy -134032.698267 kJ/mol
# GULP energy per Si atom -5584.695761 kJ/mol
# Density = 2.165733 g / cm^3
# Si number density = 21.706740 Si / 1000 Ang^3
#
#
#
# Elastic Constant Matrix: (Units=GPa)
#
#
# Indices 1 2 3 4 5 6 
#
# 1 153.1176 3.8964 93.5902 0.0000 3.6678 0.0000
# 2 3.8964 31.3842 14.0913 0.0000 12.0790 0.0000
# 3 93.5902 14.0913 187.4369 0.0000 -10.9569 0.0000
# 4 0.0000 0.0000 0.0000 -394.1486 0.0000 -252.0645
# 5 3.6678 12.0790 -10.9569 0.0000 35.2924 0.0000
# 6 0.0000 0.0000 0.0000 -252.0645 0.0000 -155.7109
#
#
#
# Elastic Compliance Matrix: (Units=1/GPa)
#
#
# Indices 1 2 3 4 5 6 
#
# 1 0.009775 0.002506 -0.005275 0.000000 -0.003511 0.000000
# 2 0.002506 0.039827 -0.005151 0.000000 -0.015491 0.000000
# 3 -0.005275 -0.005151 0.008648 0.000000 0.004996 0.000000
# 4 0.000000 0.000000 0.000000 0.071978 0.000000 -0.116519
# 5 -0.003511 -0.015491 0.004996 0.000000 0.035552 0.000000
# 6 0.000000 0.000000 0.000000 -0.116519 0.000000 0.182198
#
#
# Mechanical properties :
#
#
# Convention : Reuss Voigt Hill
#
# Bulk Modulus (GPa) = 23.57876 66.12161 44.85018
# Shear Modulus (GPa) = 13.22909 -85.55602 -36.16347
#
# Velocity S-wave (km/s) = 2.47137 -6.28491 -4.08610
# Velocity P-wave (km/s) = 4.36229 4.70524 1.24694
#
# Compressibility (1/GPa) = 0.04241106
#
# Stress axis : x y z
#
# Youngs Moduli (GPa) = 102.29913 25.10875 115.63223
#
# Poissons Ratio (x) = -0.06292 0.60991
# Poissons Ratio (y) = -0.25636 0.59562
# Poissons Ratio (z) = 0.53959 0.12933
#
# Static dielectric constant tensor:
#      x y z
#    x 1.763230 0.000000 -0.009080 
#    y 0.000000 1.823910 0.000000 
#    z -0.009080 0.000000 1.733530 
# 
# From -- ./inp_files/27304.got.cif
#   From: 2010.05.17/outbox.cif.g08.bks.cpg/sg10_14_cif.got.tgz:27304.got - 2010.06.03 11:33:40.
