data_PCOD9150983
_publ_section_title
;
Structure prediction by ZEFSAII (Michael W. Deem and Ramdas Pophale) SiO2 
 PCOD9150983
Probable space group: P 2/M
;
_chemical_formula_sum "Si O2"
_cell_formula_units_Z 32
_cell_length_a 18.394099
_cell_length_b 14.972429
_cell_length_c 12.421388
_cell_angle_alpha 90.000000
_cell_angle_beta 28.811133
_cell_angle_gamma 90.000000
_cell_volume 1648.615614
_symmetry_space_group_name_H-M "P 2/M"
_symmetry_group_IT_number 10
_symmetry_cell_setting 'monoclinic'
loop_
_space_group_symop_operation_xyz
x,y,z
-x,y,-z
-x,-y,-z
x,-y,z
loop_
_atom_site_type_symbol
_atom_site_label
_atom_site_fract_x
_atom_site_fract_y
_atom_site_fract_z
Si Si1 0.174951 0.724580 0.295528
Si Si2 0.754866 0.742196 0.031778
Si Si3 0.854040 0.898192 0.266321
Si Si4 0.101648 0.261116 0.626609
Si Si5 0.568572 0.395649 0.018072
Si Si6 0.484291 0.392891 0.367323
Si Si7 0.160444 0.393095 0.736489
Si Si8 0.676993 0.101145 0.291889
O O1 0.182359 0.759660 0.408048
O O2 0.258147 0.630309 0.194579
O O3 0.000000 0.718090 0.500000
O O4 0.249011 0.766936 0.091566
O O5 0.620479 0.670686 0.231413
O O6 0.739067 0.828066 0.127370
O O7 0.927057 0.711304 0.829889
O O8 0.882324 0.827142 0.321993
O O9 0.718065 0.873387 0.361246
O O10 0.832172 0.000000 0.333248
O O11 0.000000 0.896408 0.000000
O O12 0.166789 0.340464 0.615757
O O13 0.554981 0.500000 0.026057
O O14 0.500000 0.352327 0.000000
O O15 0.490356 0.374505 0.231588
O O16 0.512087 0.500000 0.351366
O O17 0.307752 0.372791 0.619557
O O18 0.163418 0.500000 0.714859
O O19 0.000000 0.369324 0.000000
O O20 0.500000 0.098603 0.500000
O O21 0.738286 0.000000 0.197378
#
# Coordination Sequence:
#
# PCOD9150983 Si02
#       8
#     4   4   4   4   4   4   4   4
#     4   9  20  35  49  79 115 147 186 232 276 337
#     4  10  21  36  58  84 117 152 190 233 286 337
#     4  10  20  37  61  86 111 142 188 239 284 337
#     4  11  21  35  59  83 114 153 192 233 287 335
#     4   9  16  29  50  74 101 140 190 236 275 319
#     4   9  19  35  53  77 112 151 190 230 277 337
#     4  10  22  37  55  82 115 150 193 241 287 337
#     4  10  22  39  61  88 114 144 186 235 287 344
#
# _framework density 19.410223999999999
#
# number of rings (size 3 to 8) (size 9 to 14) (size 15 to 20)
#    0.000    2.250    1.250    1.125    1.750    2.250 
#    0.000    3.125    0.000    4.875    0.000    2.625 
#    0.000    0.000    0.000    0.000    0.000    0.000 
#
# Total GULP energy -178184.740430 kJ/mol
# GULP energy per Si atom -5568.273138 kJ/mol
# Density = 1.936605 g / cm^3
# Si number density = 19.410224 Si / 1000 Ang^3
#
#
#
# Elastic Constant Matrix: (Units=GPa)
#
#
# Indices 1 2 3 4 5 6 
#
# 1 122.0028 35.9024 41.1526 0.0000 5.4775 0.0000
# 2 35.9024 75.3088 20.7187 0.0000 17.2964 0.0000
# 3 41.1526 20.7187 73.5038 0.0000 -10.9866 0.0000
# 4 0.0000 0.0000 0.0000 5.4643 0.0000 -12.3409
# 5 5.4775 17.2964 -10.9866 0.0000 38.4690 0.0000
# 6 0.0000 0.0000 0.0000 -12.3409 0.0000 131.1813
#
#
#
# Elastic Compliance Matrix: (Units=1/GPa)
#
#
# Indices 1 2 3 4 5 6 
#
# 1 0.011135 -0.003419 -0.005513 0.000000 -0.001623 0.000000
# 2 -0.003419 0.018239 -0.004575 0.000000 -0.009020 0.000000
# 3 -0.005513 -0.004575 0.019226 0.000000 0.008333 0.000000
# 4 0.000000 0.000000 0.000000 0.232378 0.000000 0.021861
# 5 -0.001623 -0.009020 0.008333 0.000000 0.032662 0.000000
# 6 0.000000 0.000000 0.000000 0.021861 0.000000 0.009680
#
#
# Mechanical properties :
#
#
# Convention : Reuss Voigt Hill
#
# Bulk Modulus (GPa) = 46.32591 51.81809 49.07200
# Shear Modulus (GPa) = 13.98486 46.55903 30.27194
#
# Velocity S-wave (km/s) = 2.68710 4.90295 3.95345
# Velocity P-wave (km/s) = 5.79189 7.66852 6.79530
#
# Compressibility (1/GPa) = 0.02158619
#
# Stress axis : x y z
#
# Youngs Moduli (GPa) = 89.80580 54.82724 52.01163
#
# Poissons Ratio (x) = 0.18746 0.28674
# Poissons Ratio (y) = 0.30706 0.23796
# Poissons Ratio (z) = 0.49510 0.25084
#
# Static dielectric constant tensor:
#      x y z
#    x 1.751820 0.000000 0.006980 
#    y 0.000000 1.661570 0.000000 
#    z 0.006980 0.000000 1.739640 
# 
# From -- ./inp_files/53995.got.cif
#   From: 2010.05.17/outbox.cif.g08.bks.cpg/sg10_27_cif.got.tgz:53995.got - 2010.06.03 11:33:40.
