data_PCOD9150143
_publ_section_title
;
Structure prediction by ZEFSAII (Michael W. Deem and Ramdas Pophale) SiO2 
 PCOD9150143
Probable space group: P 2/M
;
_chemical_formula_sum "Si O2"
_cell_formula_units_Z 30
_cell_length_a 5.593274
_cell_length_b 20.764764
_cell_length_c 18.883588
_cell_angle_alpha 90.000000
_cell_angle_beta 45.216788
_cell_angle_gamma 90.000000
_cell_volume 1556.681040
_symmetry_space_group_name_H-M "P 2/M"
_symmetry_group_IT_number 10
_symmetry_cell_setting 'monoclinic'
loop_
_space_group_symop_operation_xyz
x,y,z
-x,y,-z
-x,-y,-z
x,-y,z
loop_
_atom_site_type_symbol
_atom_site_label
_atom_site_fract_x
_atom_site_fract_y
_atom_site_fract_z
Si Si1 0.406204 0.500000 0.933960
Si Si2 0.164263 0.266411 0.891432
Si Si3 0.151255 0.332312 0.393569
Si Si4 0.618489 0.077480 0.054705
Si Si5 0.362605 0.619197 0.208580
Si Si6 0.122144 0.194591 0.555600
Si Si7 0.763647 0.163096 0.757920
Si Si8 0.890006 0.271044 0.245729
O O1 0.571433 0.560448 0.857576
O O2 0.500000 0.500000 0.000000
O O3 0.000000 0.500000 0.000000
O O4 0.292752 0.339858 0.859652
O O5 0.472168 0.217213 0.819451
O O6 0.955135 0.257140 0.864290
O O7 0.000000 0.255211 0.000000
O O8 0.220768 0.386311 0.318867
O O9 0.510066 0.296374 0.326905
O O10 0.000000 0.355387 0.500000
O O11 0.921770 0.271593 0.417093
O O12 0.364009 0.106779 0.165570
O O13 0.607514 0.000000 0.057871
O O14 0.500000 0.098161 0.000000
O O15 0.000000 0.096282 0.000000
O O16 0.103529 0.670034 0.230228
O O17 0.500000 0.177083 0.500000
O O18 0.000000 0.189351 0.500000
O O19 0.867451 0.151877 0.655915
O O20 0.079131 0.202887 0.722827
#
# Coordination Sequence:
#
# PCOD9150143 Si02
#       8
#     2   4   4   4   4   4   4   4
#     4  12  30  48  69  85 115 169 208 246 298 359
#     4  10  21  33  54  86 123 153 195 250 310 358
#     4  10  20  35  61  87 124 157 191 248 313 361
#     4  10  24  42  61  87 122 167 211 249 297 361
#     4  10  23  39  59  87 117 157 204 249 291 371
#     4  11  22  35  57  91 126 157 197 243 306 368
#     4  11  21  34  58  89 121 161 200 249 306 358
#     4  10  20  36  55  91 125 153 198 249 302 371
#
# _framework density 19.27177
#
# number of rings (size 3 to 8) (size 9 to 14) (size 15 to 20)
#    0.000    1.600    4.000    2.400    9.333    1.067 
#    0.000    0.333    0.000    1.600    0.000    0.000 
#    0.000    0.533    0.000    0.000    0.000    0.000 
#
# Total GULP energy -167059.786499 kJ/mol
# GULP energy per Si atom -5568.659550 kJ/mol
# Density = 1.922791 g / cm^3
# Si number density = 19.271770 Si / 1000 Ang^3
#
#
#
# Elastic Constant Matrix: (Units=GPa)
#
#
# Indices 1 2 3 4 5 6 
#
# 1 98.7048 21.4318 60.9888 0.0000 19.3185 0.0000
# 2 21.4318 44.3351 30.2622 0.0000 12.0796 0.0000
# 3 60.9888 30.2622 156.8224 0.0000 36.7382 0.0000
# 4 0.0000 0.0000 0.0000 28.5343 0.0000 7.6873
# 5 19.3185 12.0796 36.7382 0.0000 38.1857 0.0000
# 6 0.0000 0.0000 0.0000 7.6873 0.0000 8.5451
#
#
#
# Elastic Compliance Matrix: (Units=1/GPa)
#
#
# Indices 1 2 3 4 5 6 
#
# 1 0.013876 -0.003248 -0.004345 0.000000 -0.001812 0.000000
# 2 -0.003248 0.027318 -0.003058 0.000000 -0.004056 0.000000
# 3 -0.004345 -0.003058 0.010218 0.000000 -0.006665 0.000000
# 4 0.000000 0.000000 0.000000 0.046257 0.000000 -0.041613
# 5 -0.001812 -0.004056 -0.006665 0.000000 0.034800 0.000000
# 6 0.000000 0.000000 0.000000 -0.041613 0.000000 0.154463
#
#
# Mechanical properties :
#
#
# Convention : Reuss Voigt Hill
#
# Bulk Modulus (GPa) = 33.21219 58.35865 45.78542
# Shear Modulus (GPa) = 15.70987 27.53163 21.62075
#
# Velocity S-wave (km/s) = 2.85823 3.78378 3.35309
# Velocity P-wave (km/s) = 5.30694 7.03115 6.22899
#
# Compressibility (1/GPa) = 0.03010942
#
# Stress axis : x y z
#
# Youngs Moduli (GPa) = 72.06723 36.60555 97.86641
#
# Poissons Ratio (x) = 0.11890 0.42524
# Poissons Ratio (y) = 0.23408 0.29929
# Poissons Ratio (z) = 0.31314 0.11195
#
# Static dielectric constant tensor:
#      x y z
#    x 1.816340 0.000000 0.026890 
#    y 0.000000 1.645920 0.000000 
#    z 0.026890 0.000000 1.750830 
# 
# From -- ./inp_files/81512.got.cif
#   From: 2010.05.17/outbox.cif.g08.bks.cpg/sg10_41_cif.got.tgz:81512.got - 2010.06.03 11:33:40.
