data_PCOD9150147
_publ_section_title
;
Structure prediction by ZEFSAII (Michael W. Deem and Ramdas Pophale) SiO2 
 PCOD9150147
Probable space group: P 2/M
;
_chemical_formula_sum "Si O2"
_cell_formula_units_Z 28
_cell_length_a 15.012138
_cell_length_b 8.817964
_cell_length_c 22.309520
_cell_angle_alpha 90.000000
_cell_angle_beta 149.303540
_cell_angle_gamma 90.000000
_cell_volume 1507.607042
_symmetry_space_group_name_H-M "P 2/M"
_symmetry_group_IT_number 10
_symmetry_cell_setting 'monoclinic'
loop_
_space_group_symop_operation_xyz
x,y,z
-x,y,-z
-x,-y,-z
x,-y,z
loop_
_atom_site_type_symbol
_atom_site_label
_atom_site_fract_x
_atom_site_fract_y
_atom_site_fract_z
Si Si1 0.949867 0.318719 0.881593
Si Si2 0.258654 0.681209 0.718202
Si Si3 0.045103 0.317544 0.805622
Si Si4 0.924266 0.317302 0.605155
Si Si5 0.330120 0.819192 0.634836
Si Si6 0.737623 0.818629 0.864844
Si Si7 0.570055 0.179628 0.973129
O O1 0.934354 0.500000 0.880571
O O2 0.942054 0.281610 0.806866
O O3 0.809608 0.234958 0.842012
O O4 0.137875 0.264625 0.015427
O O5 0.263582 0.500000 0.717861
O O6 0.098313 0.725241 0.668557
O O7 0.240315 0.747804 0.641322
O O8 0.436715 0.742189 0.850394
O O9 0.067995 0.500000 0.816831
O O10 0.951601 0.271333 0.689912
O O11 0.235779 0.243930 0.919131
O O12 0.907947 0.500000 0.593399
O O13 0.762036 0.243476 0.477712
O O14 0.535231 0.779910 0.755170
O O15 0.314543 0.000000 0.628105
O O16 0.758982 0.000000 0.883343
O O17 0.570620 0.000000 0.962010
O O18 0.500000 0.206637 0.000000
#
# Coordination Sequence:
#
# PCOD9150147 Si02
#       7
#     4   4   4   4   4   4   4
#     4  10  20  35  61  90 111 138 180 229 279 329
#     4  11  22  37  59  82 110 151 192 232 280 330
#     4  10  21  38  58  83 115 150 187 229 279 334
#     4  10  22  39  57  79 111 151 192 229 274 333
#     4  11  24  39  57  82 112 147 190 235 280 330
#     4  10  21  38  58  82 114 146 178 224 282 336
#     4  11  22  34  53  83 116 148 184 227 275 326
#
# _framework density 18.572479000000001
#
# number of rings (size 3 to 8) (size 9 to 14) (size 15 to 20)
#    0.000    1.571    1.429    4.286    0.000    9.714 
#    0.000    0.714    0.000    4.286    0.000    0.000 
#    0.000    0.000    0.000    0.000    0.000    0.000 
#
# Total GULP energy -156508.539367 kJ/mol
# GULP energy per Si atom -5589.590692 kJ/mol
# Density = 1.853021 g / cm^3
# Si number density = 18.572479 Si / 1000 Ang^3
#
#
#
# Elastic Constant Matrix: (Units=GPa)
#
#
# Indices 1 2 3 4 5 6 
#
# 1 97.5021 25.3229 35.2789 0.0000 -23.8665 0.0000
# 2 25.3229 16.7185 13.6554 0.0000 -5.4130 0.0000
# 3 35.2789 13.6554 62.7135 0.0000 -14.2466 0.0000
# 4 0.0000 0.0000 0.0000 -36.8588 0.0000 112.5583
# 5 -23.8665 -5.4130 -14.2466 0.0000 17.8557 0.0000
# 6 0.0000 0.0000 0.0000 112.5583 0.0000 -157.2049
#
#
#
# Elastic Compliance Matrix: (Units=1/GPa)
#
#
# Indices 1 2 3 4 5 6 
#
# 1 0.023070 -0.026097 -0.002550 0.000000 0.020891 0.000000
# 2 -0.026097 0.104261 -0.010706 0.000000 -0.011818 0.000000
# 3 -0.002550 -0.010706 0.022228 0.000000 0.011082 0.000000
# 4 0.000000 0.000000 0.000000 0.022866 0.000000 0.016372
# 5 0.020891 -0.011818 0.011082 0.000000 0.089187 0.000000
# 6 0.000000 0.000000 0.000000 0.016372 0.000000 0.005361
#
#
# Mechanical properties :
#
#
# Convention : Reuss Voigt Hill
#
# Bulk Modulus (GPa) = 14.11360 36.16094 25.13727
# Shear Modulus (GPa) = 13.53924 -28.39646 -7.42861
#
# Velocity S-wave (km/s) = 2.70292 -3.91443 -2.00212
# Velocity P-wave (km/s) = 4.16614 0.95805 2.86696
#
# Compressibility (1/GPa) = 0.07085363
#
# Stress axis : x y z
#
# Youngs Moduli (GPa) = 43.34587 9.59135 44.98744
#
# Poissons Ratio (x) = 0.25031 0.11471
# Poissons Ratio (y) = 1.13121 0.48163
# Poissons Ratio (z) = 0.11052 0.10268
#
# Static dielectric constant tensor:
#      x y z
#    x 1.645850 0.000000 -0.013720 
#    y 0.000000 1.620450 0.000000 
#    z -0.013720 0.000000 1.614750 
# 
# From -- ./inp_files/49103.got.cif
#   From: 2010.05.17/outbox.cif.g08.bks.cpg/sg10_25_cif.got.tgz:49103.got - 2010.06.03 11:33:40.
