data_PCOD9150629
_publ_section_title
;
Structure prediction by ZEFSAII (Michael W. Deem and Ramdas Pophale) SiO2 
 PCOD9150629
Probable space group: P 2/M
;
_chemical_formula_sum "Si O2"
_cell_formula_units_Z 32
_cell_length_a 15.788127
_cell_length_b 7.854692
_cell_length_c 25.504479
_cell_angle_alpha 90.000000
_cell_angle_beta 27.596941
_cell_angle_gamma 90.000000
_cell_volume 1465.178226
_symmetry_space_group_name_H-M "P 2/M"
_symmetry_group_IT_number 10
_symmetry_cell_setting 'monoclinic'
loop_
_space_group_symop_operation_xyz
x,y,z
-x,y,-z
-x,-y,-z
x,-y,z
loop_
_atom_site_type_symbol
_atom_site_label
_atom_site_fract_x
_atom_site_fract_y
_atom_site_fract_z
Si Si1 0.692206 0.696200 0.413862
Si Si2 0.017573 0.802077 0.829879
Si Si3 0.105894 0.802360 0.490963
Si Si4 0.142204 0.706186 0.876160
Si Si5 0.958202 0.796621 0.357888
Si Si6 0.638137 0.792077 0.879220
Si Si7 0.509551 0.700259 0.251072
Si Si8 0.613972 0.206242 0.076972
O O1 0.500000 0.775222 0.500000
O O2 0.653934 0.500000 0.446711
O O3 0.842159 0.711168 0.285647
O O4 0.788882 0.765874 0.412637
O O5 0.088349 0.785319 0.850509
O O6 0.013937 0.000000 0.815522
O O7 0.808231 0.738749 0.945857
O O8 0.070241 0.727028 0.567888
O O9 0.319711 0.795352 0.361470
O O10 0.000000 0.722241 0.500000
O O11 0.045103 0.000000 0.527275
O O12 0.136347 0.500000 0.873889
O O13 0.340906 0.756002 0.788430
O O14 0.000000 0.752828 0.000000
O O15 0.153345 0.733401 0.228944
O O16 0.975104 0.000000 0.352374
O O17 0.551904 0.745137 0.870298
O O18 0.638054 0.000000 0.881495
O O19 0.500000 0.732909 0.000000
O O20 0.475940 0.500000 0.277213
O O21 0.589255 0.726054 0.149080
O O22 0.618864 0.000000 0.077385
#
# Coordination Sequence:
#
# PCOD9150629 Si02
#       8
#     4   4   4   4   4   4   4   4
#     4  11  26  45  63  84 118 165 207 249 307 369
#     4  11  23  38  63  93 120 153 202 258 301 351
#     4  10  22  41  64  90 124 164 203 251 310 364
#     4  10  21  39  59  84 124 167 198 239 304 368
#     4  10  21  39  64  92 120 155 203 254 299 353
#     4   9  17  33  60  89 118 149 186 236 300 361
#     4  11  23  37  58  86 119 160 202 244 295 359
#     4  10  20  36  60  90 121 154 192 241 300 363
#
# _framework density 21.840344999999999
#
# number of rings (size 3 to 8) (size 9 to 14) (size 15 to 20)
#    0.000    1.750    1.250    2.625    1.750    7.500 
#    0.000    1.875    0.000    1.500    0.000    0.000 
#    0.000    0.000    0.000    0.000    0.000    0.000 
#
# Total GULP energy -178862.019511 kJ/mol
# GULP energy per Si atom -5589.438110 kJ/mol
# Density = 2.179063 g / cm^3
# Si number density = 21.840345 Si / 1000 Ang^3
#
#
#
# Elastic Constant Matrix: (Units=GPa)
#
#
# Indices 1 2 3 4 5 6 
#
# 1 130.8060 6.6280 49.7887 0.0000 -16.3235 0.0000
# 2 6.6280 23.5216 -0.5380 0.0000 -2.8223 0.0000
# 3 49.7887 -0.5380 102.2535 0.0000 -11.8878 0.0000
# 4 0.0000 0.0000 0.0000 3.9682 0.0000 4.1056
# 5 -16.3235 -2.8223 -11.8878 0.0000 39.0214 0.0000
# 6 0.0000 0.0000 0.0000 4.1056 0.0000 34.1707
#
#
#
# Elastic Compliance Matrix: (Units=1/GPa)
#
#
# Indices 1 2 3 4 5 6 
#
# 1 0.009801 -0.002559 -0.004490 0.000000 0.002547 0.000000
# 2 -0.002559 0.043591 0.001780 0.000000 0.002625 0.000000
# 3 -0.004490 0.001780 0.012204 0.000000 0.001969 0.000000
# 4 0.000000 0.000000 0.000000 0.287779 0.000000 -0.034577
# 5 0.002547 0.002625 0.001969 0.000000 0.027482 0.000000
# 6 0.000000 0.000000 0.000000 -0.034577 0.000000 0.033419
#
#
# Mechanical properties :
#
#
# Convention : Reuss Voigt Hill
#
# Bulk Modulus (GPa) = 18.16210 40.92650 29.54430
# Shear Modulus (GPa) = 11.28246 28.81221 20.04733
#
# Velocity S-wave (km/s) = 2.27532 3.63605 3.03298
# Velocity P-wave (km/s) = 3.90342 6.03385 5.08154
#
# Compressibility (1/GPa) = 0.05505970
#
# Stress axis : x y z
#
# Youngs Moduli (GPa) = 102.02633 22.94063 81.94051
#
# Poissons Ratio (x) = 0.05870 0.36789
# Poissons Ratio (y) = 0.26108 -0.14589
# Poissons Ratio (z) = 0.45807 -0.04085
#
# Static dielectric constant tensor:
#      x y z
#    x 1.785150 0.000000 -0.012290 
#    y 0.000000 1.803360 0.000000 
#    z -0.012290 0.000000 1.780470 
# 
# From -- ./inp_files/89506.got.cif
#   From: 2010.05.17/outbox.cif.g08.bks.cpg/sg10_45_cif.got.tgz:89506.got - 2010.06.03 11:33:40.
