data_PCOD9150009
_publ_section_title
;
Structure prediction by ZEFSAII (Michael W. Deem and Ramdas Pophale) SiO2 
 PCOD9150009
Probable space group: P 2/M
;
_chemical_formula_sum "Si O2"
_cell_formula_units_Z 26
_cell_length_a 12.024287
_cell_length_b 7.446291
_cell_length_c 14.180478
_cell_angle_alpha 90.000000
_cell_angle_beta 90.432298
_cell_angle_gamma 90.000000
_cell_volume 1269.631961
_symmetry_space_group_name_H-M "P 2/M"
_symmetry_group_IT_number 10
_symmetry_cell_setting 'monoclinic'
loop_
_space_group_symop_operation_xyz
x,y,z
-x,y,-z
-x,-y,-z
x,-y,z
loop_
_atom_site_type_symbol
_atom_site_label
_atom_site_fract_x
_atom_site_fract_y
_atom_site_fract_z
Si Si1 0.033497 0.210884 0.223757
Si Si2 0.303862 0.500000 0.008007
Si Si3 0.226391 0.787093 0.345350
Si Si4 0.633287 0.500000 0.767967
Si Si5 0.875773 0.208993 0.975018
Si Si6 0.202235 0.206356 0.745591
Si Si7 0.877221 0.285181 0.465344
Si Si8 0.621537 0.500000 0.194477
O O1 0.104257 0.282632 0.310392
O O2 0.117767 0.223610 0.137822
O O3 0.910315 0.280679 0.204391
O O4 0.013525 0.000000 0.240285
O O5 0.338994 0.500000 0.118779
O O6 0.224837 0.327630 0.992012
O O7 0.387511 0.500000 0.920242
O O8 0.314599 0.670231 0.287834
O O9 0.215807 0.761894 0.457004
O O10 0.236986 0.000000 0.324509
O O11 0.500420 0.500000 0.762586
O O12 0.867236 0.000000 0.003169
O O13 0.000000 0.271858 0.000000
O O14 0.163241 0.214328 0.636104
O O15 0.305940 0.330209 0.770481
O O16 0.224843 0.000000 0.772165
O O17 0.884087 0.500000 0.457157
O O18 0.000000 0.218352 0.500000
#
# Coordination Sequence:
#
# PCOD9150009 Si02
#       8
#     4   2   4   2   4   4   4   2
#     4   9  18  33  59  93 130 166 199 247 317 389
#     4  12  24  42  68  90 118 169 219 274 330 378
#     4  11  22  40  67  99 131 167 211 260 318 382
#     4  12  27  47  67  88 126 172 226 284 317 365
#     4  10  20  35  57  93 133 163 198 251 322 401
#     4  11  23  42  66  95 137 177 210 261 323 385
#     4  11  21  36  66 107 142 172 205 250 319 399
#     4  12  29  47  63  90 124 170 234 278 317 377
#
# _framework density 20.478376000000001
#
# number of rings (size 3 to 8) (size 9 to 14) (size 15 to 20)
#    0.000    1.231    4.615    1.846    0.000    4.308 
#    0.000    1.538    0.000    4.615    0.000    0.000 
#    0.000    0.000    0.000    0.000    0.000    0.000 
#
# Total GULP energy -145128.263185 kJ/mol
# GULP energy per Si atom -5581.856276 kJ/mol
# Density = 2.043177 g / cm^3
# Si number density = 20.478376 Si / 1000 Ang^3
#
#
#
# Elastic Constant Matrix: (Units=GPa)
#
#
# Indices 1 2 3 4 5 6 
#
# 1 114.5521 38.4230 33.1805 0.0000 -22.5979 0.0000
# 2 38.4230 110.7671 19.6126 0.0000 -9.7781 0.0000
# 3 33.1805 19.6126 109.7221 0.0000 -12.7928 0.0000
# 4 0.0000 0.0000 0.0000 27.8268 0.0000 -4.6538
# 5 -22.5979 -9.7781 -12.7928 0.0000 28.2789 0.0000
# 6 0.0000 0.0000 0.0000 -4.6538 0.0000 16.7410
#
#
#
# Elastic Compliance Matrix: (Units=1/GPa)
#
#
# Indices 1 2 3 4 5 6 
#
# 1 0.011854 -0.003072 -0.002169 0.000000 0.007429 0.000000
# 2 -0.003072 0.010305 -0.000827 0.000000 0.000734 0.000000
# 3 -0.002169 -0.000827 0.010222 0.000000 0.002604 0.000000
# 4 0.000000 0.000000 0.000000 0.037689 0.000000 0.010477
# 5 0.007429 0.000734 0.002604 0.000000 0.042731 0.000000
# 6 0.000000 0.000000 0.000000 0.010477 0.000000 0.062646
#
#
# Mechanical properties :
#
#
# Convention : Reuss Voigt Hill
#
# Bulk Modulus (GPa) = 49.40049 57.49704 53.44876
# Shear Modulus (GPa) = 25.72935 30.82438 28.27687
#
# Velocity S-wave (km/s) = 3.54844 3.88392 3.71996
# Velocity P-wave (km/s) = 6.40033 6.94630 6.67889
#
# Compressibility (1/GPa) = 0.02024271
#
# Stress axis : x y z
#
# Youngs Moduli (GPa) = 84.35995 97.04155 97.83287
#
# Poissons Ratio (x) = 0.29811 0.21224
# Poissons Ratio (y) = 0.25915 0.08095
# Poissons Ratio (z) = 0.18301 0.08029
#
# Static dielectric constant tensor:
#      x y z
#    x 1.711130 0.000000 0.015470 
#    y 0.000000 1.733470 0.000000 
#    z 0.015470 0.000000 1.827390 
# 
# From -- ./inp_files/63166.got.cif
#   From: 2010.05.17/outbox.cif.g08.bks.cpg/sg10_32_cif.got.tgz:63166.got - 2010.06.03 11:33:40.
