data_PCOD9150870
_publ_section_title
;
Structure prediction by ZEFSAII (Michael W. Deem and Ramdas Pophale) SiO2 
 PCOD9150870
Probable space group: P 2/M
;
_chemical_formula_sum "Si O2"
_cell_formula_units_Z 32
_cell_length_a 19.506042
_cell_length_b 13.916743
_cell_length_c 14.205284
_cell_angle_alpha 90.000000
_cell_angle_beta 27.065690
_cell_angle_gamma 90.000000
_cell_volume 1754.604711
_symmetry_space_group_name_H-M "P 2/M"
_symmetry_group_IT_number 10
_symmetry_cell_setting 'monoclinic'
loop_
_space_group_symop_operation_xyz
x,y,z
-x,y,-z
-x,-y,-z
x,-y,z
loop_
_atom_site_type_symbol
_atom_site_label
_atom_site_fract_x
_atom_site_fract_y
_atom_site_fract_z
Si Si1 0.646361 0.387611 0.566052
Si Si2 0.646965 0.738113 0.881296
Si Si3 0.164361 0.390002 0.846778
Si Si4 0.710530 0.388135 0.971323
Si Si5 0.794132 0.775611 0.512371
Si Si6 0.586900 0.114768 0.299171
Si Si7 0.478666 0.112305 0.223085
Si Si8 0.140890 0.255468 0.055401
O O1 0.682908 0.500000 0.539656
O O2 0.716673 0.362313 0.379067
O O3 0.466267 0.378119 0.784447
O O4 0.720738 0.319133 0.552995
O O5 0.765410 0.772857 0.659117
O O6 0.500000 0.708322 0.000000
O O7 0.712678 0.652432 0.862961
O O8 0.586649 0.820828 0.026415
O O9 0.196097 0.500000 0.837258
O O10 0.162534 0.321315 0.937413
O O11 0.000000 0.387918 0.000000
O O12 0.751947 0.500000 0.927568
O O13 0.809982 0.320739 0.916115
O O14 0.691328 0.861405 0.598116
O O15 0.968899 0.777489 0.274698
O O16 0.500000 0.147047 0.500000
O O17 0.500118 0.134615 0.307302
O O18 0.606009 0.000000 0.282767
O O19 0.745495 0.167262 0.094280
O O20 0.510966 0.000000 0.168177
#
# Coordination Sequence:
#
# PCOD9150870 Si02
#       8
#     4   4   4   4   4   4   4   4
#     4  10  20  37  59  84 119 159 208 247 287 351
#     4  10  20  39  63  88 118 155 208 249 297 350
#     4  10  21  36  57  87 122 163 204 243 297 360
#     4  11  23  39  59  89 122 159 207 249 294 356
#     4  11  23  37  59  92 120 156 202 250 301 352
#     4  10  23  42  65  89 119 158 197 242 303 372
#     4  10  21  43  68  89 117 154 202 251 300 360
#     4  12  24  37  61  88 130 157 194 251 311 356
#
# _framework density 18.237725999999999
#
# number of rings (size 3 to 8) (size 9 to 14) (size 15 to 20)
#    0.000    1.500    5.000    0.375    3.500    4.500 
#    0.000    2.500    0.000    4.125    0.000    0.000 
#    0.000    0.000    0.000    0.000    0.000    0.000 
#
# Total GULP energy -178677.740534 kJ/mol
# GULP energy per Si atom -5583.679392 kJ/mol
# Density = 1.819622 g / cm^3
# Si number density = 18.237726 Si / 1000 Ang^3
#
#
#
# Elastic Constant Matrix: (Units=GPa)
#
#
# Indices 1 2 3 4 5 6 
#
# 1 67.3200 20.6518 39.3094 0.0000 17.5516 0.0000
# 2 20.6518 49.1219 26.7898 0.0000 6.9503 0.0000
# 3 39.3094 26.7898 98.9850 0.0000 10.6493 0.0000
# 4 0.0000 0.0000 0.0000 6.1585 0.0000 -17.4083
# 5 17.5516 6.9503 10.6493 0.0000 29.3199 0.0000
# 6 0.0000 0.0000 0.0000 -17.4083 0.0000 -15.8843
#
#
#
# Elastic Compliance Matrix: (Units=1/GPa)
#
#
# Indices 1 2 3 4 5 6 
#
# 1 0.022818 -0.004471 -0.006760 0.000000 -0.010144 0.000000
# 2 -0.004471 0.025099 -0.004855 0.000000 -0.001510 0.000000
# 3 -0.006760 -0.004855 0.014093 0.000000 0.000079 0.000000
# 4 0.000000 0.000000 0.000000 0.039624 0.000000 -0.043426
# 5 -0.010144 -0.001510 0.000079 0.000000 0.040508 0.000000
# 6 0.000000 0.000000 0.000000 -0.043426 0.000000 -0.015363
#
#
# Mechanical properties :
#
#
# Convention : Reuss Voigt Hill
#
# Bulk Modulus (GPa) = 33.51517 43.21431 38.36474
# Shear Modulus (GPa) = 29.60379 12.49722 21.05051
#
# Velocity S-wave (km/s) = 4.03329 2.62055 3.40108
# Velocity P-wave (km/s) = 6.33298 5.73610 6.04191
#
# Compressibility (1/GPa) = 0.02983723
#
# Stress axis : x y z
#
# Youngs Moduli (GPa) = 43.82449 39.84292 70.95908
#
# Poissons Ratio (x) = 0.17814 0.47970
# Poissons Ratio (y) = 0.19594 0.34449
# Poissons Ratio (z) = 0.29626 0.19343
#
# Static dielectric constant tensor:
#      x y z
#    x 1.621260 0.000000 0.012030 
#    y 0.000000 1.630140 0.000000 
#    z 0.012030 0.000000 1.618760 
# 
# From -- ./inp_files/54003.got.cif
#   From: 2010.05.17/outbox.cif.g08.bks.cpg/sg10_28_cif.got.tgz:54003.got - 2010.06.03 11:33:40.
