data_PCOD9150372
_publ_section_title
;
Structure prediction by ZEFSAII (Michael W. Deem and Ramdas Pophale) SiO2 
 PCOD9150372
Probable space group: P 2/M
;
_chemical_formula_sum "Si O2"
_cell_formula_units_Z 30
_cell_length_a 11.049562
_cell_length_b 15.472895
_cell_length_c 9.694620
_cell_angle_alpha 90.000000
_cell_angle_beta 85.369279
_cell_angle_gamma 90.000000
_cell_volume 1652.066256
_symmetry_space_group_name_H-M "P 2/M"
_symmetry_group_IT_number 10
_symmetry_cell_setting 'monoclinic'
loop_
_space_group_symop_operation_xyz
x,y,z
-x,y,-z
-x,-y,-z
x,-y,z
loop_
_atom_site_type_symbol
_atom_site_label
_atom_site_fract_x
_atom_site_fract_y
_atom_site_fract_z
Si Si1 0.298197 0.395828 0.987897
Si Si2 0.513400 0.899342 0.152163
Si Si3 0.705245 0.807302 0.332345
Si Si4 0.142054 0.236132 0.947670
Si Si5 0.500000 0.694655 0.500000
Si Si6 0.525275 0.602926 0.778972
Si Si7 0.761192 0.101501 0.841615
Si Si8 0.134044 0.103920 0.452726
O O1 0.275731 0.500000 0.985133
O O2 0.395632 0.372466 0.858733
O O3 0.184987 0.332561 0.985104
O O4 0.369792 0.374322 0.122276
O O5 0.608064 0.856230 0.244012
O O6 0.374057 0.894750 0.210715
O O7 0.548784 0.000000 0.133200
O O8 0.500000 0.860351 0.000000
O O9 0.616754 0.744692 0.428143
O O10 0.772326 0.863442 0.441996
O O11 0.809555 0.775217 0.214709
O O12 0.213850 0.164062 0.032426
O O13 0.000000 0.224696 0.000000
O O14 0.543932 0.640888 0.627656
O O15 0.523406 0.500000 0.772145
O O16 0.842567 0.130139 0.706672
O O17 0.782034 0.000000 0.877119
O O18 0.000000 0.134255 0.500000
O O19 0.138247 0.000000 0.453566
#
# Coordination Sequence:
#
# PCOD9150372 Si02
#       8
#     4   4   4   4   2   4   4   4
#     4   9  20  40  65  89 116 155 199 245 297 356
#     4  10  20  36  58  82 114 152 193 255 307 343
#     4  12  24  36  57  93 119 153 203 243 306 364
#     4  12  25  39  60  87 121 164 206 250 289 348
#     4  12  23  34  57  94 124 150 172 242 313 360
#     4   9  19  38  64  91 118 148 187 240 304 362
#     4  10  22  39  60  87 118 159 202 249 308 352
#     4  10  22  41  59  77 115 167 210 250 291 347
#
# _framework density 18.159077
#
# number of rings (size 3 to 8) (size 9 to 14) (size 15 to 20)
#    0.000    1.600    2.667    3.000    3.733    1.067 
#    0.000    2.667    0.000    0.000    0.000    1.867 
#    0.000    0.000    0.000    0.000    0.000    0.000 
#
# Total GULP energy -167222.231571 kJ/mol
# GULP energy per Si atom -5574.074386 kJ/mol
# Density = 1.811775 g / cm^3
# Si number density = 18.159077 Si / 1000 Ang^3
#
#
#
# Elastic Constant Matrix: (Units=GPa)
#
#
# Indices 1 2 3 4 5 6 
#
# 1 59.0111 12.6501 26.3704 0.0000 -5.9225 0.0000
# 2 12.6501 32.5854 27.4428 0.0000 6.3339 0.0000
# 3 26.3704 27.4428 117.0039 0.0000 -11.9930 0.0000
# 4 0.0000 0.0000 0.0000 49.3670 0.0000 -0.6900
# 5 -5.9225 6.3339 -11.9930 0.0000 31.5902 0.0000
# 6 0.0000 0.0000 0.0000 -0.6900 0.0000 33.8180
#
#
#
# Elastic Compliance Matrix: (Units=1/GPa)
#
#
# Indices 1 2 3 4 5 6 
#
# 1 0.019856 -0.006311 -0.002584 0.000000 0.004007 0.000000
# 2 -0.006311 0.044753 -0.010525 0.000000 -0.014152 0.000000
# 3 -0.002584 -0.010525 0.012241 0.000000 0.006273 0.000000
# 4 0.000000 0.000000 0.000000 0.020262 0.000000 0.000413
# 5 0.004007 -0.014152 0.006273 0.000000 0.037626 0.000000
# 6 0.000000 0.000000 0.000000 0.000413 0.000000 0.029579
#
#
# Mechanical properties :
#
#
# Convention : Reuss Voigt Hill
#
# Bulk Modulus (GPa) = 26.30893 37.94744 32.12818
# Shear Modulus (GPa) = 23.16683 32.43083 27.79883
#
# Velocity S-wave (km/s) = 3.57567 4.23061 3.91685
# Velocity P-wave (km/s) = 5.61842 6.69378 6.17954
#
# Compressibility (1/GPa) = 0.03800991
#
# Stress axis : x y z
#
# Youngs Moduli (GPa) = 50.36334 22.34473 81.69449
#
# Poissons Ratio (x) = 0.14101 0.21112
# Poissons Ratio (y) = 0.31783 0.85983
# Poissons Ratio (z) = 0.13015 0.23518
#
# Static dielectric constant tensor:
#      x y z
#    x 1.648430 0.000000 -0.016080 
#    y 0.000000 1.636560 0.000000 
#    z -0.016080 0.000000 1.454720 
# 
# From -- ./inp_files/25005.got.cif
#   From: 2010.05.17/outbox.cif.g08.bks.cpg/sg10_13_cif.got.tgz:25005.got - 2010.06.03 11:33:40.
