data_PCOD9150418
_publ_section_title
;
Structure prediction by ZEFSAII (Michael W. Deem and Ramdas Pophale) SiO2 
 PCOD9150418
Probable space group: P 2/M
;
_chemical_formula_sum "Si O2"
_cell_formula_units_Z 28
_cell_length_a 22.050366
_cell_length_b 8.624825
_cell_length_c 14.896508
_cell_angle_alpha 90.000000
_cell_angle_beta 150.044994
_cell_angle_gamma 90.000000
_cell_volume 1414.585894
_symmetry_space_group_name_H-M "P 2/M"
_symmetry_group_IT_number 10
_symmetry_cell_setting 'monoclinic'
loop_
_space_group_symop_operation_xyz
x,y,z
-x,y,-z
-x,-y,-z
x,-y,z
loop_
_atom_site_type_symbol
_atom_site_label
_atom_site_fract_x
_atom_site_fract_y
_atom_site_fract_z
Si Si1 0.950756 0.813751 0.837296
Si Si2 0.166697 0.315353 0.004071
Si Si3 0.146532 0.314440 0.599218
Si Si4 0.331489 0.814960 0.535218
Si Si5 0.614580 0.686728 0.586685
Si Si6 0.615638 0.687022 0.206332
Si Si7 0.877048 0.816481 0.239286
O O1 0.810744 0.767445 0.649156
O O2 0.035426 0.730761 0.873825
O O3 0.960277 0.000000 0.837491
O O4 0.000000 0.776603 0.000000
O O5 0.175205 0.500000 0.003592
O O6 0.186543 0.235266 0.933932
O O7 0.264441 0.265265 0.204209
O O8 0.130308 0.500000 0.571401
O O9 0.257753 0.265077 0.678578
O O10 0.172495 0.269594 0.735925
O O11 0.018853 0.233091 0.412923
O O12 0.389029 0.756392 0.516740
O O13 0.389748 0.747557 0.699596
O O14 0.335991 0.000000 0.543578
O O15 0.500000 0.731570 0.500000
O O16 0.616212 0.500000 0.581045
O O17 0.615187 0.500000 0.207016
O O18 0.500000 0.739183 0.000000
O O19 0.869421 0.000000 0.242482
#
# Coordination Sequence:
#
# PCOD9150418 Si02
#       7
#     4   4   4   4   4   4   4
#     4  10  20  36  58  86 122 155 186 234 297 353
#     4  11  22  36  58  87 116 152 199 242 283 343
#     4  10  20  38  62  87 115 149 196 245 288 345
#     4  11  23  39  62  90 120 154 192 242 296 348
#     4  10  23  42  61  82 114 156 198 240 286 341
#     4  10  23  42  63  86 116 156 198 243 293 345
#     4  11  22  36  58  86 121 156 187 236 300 354
#
# _framework density 19.793778
#
# number of rings (size 3 to 8) (size 9 to 14) (size 15 to 20)
#    0.000    1.571    1.429    4.286    0.000    7.143 
#    0.000    5.714    0.000    0.000    0.000    0.000 
#    0.000    0.000    0.000    0.000    0.000    0.000 
#
# Total GULP energy -156557.566464 kJ/mol
# GULP energy per Si atom -5591.341659 kJ/mol
# Density = 1.974873 g / cm^3
# Si number density = 19.793778 Si / 1000 Ang^3
#
#
#
# Elastic Constant Matrix: (Units=GPa)
#
#
# Indices 1 2 3 4 5 6 
#
# 1 127.1647 10.2720 52.3380 0.0000 -15.0035 0.0000
# 2 10.2720 19.5675 10.5649 0.0000 -2.1861 0.0000
# 3 52.3380 10.5649 79.3837 0.0000 -20.7844 0.0000
# 4 0.0000 0.0000 0.0000 16.7061 0.0000 -10.7365
# 5 -15.0035 -2.1861 -20.7844 0.0000 36.9238 0.0000
# 6 0.0000 0.0000 0.0000 -10.7365 0.0000 -294.4481
#
#
#
# Elastic Compliance Matrix: (Units=1/GPa)
#
#
# Indices 1 2 3 4 5 6 
#
# 1 0.010870 -0.001995 -0.006774 0.000000 0.000486 0.000000
# 2 -0.001995 0.055460 -0.006355 0.000000 -0.001104 0.000000
# 3 -0.006774 -0.006355 0.020044 0.000000 0.008154 0.000000
# 4 0.000000 0.000000 0.000000 0.058488 0.000000 -0.002133
# 5 0.000486 -0.001104 0.008154 0.000000 0.031805 0.000000
# 6 0.000000 0.000000 0.000000 -0.002133 0.000000 -0.003318
#
#
# Mechanical properties :
#
#
# Convention : Reuss Voigt Hill
#
# Bulk Modulus (GPa) = 17.81686 41.38506 29.60096
# Shear Modulus (GPa) = 22.49167 -37.96754 -7.73794
#
# Velocity S-wave (km/s) = 3.37456 -4.38443 -1.97933
# Velocity P-wave (km/s) = 4.91979 2.16274 3.12465
#
# Compressibility (1/GPa) = 0.05612660
#
# Stress axis : x y z
#
# Youngs Moduli (GPa) = 91.99326 18.03104 49.89038
#
# Poissons Ratio (x) = 0.03596 0.33797
# Poissons Ratio (y) = 0.18349 0.31705
# Poissons Ratio (z) = 0.62319 0.11459
#
# Static dielectric constant tensor:
#      x y z
#    x 1.674990 0.000000 -0.001930 
#    y 0.000000 1.661420 0.000000 
#    z -0.001930 0.000000 1.699380 
# 
# From -- ./inp_files/70267.got.cif
#   From: 2010.05.17/outbox.cif.g08.bks.cpg/sg10_36_cif.got.tgz:70267.got - 2010.06.03 11:33:40.
