data_PCOD9150140
_publ_section_title
;
Structure prediction by ZEFSAII (Michael W. Deem and Ramdas Pophale) SiO2 
 PCOD9150140
Probable space group: P 2/M
;
_chemical_formula_sum "Si O2"
_cell_formula_units_Z 18
_cell_length_a 14.732093
_cell_length_b 7.485558
_cell_length_c 18.557153
_cell_angle_alpha 90.000000
_cell_angle_beta 21.190991
_cell_angle_gamma 90.000000
_cell_volume 739.744619
_symmetry_space_group_name_H-M "P 2/M"
_symmetry_group_IT_number 10
_symmetry_cell_setting 'monoclinic'
loop_
_space_group_symop_operation_xyz
x,y,z
-x,y,-z
-x,-y,-z
x,-y,z
loop_
_atom_site_type_symbol
_atom_site_label
_atom_site_fract_x
_atom_site_fract_y
_atom_site_fract_z
Si Si1 0.190384 0.702283 0.093993
Si Si2 0.725473 0.201570 0.694071
Si Si3 0.706504 0.712991 0.544993
Si Si4 0.325687 0.290455 0.700887
Si Si5 0.952835 0.000000 0.917426
O O1 0.135567 0.500000 0.109060
O O2 0.979721 0.746618 0.308979
O O3 0.156415 0.844256 0.056300
O O4 0.476152 0.709549 0.909924
O O5 0.684853 0.200005 0.638178
O O6 0.000000 0.286807 0.500000
O O7 0.738706 0.000000 0.713165
O O8 0.678399 0.500000 0.575445
O O9 0.496550 0.768656 0.642340
O O10 0.500000 0.277685 0.500000
O O11 0.259608 0.500000 0.758483
O O12 0.101061 0.157323 0.853104
#
# Coordination Sequence:
#
# PCOD9150140 Si02
#       5
#     4   4   4   4   2
#     4  11  24  43  68 101 135 172 226 272 324 401
#     4  11  26  46  69  99 132 170 222 281 338 398
#     4  10  23  42  68  98 133 178 221 270 327 391
#     4  10  20  35  60  98 136 175 223 265 318 392
#     4  12  21  36  66  99 133 185 213 271 334 373
#
# _framework density 24.332722
#
# number of rings (size 3 to 8) (size 9 to 14) (size 15 to 20)
#    0.000    1.333    3.333    1.667    3.111    2.667 
#    0.000    6.667    0.000    4.000    0.000    0.000 
#    0.000    0.000    0.000    0.000    0.000    0.000 
#
# Total GULP energy -100287.060089 kJ/mol
# GULP energy per Si atom -5571.503338 kJ/mol
# Density = 2.427734 g / cm^3
# Si number density = 24.332722 Si / 1000 Ang^3
#
#
#
# Elastic Constant Matrix: (Units=GPa)
#
#
# Indices 1 2 3 4 5 6 
#
# 1 -7.9036 -11.0071 -44.7740 0.0000 43.5714 0.0000
# 2 -11.0071 110.2189 12.5374 0.0000 9.6142 0.0000
# 3 -44.7740 12.5374 58.8353 0.0000 45.2308 0.0000
# 4 0.0000 0.0000 0.0000 15.4594 0.0000 7.3265
# 5 43.5714 9.6142 45.2308 0.0000 -19.7063 0.0000
# 6 0.0000 0.0000 0.0000 7.3265 0.0000 33.2594
#
#
#
# Elastic Compliance Matrix: (Units=1/GPa)
#
#
# Indices 1 2 3 4 5 6 
#
# 1 0.014356 0.000200 -0.004918 0.000000 0.020552 0.000000
# 2 0.000200 0.009301 -0.002047 0.000000 0.000283 0.000000
# 3 -0.004918 -0.002047 0.008254 0.000000 0.007072 0.000000
# 4 0.000000 0.000000 0.000000 0.072226 0.000000 -0.015910
# 5 0.020552 0.000283 0.007072 0.000000 0.011067 0.000000
# 6 0.000000 0.000000 0.000000 -0.015910 0.000000 0.033571
#
#
# Mechanical properties :
#
#
# Convention : Reuss Voigt Hill
#
# Bulk Modulus (GPa) = 54.40026 8.29591 31.34808
# Shear Modulus (GPa) = 29.68592 19.42878 24.55735
#
# Velocity S-wave (km/s) = 3.49664 2.82877 3.18029
# Velocity P-wave (km/s) = 6.22152 3.75314 5.13777
#
# Compressibility (1/GPa) = 0.01838226
#
# Stress axis : x y z
#
# Youngs Moduli (GPa) = 69.65749 107.51492 121.16028
#
# Poissons Ratio (x) = -0.02154 0.59582
# Poissons Ratio (y) = -0.01395 0.24800
# Poissons Ratio (z) = 0.34255 0.22007
#
# Static dielectric constant tensor:
#      x y z
#    x 1.818620 0.000000 0.234380 
#    y 0.000000 1.883600 0.000000 
#    z 0.234380 0.000000 1.543750 
# 
# From -- ./inp_files/84576.got.cif
#   From: 2010.05.17/outbox.cif.g08.bks.cpg/sg10_43_cif.got.tgz:84576.got - 2010.06.03 11:33:40.
