data_PCOD9150221
_publ_section_title
;
Structure prediction by ZEFSAII (Michael W. Deem and Ramdas Pophale) SiO2 
 PCOD9150221
Probable space group: P 2/M
;
_chemical_formula_sum "Si O2"
_cell_formula_units_Z 24
_cell_length_a 16.761784
_cell_length_b 9.220941
_cell_length_c 15.806586
_cell_angle_alpha 90.000000
_cell_angle_beta 144.829618
_cell_angle_gamma 90.000000
_cell_volume 1407.224726
_symmetry_space_group_name_H-M "P 2/M"
_symmetry_group_IT_number 10
_symmetry_cell_setting 'monoclinic'
loop_
_space_group_symop_operation_xyz
x,y,z
-x,y,-z
-x,-y,-z
x,-y,z
loop_
_atom_site_type_symbol
_atom_site_label
_atom_site_fract_x
_atom_site_fract_y
_atom_site_fract_z
Si Si1 0.309251 0.171365 0.598320
Si Si2 0.832113 0.829577 0.706779
Si Si3 0.903086 0.173475 0.168596
Si Si4 0.619257 0.825868 0.833167
Si Si5 0.643258 0.672791 0.673631
Si Si6 0.946732 0.673138 0.547545
O O1 0.259156 0.191173 0.457605
O O2 0.469886 0.212741 0.742359
O O3 0.204970 0.261598 0.565617
O O4 0.294240 0.000000 0.604080
O O5 0.768120 0.735659 0.725769
O O6 0.987853 0.793277 0.812306
O O7 0.826060 0.000000 0.724146
O O8 0.954239 0.256784 0.295660
O O9 0.915142 0.000000 0.194095
O O10 0.748418 0.207849 0.005446
O O11 0.638062 0.747028 0.760287
O O12 0.618386 0.000000 0.818057
O O13 0.500000 0.706548 0.500000
O O14 0.654067 0.500000 0.691099
O O15 0.944020 0.500000 0.555096
O O16 0.000000 0.708354 0.500000
#
# Coordination Sequence:
#
# PCOD9150221 Si02
#       6
#     4   4   4   4   4   4
#     4   9  18  33  56  81 103 136 178 218 262 309
#     4   9  17  32  52  74 101 138 182 222 261 304
#     4   9  20  37  57  81 106 136 175 220 268 313
#     4  10  20  36  56  78 107 140 177 221 267 310
#     4  11  22  32  47  75 108 143 185 222 258 305
#     4  10  21  37  58  82 107 138 172 208 258 321
#
# _framework density 17.054846000000001
#
# number of rings (size 3 to 8) (size 9 to 14) (size 15 to 20)
#    0.000    2.333    1.667    2.000    0.000    6.667 
#    0.000    4.167    0.000    5.000    0.000    0.000 
#    0.000    0.000    0.000    0.000    0.000    0.000 
#
# Total GULP energy -133923.915797 kJ/mol
# GULP energy per Si atom -5580.163158 kJ/mol
# Density = 1.701603 g / cm^3
# Si number density = 17.054846 Si / 1000 Ang^3
#
#
#
# Elastic Constant Matrix: (Units=GPa)
#
#
# Indices 1 2 3 4 5 6 
#
# 1 148.7223 72.5897 80.8576 0.0000 8.8039 0.0000
# 2 72.5897 49.6709 51.7978 0.0000 1.1320 0.0000
# 3 80.8576 51.7978 117.8392 0.0000 25.9933 0.0000
# 4 0.0000 0.0000 0.0000 21.3112 0.0000 3.1670
# 5 8.8039 1.1320 25.9933 0.0000 23.8764 0.0000
# 6 0.0000 0.0000 0.0000 3.1670 0.0000 38.0824
#
#
#
# Elastic Compliance Matrix: (Units=1/GPa)
#
#
# Indices 1 2 3 4 5 6 
#
# 1 0.024778 -0.037555 0.001485 0.000000 -0.008973 0.000000
# 2 -0.037555 0.104399 -0.029063 0.000000 0.040538 0.000000
# 3 0.001485 -0.029063 0.026398 0.000000 -0.027909 0.000000
# 4 0.000000 0.000000 0.000000 0.047511 0.000000 -0.003951
# 5 -0.008973 0.040538 -0.027909 0.000000 0.073652 0.000000
# 6 0.000000 0.000000 0.000000 -0.003951 0.000000 0.026587
#
#
# Mechanical properties :
#
#
# Convention : Reuss Voigt Hill
#
# Bulk Modulus (GPa) = 39.51032 80.74694 60.12863
# Shear Modulus (GPa) = 11.31152 24.05316 17.68234
#
# Velocity S-wave (km/s) = 2.57815 3.75953 3.22342
# Velocity P-wave (km/s) = 5.66387 8.14209 7.01331
#
# Compressibility (1/GPa) = 0.02530984
#
# Stress axis : x y z
#
# Youngs Moduli (GPa) = 40.35909 9.57863 37.88120
#
# Poissons Ratio (x) = 0.35972 -0.05626
# Poissons Ratio (y) = 1.51567 1.10095
# Poissons Ratio (z) = -0.05994 0.27839
#
# Static dielectric constant tensor:
#      x y z
#    x 1.552020 0.000000 0.023940 
#    y 0.000000 1.563320 0.000000 
#    z 0.023940 0.000000 1.575600 
# 
# From -- ./inp_files/33741.got.cif
#   From: 2010.05.17/outbox.cif.g08.bks.cpg/sg10_17_cif.got.tgz:33741.got - 2010.06.03 11:33:40.
