data_PCOD9150038
_publ_section_title
;
Structure prediction by ZEFSAII (Michael W. Deem and Ramdas Pophale) SiO2 
 PCOD9150038
Probable space group: P 2/M
;
_chemical_formula_sum "Si O2"
_cell_formula_units_Z 24
_cell_length_a 11.001713
_cell_length_b 11.247203
_cell_length_c 11.001715
_cell_angle_alpha 90.000000
_cell_angle_beta 119.553990
_cell_angle_gamma 90.000000
_cell_volume 1184.214083
_symmetry_space_group_name_H-M "P 2/M"
_symmetry_group_IT_number 10
_symmetry_cell_setting 'monoclinic'
loop_
_space_group_symop_operation_xyz
x,y,z
-x,y,-z
-x,-y,-z
x,-y,z
loop_
_atom_site_type_symbol
_atom_site_label
_atom_site_fract_x
_atom_site_fract_y
_atom_site_fract_z
Si Si1 0.446024 0.000000 0.775782
Si Si2 0.342754 0.744480 0.674353
Si Si3 0.825647 0.255520 0.157246
Si Si4 0.581327 0.640950 0.657027
Si Si5 0.914987 0.364001 0.585013
Si Si6 0.724217 0.000000 0.053976
Si Si7 0.157027 0.359050 0.081327
O O1 0.394680 0.879895 0.686508
O O2 0.366975 0.000000 0.866975
O O3 0.610816 0.000000 0.889184
O O4 0.273340 0.730966 0.773340
O O5 0.477725 0.664035 0.718324
O O6 0.226133 0.703669 0.519789
O O7 0.813492 0.120105 0.105320
O O8 0.980211 0.296331 0.273867
O O9 0.781676 0.335965 0.022275
O O10 0.500000 0.691133 0.500000
O O11 0.596114 0.500000 0.645614
O O12 0.734049 0.689454 0.765951
O O13 0.887674 0.500000 0.612326
O O14 0.000000 0.371424 0.500000
O O15 0.145614 0.500000 0.096114
O O16 0.000000 0.308867 0.000000
#
# Coordination Sequence:
#
# PCOD9150038 Si02
#       7
#     2   4   4   4   4   2   4
#     4   9  18  33  54  81 113 149 189 241 297 339
#     4  10  20  35  58  85 114 149 193 240 288 345
#     4  10  20  35  58  85 114 149 193 240 288 345
#     4  10  22  38  57  82 114 152 191 239 296 351
#     4   9  18  31  51  83 117 148 182 230 291 344
#     4   9  18  33  54  81 113 149 189 241 297 339
#     4  10  22  38  57  82 114 152 191 239 296 351
#
# _framework density 20.266605999999999
#
# number of rings (size 3 to 8) (size 9 to 14) (size 15 to 20)
#    0.000    2.333    0.000    2.000    2.333    4.667 
#    0.000    5.833    0.000    0.000    0.000    0.000 
#    0.000    0.000    0.000    0.000    0.000    0.000 
#
# Total GULP energy -133873.624248 kJ/mol
# GULP energy per Si atom -5578.067677 kJ/mol
# Density = 2.022048 g / cm^3
# Si number density = 20.266606 Si / 1000 Ang^3
#
#
#
# Elastic Constant Matrix: (Units=GPa)
#
#
# Indices 1 2 3 4 5 6 
#
# 1 71.2135 18.6061 59.7115 0.0000 13.7737 0.0000
# 2 18.6061 73.8636 61.7258 0.0000 25.6942 0.0000
# 3 59.7115 61.7258 162.7330 0.0000 40.7608 0.0000
# 4 0.0000 0.0000 0.0000 26.0565 0.0000 6.4170
# 5 13.7737 25.6942 40.7608 0.0000 33.3895 0.0000
# 6 0.0000 0.0000 0.0000 6.4170 0.0000 15.2876
#
#
#
# Elastic Compliance Matrix: (Units=1/GPa)
#
#
# Indices 1 2 3 4 5 6 
#
# 1 0.020419 0.001565 -0.008174 0.000000 0.000351 0.000000
# 2 0.001565 0.021891 -0.006477 0.000000 -0.009584 0.000000
# 3 -0.008174 -0.006477 0.013696 0.000000 -0.008363 0.000000
# 4 0.000000 0.000000 0.000000 0.042803 0.000000 -0.017967
# 5 0.000351 -0.009584 -0.008363 0.000000 0.047390 0.000000
# 6 0.000000 0.000000 0.000000 -0.017967 0.000000 0.072954
#
#
# Mechanical properties :
#
#
# Convention : Reuss Voigt Hill
#
# Bulk Modulus (GPa) = 33.51834 65.32189 49.42012
# Shear Modulus (GPa) = 19.58714 26.13116 22.85915
#
# Velocity S-wave (km/s) = 3.11219 3.59468 3.36210
# Velocity P-wave (km/s) = 5.43037 7.03777 6.28566
#
# Compressibility (1/GPa) = 0.02983441
#
# Stress axis : x y z
#
# Youngs Moduli (GPa) = 48.97338 45.68104 73.01446
#
# Poissons Ratio (x) = -0.07150 0.59682
# Poissons Ratio (y) = -0.07665 0.47292
# Poissons Ratio (z) = 0.40031 0.29588
#
# Static dielectric constant tensor:
#      x y z
#    x 1.752300 0.000000 0.001140 
#    y 0.000000 1.688620 0.000000 
#    z 0.001140 0.000000 1.754220 
# 
# From -- ./inp_files/46809.got.cif
#   From: 2010.05.17/outbox.cif.g08.bks.cpg/sg10_24_cif.got.tgz:46809.got - 2010.06.03 11:33:40.
