data_PCOD9150829
_publ_section_title
;
Structure prediction by ZEFSAII (Michael W. Deem and Ramdas Pophale) SiO2 
 PCOD9150829
Probable space group: P 2/M
;
_chemical_formula_sum "Si O2"
_cell_formula_units_Z 32
_cell_length_a 15.854217
_cell_length_b 7.561943
_cell_length_c 25.623274
_cell_angle_alpha 90.000000
_cell_angle_beta 27.354632
_cell_angle_gamma 90.000000
_cell_volume 1411.546429
_symmetry_space_group_name_H-M "P 2/M"
_symmetry_group_IT_number 10
_symmetry_cell_setting 'monoclinic'
loop_
_space_group_symop_operation_xyz
x,y,z
-x,y,-z
-x,-y,-z
x,-y,z
loop_
_atom_site_type_symbol
_atom_site_label
_atom_site_fract_x
_atom_site_fract_y
_atom_site_fract_z
Si Si1 0.459207 0.793346 0.264594
Si Si2 0.874515 0.783523 0.021422
Si Si3 0.686955 0.204400 0.921195
Si Si4 0.880280 0.297968 0.611831
Si Si5 0.049033 0.211745 0.136756
Si Si6 0.632900 0.712676 0.380826
Si Si7 0.382840 0.286704 0.426116
Si Si8 0.973149 0.285282 0.675396
O O1 0.666025 0.728072 0.145707
O O2 0.322938 0.702211 0.299129
O O3 0.395355 0.773697 0.359548
O O4 0.456047 0.000000 0.252879
O O5 0.878519 0.000000 0.019589
O O6 0.000000 0.722932 0.000000
O O7 0.941075 0.723589 0.928100
O O8 0.844641 0.209959 0.790722
O O9 0.786307 0.283104 0.917620
O O10 0.641644 0.000000 0.958927
O O11 0.500000 0.284063 0.000000
O O12 0.950489 0.500000 0.578592
O O13 0.901074 0.224776 0.658158
O O14 0.000000 0.211324 0.500000
O O15 0.846173 0.245113 0.270529
O O16 0.071282 0.000000 0.123117
O O17 0.500000 0.777483 0.500000
O O18 0.619398 0.500000 0.388046
O O19 0.549510 0.775394 0.371246
O O20 0.386108 0.500000 0.422556
O O21 0.187842 0.236280 0.558819
O O22 0.960908 0.500000 0.686253
#
# Coordination Sequence:
#
# PCOD9150829 Si02
#       8
#     4   4   4   4   4   4   4   4
#     4  11  22  34  57  88 114 147 191 236 282 338
#     4   9  19  36  57  82 114 151 189 230 280 337
#     4  10  23  40  59  83 114 153 193 239 292 340
#     4  10  20  38  59  81 115 155 188 229 289 346
#     4  10  21  39  60  82 114 153 190 234 288 342
#     4  10  21  37  60  86 112 145 187 235 285 337
#     4  10  20  37  58  82 116 152 183 229 289 345
#     4  10  21  38  61  83 110 152 194 234 283 340
#
# _framework density 22.670172000000001
#
# number of rings (size 3 to 8) (size 9 to 14) (size 15 to 20)
#    0.000    2.000    1.250    1.875    1.750    4.750 
#    0.000    1.250    0.000    3.375    0.000    0.000 
#    0.000    0.000    0.000    0.000    0.000    0.000 
#
# Total GULP energy -178842.373153 kJ/mol
# GULP energy per Si atom -5588.824161 kJ/mol
# Density = 2.261857 g / cm^3
# Si number density = 22.670172 Si / 1000 Ang^3
#
#
#
# Elastic Constant Matrix: (Units=GPa)
#
#
# Indices 1 2 3 4 5 6 
#
# 1 158.8653 2.0939 39.0473 0.0000 -17.4795 0.0000
# 2 2.0939 55.6436 -7.1706 0.0000 -1.3687 0.0000
# 3 39.0473 -7.1706 105.3808 0.0000 -15.6144 0.0000
# 4 0.0000 0.0000 0.0000 43.0439 0.0000 -14.7087
# 5 -17.4795 -1.3687 -15.6144 0.0000 43.3751 0.0000
# 6 0.0000 0.0000 0.0000 -14.7087 0.0000 19.4505
#
#
#
# Elastic Compliance Matrix: (Units=1/GPa)
#
#
# Indices 1 2 3 4 5 6 
#
# 1 0.007104 -0.000524 -0.002373 0.000000 0.001992 0.000000
# 2 -0.000524 0.018217 0.001571 0.000000 0.000929 0.000000
# 3 -0.002373 0.001571 0.010924 0.000000 0.003026 0.000000
# 4 0.000000 0.000000 0.000000 0.031327 0.000000 0.023690
# 5 0.001992 0.000929 0.003026 0.000000 0.024976 0.000000
# 6 0.000000 0.000000 0.000000 0.023690 0.000000 0.069327
#
#
# Mechanical properties :
#
#
# Convention : Reuss Voigt Hill
#
# Bulk Modulus (GPa) = 29.76761 43.09233 36.42997
# Shear Modulus (GPa) = 28.45377 40.23517 34.34447
#
# Velocity S-wave (km/s) = 3.54661 4.21742 3.89648
# Velocity P-wave (km/s) = 5.47088 6.53950 6.02891
#
# Compressibility (1/GPa) = 0.03359356
#
# Stress axis : x y z
#
# Youngs Moduli (GPa) = 140.76728 54.89496 91.54285
#
# Poissons Ratio (x) = 0.02877 0.21721
# Poissons Ratio (y) = 0.07378 -0.14385
# Poissons Ratio (z) = 0.33401 -0.08626
#
# Static dielectric constant tensor:
#      x y z
#    x 1.845420 0.000000 -0.008660 
#    y 0.000000 1.863550 0.000000 
#    z -0.008660 0.000000 1.803560 
# 
# From -- ./inp_files/89555.got.cif
#   From: 2010.05.17/outbox.cif.g08.bks.cpg/sg10_45_cif.got.tgz:89555.got - 2010.06.03 11:33:40.
