data_PCOD9150267
_publ_section_title
;
Structure prediction by ZEFSAII (Michael W. Deem and Ramdas Pophale) SiO2 
 PCOD9150267
Probable space group: P 2/M
;
_chemical_formula_sum "Si O2"
_cell_formula_units_Z 32
_cell_length_a 22.873163
_cell_length_b 7.562699
_cell_length_c 15.465947
_cell_angle_alpha 90.000000
_cell_angle_beta 147.730654
_cell_angle_gamma 90.000000
_cell_volume 1428.366042
_symmetry_space_group_name_H-M "P 2/M"
_symmetry_group_IT_number 10
_symmetry_cell_setting 'monoclinic'
loop_
_space_group_symop_operation_xyz
x,y,z
-x,y,-z
-x,-y,-z
x,-y,z
loop_
_atom_site_type_symbol
_atom_site_label
_atom_site_fract_x
_atom_site_fract_y
_atom_site_fract_z
Si Si1 0.385985 0.797272 0.323841
Si Si2 0.230916 0.286777 0.620749
Si Si3 0.688447 0.295981 0.591007
Si Si4 0.642340 0.290872 0.052443
Si Si5 0.755812 0.214646 0.013438
Si Si6 0.406496 0.716936 0.700042
Si Si7 0.995164 0.789858 0.261210
Si Si8 0.073252 0.785598 0.172989
O O1 0.500000 0.715847 0.500000
O O2 0.311290 0.796622 0.316195
O O3 0.411544 0.000000 0.331640
O O4 0.322136 0.720228 0.162278
O O5 0.234620 0.500000 0.625253
O O6 0.290327 0.220249 0.781703
O O7 0.303110 0.226834 0.628760
O O8 0.103994 0.238127 0.453662
O O9 0.662662 0.500000 0.575865
O O10 0.604838 0.225041 0.413849
O O11 0.805502 0.283106 0.691852
O O12 0.628927 0.500000 0.051914
O O13 0.708093 0.267161 0.046030
O O14 0.519446 0.221890 0.884153
O O15 0.880353 0.278058 0.154541
O O16 0.756452 0.000000 0.010919
O O17 0.406085 0.500000 0.697451
O O18 0.023003 0.720886 0.200214
O O19 0.980839 0.000000 0.234158
O O20 0.078775 0.000000 0.182265
O O21 0.000000 0.733796 0.000000
#
# Coordination Sequence:
#
# PCOD9150267 Si02
#       8
#     4   4   4   4   4   4   4   4
#     4  10  21  38  59  82 112 154 197 233 276 335
#     4  10  20  37  60  84 113 147 187 235 283 338
#     4  11  21  33  55  86 116 145 179 229 286 336
#     4  10  21  37  60  85 109 147 192 233 284 340
#     4  10  22  40  58  80 114 152 190 234 284 333
#     4   9  18  35  57  84 117 147 180 228 287 343
#     4  10  21  37  57  80 111 151 189 231 282 335
#     4  10  20  36  57  79 107 146 190 231 273 331
#
# _framework density 22.403220999999998
#
# number of rings (size 3 to 8) (size 9 to 14) (size 15 to 20)
#    0.000    2.000    1.250    2.250    0.000    6.000 
#    0.000    5.000    0.000    1.500    0.000    0.000 
#    0.000    0.000    0.000    0.000    0.000    0.000 
#
# Total GULP energy -178838.796857 kJ/mol
# GULP energy per Si atom -5588.712402 kJ/mol
# Density = 2.235223 g / cm^3
# Si number density = 22.403221 Si / 1000 Ang^3
#
#
#
# Elastic Constant Matrix: (Units=GPa)
#
#
# Indices 1 2 3 4 5 6 
#
# 1 65.4960 -12.9075 17.5030 0.0000 -0.5265 0.0000
# 2 -12.9075 51.9107 -4.4913 0.0000 -0.8099 0.0000
# 3 17.5030 -4.4913 118.0416 0.0000 -8.3998 0.0000
# 4 0.0000 0.0000 0.0000 16.8541 0.0000 7.3820
# 5 -0.5265 -0.8099 -8.3998 0.0000 46.7860 0.0000
# 6 0.0000 0.0000 0.0000 7.3820 0.0000 24.9554
#
#
#
# Elastic Compliance Matrix: (Units=1/GPa)
#
#
# Indices 1 2 3 4 5 6 
#
# 1 0.016667 0.003940 -0.002333 0.000000 -0.000163 0.000000
# 2 0.003940 0.020269 0.000218 0.000000 0.000434 0.000000
# 3 -0.002333 0.000218 0.008938 0.000000 0.001582 0.000000
# 4 0.000000 0.000000 0.000000 0.068164 0.000000 -0.020163
# 5 -0.000163 0.000434 0.001582 0.000000 0.021664 0.000000
# 6 0.000000 0.000000 0.000000 -0.020163 0.000000 0.046036
#
#
# Mechanical properties :
#
#
# Convention : Reuss Voigt Hill
#
# Bulk Modulus (GPa) = 20.19240 26.18406 23.18823
# Shear Modulus (GPa) = 25.69420 33.40872 29.55146
#
# Velocity S-wave (km/s) = 3.39026 3.86586 3.63584
# Velocity P-wave (km/s) = 4.93537 5.62490 5.29138
#
# Compressibility (1/GPa) = 0.04952357
#
# Stress axis : x y z
#
# Youngs Moduli (GPa) = 59.99996 49.33618 111.87673
#
# Poissons Ratio (x) = -0.19437 0.26101
# Poissons Ratio (y) = -0.23639 -0.02438
# Poissons Ratio (z) = 0.13998 -0.01075
#
# Static dielectric constant tensor:
#      x y z
#    x 1.797920 0.000000 0.003230 
#    y 0.000000 1.870710 0.000000 
#    z 0.003230 0.000000 1.831580 
# 
# From -- ./inp_files/71522.got.cif
#   From: 2010.05.17/outbox.cif.g08.bks.cpg/sg10_36_cif.got.tgz:71522.got - 2010.06.03 11:33:40.
