data_PCOD9150034
_publ_section_title
;
Structure prediction by ZEFSAII (Michael W. Deem and Ramdas Pophale) SiO2 
 PCOD9150034
Probable space group: P 2/M
;
_chemical_formula_sum "Si O2"
_cell_formula_units_Z 24
_cell_length_a 21.227148
_cell_length_b 8.089102
_cell_length_c 9.334975
_cell_angle_alpha 90.000000
_cell_angle_beta 131.487506
_cell_angle_gamma 90.000000
_cell_volume 1200.729080
_symmetry_space_group_name_H-M "P 2/M"
_symmetry_group_IT_number 10
_symmetry_cell_setting 'monoclinic'
loop_
_space_group_symop_operation_xyz
x,y,z
-x,y,-z
-x,-y,-z
x,-y,z
loop_
_atom_site_type_symbol
_atom_site_label
_atom_site_fract_x
_atom_site_fract_y
_atom_site_fract_z
Si Si1 0.083928 0.702157 0.710097
Si Si2 0.597353 0.694616 0.795922
Si Si3 0.586979 0.194082 0.457794
Si Si4 0.920112 0.301982 0.968836
Si Si5 0.753848 0.196575 0.552871
Si Si6 0.752625 0.700279 0.222514
O O1 0.084637 0.500000 0.712972
O O2 0.167119 0.753938 0.750090
O O3 0.000000 0.753334 0.500000
O O4 0.083256 0.760659 0.873187
O O5 0.610665 0.500000 0.789458
O O6 0.502304 0.720890 0.706316
O O7 0.604858 0.782814 0.653806
O O8 0.667360 0.752150 0.013383
O O9 0.666215 0.259803 0.488257
O O10 0.576525 0.000000 0.411932
O O11 0.930448 0.500000 0.994461
O O12 0.834110 0.267979 0.756033
O O13 0.000000 0.236486 0.000000
O O14 0.757884 0.235759 0.391392
O O15 0.755174 0.000000 0.576261
O O16 0.753306 0.500000 0.229754
#
# Coordination Sequence:
#
# PCOD9150034 Si02
#       6
#     4   4   4   4   4   4
#     4   9  17  32  56  84 110 137 175 220 267 323
#     4  10  20  35  58  85 109 139 183 234 281 325
#     4  10  21  37  56  79 110 148 185 223 274 334
#     4  10  20  36  61  87 111 143 181 225 276 326
#     4  11  24  38  54  79 112 149 186 225 270 325
#     4  10  21  36  55  80 110 143 182 229 276 324
#
# _framework density 19.987857999999999
#
# number of rings (size 3 to 8) (size 9 to 14) (size 15 to 20)
#    0.000    2.000    0.000    4.500    0.000    9.000 
#    0.000    4.167    0.000    2.000    0.000    0.000 
#    0.000    0.000    0.000    0.000    0.000    0.000 
#
# Total GULP energy -134089.782633 kJ/mol
# GULP energy per Si atom -5587.074276 kJ/mol
# Density = 1.994236 g / cm^3
# Si number density = 19.987858 Si / 1000 Ang^3
#
#
#
# Elastic Constant Matrix: (Units=GPa)
#
#
# Indices 1 2 3 4 5 6 
#
# 1 188.9408 -6.9546 89.2240 0.0000 -0.9857 0.0000
# 2 -6.9546 5.7221 -16.0850 0.0000 -1.0063 0.0000
# 3 89.2240 -16.0850 161.7120 0.0000 2.6728 0.0000
# 4 0.0000 0.0000 0.0000 -39.0204 0.0000 -4.8085
# 5 -0.9857 -1.0063 2.6728 0.0000 27.0893 0.0000
# 6 0.0000 0.0000 0.0000 -4.8085 0.0000 20.5746
#
#
#
# Elastic Compliance Matrix: (Units=1/GPa)
#
#
# Indices 1 2 3 4 5 6 
#
# 1 0.007212 -0.003258 -0.004313 0.000000 0.000567 0.000000
# 2 -0.003258 0.245257 0.026086 0.000000 0.006418 0.000000
# 3 -0.004313 0.026086 0.011163 0.000000 -0.000289 0.000000
# 4 0.000000 0.000000 0.000000 -0.024910 0.000000 -0.005822
# 5 0.000567 0.006418 -0.000289 0.000000 0.037203 0.000000
# 6 0.000000 0.000000 0.000000 -0.005822 0.000000 0.047243
#
#
# Mechanical properties :
#
#
# Convention : Reuss Voigt Hill
#
# Bulk Modulus (GPa) = 3.32597 54.30488 28.81543
# Shear Modulus (GPa) = 12.94136 21.07471 17.00804
#
# Velocity S-wave (km/s) = 2.54729 3.25064 2.92022
# Velocity P-wave (km/s) = 3.21235 6.42781 5.08114
#
# Compressibility (1/GPa) = 0.30066415
#
# Stress axis : x y z
#
# Youngs Moduli (GPa) = 138.65097 4.07735 89.58229
#
# Poissons Ratio (x) = 0.01328 0.38635
# Poissons Ratio (y) = 0.45171 -2.33688
# Poissons Ratio (z) = 0.59798 -0.10636
#
# Static dielectric constant tensor:
#      x y z
#    x 1.697600 0.000000 0.010360 
#    y 0.000000 1.707740 0.000000 
#    z 0.010360 0.000000 1.659440 
# 
# From -- ./inp_files/33732.got.cif
#   From: 2010.05.17/outbox.cif.g08.bks.cpg/sg10_17_cif.got.tgz:33732.got - 2010.06.03 11:33:40.
