data_PCOD9150370
_publ_section_title
;
Structure prediction by ZEFSAII (Michael W. Deem and Ramdas Pophale) SiO2 
 PCOD9150370
Probable space group: P 2/M
;
_chemical_formula_sum "Si O2"
_cell_formula_units_Z 32
_cell_length_a 12.652603
_cell_length_b 8.446429
_cell_length_c 29.243467
_cell_angle_alpha 90.000000
_cell_angle_beta 32.100795
_cell_angle_gamma 90.000000
_cell_volume 1660.779105
_symmetry_space_group_name_H-M "P 2/M"
_symmetry_group_IT_number 10
_symmetry_cell_setting 'monoclinic'
loop_
_space_group_symop_operation_xyz
x,y,z
-x,y,-z
-x,-y,-z
x,-y,z
loop_
_atom_site_type_symbol
_atom_site_label
_atom_site_fract_x
_atom_site_fract_y
_atom_site_fract_z
Si Si1 0.611223 0.809305 0.176051
Si Si2 0.233734 0.691050 0.365614
Si Si3 0.467582 0.810834 0.563828
Si Si4 0.091396 0.310647 0.754808
Si Si5 0.081162 0.808181 0.858978
Si Si6 0.638606 0.690990 0.907123
Si Si7 0.775392 0.308884 0.526935
Si Si8 0.338169 0.808757 0.945765
O O1 0.394732 0.756613 0.271783
O O2 0.769725 0.756040 0.155806
O O3 0.665095 0.754086 0.105472
O O4 0.618510 0.000000 0.172666
O O5 0.239688 0.500000 0.362881
O O6 0.282246 0.741935 0.400162
O O7 0.007263 0.738130 0.436857
O O8 0.500000 0.751890 0.500000
O O9 0.253693 0.758284 0.661133
O O10 0.633198 0.752573 0.539279
O O11 0.476284 0.000000 0.559881
O O12 0.095549 0.500000 0.749932
O O13 0.141041 0.260657 0.788318
O O14 0.865726 0.254296 0.828264
O O15 0.084558 0.000000 0.855129
O O16 0.858524 0.757306 0.954633
O O17 0.640049 0.500000 0.907827
O O18 0.532186 0.747700 0.900353
O O19 0.500000 0.747126 0.000000
O O20 0.767313 0.500000 0.529198
O O21 0.338330 0.000000 0.945871
#
# Coordination Sequence:
#
# PCOD9150370 Si02
#       8
#     4   4   4   4   4   4   4   4
#     4  10  21  35  52  81 118 151 186 230 281 337
#     4   9  19  36  58  85 113 145 185 233 283 336
#     4  11  25  42  59  84 118 151 188 237 286 337
#     4  11  23  39  62  87 113 149 191 237 287 339
#     4  10  20  36  58  82 113 151 191 233 279 334
#     4  10  21  39  59  82 114 147 188 240 285 331
#     4   9  19  38  62  84 111 146 188 233 281 339
#     4  10  21  36  56  81 112 152 192 232 280 334
#
# _framework density 19.268065
#
# number of rings (size 3 to 8) (size 9 to 14) (size 15 to 20)
#    0.000    2.000    1.250    2.625    0.000    8.750 
#    0.000    6.250    0.000    2.250    0.000    0.000 
#    0.000    0.000    0.000    0.000    0.000    0.000 
#
# Total GULP energy -178729.228859 kJ/mol
# GULP energy per Si atom -5585.288402 kJ/mol
# Density = 1.922421 g / cm^3
# Si number density = 19.268065 Si / 1000 Ang^3
#
#
#
# Elastic Constant Matrix: (Units=GPa)
#
#
# Indices 1 2 3 4 5 6 
#
# 1 106.3762 15.4782 79.9804 0.0000 3.0979 0.0000
# 2 15.4782 8.1893 13.1715 0.0000 -0.3060 0.0000
# 3 79.9804 13.1715 113.8746 0.0000 10.9411 0.0000
# 4 0.0000 0.0000 0.0000 22.6151 0.0000 -4.4496
# 5 3.0979 -0.3060 10.9411 0.0000 30.9313 0.0000
# 6 0.0000 0.0000 0.0000 -4.4496 0.0000 23.6489
#
#
#
# Elastic Compliance Matrix: (Units=1/GPa)
#
#
# Indices 1 2 3 4 5 6 
#
# 1 0.022699 -0.020640 -0.013786 0.000000 0.002399 0.000000
# 2 -0.020640 0.170669 -0.005803 0.000000 0.005808 0.000000
# 3 -0.013786 -0.005803 0.019677 0.000000 -0.005637 0.000000
# 4 0.000000 0.000000 0.000000 0.045918 0.000000 0.008640
# 5 0.002399 0.005808 -0.005637 0.000000 0.034141 0.000000
# 6 0.000000 0.000000 0.000000 0.008640 0.000000 0.043911
#
#
# Mechanical properties :
#
#
# Convention : Reuss Voigt Hill
#
# Bulk Modulus (GPa) = 7.54210 49.52225 28.53217
# Shear Modulus (GPa) = 10.83031 23.42638 17.12834
#
# Velocity S-wave (km/s) = 2.37341 3.49063 2.98476
# Velocity P-wave (km/s) = 3.38135 6.48102 5.16900
#
# Compressibility (1/GPa) = 0.13258909
#
# Stress axis : x y z
#
# Youngs Moduli (GPa) = 44.05471 5.85929 50.82078
#
# Poissons Ratio (x) = 0.12093 0.70061
# Poissons Ratio (y) = 0.90927 0.29489
# Poissons Ratio (z) = 0.60734 0.03400
#
# Static dielectric constant tensor:
#      x y z
#    x 1.659580 0.000000 -0.005210 
#    y 0.000000 1.662640 0.000000 
#    z -0.005210 0.000000 1.660200 
# 
# From -- ./inp_files/94924.got.cif
#   From: 2010.05.17/outbox.cif.g08.bks.cpg/sg10_48_cif.got.tgz:94924.got - 2010.06.03 11:33:40.
