data_PCOD9150474
_publ_section_title
;
Structure prediction by ZEFSAII (Michael W. Deem and Ramdas Pophale) SiO2 
 PCOD9150474
Probable space group: P 2/M
;
_chemical_formula_sum "Si O2"
_cell_formula_units_Z 28
_cell_length_a 30.056312
_cell_length_b 8.333089
_cell_length_c 9.494401
_cell_angle_alpha 90.000000
_cell_angle_beta 37.980442
_cell_angle_gamma 90.000000
_cell_volume 1463.394590
_symmetry_space_group_name_H-M "P 2/M"
_symmetry_group_IT_number 10
_symmetry_cell_setting 'monoclinic'
loop_
_space_group_symop_operation_xyz
x,y,z
-x,y,-z
-x,-y,-z
x,-y,z
loop_
_atom_site_type_symbol
_atom_site_label
_atom_site_fract_x
_atom_site_fract_y
_atom_site_fract_z
Si Si1 0.798083 0.688444 0.107699
Si Si2 0.360160 0.805850 0.512567
Si Si3 0.199705 0.809218 0.581844
Si Si4 0.934020 0.690368 0.262647
Si Si5 0.071700 0.191212 0.404432
Si Si6 0.500415 0.196438 0.660416
Si Si7 0.637163 0.804744 0.818891
O O1 0.799293 0.500000 0.133145
O O2 0.718485 0.738805 0.253980
O O3 0.811701 0.775953 0.223362
O O4 0.858668 0.732476 0.843437
O O5 0.426396 0.752848 0.443991
O O6 0.375139 0.759769 0.313034
O O7 0.355934 0.000000 0.528515
O O8 0.139702 0.725790 0.636827
O O9 0.281684 0.753835 0.343443
O O10 0.195280 0.000000 0.569541
O O11 0.942891 0.500000 0.259186
O O12 0.933817 0.767482 0.417353
O O13 0.000000 0.749945 0.000000
O O14 0.000000 0.246242 0.500000
O O15 0.077300 0.000000 0.374451
O O16 0.500000 0.246877 0.500000
O O17 0.499896 0.000000 0.665113
O O18 0.428352 0.251160 0.920829
O O19 0.637481 0.000000 0.822492
#
# Coordination Sequence:
#
# PCOD9150474 Si02
#       7
#     4   4   4   4   4   4   4
#     4  11  22  37  58  83 114 147 183 231 286 341
#     4   9  17  31  52  75 103 140 181 223 270 330
#     4  10  20  36  59  84 112 147 190 236 279 330
#     4  11  24  40  59  85 118 153 186 224 275 332
#     4  11  24  41  62  86 112 145 188 234 277 327
#     4   9  16  26  45  75 106 135 175 229 279 322
#     4   8  15  28  47  73 103 138 179 224 274 324
#
# _framework density 19.133596000000001
#
# number of rings (size 3 to 8) (size 9 to 14) (size 15 to 20)
#    0.000    2.143    0.000    4.714    0.000    7.429 
#    0.000    2.857    0.000    8.143    0.000    0.000 
#    0.000    0.000    0.000    0.000    0.000    0.000 
#
# Total GULP energy -156369.644718 kJ/mol
# GULP energy per Si atom -5584.630169 kJ/mol
# Density = 1.909005 g / cm^3
# Si number density = 19.133596 Si / 1000 Ang^3
#
#
#
# Elastic Constant Matrix: (Units=GPa)
#
#
# Indices 1 2 3 4 5 6 
#
# 1 133.8211 -8.1349 78.2388 0.0000 -18.7735 0.0000
# 2 -8.1349 14.6907 3.1775 0.0000 -3.3118 0.0000
# 3 78.2388 3.1775 163.3367 0.0000 -10.2562 0.0000
# 4 0.0000 0.0000 0.0000 5.1356 0.0000 2.6059
# 5 -18.7735 -3.3118 -10.2562 0.0000 17.3761 0.0000
# 6 0.0000 0.0000 0.0000 2.6059 0.0000 4.4175
#
#
#
# Elastic Compliance Matrix: (Units=1/GPa)
#
#
# Indices 1 2 3 4 5 6 
#
# 1 0.013476 0.011735 -0.005845 0.000000 0.013346 0.000000
# 2 0.011735 0.081393 -0.005643 0.000000 0.024861 0.000000
# 3 -0.005845 -0.005643 0.008898 0.000000 -0.002139 0.000000
# 4 0.000000 0.000000 0.000000 0.277905 0.000000 -0.163940
# 5 0.013346 0.024861 -0.002139 0.000000 0.075445 0.000000
# 6 0.000000 0.000000 0.000000 -0.163940 0.000000 0.323085
#
#
# Mechanical properties :
#
#
# Convention : Reuss Voigt Hill
#
# Bulk Modulus (GPa) = 9.59144 50.93460 30.26302
# Shear Modulus (GPa) = 6.13901 21.29030 13.71466
#
# Velocity S-wave (km/s) = 1.79317 3.33936 2.68019
# Velocity P-wave (km/s) = 3.05140 6.44568 5.04271
#
# Compressibility (1/GPa) = 0.10425958
#
# Stress axis : x y z
#
# Youngs Moduli (GPa) = 74.20759 12.28600 112.38918
#
# Poissons Ratio (x) = -0.14418 0.65693
# Poissons Ratio (y) = -0.87083 0.63426
# Poissons Ratio (z) = 0.43376 0.06934
#
# Static dielectric constant tensor:
#      x y z
#    x 1.634420 0.000000 -0.013340 
#    y 0.000000 1.647990 0.000000 
#    z -0.013340 0.000000 1.649600 
# 
# From -- ./inp_files/37127.got.cif
#   From: 2010.05.17/outbox.cif.g08.bks.cpg/sg10_19_cif.got.tgz:37127.got - 2010.06.03 11:33:40.
