data_PCOD9150376
_publ_section_title
;
Structure prediction by ZEFSAII (Michael W. Deem and Ramdas Pophale) SiO2 
 PCOD9150376
Probable space group: P 2/M
;
_chemical_formula_sum "Si O2"
_cell_formula_units_Z 24
_cell_length_a 11.867238
_cell_length_b 8.262975
_cell_length_c 12.762615
_cell_angle_alpha 90.000000
_cell_angle_beta 91.951948
_cell_angle_gamma 90.000000
_cell_volume 1250.759138
_symmetry_space_group_name_H-M "P 2/M"
_symmetry_group_IT_number 10
_symmetry_cell_setting 'monoclinic'
loop_
_space_group_symop_operation_xyz
x,y,z
-x,y,-z
-x,-y,-z
x,-y,z
loop_
_atom_site_type_symbol
_atom_site_label
_atom_site_fract_x
_atom_site_fract_y
_atom_site_fract_z
Si Si1 0.914053 0.185103 0.861407
Si Si2 0.502526 0.697524 0.621614
Si Si3 0.731283 0.303724 0.281223
Si Si4 0.870051 0.192730 0.479699
Si Si5 0.749130 0.690643 0.679745
Si Si6 0.152305 0.311395 0.922013
O O1 0.832700 0.223691 0.762840
O O2 0.026692 0.292812 0.869415
O O3 0.951994 0.000000 0.857351
O O4 0.850479 0.216451 0.969140
O O5 0.500000 0.750343 0.500000
O O6 0.503242 0.500000 0.620254
O O7 0.390675 0.748396 0.679668
O O8 0.619931 0.749255 0.677567
O O9 0.735943 0.500000 0.284622
O O10 0.824524 0.237276 0.364096
O O11 0.761046 0.254524 0.163974
O O12 0.794151 0.280833 0.563817
O O13 0.000000 0.239962 0.500000
O O14 0.861205 0.000000 0.495631
O O15 0.750946 0.500000 0.703379
O O16 0.172795 0.500000 0.945883
#
# Coordination Sequence:
#
# PCOD9150376 Si02
#       6
#     4   4   4   4   4   4
#     4  11  22  37  57  81 115 149 182 224 281 333
#     4   9  17  34  58  82 108 142 183 228 276 321
#     4  10  20  36  58  83 108 141 184 229 273 324
#     4  11  23  35  50  78 115 147 177 221 278 334
#     4  11  21  36  59  81 108 144 187 231 271 323
#     4  10  20  36  60  86 111 142 188 229 271 328
#
# _framework density 19.188348000000001
#
# number of rings (size 3 to 8) (size 9 to 14) (size 15 to 20)
#    0.000    1.667    1.667    5.000    0.000    5.333 
#    0.000    3.333    0.000    5.000    0.000    0.000 
#    0.000    0.000    0.000    0.000    0.000    0.000 
#
# Total GULP energy -134082.464904 kJ/mol
# GULP energy per Si atom -5586.769371 kJ/mol
# Density = 1.914467 g / cm^3
# Si number density = 19.188348 Si / 1000 Ang^3
#
#
#
# Elastic Constant Matrix: (Units=GPa)
#
#
# Indices 1 2 3 4 5 6 
#
# 1 41.8237 -3.5315 -10.9768 0.0000 -21.5449 0.0000
# 2 -3.5315 20.7256 -6.3938 0.0000 -0.7038 0.0000
# 3 -10.9768 -6.3938 47.1431 0.0000 -15.4263 0.0000
# 4 0.0000 0.0000 0.0000 565.2438 0.0000 -15.8173
# 5 -21.5449 -0.7038 -15.4263 0.0000 33.7286 0.0000
# 6 0.0000 0.0000 0.0000 -15.8173 0.0000 -6.3554
#
#
#
# Elastic Compliance Matrix: (Units=1/GPa)
#
#
# Indices 1 2 3 4 5 6 
#
# 1 0.069504 0.026512 0.040558 0.000000 0.063500 0.000000
# 2 0.026512 0.061170 0.024024 0.000000 0.029199 0.000000
# 3 0.040558 0.024024 0.050045 0.000000 0.049297 0.000000
# 4 0.000000 0.000000 0.000000 0.001654 0.000000 -0.004116
# 5 0.063500 0.029199 0.049297 0.000000 0.093367 0.000000
# 6 0.000000 0.000000 0.000000 -0.004116 0.000000 -0.147101
#
#
# Mechanical properties :
#
#
# Convention : Reuss Voigt Hill
#
# Bulk Modulus (GPa) = 2.75553 7.54312 5.14933
# Shear Modulus (GPa) = 74.16048 127.22970 100.69509
#
# Velocity S-wave (km/s) = 6.22355 8.15167 7.25197
# Velocity P-wave (km/s) = 7.28578 9.61973 8.53293
#
# Compressibility (1/GPa) = 0.36290611
#
# Stress axis : x y z
#
# Youngs Moduli (GPa) = 14.38759 16.34790 19.98198
#
# Poissons Ratio (x) = -0.43341 -0.81043
# Poissons Ratio (y) = -0.38144 -0.48004
# Poissons Ratio (z) = -0.58353 -0.39274
#
# Static dielectric constant tensor:
#      x y z
#    x 1.661140 0.000000 -0.018390 
#    y 0.000000 1.667950 0.000000 
#    z -0.018390 0.000000 1.643590 
# 
# From -- ./inp_files/45121.got.cif
#   From: 2010.05.17/outbox.cif.g08.bks.cpg/sg10_23_cif.got.tgz:45121.got - 2010.06.03 11:33:40.
