data_PCOD9150702
_publ_section_title
;
Structure prediction by ZEFSAII (Michael W. Deem and Ramdas Pophale) SiO2 
 PCOD9150702
Probable space group: P 2/M
;
_chemical_formula_sum "Si O2"
_cell_formula_units_Z 32
_cell_length_a 11.815685
_cell_length_b 14.270519
_cell_length_c 18.091487
_cell_angle_alpha 90.000000
_cell_angle_beta 30.622876
_cell_angle_gamma 90.000000
_cell_volume 1553.885879
_symmetry_space_group_name_H-M "P 2/M"
_symmetry_group_IT_number 10
_symmetry_cell_setting 'monoclinic'
loop_
_space_group_symop_operation_xyz
x,y,z
-x,y,-z
-x,-y,-z
x,-y,z
loop_
_atom_site_type_symbol
_atom_site_label
_atom_site_fract_x
_atom_site_fract_y
_atom_site_fract_z
Si Si1 0.288805 0.394602 0.658845
Si Si2 0.011860 0.108452 0.320250
Si Si3 0.091617 0.610420 0.531098
Si Si4 0.352949 0.889138 0.256480
Si Si5 0.249879 0.793156 0.055273
Si Si6 0.127389 0.243006 0.851125
Si Si7 0.159270 0.393680 0.183271
Si Si8 0.625016 0.211765 0.599514
O O1 0.500000 0.347777 0.500000
O O2 0.355133 0.500000 0.640410
O O3 0.197214 0.344930 0.782532
O O4 0.086420 0.395197 0.715105
O O5 0.131325 0.119271 0.332262
O O6 0.181953 0.144169 0.163113
O O7 0.790713 0.169942 0.445489
O O8 0.960027 0.000000 0.337970
O O9 0.150257 0.500000 0.506518
O O10 0.294695 0.680947 0.433023
O O11 0.000000 0.625385 0.500000
O O12 0.894106 0.629615 0.701403
O O13 0.334750 0.843099 0.346626
O O14 0.404951 0.000000 0.233150
O O15 0.543117 0.834742 0.104450
O O16 0.284035 0.687876 0.068358
O O17 0.040213 0.794191 0.117099
O O18 0.368289 0.196241 0.723858
O O19 0.000000 0.243007 0.000000
O O20 0.247832 0.500000 0.126691
#
# Coordination Sequence:
#
# PCOD9150702 Si02
#       8
#     4   4   4   4   4   4   4   4
#     4   9  18  33  59  89 118 162 215 263 306 354
#     4  11  24  43  69  98 120 155 219 277 320 375
#     4  10  20  36  61  96 133 170 213 261 317 376
#     4  11  24  44  69  94 127 165 209 266 329 385
#     4  11  22  42  66  94 128 171 209 258 321 380
#     4  11  24  41  58  89 131 173 210 253 313 392
#     4   9  18  34  58  90 128 166 207 253 306 371
#     4  12  23  41  66  96 131 169 211 264 317 374
#
# _framework density 20.593532
#
# number of rings (size 3 to 8) (size 9 to 14) (size 15 to 20)
#    0.000    1.500    2.500    3.000    1.750    3.750 
#    0.000    4.375    0.000    2.250    0.000    0.000 
#    0.000    0.000    0.000    0.000    0.000    0.000 
#
# Total GULP energy -178814.964925 kJ/mol
# GULP energy per Si atom -5587.967654 kJ/mol
# Density = 2.054666 g / cm^3
# Si number density = 20.593532 Si / 1000 Ang^3
#
#
#
# Elastic Constant Matrix: (Units=GPa)
#
#
# Indices 1 2 3 4 5 6 
#
# 1 62.5739 20.6732 1.3899 0.0000 1.4053 0.0000
# 2 20.6732 95.5964 30.9275 0.0000 -7.0456 0.0000
# 3 1.3899 30.9275 81.7115 0.0000 -13.0959 0.0000
# 4 0.0000 0.0000 0.0000 -10.4865 0.0000 -12.1649
# 5 1.4053 -7.0456 -13.0959 0.0000 31.3800 0.0000
# 6 0.0000 0.0000 0.0000 -12.1649 0.0000 9.1982
#
#
#
# Elastic Compliance Matrix: (Units=1/GPa)
#
#
# Indices 1 2 3 4 5 6 
#
# 1 0.017374 -0.004204 0.001093 0.000000 -0.001266 0.000000
# 2 -0.004204 0.012959 -0.004648 0.000000 0.001158 0.000000
# 3 0.001093 -0.004648 0.014793 0.000000 0.005081 0.000000
# 4 0.000000 0.000000 0.000000 -0.037630 0.000000 -0.049766
# 5 -0.001266 0.001158 0.005081 0.000000 0.034305 0.000000
# 6 0.000000 0.000000 0.000000 -0.049766 0.000000 0.042900
#
#
# Mechanical properties :
#
#
# Convention : Reuss Voigt Hill
#
# Bulk Modulus (GPa) = 33.77457 38.42923 36.10190
# Shear Modulus (GPa) = 45.41797 18.47776 31.94786
#
# Velocity S-wave (km/s) = 4.70131 2.99868 3.94300
# Velocity P-wave (km/s) = 6.77540 5.53993 6.18857
#
# Compressibility (1/GPa) = 0.02960807
#
# Stress axis : x y z
#
# Youngs Moduli (GPa) = 57.55653 77.16757 67.59915
#
# Poissons Ratio (x) = 0.32442 -0.07387
# Poissons Ratio (y) = 0.24197 0.31418
# Poissons Ratio (z) = -0.06290 0.35865
#
# Static dielectric constant tensor:
#      x y z
#    x 1.752030 0.000000 -0.016790 
#    y 0.000000 1.754740 0.000000 
#    z -0.016790 0.000000 1.707290 
# 
# From -- ./inp_files/76991.got.cif
#   From: 2010.05.17/outbox.cif.g08.bks.cpg/sg10_39_cif.got.tgz:76991.got - 2010.06.03 11:33:40.
