data_PCOD9150769
_publ_section_title
;
Structure prediction by ZEFSAII (Michael W. Deem and Ramdas Pophale) SiO2 
 PCOD9150769
Probable space group: P 2/M
;
_chemical_formula_sum "Si O2"
_cell_formula_units_Z 17
_cell_length_a 8.588542
_cell_length_b 18.886990
_cell_length_c 9.552764
_cell_angle_alpha 90.000000
_cell_angle_beta 148.860475
_cell_angle_gamma 90.000000
_cell_volume 801.319753
_symmetry_space_group_name_H-M "P 2/M"
_symmetry_group_IT_number 10
_symmetry_cell_setting 'monoclinic'
loop_
_space_group_symop_operation_xyz
x,y,z
-x,y,-z
-x,-y,-z
x,-y,z
loop_
_atom_site_type_symbol
_atom_site_label
_atom_site_fract_x
_atom_site_fract_y
_atom_site_fract_z
Si Si1 0.704479 0.000000 0.470178
Si Si2 0.403838 0.728444 0.585942
Si Si3 0.150794 0.500000 0.766693
Si Si4 0.000000 0.000000 0.000000
Si Si5 0.325793 0.144998 0.720033
Si Si6 0.768467 0.653922 0.089506
O O1 0.941782 0.000000 0.780102
O O2 0.731916 0.929538 0.398834
O O3 0.360593 0.000000 0.256763
O O4 0.500000 0.736641 0.500000
O O5 0.473793 0.800639 0.724727
O O6 0.053642 0.705658 0.327013
O O7 0.604105 0.669609 0.817510
O O8 0.098193 0.574601 0.800901
O O9 0.000000 0.500000 0.500000
O O10 0.500000 0.500000 0.000000
O O11 0.000000 0.176742 0.500000
O O12 0.500000 0.138306 0.000000
O O13 0.500000 0.662820 0.000000
#
# Coordination Sequence:
#
# PCOD9150769 Si02
#       6
#     2   4   2   1   4   4
#     4  11  24  45  68 101 131 170 222 264 336 385
#     4  12  26  42  63  97 136 176 218 270 334 397
#     4  10  20  36  67 100 123 166 219 274 321 386
#     4  10  24  40  68  96 136 166 202 260 340 386
#     4  12  25  44  70  97 130 172 223 277 326 383
#     4  11  22  43  68  95 131 170 225 271 325 390
#
# _framework density 21.215001999999998
#
# number of rings (size 3 to 8) (size 9 to 14) (size 15 to 20)
#    0.000    0.706    0.000    9.882    3.294    0.000 
#    0.000    3.529    0.000    0.000    0.000    0.000 
#    0.000    0.000    0.000    0.000    0.000    0.000 
#
# Total GULP energy -94767.350318 kJ/mol
# GULP energy per Si atom -5574.550019 kJ/mol
# Density = 2.116672 g / cm^3
# Si number density = 21.215002 Si / 1000 Ang^3
#
#
#
# Elastic Constant Matrix: (Units=GPa)
#
#
# Indices 1 2 3 4 5 6 
#
# 1 98.3699 65.9786 54.4948 0.0000 -36.0873 0.0000
# 2 65.9786 121.0958 47.4064 0.0000 -31.1835 0.0000
# 3 54.4948 47.4064 213.2405 0.0000 -36.6893 0.0000
# 4 0.0000 0.0000 0.0000 14.1886 0.0000 20.9488
# 5 -36.0873 -31.1835 -36.6893 0.0000 51.9294 0.0000
# 6 0.0000 0.0000 0.0000 20.9488 0.0000 -60.9545
#
#
#
# Elastic Compliance Matrix: (Units=1/GPa)
#
#
# Indices 1 2 3 4 5 6 
#
# 1 0.019113 -0.007801 -0.001902 0.000000 0.007254 0.000000
# 2 -0.007801 0.013292 -0.000593 0.000000 0.002142 0.000000
# 3 -0.001902 -0.000593 0.005713 0.000000 0.002359 0.000000
# 4 0.000000 0.000000 0.000000 0.046755 0.000000 0.016069
# 5 0.007254 0.002142 0.002359 0.000000 0.027250 0.000000
# 6 0.000000 0.000000 0.000000 0.016069 0.000000 -0.010883
#
#
# Mechanical properties :
#
#
# Convention : Reuss Voigt Hill
#
# Bulk Modulus (GPa) = 57.05803 85.38509 71.22156
# Shear Modulus (GPa) = 39.16244 18.68780 28.92512
#
# Velocity S-wave (km/s) = 4.30115 2.97118 3.69647
# Velocity P-wave (km/s) = 7.18471 7.21841 7.20158
#
# Compressibility (1/GPa) = 0.01752602
#
# Stress axis : x y z
#
# Youngs Moduli (GPa) = 52.32122 75.23396 175.03141
#
# Poissons Ratio (x) = 0.58690 0.33292
# Poissons Ratio (y) = 0.40816 0.10378
# Poissons Ratio (z) = 0.09952 0.04461
#
# Static dielectric constant tensor:
#      x y z
#    x 1.998510 0.000000 -0.001780 
#    y 0.000000 1.817840 0.000000 
#    z -0.001780 0.000000 1.723970 
# 
# From -- ./inp_files/20400.got.cif
#   From: 2010.05.17/outbox.cif.g08.bks.cpg/sg10_11_cif.got.tgz:20400.got - 2010.06.03 11:33:40.
