data_PCOD9150518
_publ_section_title
;
Structure prediction by ZEFSAII (Michael W. Deem and Ramdas Pophale) SiO2 
 PCOD9150518
Probable space group: P 2/M
;
_chemical_formula_sum "Si O2"
_cell_formula_units_Z 28
_cell_length_a 11.939955
_cell_length_b 7.267318
_cell_length_c 15.927456
_cell_angle_alpha 90.000000
_cell_angle_beta 112.543267
_cell_angle_gamma 90.000000
_cell_volume 1276.446522
_symmetry_space_group_name_H-M "P 2/M"
_symmetry_group_IT_number 10
_symmetry_cell_setting 'monoclinic'
loop_
_space_group_symop_operation_xyz
x,y,z
-x,y,-z
-x,-y,-z
x,-y,z
loop_
_atom_site_type_symbol
_atom_site_label
_atom_site_fract_x
_atom_site_fract_y
_atom_site_fract_z
Si Si1 0.367984 0.000000 0.062184
Si Si2 0.013753 0.722182 0.100677
Si Si3 0.312740 0.723913 0.480157
Si Si4 0.143828 0.722012 0.784560
Si Si5 0.351298 0.000000 0.857636
Si Si6 0.961852 0.723805 0.582191
Si Si7 0.536499 0.276761 0.641177
Si Si8 0.715770 0.719652 0.835891
O O1 0.302350 0.823196 0.082416
O O2 0.509340 0.000000 0.129728
O O3 0.358647 0.000000 0.960507
O O4 0.003214 0.500000 0.095252
O O5 0.152791 0.765168 0.164963
O O6 0.919675 0.780353 0.145455
O O7 0.000000 0.785711 0.000000
O O8 0.310404 0.500000 0.480253
O O9 0.175312 0.786233 0.441674
O O10 0.382240 0.777302 0.415410
O O11 0.399236 0.781405 0.582202
O O12 0.157241 0.500000 0.788783
O O13 0.054016 0.774742 0.682588
O O14 0.271536 0.823254 0.809558
O O15 0.960819 0.500000 0.582285
O O16 0.000000 0.781696 0.500000
O O17 0.536007 0.500000 0.642743
O O18 0.607272 0.219653 0.744045
O O19 0.712135 0.500000 0.846151
#
# Coordination Sequence:
#
# PCOD9150518 Si02
#       8
#     2   4   4   4   2   4   4   4
#     4  11  26  43  59  82 113 150 192 244 293 339
#     4   9  17  31  56  88 116 145 186 237 294 351
#     4   8  13  24  44  75 113 147 184 227 273 330
#     4  10  21  39  63  88 118 155 192 238 291 343
#     4  11  26  45  60  81 113 151 200 241 282 347
#     4   9  17  29  49  79 113 149 188 229 275 331
#     4   8  14  25  47  77 108 146 184 224 278 337
#     4  10  20  36  59  87 117 149 190 237 291 352
#
# _framework density 21.935898999999999
#
# number of rings (size 3 to 8) (size 9 to 14) (size 15 to 20)
#    0.000    2.714    0.000    2.571    0.000    7.429 
#    0.000    6.071    0.000    2.571    0.000    0.000 
#    0.000    0.000    0.000    0.000    0.000    0.000 
#
# Total GULP energy -156393.333257 kJ/mol
# GULP energy per Si atom -5585.476188 kJ/mol
# Density = 2.188597 g / cm^3
# Si number density = 21.935899 Si / 1000 Ang^3
#
#
#
# Elastic Constant Matrix: (Units=GPa)
#
#
# Indices 1 2 3 4 5 6 
#
# 1 92.1449 18.6876 14.5132 0.0000 21.2236 0.0000
# 2 18.6876 99.6010 7.5227 0.0000 5.8625 0.0000
# 3 14.5132 7.5227 95.0571 0.0000 15.3763 0.0000
# 4 0.0000 0.0000 0.0000 -8.3585 0.0000 1.4861
# 5 21.2236 5.8625 15.3763 0.0000 35.1581 0.0000
# 6 0.0000 0.0000 0.0000 1.4861 0.0000 27.2426
#
#
#
# Elastic Compliance Matrix: (Units=1/GPa)
#
#
# Indices 1 2 3 4 5 6 
#
# 1 0.013024 -0.001967 -0.000661 0.000000 -0.007245 0.000000
# 2 -0.001967 0.010465 -0.000471 0.000000 -0.000351 0.000000
# 3 -0.000661 -0.000471 0.011386 0.000000 -0.004502 0.000000
# 4 0.000000 0.000000 0.000000 -0.118490 0.000000 0.006464
# 5 -0.007245 -0.000351 -0.004502 0.000000 0.034844 0.000000
# 6 0.000000 0.000000 0.000000 0.006464 0.000000 0.036355
#
#
# Mechanical properties :
#
#
# Convention : Reuss Voigt Hill
#
# Bulk Modulus (GPa) = 34.87010 40.91666 37.89338
# Shear Modulus (GPa) = 1495.54083 27.21373 761.37728
#
# Velocity S-wave (km/s) = 26.13920 3.52604 18.65061
# Velocity P-wave (km/s) = 30.44571 5.93891 21.93413
#
# Compressibility (1/GPa) = 0.02867786
#
# Stress axis : x y z
#
# Youngs Moduli (GPa) = 76.77937 95.55255 87.82354
#
# Poissons Ratio (x) = 0.18798 0.05804
# Poissons Ratio (y) = 0.15105 0.04136
# Poissons Ratio (z) = 0.05074 0.04501
#
# Static dielectric constant tensor:
#      x y z
#    x 1.756340 0.000000 0.019640 
#    y 0.000000 1.850440 0.000000 
#    z 0.019640 0.000000 1.799730 
# 
# From -- ./inp_files/63534.got.cif
#   From: 2010.05.17/outbox.cif.g08.bks.cpg/sg10_32_cif.got.tgz:63534.got - 2010.06.03 11:33:40.
