data_PCOD9150710
_publ_section_title
;
Structure prediction by ZEFSAII (Michael W. Deem and Ramdas Pophale) SiO2 
 PCOD9150710
Probable space group: P 2/M
;
_chemical_formula_sum "Si O2"
_cell_formula_units_Z 26
_cell_length_a 12.605292
_cell_length_b 12.395082
_cell_length_c 8.410767
_cell_angle_alpha 90.000000
_cell_angle_beta 64.329159
_cell_angle_gamma 90.000000
_cell_volume 1184.421092
_symmetry_space_group_name_H-M "P 2/M"
_symmetry_group_IT_number 10
_symmetry_cell_setting 'monoclinic'
loop_
_space_group_symop_operation_xyz
x,y,z
-x,y,-z
-x,-y,-z
x,-y,z
loop_
_atom_site_type_symbol
_atom_site_label
_atom_site_fract_x
_atom_site_fract_y
_atom_site_fract_z
Si Si1 0.500000 0.838811 0.000000
Si Si2 0.412796 0.163978 0.408086
Si Si3 0.104691 0.269074 0.330213
Si Si4 0.822817 0.117099 0.266568
Si Si5 0.269146 0.874200 0.027562
Si Si6 0.284995 0.378155 0.457525
Si Si7 0.062325 0.657499 0.798543
O O1 0.544576 0.878796 0.792287
O O2 0.623839 0.797861 0.985419
O O3 0.500000 0.138019 0.500000
O O4 0.280723 0.124463 0.535536
O O5 0.391211 0.293825 0.413312
O O6 0.160188 0.176178 0.188269
O O7 0.202887 0.325972 0.373956
O O8 0.000000 0.218262 0.500000
O O9 0.034901 0.358694 0.273810
O O10 0.913698 0.213865 0.213244
O O11 0.879912 0.000000 0.235501
O O12 0.754603 0.129036 0.143442
O O13 0.296188 0.000000 0.051212
O O14 0.322308 0.500000 0.397697
O O15 0.192168 0.382322 0.666071
O O16 0.000000 0.622999 0.000000
#
# Coordination Sequence:
#
# PCOD9150710 Si02
#       7
#     2   4   4   4   4   4   4
#     4  12  23  42  63  92 126 168 215 262 311 374
#     4  11  23  42  68  89 126 167 209 267 320 376
#     4  10  21  39  60  88 126 166 202 259 315 375
#     4  10  22  38  59  92 130 171 213 254 306 372
#     4  11  22  37  61  92 127 170 216 256 306 375
#     4  10  23  43  64  88 118 158 206 265 330 385
#     4  10  20  36  62  88 123 159 204 255 310 372
#
# _framework density 21.951654000000001
#
# number of rings (size 3 to 8) (size 9 to 14) (size 15 to 20)
#    0.000    1.538    4.615    0.231    0.000    6.154 
#    0.000    0.385    0.000    0.000    0.000    0.000 
#    0.000    0.000    0.000    0.000    0.000    0.000 
#
# Total GULP energy -144782.238314 kJ/mol
# GULP energy per Si atom -5568.547627 kJ/mol
# Density = 2.190169 g / cm^3
# Si number density = 21.951654 Si / 1000 Ang^3
#
#
#
# Elastic Constant Matrix: (Units=GPa)
#
#
# Indices 1 2 3 4 5 6 
#
# 1 70.7493 9.0796 13.6347 0.0000 5.5356 0.0000
# 2 9.0796 117.2199 8.6541 0.0000 -2.0395 0.0000
# 3 13.6347 8.6541 158.5823 0.0000 -4.3062 0.0000
# 4 0.0000 0.0000 0.0000 1.1390 0.0000 7.3576
# 5 5.5356 -2.0395 -4.3062 0.0000 35.2949 0.0000
# 6 0.0000 0.0000 0.0000 7.3576 0.0000 1.2075
#
#
#
# Elastic Compliance Matrix: (Units=1/GPa)
#
#
# Indices 1 2 3 4 5 6 
#
# 1 0.014718 -0.001090 -0.001275 0.000000 -0.002527 0.000000
# 2 -0.001090 0.008653 -0.000361 0.000000 0.000627 0.000000
# 3 -0.001275 -0.000361 0.006461 0.000000 0.000967 0.000000
# 4 0.000000 0.000000 0.000000 -0.022888 0.000000 0.139456
# 5 -0.002527 0.000627 0.000967 0.000000 0.028883 0.000000
# 6 0.000000 0.000000 0.000000 0.139456 0.000000 -0.021589
#
#
# Mechanical properties :
#
#
# Convention : Reuss Voigt Hill
#
# Bulk Modulus (GPa) = 41.01674 45.47648 43.24661
# Shear Modulus (GPa) = 179.74415 28.54050 104.14232
#
# Velocity S-wave (km/s) = 9.05867 3.60967 6.89526
# Velocity P-wave (km/s) = 11.31982 6.17532 9.11792
#
# Compressibility (1/GPa) = 0.02438029
#
# Stress axis : x y z
#
# Youngs Moduli (GPa) = 67.94581 115.56702 154.76402
#
# Poissons Ratio (x) = 0.12595 0.19725
# Poissons Ratio (y) = 0.07405 0.05594
# Poissons Ratio (z) = 0.08660 0.04178
#
# Static dielectric constant tensor:
#      x y z
#    x 1.798090 0.000000 0.040080 
#    y 0.000000 1.830200 0.000000 
#    z 0.040080 0.000000 1.851020 
# 
# From -- ./inp_files/28116.got.cif
#   From: 2010.05.17/outbox.cif.g08.bks.cpg/sg10_15_cif.got.tgz:28116.got - 2010.06.03 11:33:40.
