data_PCOD9150322
_publ_section_title
;
Structure prediction by ZEFSAII (Michael W. Deem and Ramdas Pophale) SiO2 
 PCOD9150322
Probable space group: P 2/M
;
_chemical_formula_sum "Si O2"
_cell_formula_units_Z 28
_cell_length_a 12.640976
_cell_length_b 15.053532
_cell_length_c 9.029831
_cell_angle_alpha 90.000000
_cell_angle_beta 54.151817
_cell_angle_gamma 90.000000
_cell_volume 1392.804074
_symmetry_space_group_name_H-M "P 2/M"
_symmetry_group_IT_number 10
_symmetry_cell_setting 'monoclinic'
loop_
_space_group_symop_operation_xyz
x,y,z
-x,y,-z
-x,-y,-z
x,-y,z
loop_
_atom_site_type_symbol
_atom_site_label
_atom_site_fract_x
_atom_site_fract_y
_atom_site_fract_z
Si Si1 0.730535 0.897717 0.055437
Si Si2 0.128317 0.604794 0.708172
Si Si3 0.825438 0.394426 0.981905
Si Si4 0.356291 0.901477 0.552079
Si Si5 0.358204 0.262169 0.047074
Si Si6 0.234650 0.235321 0.458914
Si Si7 0.991947 0.900727 0.328482
O O1 0.636264 0.826083 0.058161
O O2 0.871650 0.884225 0.864959
O O3 0.690076 0.000000 0.060570
O O4 0.734768 0.886808 0.229115
O O5 0.145808 0.500000 0.668112
O O6 0.215825 0.666208 0.534209
O O7 0.974447 0.624704 0.807816
O O8 0.166337 0.622729 0.848138
O O9 0.802969 0.500000 0.979659
O O10 0.715848 0.337054 0.989171
O O11 0.500000 0.903015 0.500000
O O12 0.345643 0.821870 0.446864
O O13 0.332359 0.000000 0.506717
O O14 0.263596 0.239455 0.262462
O O15 0.500000 0.285467 0.000000
O O16 0.109129 0.178113 0.611977
O O17 0.000000 0.904756 0.500000
O O18 0.950154 0.000000 0.313556
#
# Coordination Sequence:
#
# PCOD9150322 Si02
#       7
#     4   4   4   4   4   4   4
#     4  10  21  38  59  82 117 161 202 245 293 345
#     4   9  20  39  66  91 112 147 191 247 304 355
#     4   9  20  42  65  87 117 150 192 242 299 358
#     4  10  22  40  59  83 119 164 211 248 281 339
#     4  12  25  38  57  86 121 161 198 235 292 359
#     4  12  23  35  60  88 120 153 193 246 305 354
#     4  10  20  36  57  85 121 151 189 242 300 354
#
# _framework density 20.103331000000001
#
# number of rings (size 3 to 8) (size 9 to 14) (size 15 to 20)
#    0.000    1.714    1.429    3.857    0.000    3.429 
#    0.000    3.571    0.000    2.143    0.000    0.000 
#    0.000    0.000    0.000    0.000    0.000    0.000 
#
# Total GULP energy -156300.290004 kJ/mol
# GULP energy per Si atom -5582.153214 kJ/mol
# Density = 2.005758 g / cm^3
# Si number density = 20.103331 Si / 1000 Ang^3
#
#
#
# Elastic Constant Matrix: (Units=GPa)
#
#
# Indices 1 2 3 4 5 6 
#
# 1 110.4656 58.6727 3.4200 0.0000 -4.4012 0.0000
# 2 58.6727 92.1930 27.3456 0.0000 5.2958 0.0000
# 3 3.4200 27.3456 69.4405 0.0000 -2.3852 0.0000
# 4 0.0000 0.0000 0.0000 -38.3106 0.0000 -67.8152
# 5 -4.4012 5.2958 -2.3852 0.0000 19.0306 0.0000
# 6 0.0000 0.0000 0.0000 -67.8152 0.0000 -54.6893
#
#
#
# Elastic Compliance Matrix: (Units=1/GPa)
#
#
# Indices 1 2 3 4 5 6 
#
# 1 0.015183 -0.011235 0.003921 0.000000 0.007129 0.000000
# 2 -0.011235 0.020913 -0.008006 0.000000 -0.009421 0.000000
# 3 0.003921 -0.008006 0.017544 0.000000 0.005334 0.000000
# 4 0.000000 0.000000 0.000000 0.021843 0.000000 -0.027086
# 5 0.007129 -0.009421 0.005334 0.000000 0.057486 0.000000
# 6 0.000000 0.000000 0.000000 -0.027086 0.000000 0.015301
#
#
# Mechanical properties :
#
#
# Convention : Reuss Voigt Hill
#
# Bulk Modulus (GPa) = 43.47768 50.10841 46.79305
# Shear Modulus (GPa) = 26.79892 -2.61648 12.09122
#
# Velocity S-wave (km/s) = 3.65507 -1.14208 2.45512
# Velocity P-wave (km/s) = 6.28385 4.82083 5.60032
#
# Compressibility (1/GPa) = 0.02300031
#
# Stress axis : x y z
#
# Youngs Moduli (GPa) = 65.86480 47.81787 57.00115
#
# Poissons Ratio (x) = 0.53724 -0.22353
# Poissons Ratio (y) = 0.74000 0.45633
# Poissons Ratio (z) = -0.25829 0.38281
#
# Static dielectric constant tensor:
#      x y z
#    x 1.746040 0.000000 -0.020860 
#    y 0.000000 1.721330 0.000000 
#    z -0.020860 0.000000 1.702370 
# 
# From -- ./inp_files/25198.got.cif
#   From: 2010.05.17/outbox.cif.g08.bks.cpg/sg10_13_cif.got.tgz:25198.got - 2010.06.03 11:33:40.
