data_PCOD9150049
_publ_section_title
;
Structure prediction by ZEFSAII (Michael W. Deem and Ramdas Pophale) SiO2 
 PCOD9150049
Probable space group: P 2/M
;
_chemical_formula_sum "Si O2"
_cell_formula_units_Z 32
_cell_length_a 13.290438
_cell_length_b 7.753276
_cell_length_c 31.028634
_cell_angle_alpha 90.000000
_cell_angle_beta 152.132852
_cell_angle_gamma 90.000000
_cell_volume 1494.504683
_symmetry_space_group_name_H-M "P 2/M"
_symmetry_group_IT_number 10
_symmetry_cell_setting 'monoclinic'
loop_
_space_group_symop_operation_xyz
x,y,z
-x,y,-z
-x,-y,-z
x,-y,z
loop_
_atom_site_type_symbol
_atom_site_label
_atom_site_fract_x
_atom_site_fract_y
_atom_site_fract_z
Si Si1 0.446977 0.795669 0.083567
Si Si2 0.041480 0.797055 0.614121
Si Si3 0.273562 0.701961 0.931170
Si Si4 0.592227 0.289738 0.400245
Si Si5 0.151731 0.294826 0.276112
Si Si6 0.927959 0.208442 0.275964
Si Si7 0.244094 0.291107 0.097679
Si Si8 0.551368 0.701419 0.287294
O O1 0.692083 0.731301 0.170724
O O2 0.376453 0.758579 0.105407
O O3 0.445732 0.000000 0.076248
O O4 0.288283 0.715895 0.988251
O O5 0.810466 0.771296 0.505130
O O6 0.040209 0.731752 0.662925
O O7 0.227359 0.713984 0.655554
O O8 0.092856 0.000000 0.635224
O O9 0.275432 0.500000 0.919849
O O10 0.056311 0.776860 0.828498
O O11 0.500000 0.779009 0.000000
O O12 0.600306 0.500000 0.403576
O O13 0.379702 0.229714 0.345237
O O14 0.577431 0.227645 0.345157
O O15 0.157060 0.500000 0.270313
O O16 0.104984 0.264802 0.308638
O O17 0.925673 0.000000 0.275505
O O18 0.241179 0.500000 0.098509
O O19 0.364869 0.224626 0.186006
O O20 0.000000 0.229955 0.000000
O O21 0.498440 0.500000 0.273253
#
# Coordination Sequence:
#
# PCOD9150049 Si02
#       8
#     4   4   4   4   4   4   4   4
#     4  11  22  37  57  84 120 159 194 239 292 348
#     4  11  23  41  63  87 115 153 199 246 295 351
#     4  10  20  35  58  86 115 151 195 239 281 338
#     4  10  23  41  60  87 120 152 192 246 303 351
#     4  10  22  39  61  88 120 155 195 246 295 348
#     4  10  22  39  59  84 120 157 195 243 293 350
#     4  10  22  38  61  90 119 156 196 238 291 350
#     4  10  21  39  63  89 119 154 193 242 296 350
#
# _framework density 21.411776
#
# number of rings (size 3 to 8) (size 9 to 14) (size 15 to 20)
#    0.000    1.750    2.500    1.125    1.750    5.500 
#    0.000    2.500    0.000    0.000    0.000    0.000 
#    0.000    0.000    0.000    0.000    0.000    0.000 
#
# Total GULP energy -178817.342715 kJ/mol
# GULP energy per Si atom -5588.041960 kJ/mol
# Density = 2.136304 g / cm^3
# Si number density = 21.411776 Si / 1000 Ang^3
#
#
#
# Elastic Constant Matrix: (Units=GPa)
#
#
# Indices 1 2 3 4 5 6 
#
# 1 114.1513 -16.2112 51.2153 0.0000 -9.0501 0.0000
# 2 -16.2112 31.1339 -4.4985 0.0000 -0.9367 0.0000
# 3 51.2153 -4.4985 111.7272 0.0000 7.4893 0.0000
# 4 0.0000 0.0000 0.0000 6.6758 0.0000 -2.8568
# 5 -9.0501 -0.9367 7.4893 0.0000 28.4476 0.0000
# 6 0.0000 0.0000 0.0000 -2.8568 0.0000 43.0992
#
#
#
# Elastic Compliance Matrix: (Units=1/GPa)
#
#
# Indices 1 2 3 4 5 6 
#
# 1 0.012761 0.005953 -0.006001 0.000000 0.005835 0.000000
# 2 0.005953 0.035099 -0.001547 0.000000 0.003457 0.000000
# 3 -0.006001 -0.001547 0.011982 0.000000 -0.005114 0.000000
# 4 0.000000 0.000000 0.000000 0.154167 0.000000 0.010219
# 5 0.005835 0.003457 -0.005114 0.000000 0.038469 0.000000
# 6 0.000000 0.000000 0.000000 0.010219 0.000000 0.023880
#
#
# Mechanical properties :
#
#
# Convention : Reuss Voigt Hill
#
# Bulk Modulus (GPa) = 17.65184 35.33594 26.49389
# Shear Modulus (GPa) = 16.75423 30.74499 23.74961
#
# Velocity S-wave (km/s) = 2.80031 3.79343 3.33405
# Velocity P-wave (km/s) = 4.32638 5.97709 5.21743
#
# Compressibility (1/GPa) = 0.05665131
#
# Stress axis : x y z
#
# Youngs Moduli (GPa) = 78.36516 28.49046 83.46040
#
# Poissons Ratio (x) = -0.16960 0.50084
# Poissons Ratio (y) = -0.46650 0.12914
# Poissons Ratio (z) = 0.47027 0.04408
#
# Static dielectric constant tensor:
#      x y z
#    x 1.759930 0.000000 -0.009250 
#    y 0.000000 1.795120 0.000000 
#    z -0.009250 0.000000 1.765590 
# 
# From -- ./inp_files/84736.got.cif
#   From: 2010.05.17/outbox.cif.g08.bks.cpg/sg10_43_cif.got.tgz:84736.got - 2010.06.03 11:33:40.
