data_PCOD9150934
_publ_section_title
;
Structure prediction by ZEFSAII (Michael W. Deem and Ramdas Pophale) SiO2 
 PCOD9150934
Probable space group: P 2/M
;
_chemical_formula_sum "Si O2"
_cell_formula_units_Z 28
_cell_length_a 15.953867
_cell_length_b 8.584467
_cell_length_c 21.541634
_cell_angle_alpha 90.000000
_cell_angle_beta 28.226574
_cell_angle_gamma 90.000000
_cell_volume 1395.345858
_symmetry_space_group_name_H-M "P 2/M"
_symmetry_group_IT_number 10
_symmetry_cell_setting 'monoclinic'
loop_
_space_group_symop_operation_xyz
x,y,z
-x,y,-z
-x,-y,-z
x,-y,z
loop_
_atom_site_type_symbol
_atom_site_label
_atom_site_fract_x
_atom_site_fract_y
_atom_site_fract_z
Si Si1 0.934081 0.315691 0.347191
Si Si2 0.771295 0.817461 0.931366
Si Si3 0.423694 0.315447 0.116888
Si Si4 0.256451 0.185258 0.811517
Si Si5 0.919942 0.315085 0.957789
Si Si6 0.043155 0.814215 0.401529
Si Si7 0.588697 0.185457 0.507323
O O1 0.956938 0.500000 0.330092
O O2 0.767536 0.266754 0.413527
O O3 0.109073 0.236655 0.204323
O O4 0.922553 0.260599 0.426103
O O5 0.734777 0.000000 0.951163
O O6 0.587853 0.723871 0.054209
O O7 0.883426 0.775177 0.918694
O O8 0.389298 0.500000 0.136447
O O9 0.245174 0.231255 0.253706
O O10 0.500000 0.264332 0.000000
O O11 0.230546 0.269798 0.893954
O O12 0.442383 0.207894 0.656294
O O13 0.227421 0.000000 0.838330
O O14 0.102850 0.255119 0.868160
O O15 0.926228 0.500000 0.943996
O O16 0.000000 0.762756 0.500000
O O17 0.021500 0.000000 0.412578
O O18 0.500000 0.237902 0.500000
O O19 0.624929 0.000000 0.477086
#
# Coordination Sequence:
#
# PCOD9150934 Si02
#       7
#     4   4   4   4   4   4   4
#     4  12  25  41  64  94 128 166 209 262 322 382
#     4  12  24  40  65  92 123 162 210 259 312 376
#     4  11  23  41  67  97 128 161 205 260 318 378
#     4  10  20  37  60  86 122 164 209 255 310 374
#     4  11  22  37  59  88 123 160 205 259 316 371
#     4  11  25  45  69  97 131 174 220 265 320 386
#     4  10  22  40  63  90 123 166 212 257 309 375
#
# _framework density 20.066711000000002
#
# number of rings (size 3 to 8) (size 9 to 14) (size 15 to 20)
#    0.000    1.000    1.429    6.857    0.000    5.429 
#    0.000    1.429    0.000    0.000    0.000    0.000 
#    0.000    0.000    0.000    0.000    0.000    0.000 
#
# Total GULP energy -156590.406209 kJ/mol
# GULP energy per Si atom -5592.514507 kJ/mol
# Density = 2.002104 g / cm^3
# Si number density = 20.066711 Si / 1000 Ang^3
#
#
#
# Elastic Constant Matrix: (Units=GPa)
#
#
# Indices 1 2 3 4 5 6 
#
# 1 96.4767 -1.4192 21.6085 0.0000 9.8297 0.0000
# 2 -1.4192 32.6771 4.6566 0.0000 -0.9656 0.0000
# 3 21.6085 4.6566 68.1152 0.0000 -0.7215 0.0000
# 4 0.0000 0.0000 0.0000 6.5660 0.0000 -25.3382
# 5 9.8297 -0.9656 -0.7215 0.0000 26.1934 0.0000
# 6 0.0000 0.0000 0.0000 -25.3382 0.0000 79.1381
#
#
#
# Elastic Compliance Matrix: (Units=1/GPa)
#
#
# Indices 1 2 3 4 5 6 
#
# 1 0.011688 0.000920 -0.003818 0.000000 -0.004457 0.000000
# 2 0.000920 0.031007 -0.002404 0.000000 0.000732 0.000000
# 3 -0.003818 -0.002404 0.016075 0.000000 0.001787 0.000000
# 4 0.000000 0.000000 0.000000 -0.646549 0.000000 -0.207010
# 5 -0.004457 0.000732 0.001787 0.000000 0.039926 0.000000
# 6 0.000000 0.000000 0.000000 -0.207010 0.000000 -0.053644
#
#
# Mechanical properties :
#
#
# Convention : Reuss Voigt Hill
#
# Bulk Modulus (GPa) = 20.76133 27.44009 24.10071
# Shear Modulus (GPa) = -8.69812 33.87438 12.58813
#
# Velocity S-wave (km/s) = -2.08423 4.11309 2.50734
# Velocity P-wave (km/s) = 2.13930 6.02170 4.51871
#
# Compressibility (1/GPa) = 0.04816648
#
# Stress axis : x y z
#
# Youngs Moduli (GPa) = 85.55770 32.25120 62.20666
#
# Poissons Ratio (x) = -0.02967 0.23750
# Poissons Ratio (y) = -0.07871 0.14953
# Poissons Ratio (z) = 0.32665 0.07753
#
# Static dielectric constant tensor:
#      x y z
#    x 1.798710 0.000000 0.018950 
#    y 0.000000 1.669770 0.000000 
#    z 0.018950 0.000000 1.697670 
# 
# From -- ./inp_files/84917.got.cif
#   From: 2010.05.17/outbox.cif.g08.bks.cpg/sg10_43_cif.got.tgz:84917.got - 2010.06.03 11:33:40.
