data_PCOD9150796
_publ_section_title
;
Structure prediction by ZEFSAII (Michael W. Deem and Ramdas Pophale) SiO2 
 PCOD9150796
Probable space group: P 2/M
;
_chemical_formula_sum "Si O2"
_cell_formula_units_Z 28
_cell_length_a 21.156087
_cell_length_b 11.589247
_cell_length_c 17.268280
_cell_angle_alpha 90.000000
_cell_angle_beta 18.525167
_cell_angle_gamma 90.000000
_cell_volume 1345.196734
_symmetry_space_group_name_H-M "P 2/M"
_symmetry_group_IT_number 10
_symmetry_cell_setting 'monoclinic'
loop_
_space_group_symop_operation_xyz
x,y,z
-x,y,-z
-x,-y,-z
x,-y,z
loop_
_atom_site_type_symbol
_atom_site_label
_atom_site_fract_x
_atom_site_fract_y
_atom_site_fract_z
Si Si1 0.567500 0.872095 0.647057
Si Si2 0.160775 0.371589 0.216741
Si Si3 0.235246 0.868212 0.423621
Si Si4 0.285988 0.689191 0.231693
Si Si5 0.813113 0.772648 0.962743
Si Si6 0.799953 0.628485 0.127293
Si Si7 0.273630 0.368316 0.610677
O O1 0.598460 0.863020 0.703108
O O2 0.340256 0.870052 0.884232
O O3 0.649246 0.750461 0.517395
O O4 0.655130 0.000000 0.523504
O O5 0.236701 0.500000 0.142227
O O6 0.251244 0.294494 0.180532
O O7 0.920480 0.372128 0.503843
O O8 0.212318 0.326660 0.072424
O O9 0.287100 0.800179 0.285858
O O10 0.194542 0.000000 0.451630
O O11 0.038860 0.814301 0.691529
O O12 0.500000 0.632466 0.000000
O O13 0.763651 0.722767 0.104155
O O14 0.748572 0.500000 0.158156
O O15 0.700549 0.644109 0.326554
O O16 0.037505 0.629557 0.867248
O O17 0.344950 0.500000 0.505792
#
# Coordination Sequence:
#
# PCOD9150796 Si02
#       7
#     4   4   4   4   4   4   4
#     4  11  23  40  61  91 124 159 206 256 299 358
#     4  10  22  37  55  85 120 148 190 245 297 359
#     4  10  22  40  59  82 115 155 200 250 301 354
#     4  10  20  37  57  80 110 148 190 236 297 355
#     4  11  21  38  61  86 118 158 202 242 304 357
#     4   9  18  36  63  89 123 161 201 248 302 362
#     4   9  19  38  62  92 122 159 205 252 301 360
#
# _framework density 20.814800000000002
#
# number of rings (size 3 to 8) (size 9 to 14) (size 15 to 20)
#    0.000    2.000    1.429    3.429    0.000    3.143 
#    0.000   12.143    0.000    0.000    0.000    0.000 
#    0.000    0.000    0.000    0.000    0.000    0.000 
#
# Total GULP energy -156104.681136 kJ/mol
# GULP energy per Si atom -5575.167183 kJ/mol
# Density = 2.076742 g / cm^3
# Si number density = 20.814800 Si / 1000 Ang^3
#
#
#
# Elastic Constant Matrix: (Units=GPa)
#
#
# Indices 1 2 3 4 5 6 
#
# 1 116.7668 60.0262 13.0635 0.0000 -11.6813 0.0000
# 2 60.0262 141.8169 28.7674 0.0000 14.3386 0.0000
# 3 13.0635 28.7674 60.3673 0.0000 -11.7795 0.0000
# 4 0.0000 0.0000 0.0000 9.5777 0.0000 -7.2768
# 5 -11.6813 14.3386 -11.7795 0.0000 28.0320 0.0000
# 6 0.0000 0.0000 0.0000 -7.2768 0.0000 42.2713
#
#
#
# Elastic Compliance Matrix: (Units=1/GPa)
#
#
# Indices 1 2 3 4 5 6 
#
# 1 0.012855 -0.006948 0.002471 0.000000 0.009949 0.000000
# 2 -0.006948 0.012633 -0.006909 0.000000 -0.012261 0.000000
# 3 0.002471 -0.006909 0.022019 0.000000 0.013816 0.000000
# 4 0.000000 0.000000 0.000000 0.120119 0.000000 0.020678
# 5 0.009949 -0.012261 0.013816 0.000000 0.051897 0.000000
# 6 0.000000 0.000000 0.000000 0.020678 0.000000 0.027216
#
#
# Mechanical properties :
#
#
# Convention : Reuss Voigt Hill
#
# Bulk Modulus (GPa) = 40.43029 58.07393 49.25211
# Shear Modulus (GPa) = 18.00132 30.44912 24.22522
#
# Velocity S-wave (km/s) = 2.94399 3.82888 3.41522
# Velocity P-wave (km/s) = 5.56975 6.89261 6.26618
#
# Compressibility (1/GPa) = 0.02473393
#
# Stress axis : x y z
#
# Youngs Moduli (GPa) = 77.79251 79.15556 45.41507
#
# Poissons Ratio (x) = 0.54997 -0.11220
# Poissons Ratio (y) = 0.54050 0.31378
# Poissons Ratio (z) = -0.19219 0.54690
#
# Static dielectric constant tensor:
#      x y z
#    x 1.713110 0.000000 -0.021010 
#    y 0.000000 1.731850 0.000000 
#    z -0.021010 0.000000 1.803130 
# 
# From -- ./inp_files/79478.got.cif
#   From: 2010.05.17/outbox.cif.g08.bks.cpg/sg10_40_cif.got.tgz:79478.got - 2010.06.03 11:33:40.
