data_PCOD9150228
_publ_section_title
;
Structure prediction by ZEFSAII (Michael W. Deem and Ramdas Pophale) SiO2 
 PCOD9150228
Probable space group: P 2/M
;
_chemical_formula_sum "Si O2"
_cell_formula_units_Z 28
_cell_length_a 9.655504
_cell_length_b 7.607501
_cell_length_c 27.971298
_cell_angle_alpha 90.000000
_cell_angle_beta 143.138774
_cell_angle_gamma 90.000000
_cell_volume 1232.517752
_symmetry_space_group_name_H-M "P 2/M"
_symmetry_group_IT_number 10
_symmetry_cell_setting 'monoclinic'
loop_
_space_group_symop_operation_xyz
x,y,z
-x,y,-z
-x,-y,-z
x,-y,z
loop_
_atom_site_type_symbol
_atom_site_label
_atom_site_fract_x
_atom_site_fract_y
_atom_site_fract_z
Si Si1 0.156025 0.712378 0.702135
Si Si2 0.924538 0.714311 0.117606
Si Si3 0.691783 0.211235 0.517733
Si Si4 0.444797 0.702709 0.252433
Si Si5 0.729373 0.212092 0.423399
Si Si6 0.741749 0.703613 0.168610
Si Si7 0.781176 0.794956 0.970689
O O1 0.172663 0.500000 0.708846
O O2 0.391850 0.782066 0.743273
O O3 0.130247 0.779505 0.749281
O O4 0.943759 0.752194 0.608616
O O5 0.909129 0.500000 0.112371
O O6 0.798313 0.776433 0.131448
O O7 0.827639 0.776217 0.040092
O O8 0.191115 0.775070 0.191750
O O9 0.500000 0.282619 0.500000
O O10 0.643017 0.274186 0.450941
O O11 0.673594 0.000000 0.510487
O O12 0.405494 0.500000 0.227979
O O13 0.593606 0.709810 0.341744
O O14 0.000000 0.254594 0.500000
O O15 0.710404 0.000000 0.413909
O O16 0.812669 0.500000 0.185077
O O17 0.470042 0.711132 0.105969
O O18 0.758600 0.000000 0.951951
O O19 0.000000 0.725496 0.000000
#
# Coordination Sequence:
#
# PCOD9150228 Si02
#       7
#     4   4   4   4   4   4   4
#     4  10  21  37  57  84 115 149 190 235 283 337
#     4  10  22  40  62  89 119 152 190 235 287 343
#     4  10  22  38  55  78 111 150 192 236 287 344
#     4  10  21  36  57  85 115 148 190 236 283 337
#     4  10  20  36  56  79 109 149 193 236 283 337
#     4  10  22  40  62  88 119 153 191 235 286 343
#     4  11  24  41  62  90 120 152 192 234 280 338
#
# _framework density 22.717725999999999
#
# number of rings (size 3 to 8) (size 9 to 14) (size 15 to 20)
#    0.000    1.857    1.429    1.714    2.000    6.857 
#    0.000    0.000    0.000    0.000    0.000    0.000 
#    0.000    0.000    0.000    0.000    0.000    0.000 
#
# Total GULP energy -156401.100061 kJ/mol
# GULP energy per Si atom -5585.753574 kJ/mol
# Density = 2.266602 g / cm^3
# Si number density = 22.717726 Si / 1000 Ang^3
#
#
#
# Elastic Constant Matrix: (Units=GPa)
#
#
# Indices 1 2 3 4 5 6 
#
# 1 127.9769 -1.8956 5.4641 0.0000 -18.4150 0.0000
# 2 -1.8956 47.7493 -17.4251 0.0000 0.3175 0.0000
# 3 5.4641 -17.4251 62.4055 0.0000 -14.6244 0.0000
# 4 0.0000 0.0000 0.0000 23.0517 0.0000 2.5710
# 5 -18.4150 0.3175 -14.6244 0.0000 42.8943 0.0000
# 6 0.0000 0.0000 0.0000 2.5710 0.0000 2.6035
#
#
#
# Elastic Compliance Matrix: (Units=1/GPa)
#
#
# Indices 1 2 3 4 5 6 
#
# 1 0.008336 0.000393 0.000237 0.000000 0.003656 0.000000
# 2 0.000393 0.023534 0.007103 0.000000 0.002416 0.000000
# 3 0.000237 0.007103 0.019561 0.000000 0.006718 0.000000
# 4 0.000000 0.000000 0.000000 0.048750 0.000000 -0.048140
# 5 0.003656 0.002416 0.006718 0.000000 0.027156 0.000000
# 6 0.000000 0.000000 0.000000 -0.048140 0.000000 0.431632
#
#
# Mechanical properties :
#
#
# Convention : Reuss Voigt Hill
#
# Bulk Modulus (GPa) = 14.94829 23.37985 19.16407
# Shear Modulus (GPa) = 8.83701 30.50914 19.67307
#
# Velocity S-wave (km/s) = 1.97443 3.66863 2.94594
# Velocity P-wave (km/s) = 3.43396 5.31591 4.47499
#
# Compressibility (1/GPa) = 0.06689729
#
# Stress axis : x y z
#
# Youngs Moduli (GPa) = 119.96509 42.49100 51.12138
#
# Poissons Ratio (x) = -0.01670 -0.01210
# Poissons Ratio (y) = -0.04715 -0.36313
# Poissons Ratio (z) = -0.02840 -0.30182
#
# Static dielectric constant tensor:
#      x y z
#    x 1.891360 0.000000 -0.013990 
#    y 0.000000 1.853650 0.000000 
#    z -0.013990 0.000000 1.806590 
# 
# From -- ./inp_files/36834.got.cif
#   From: 2010.05.17/outbox.cif.g08.bks.cpg/sg10_19_cif.got.tgz:36834.got - 2010.06.03 11:33:40.
