data_PCOD9150906
_publ_section_title
;
Structure prediction by ZEFSAII (Michael W. Deem and Ramdas Pophale) SiO2 
 PCOD9150906
Probable space group: P 2/M
;
_chemical_formula_sum "Si O2"
_cell_formula_units_Z 32
_cell_length_a 12.106619
_cell_length_b 7.666490
_cell_length_c 31.646831
_cell_angle_alpha 90.000000
_cell_angle_beta 150.236384
_cell_angle_gamma 90.000000
_cell_volume 1458.147330
_symmetry_space_group_name_H-M "P 2/M"
_symmetry_group_IT_number 10
_symmetry_cell_setting 'monoclinic'
loop_
_space_group_symop_operation_xyz
x,y,z
-x,y,-z
-x,-y,-z
x,-y,z
loop_
_atom_site_type_symbol
_atom_site_label
_atom_site_fract_x
_atom_site_fract_y
_atom_site_fract_z
Si Si1 0.816302 0.300101 0.177277
Si Si2 0.982133 0.700304 0.061552
Si Si3 0.729267 0.212300 0.522873
Si Si4 0.513862 0.710253 0.770201
Si Si5 0.086425 0.209054 0.574419
Si Si6 0.260908 0.800864 0.936035
Si Si7 0.238617 0.788684 0.369134
Si Si8 0.541118 0.713599 0.873827
O O1 0.763305 0.500000 0.149273
O O2 0.867734 0.203760 0.150828
O O3 0.615710 0.227717 0.139654
O O4 0.033304 0.291992 0.277508
O O5 0.016135 0.500000 0.059362
O O6 0.230172 0.774858 0.149530
O O7 0.860217 0.704351 0.066465
O O8 0.794726 0.772648 0.967232
O O9 0.768497 0.263779 0.584217
O O10 0.476334 0.262750 0.428643
O O11 0.915617 0.277544 0.553090
O O12 0.734776 0.000000 0.524157
O O13 0.517066 0.500000 0.770510
O O14 0.335450 0.760205 0.675123
O O15 0.453212 0.765315 0.798303
O O16 0.000000 0.274304 0.500000
O O17 0.063729 0.000000 0.565279
O O18 0.292296 0.000000 0.960607
O O19 0.500000 0.731006 0.000000
O O20 0.223070 0.000000 0.362320
O O21 0.540194 0.500000 0.874657
#
# Coordination Sequence:
#
# PCOD9150906 Si02
#       8
#     4   4   4   4   4   4   4   4
#     4  11  21  33  54  83 114 148 186 223 274 332
#     4  10  20  37  60  83 113 152 188 225 273 332
#     4   8  16  33  55  76 102 142 184 224 277 334
#     4  10  21  37  59  87 113 143 188 233 276 327
#     4  10  21  37  56  77 106 145 185 226 280 337
#     4  11  23  38  55  77 108 145 186 228 269 316
#     4   9  17  32  54  78 105 139 184 231 273 322
#     4   9  18  34  57  83 114 151 185 222 271 332
#
# _framework density 21.945658000000002
#
# number of rings (size 3 to 8) (size 9 to 14) (size 15 to 20)
#    0.000    2.250    1.250    2.625    0.000    3.750 
#    0.000    4.375    0.000    1.500    0.000    0.000 
#    0.000    0.000    0.000    0.000    0.000    0.000 
#
# Total GULP energy -178584.092842 kJ/mol
# GULP energy per Si atom -5580.752901 kJ/mol
# Density = 2.189571 g / cm^3
# Si number density = 21.945658 Si / 1000 Ang^3
#
#
#
# Elastic Constant Matrix: (Units=GPa)
#
#
# Indices 1 2 3 4 5 6 
#
# 1 60.7323 1.3703 41.1357 0.0000 -7.8189 0.0000
# 2 1.3703 45.9175 7.5166 0.0000 -2.9136 0.0000
# 3 41.1357 7.5166 157.3224 0.0000 -5.1058 0.0000
# 4 0.0000 0.0000 0.0000 38.5165 0.0000 -11.0058
# 5 -7.8189 -2.9136 -5.1058 0.0000 26.0975 0.0000
# 6 0.0000 0.0000 0.0000 -11.0058 0.0000 11.1676
#
#
#
# Elastic Compliance Matrix: (Units=1/GPa)
#
#
# Indices 1 2 3 4 5 6 
#
# 1 0.020695 0.000577 -0.005269 0.000000 0.005234 0.000000
# 2 0.000577 0.022099 -0.001128 0.000000 0.002419 0.000000
# 3 -0.005269 -0.001128 0.007782 0.000000 -0.000182 0.000000
# 4 0.000000 0.000000 0.000000 0.036140 0.000000 0.035616
# 5 0.005234 0.002419 -0.000182 0.000000 0.040120 0.000000
# 6 0.000000 0.000000 0.000000 0.035616 0.000000 0.124644
#
#
# Mechanical properties :
#
#
# Convention : Reuss Voigt Hill
#
# Bulk Modulus (GPa) = 25.68304 40.44638 33.06471
# Shear Modulus (GPa) = 18.10935 29.41965 23.76450
#
# Velocity S-wave (km/s) = 2.87573 3.66535 3.29428
# Velocity P-wave (km/s) = 4.77020 6.03186 5.43775
#
# Compressibility (1/GPa) = 0.03893620
#
# Stress axis : x y z
#
# Youngs Moduli (GPa) = 48.32002 45.25056 128.50046
#
# Poissons Ratio (x) = -0.02611 0.67707
# Poissons Ratio (y) = -0.02788 0.14498
# Poissons Ratio (z) = 0.25460 0.05105
#
# Static dielectric constant tensor:
#      x y z
#    x 1.800240 0.000000 -0.004680 
#    y 0.000000 1.839280 0.000000 
#    z -0.004680 0.000000 1.829950 
# 
# From -- ./inp_files/58121.got.cif
#   From: 2010.05.17/outbox.cif.g08.bks.cpg/sg10_30_cif.got.tgz:58121.got - 2010.06.03 11:33:40.
