data_PCOD9150545
_publ_section_title
;
Structure prediction by ZEFSAII (Michael W. Deem and Ramdas Pophale) SiO2 
 PCOD9150545
Probable space group: P 2/M
;
_chemical_formula_sum "Si O2"
_cell_formula_units_Z 32
_cell_length_a 15.441386
_cell_length_b 15.018319
_cell_length_c 21.456257
_cell_angle_alpha 90.000000
_cell_angle_beta 18.841470
_cell_angle_gamma 90.000000
_cell_volume 1606.933520
_symmetry_space_group_name_H-M "P 2/M"
_symmetry_group_IT_number 10
_symmetry_cell_setting 'monoclinic'
loop_
_space_group_symop_operation_xyz
x,y,z
-x,y,-z
-x,-y,-z
x,-y,z
loop_
_atom_site_type_symbol
_atom_site_label
_atom_site_fract_x
_atom_site_fract_y
_atom_site_fract_z
Si Si1 0.032829 0.597647 0.869097
Si Si2 0.484665 0.904054 0.435990
Si Si3 0.938122 0.897166 0.730334
Si Si4 0.623888 0.258301 0.007284
Si Si5 0.455594 0.701816 0.799927
Si Si6 0.385165 0.277324 0.710723
Si Si7 0.099622 0.606361 0.677856
Si Si8 0.981578 0.226628 0.583327
O O1 0.108561 0.500000 0.837917
O O2 0.135435 0.611359 0.728725
O O3 0.162712 0.663496 0.829316
O O4 0.711815 0.610576 0.085225
O O5 0.500000 0.903463 0.500000
O O6 0.621623 0.815470 0.319745
O O7 0.186620 0.897305 0.609468
O O8 0.594883 0.000000 0.339625
O O9 0.019985 0.848564 0.609909
O O10 0.857157 0.000000 0.775729
O O11 0.717889 0.832523 0.910867
O O12 0.637290 0.250173 0.073464
O O13 0.309149 0.270488 0.208018
O O14 0.823251 0.339098 0.852990
O O15 0.366765 0.745030 0.795885
O O16 0.776186 0.702627 0.579980
O O17 0.659197 0.335485 0.515375
O O18 0.095272 0.500000 0.664837
O O19 0.000000 0.189181 0.500000
#
# Coordination Sequence:
#
# PCOD9150545 Si02
#       8
#     4   4   4   4   4   4   4   4
#     4  10  22  37  57  88 123 159 206 259 307 366
#     4  10  21  36  59  89 122 159 200 241 294 366
#     4  11  22  40  66  94 122 158 205 254 306 363
#     4  10  21  39  61  86 123 157 203 252 306 358
#     4  10  22  38  55  84 119 165 199 245 304 362
#     4  12  20  35  61  88 122 160 202 250 315 359
#     4  10  20  36  59  89 121 157 205 255 311 372
#     4  10  21  40  63  88 122 162 203 252 311 361
#
# _framework density 19.913705
#
# number of rings (size 3 to 8) (size 9 to 14) (size 15 to 20)
#    0.000    1.625    2.500    2.250    1.750    3.750 
#    0.000    3.125    0.000    9.750    0.000    0.000 
#    0.000    0.000    0.000    0.000    0.000    0.000 
#
# Total GULP energy -178393.924374 kJ/mol
# GULP energy per Si atom -5574.810137 kJ/mol
# Density = 1.986838 g / cm^3
# Si number density = 19.913705 Si / 1000 Ang^3
#
#
#
# Elastic Constant Matrix: (Units=GPa)
#
#
# Indices 1 2 3 4 5 6 
#
# 1 107.5771 37.1411 32.0186 0.0000 2.9706 0.0000
# 2 37.1411 105.4663 41.9839 0.0000 5.0926 0.0000
# 3 32.0186 41.9839 96.0497 0.0000 -4.9183 0.0000
# 4 0.0000 0.0000 0.0000 -67.3842 0.0000 21.8635
# 5 2.9706 5.0926 -4.9183 0.0000 21.6812 0.0000
# 6 0.0000 0.0000 0.0000 21.8635 0.0000 -0.0678
#
#
#
# Elastic Compliance Matrix: (Units=1/GPa)
#
#
# Indices 1 2 3 4 5 6 
#
# 1 0.011061 -0.002820 -0.002528 0.000000 -0.001426 0.000000
# 2 -0.002820 0.012530 -0.004723 0.000000 -0.003628 0.000000
# 3 -0.002528 -0.004723 0.013550 0.000000 0.004529 0.000000
# 4 0.000000 0.000000 0.000000 0.000143 0.000000 0.046179
# 5 -0.001426 -0.003628 0.004529 0.000000 0.048198 0.000000
# 6 0.000000 0.000000 0.000000 0.046179 0.000000 0.142327
#
#
# Mechanical properties :
#
#
# Convention : Reuss Voigt Hill
#
# Bulk Modulus (GPa) = 58.82222 59.04223 58.93222
# Shear Modulus (GPa) = 19.71478 4.04248 11.87863
#
# Velocity S-wave (km/s) = 3.14986 1.42633 2.44500
# Velocity P-wave (km/s) = 6.54458 5.69438 6.13423
#
# Compressibility (1/GPa) = 0.01700038
#
# Stress axis : x y z
#
# Youngs Moduli (GPa) = 90.40766 79.80838 73.80050
#
# Poissons Ratio (x) = 0.22508 0.18653
# Poissons Ratio (y) = 0.25497 0.34853
# Poissons Ratio (z) = 0.22851 0.37690
#
# Static dielectric constant tensor:
#      x y z
#    x 1.739200 0.000000 -0.003550 
#    y 0.000000 1.668120 0.000000 
#    z -0.003550 0.000000 1.762380 
# 
# From -- ./inp_files/70741.got.cif
#   From: 2010.05.17/outbox.cif.g08.bks.cpg/sg10_36_cif.got.tgz:70741.got - 2010.06.03 11:33:40.
