data_PCOD9150821
_publ_section_title
;
Structure prediction by ZEFSAII (Michael W. Deem and Ramdas Pophale) SiO2 
 PCOD9150821
Probable space group: P 2/M
;
_chemical_formula_sum "Si O2"
_cell_formula_units_Z 24
_cell_length_a 12.045526
_cell_length_b 12.549207
_cell_length_c 19.042712
_cell_angle_alpha 90.000000
_cell_angle_beta 153.775223
_cell_angle_gamma 90.000000
_cell_volume 1272.004892
_symmetry_space_group_name_H-M "P 2/M"
_symmetry_group_IT_number 10
_symmetry_cell_setting 'monoclinic'
loop_
_space_group_symop_operation_xyz
x,y,z
-x,y,-z
-x,-y,-z
x,-y,z
loop_
_atom_site_type_symbol
_atom_site_label
_atom_site_fract_x
_atom_site_fract_y
_atom_site_fract_z
Si Si1 0.070835 0.000000 0.764502
Si Si2 0.446380 0.622355 0.195622
Si Si3 0.044299 0.233004 0.331539
Si Si4 0.775845 0.194591 0.326016
Si Si5 0.049028 0.375699 0.846643
Si Si6 0.496255 0.000000 0.882794
Si Si7 0.468296 0.623360 0.369319
O O1 0.281821 0.000000 0.822256
O O2 0.921123 0.109900 0.671229
O O3 0.233701 0.000000 0.927912
O O4 0.529449 0.500000 0.233547
O O5 0.666588 0.704118 0.304049
O O6 0.369563 0.633719 0.233265
O O7 0.227285 0.641988 0.014841
O O8 0.898451 0.296167 0.187357
O O9 0.302697 0.296376 0.489873
O O10 0.885872 0.230069 0.313409
O O11 0.562058 0.106418 0.193372
O O12 0.000000 0.147171 0.500000
O O13 0.077005 0.500000 0.841642
O O14 0.762453 0.358991 0.709168
O O15 0.553706 0.500000 0.426620
#
# Coordination Sequence:
#
# PCOD9150821 Si02
#       7
#     2   4   4   4   4   2   4
#     4   9  20  36  55  83 111 143 178 228 278 328
#     4  10  21  36  56  83 116 149 180 225 279 326
#     4  11  21  36  58  83 114 143 180 231 281 326
#     4  11  21  36  56  85 112 145 182 228 280 332
#     4  10  21  37  58  82 109 149 195 226 261 324
#     4   9  19  36  58  77 109 148 187 220 265 330
#     4  10  20  37  58  81 112 150 189 226 266 322
#
# _framework density 18.867853
#
# number of rings (size 3 to 8) (size 9 to 14) (size 15 to 20)
#    0.000    1.833    1.667    2.750    0.000    7.000 
#    0.000    3.333    0.000    0.000    0.000    4.667 
#    0.000    0.000    0.000    0.000    0.000    0.000 
#
# Total GULP energy -134008.576100 kJ/mol
# GULP energy per Si atom -5583.690671 kJ/mol
# Density = 1.882491 g / cm^3
# Si number density = 18.867853 Si / 1000 Ang^3
#
#
#
# Elastic Constant Matrix: (Units=GPa)
#
#
# Indices 1 2 3 4 5 6 
#
# 1 61.0043 32.9980 6.0845 0.0000 -19.9783 0.0000
# 2 32.9980 85.7325 21.2193 0.0000 -7.2195 0.0000
# 3 6.0845 21.2193 49.4311 0.0000 -15.0505 0.0000
# 4 0.0000 0.0000 0.0000 29.7754 0.0000 -2.9181
# 5 -19.9783 -7.2195 -15.0505 0.0000 28.5546 0.0000
# 6 0.0000 0.0000 0.0000 -2.9181 0.0000 -21.0616
#
#
#
# Elastic Compliance Matrix: (Units=1/GPa)
#
#
# Indices 1 2 3 4 5 6 
#
# 1 0.028615 -0.011137 0.007739 0.000000 0.021283 0.000000
# 2 -0.011137 0.017389 -0.008490 0.000000 -0.007870 0.000000
# 3 0.007739 -0.008490 0.028489 0.000000 0.018284 0.000000
# 4 0.000000 0.000000 0.000000 0.033135 0.000000 -0.004591
# 5 0.021283 -0.007870 0.018284 0.000000 0.057559 0.000000
# 6 0.000000 0.000000 0.000000 -0.004591 0.000000 -0.046844
#
#
# Mechanical properties :
#
#
# Convention : Reuss Voigt Hill
#
# Bulk Modulus (GPa) = 19.71738 35.19684 27.45711
# Shear Modulus (GPa) = 31.44166 16.51142 23.97654
#
# Velocity S-wave (km/s) = 4.08660 2.96143 3.56864
# Velocity P-wave (km/s) = 5.72189 5.51256 5.61820
#
# Compressibility (1/GPa) = 0.05071668
#
# Stress axis : x y z
#
# Youngs Moduli (GPa) = 34.94728 57.50679 35.10111
#
# Poissons Ratio (x) = 0.64044 -0.27164
# Poissons Ratio (y) = 0.38920 0.29801
# Poissons Ratio (z) = -0.27045 0.48824
#
# Static dielectric constant tensor:
#      x y z
#    x 1.628650 0.000000 -0.031980 
#    y 0.000000 1.642320 0.000000 
#    z -0.031980 0.000000 1.677280 
# 
# From -- ./inp_files/46536.got.cif
#   From: 2010.05.17/outbox.cif.g08.bks.cpg/sg10_24_cif.got.tgz:46536.got - 2010.06.03 11:33:40.
