data_PCOD9150872
_publ_section_title
;
Structure prediction by ZEFSAII (Michael W. Deem and Ramdas Pophale) SiO2 
 PCOD9150872
Probable space group: P 2/M
;
_chemical_formula_sum "Si O2"
_cell_formula_units_Z 32
_cell_length_a 28.462675
_cell_length_b 7.514984
_cell_length_c 17.113369
_cell_angle_alpha 90.000000
_cell_angle_beta 23.013465
_cell_angle_gamma 90.000000
_cell_volume 1431.059421
_symmetry_space_group_name_H-M "P 2/M"
_symmetry_group_IT_number 10
_symmetry_cell_setting 'monoclinic'
loop_
_space_group_symop_operation_xyz
x,y,z
-x,y,-z
-x,-y,-z
x,-y,z
loop_
_atom_site_type_symbol
_atom_site_label
_atom_site_fract_x
_atom_site_fract_y
_atom_site_fract_z
Si Si1 0.634166 0.285506 0.813285
Si Si2 0.942497 0.209018 0.948358
Si Si3 0.963990 0.782674 0.736860
Si Si4 0.259298 0.783660 0.029830
Si Si5 0.298235 0.703543 0.599984
Si Si6 0.791469 0.789424 0.717772
Si Si7 0.212658 0.284401 0.568725
Si Si8 0.513088 0.706642 0.566617
O O1 0.632567 0.500000 0.812259
O O2 0.683159 0.235834 0.823133
O O3 0.726638 0.222893 0.604816
O O4 0.500000 0.222242 0.000000
O O5 0.951208 0.276555 0.845857
O O6 0.073664 0.231390 0.784738
O O7 0.913598 0.000000 0.990370
O O8 0.835006 0.297468 0.159965
O O9 0.850250 0.731437 0.858785
O O10 0.087400 0.718686 0.508335
O O11 0.968169 0.000000 0.732480
O O12 0.235191 0.720390 0.154992
O O13 0.264958 0.000000 0.021132
O O14 0.384764 0.716040 0.804546
O O15 0.340479 0.500000 0.523734
O O16 0.285030 0.782083 0.533661
O O17 0.387977 0.786385 0.526117
O O18 0.811415 0.000000 0.697028
O O19 0.215619 0.500000 0.565223
O O20 0.500000 0.786502 0.500000
O O21 0.549951 0.500000 0.498142
#
# Coordination Sequence:
#
# PCOD9150872 Si02
#       8
#     4   4   4   4   4   4   4   4
#     4  10  22  38  59  84 113 151 192 230 275 333
#     4  11  21  35  58  86 113 144 184 235 284 323
#     4   9  18  35  57  82 114 149 183 224 278 336
#     4  10  21  36  59  86 112 149 190 229 277 338
#     4  10  22  38  57  79 111 151 187 226 278 339
#     4  10  20  37  59  85 115 148 187 231 282 332
#     4  10  21  38  57  80 110 150 190 225 275 338
#     4  10  22  40  60  84 114 149 187 232 284 331
#
# _framework density 22.361056999999999
#
# number of rings (size 3 to 8) (size 9 to 14) (size 15 to 20)
#    0.000    2.000    1.250    1.875    1.750    5.000 
#    0.000    1.250    0.000    1.500    0.000    0.000 
#    0.000    0.000    0.000    0.000    0.000    0.000 
#
# Total GULP energy -178895.835738 kJ/mol
# GULP energy per Si atom -5590.494867 kJ/mol
# Density = 2.231016 g / cm^3
# Si number density = 22.361057 Si / 1000 Ang^3
#
#
#
# Elastic Constant Matrix: (Units=GPa)
#
#
# Indices 1 2 3 4 5 6 
#
# 1 163.0658 -4.3435 8.5857 0.0000 -3.2069 0.0000
# 2 -4.3435 60.8041 -12.6849 0.0000 4.5736 0.0000
# 3 8.5857 -12.6849 43.8204 0.0000 -8.2380 0.0000
# 4 0.0000 0.0000 0.0000 12.4541 0.0000 -4.9597
# 5 -3.2069 4.5736 -8.2380 0.0000 41.9698 0.0000
# 6 0.0000 0.0000 0.0000 -4.9597 0.0000 4.0725
#
#
#
# Elastic Compliance Matrix: (Units=1/GPa)
#
#
# Indices 1 2 3 4 5 6 
#
# 1 0.006201 0.000193 -0.001115 0.000000 0.000234 0.000000
# 2 0.000193 0.017546 0.004864 0.000000 -0.000943 0.000000
# 3 -0.001115 0.004864 0.025264 0.000000 0.004344 0.000000
# 4 0.000000 0.000000 0.000000 0.155911 0.000000 0.189877
# 5 0.000234 -0.000943 0.004344 0.000000 0.024800 0.000000
# 6 0.000000 0.000000 0.000000 0.189877 0.000000 0.476792
#
#
# Mechanical properties :
#
#
# Convention : Reuss Voigt Hill
#
# Bulk Modulus (GPa) = 17.57673 27.86720 22.72196
# Shear Modulus (GPa) = 6.96773 30.10814 18.53793
#
# Velocity S-wave (km/s) = 1.76714 3.67339 2.88241
# Velocity P-wave (km/s) = 3.47004 5.52097 4.61098
#
# Compressibility (1/GPa) = 0.05689341
#
# Stress axis : x y z
#
# Youngs Moduli (GPa) = 161.26579 56.99410 39.58273
#
# Poissons Ratio (x) = -0.01098 0.04414
# Poissons Ratio (y) = -0.03108 -0.19253
# Poissons Ratio (z) = 0.17984 -0.27722
#
# Static dielectric constant tensor:
#      x y z
#    x 1.811330 0.000000 0.009930 
#    y 0.000000 1.873470 0.000000 
#    z 0.009930 0.000000 1.759640 
# 
# From -- ./inp_files/71545.got.cif
#   From: 2010.05.17/outbox.cif.g08.bks.cpg/sg10_36_cif.got.tgz:71545.got - 2010.06.03 11:33:40.
