data_PCOD9150889
_publ_section_title
;
Structure prediction by ZEFSAII (Michael W. Deem and Ramdas Pophale) SiO2 
 PCOD9150889
Probable space group: P 2/M
;
_chemical_formula_sum "Si O2"
_cell_formula_units_Z 32
_cell_length_a 11.984433
_cell_length_b 7.625112
_cell_length_c 30.094027
_cell_angle_alpha 90.000000
_cell_angle_beta 31.235403
_cell_angle_gamma 90.000000
_cell_volume 1426.064665
_symmetry_space_group_name_H-M "P 2/M"
_symmetry_group_IT_number 10
_symmetry_cell_setting 'monoclinic'
loop_
_space_group_symop_operation_xyz
x,y,z
-x,y,-z
-x,-y,-z
x,-y,z
loop_
_atom_site_type_symbol
_atom_site_label
_atom_site_fract_x
_atom_site_fract_y
_atom_site_fract_z
Si Si1 0.604713 0.211028 0.032927
Si Si2 0.858200 0.787542 0.309553
Si Si3 0.955588 0.800079 0.664677
Si Si4 0.431411 0.701635 0.263078
Si Si5 0.750395 0.285569 0.584103
Si Si6 0.370993 0.705307 0.472188
Si Si7 0.168997 0.213835 0.130816
Si Si8 0.242807 0.290049 0.920283
O O1 0.374584 0.266517 0.090995
O O2 0.654599 0.261593 0.066177
O O3 0.602451 0.000000 0.032694
O O4 0.782461 0.271352 0.936044
O O5 0.617775 0.727120 0.401274
O O6 0.015868 0.728668 0.295460
O O7 0.954695 0.728986 0.229469
O O8 0.856502 0.000000 0.311238
O O9 0.790738 0.702724 0.689027
O O10 0.193088 0.798013 0.562575
O O11 0.876994 0.000000 0.694300
O O12 0.494386 0.500000 0.249999
O O13 0.377284 0.780952 0.329424
O O14 0.609358 0.781423 0.169919
O O15 0.750022 0.500000 0.586034
O O16 0.651073 0.232368 0.571078
O O17 0.000000 0.231290 0.500000
O O18 0.314586 0.500000 0.493061
O O19 0.165987 0.000000 0.131281
O O20 0.233921 0.500000 0.917566
O O21 0.000000 0.221102 0.000000
#
# Coordination Sequence:
#
# PCOD9150889 Si02
#       8
#     4   4   4   4   4   4   4   4
#     4   9  17  34  60  82 103 139 186 226 266 322
#     4  10  21  36  52  76 113 147 176 219 276 326
#     4  11  22  36  56  81 110 142 178 223 274 323
#     4  10  20  37  60  80 104 144 187 225 268 323
#     4   9  17  34  57  77 100 135 180 224 265 311
#     4  11  22  36  56  80 107 143 184 224 266 322
#     4   8  16  33  57  81 105 139 180 224 274 324
#     4  10  22  37  53  79 115 148 177 219 276 327
#
# _framework density 22.439377
#
# number of rings (size 3 to 8) (size 9 to 14) (size 15 to 20)
#    0.000    2.250    1.250    2.625    0.000    5.250 
#    0.000    5.625    0.000    0.000    0.000    0.000 
#    0.000    0.000    0.000    0.000    0.000    0.000 
#
# Total GULP energy -178751.177935 kJ/mol
# GULP energy per Si atom -5585.974310 kJ/mol
# Density = 2.238830 g / cm^3
# Si number density = 22.439377 Si / 1000 Ang^3
#
#
#
# Elastic Constant Matrix: (Units=GPa)
#
#
# Indices 1 2 3 4 5 6 
#
# 1 61.5223 -1.8361 12.1852 0.0000 24.2686 0.0000
# 2 -1.8361 47.2914 0.3804 0.0000 2.5610 0.0000
# 3 12.1852 0.3804 130.0565 0.0000 27.6483 0.0000
# 4 0.0000 0.0000 0.0000 0.6484 0.0000 3.6127
# 5 24.2686 2.5610 27.6483 0.0000 36.1420 0.0000
# 6 0.0000 0.0000 0.0000 3.6127 0.0000 20.3236
#
#
#
# Elastic Compliance Matrix: (Units=1/GPa)
#
#
# Indices 1 2 3 4 5 6 
#
# 1 0.022437 0.001738 0.001340 0.000000 -0.016214 0.000000
# 2 0.001738 0.021372 0.000412 0.000000 -0.002997 0.000000
# 3 0.001340 0.000412 0.009267 0.000000 -0.008018 0.000000
# 4 0.000000 0.000000 0.000000160.262759 0.000000-28.488447
# 5 -0.016214 -0.002997 -0.008018 0.000000 0.044902 0.000000
# 6 0.000000 0.000000 0.000000-28.488447 0.000000 5.113335
#
#
# Mechanical properties :
#
#
# Convention : Reuss Voigt Hill
#
# Bulk Modulus (GPa) = 16.65149 28.92544 22.78847
# Shear Modulus (GPa) = 0.03021 26.63220 13.33121
#
# Velocity S-wave (km/s) = 0.11616 3.44881 2.44006
# Velocity P-wave (km/s) = 2.73034 5.36447 4.25630
#
# Compressibility (1/GPa) = 0.06005467
#
# Stress axis : x y z
#
# Youngs Moduli (GPa) = 44.56994 46.79024 107.91341
#
# Poissons Ratio (x) = -0.08134 -0.14456
# Poissons Ratio (y) = -0.07748 -0.04442
# Poissons Ratio (z) = -0.05971 -0.01926
#
# Static dielectric constant tensor:
#      x y z
#    x 1.797230 0.000000 0.023270 
#    y 0.000000 1.856830 0.000000 
#    z 0.023270 0.000000 1.839440 
# 
# From -- ./inp_files/94961.got.cif
#   From: 2010.05.17/outbox.cif.g08.bks.cpg/sg10_48_cif.got.tgz:94961.got - 2010.06.03 11:33:40.
