data_PCOD9150540
_publ_section_title
;
Structure prediction by ZEFSAII (Michael W. Deem and Ramdas Pophale) SiO2 
 PCOD9150540
Probable space group: P 2/M
;
_chemical_formula_sum "Si O2"
_cell_formula_units_Z 28
_cell_length_a 10.037102
_cell_length_b 7.957736
_cell_length_c 29.910687
_cell_angle_alpha 90.000000
_cell_angle_beta 142.328452
_cell_angle_gamma 90.000000
_cell_volume 1460.026507
_symmetry_space_group_name_H-M "P 2/M"
_symmetry_group_IT_number 10
_symmetry_cell_setting 'monoclinic'
loop_
_space_group_symop_operation_xyz
x,y,z
-x,y,-z
-x,-y,-z
x,-y,z
loop_
_atom_site_type_symbol
_atom_site_label
_atom_site_fract_x
_atom_site_fract_y
_atom_site_fract_z
Si Si1 0.993286 0.304858 0.145896
Si Si2 0.266320 0.304004 0.835909
Si Si3 0.366599 0.196961 0.008759
Si Si4 0.261174 0.196873 0.570510
Si Si5 0.579246 0.500000 0.447941
Si Si6 0.824009 0.193790 0.286333
Si Si7 0.148558 0.500000 0.388396
Si Si8 0.516388 0.801079 0.729365
O O1 0.933558 0.500000 0.128551
O O2 0.884945 0.238152 0.163266
O O3 0.251541 0.285654 0.214617
O O4 0.880771 0.224951 0.072283
O O5 0.213673 0.500000 0.814242
O O6 0.515604 0.287981 0.919145
O O7 0.226457 0.207999 0.779521
O O8 0.404217 0.000000 0.025361
O O9 0.500000 0.253204 0.000000
O O10 0.367124 0.332748 0.565881
O O11 0.356932 0.231937 0.645225
O O12 0.000000 0.217110 0.500000
O O13 0.308870 0.000000 0.572261
O O14 0.330568 0.500000 0.398120
O O15 0.729350 0.500000 0.531816
O O16 0.612219 0.239829 0.259542
O O17 0.005336 0.331759 0.346037
O O18 0.883634 0.000000 0.313521
O O19 0.561396 0.000000 0.741605
#
# Coordination Sequence:
#
# PCOD9150540 Si02
#       8
#     4   4   4   4   2   4   2   4
#     4  10  21  34  58  89 120 156 200 258 307 353
#     4  10  20  36  59  88 123 160 205 249 303 370
#     4   9  17  32  54  83 119 158 201 249 303 359
#     4  10  22  41  66  94 125 162 207 255 305 365
#     4  11  25  42  66  94 124 160 208 251 308 367
#     4  11  24  42  63  87 123 167 204 247 310 366
#     4  11  26  44  62  92 127 162 200 256 306 367
#     4  10  23  39  59  88 120 155 204 256 303 362
#
# _framework density 19.177734000000001
#
# number of rings (size 3 to 8) (size 9 to 14) (size 15 to 20)
#    0.000    1.857    0.714    2.357    4.000    5.714 
#    0.000    2.143    0.000    4.286    0.000    0.000 
#    0.000    0.000    0.000    0.000    0.000    0.000 
#
# Total GULP energy -156291.042601 kJ/mol
# GULP energy per Si atom -5581.822950 kJ/mol
# Density = 1.913408 g / cm^3
# Si number density = 19.177734 Si / 1000 Ang^3
#
#
#
# Elastic Constant Matrix: (Units=GPa)
#
#
# Indices 1 2 3 4 5 6 
#
# 1 99.2162 44.4328 33.8360 0.0000 3.0141 0.0000
# 2 44.4328 72.4234 26.0247 0.0000 3.3902 0.0000
# 3 33.8360 26.0247 74.9413 0.0000 15.6368 0.0000
# 4 0.0000 0.0000 0.0000 19.5315 0.0000 2.7621
# 5 3.0141 3.3902 15.6368 0.0000 21.2237 0.0000
# 6 0.0000 0.0000 0.0000 2.7621 0.0000 22.9990
#
#
#
# Elastic Compliance Matrix: (Units=1/GPa)
#
#
# Indices 1 2 3 4 5 6 
#
# 1 0.015018 -0.007663 -0.004644 0.000000 0.002513 0.000000
# 2 -0.007663 0.019744 -0.003505 0.000000 0.000516 0.000000
# 3 -0.004644 -0.003505 0.019383 0.000000 -0.013061 0.000000
# 4 0.000000 0.000000 0.000000 0.052084 0.000000 -0.006255
# 5 0.002513 0.000516 -0.013061 0.000000 0.056301 0.000000
# 6 0.000000 0.000000 0.000000 -0.006255 0.000000 0.044231
#
#
# Mechanical properties :
#
#
# Convention : Reuss Voigt Hill
#
# Bulk Modulus (GPa) = 44.39979 50.57423 47.48701
# Shear Modulus (GPa) = 20.33425 22.23667 21.28546
#
# Velocity S-wave (km/s) = 3.25977 3.40884 3.33514
# Velocity P-wave (km/s) = 6.11311 6.47474 6.29652
#
# Compressibility (1/GPa) = 0.02252263
#
# Stress axis : x y z
#
# Youngs Moduli (GPa) = 66.58668 50.64834 51.59216
#
# Poissons Ratio (x) = 0.38810 0.23959
# Poissons Ratio (y) = 0.51023 0.18081
# Poissons Ratio (z) = 0.30922 0.17750
#
# Static dielectric constant tensor:
#      x y z
#    x 1.655070 0.000000 0.004080 
#    y 0.000000 1.678830 0.000000 
#    z 0.004080 0.000000 1.673850 
# 
# From -- ./inp_files/92179.got.cif
#   From: 2010.05.17/outbox.cif.g08.bks.cpg/sg10_47_cif.got.tgz:92179.got - 2010.06.03 11:33:40.
