data_PCOD9150975
_publ_section_title
;
Structure prediction by ZEFSAII (Michael W. Deem and Ramdas Pophale) SiO2 
 PCOD9150975
Probable space group: P 2/M
;
_chemical_formula_sum "Si O2"
_cell_formula_units_Z 28
_cell_length_a 13.023904
_cell_length_b 8.868120
_cell_length_c 16.140575
_cell_angle_alpha 90.000000
_cell_angle_beta 55.401483
_cell_angle_gamma 90.000000
_cell_volume 1534.515553
_symmetry_space_group_name_H-M "P 2/M"
_symmetry_group_IT_number 10
_symmetry_cell_setting 'monoclinic'
loop_
_space_group_symop_operation_xyz
x,y,z
-x,y,-z
-x,-y,-z
x,-y,z
loop_
_atom_site_type_symbol
_atom_site_label
_atom_site_fract_x
_atom_site_fract_y
_atom_site_fract_z
Si Si1 0.174684 0.820127 0.009551
Si Si2 0.811440 0.819249 0.583784
Si Si3 0.526128 0.818756 0.736925
Si Si4 0.011844 0.319033 0.368468
Si Si5 0.268928 0.819991 0.781161
Si Si6 0.050399 0.679443 0.791740
Si Si7 0.574530 0.680626 0.048416
O O1 0.045059 0.754210 0.100123
O O2 0.173834 0.000000 0.017821
O O3 0.206823 0.784657 0.899186
O O4 0.287697 0.751102 0.011046
O O5 0.665343 0.783552 0.644100
O O6 0.894315 0.741127 0.475119
O O7 0.868419 0.758048 0.643930
O O8 0.827635 0.000000 0.572346
O O9 0.414233 0.778263 0.725312
O O10 0.496272 0.740010 0.837707
O O11 0.517267 0.000000 0.753685
O O12 0.021090 0.500000 0.372562
O O13 0.992694 0.280534 0.281318
O O14 0.188733 0.737013 0.748877
O O15 0.260348 0.000000 0.772493
O O16 0.045099 0.500000 0.802560
O O17 0.584398 0.500000 0.046883
O O18 0.500000 0.723691 0.000000
#
# Coordination Sequence:
#
# PCOD9150975 Si02
#       7
#     4   4   4   4   4   4   4
#     4  10  21  36  55  78 108 147 186 225 272 319
#     4  10  20  37  61  85 107 137 182 226 271 328
#     4   9  20  37  57  81 108 141 180 224 273 324
#     4  10  22  38  55  80 113 144 176 223 277 325
#     4   9  19  37  56  78 109 144 182 223 271 324
#     4  11  23  36  54  81 112 144 185 228 270 324
#     4  10  21  34  50  78 113 145 181 221 263 322
#
# _framework density 18.246801000000001
#
# number of rings (size 3 to 8) (size 9 to 14) (size 15 to 20)
#    0.000    2.143    0.000    4.286    2.000    9.143 
#    0.000    0.714    0.000    4.286    0.000    0.000 
#    0.000    0.000    0.000    0.000    0.000    0.000 
#
# Total GULP energy -156335.353073 kJ/mol
# GULP energy per Si atom -5583.405467 kJ/mol
# Density = 1.820527 g / cm^3
# Si number density = 18.246801 Si / 1000 Ang^3
#
#
#
# Elastic Constant Matrix: (Units=GPa)
#
#
# Indices 1 2 3 4 5 6 
#
# 1 102.9390 27.0002 32.0626 0.0000 -16.8918 0.0000
# 2 27.0002 29.3524 16.3353 0.0000 -0.8086 0.0000
# 3 32.0626 16.3353 29.5337 0.0000 -13.7981 0.0000
# 4 0.0000 0.0000 0.0000 43.6011 0.0000 -3.8016
# 5 -16.8918 -0.8086 -13.7981 0.0000 25.0585 0.0000
# 6 0.0000 0.0000 0.0000 -3.8016 0.0000 33.0828
#
#
#
# Elastic Compliance Matrix: (Units=1/GPa)
#
#
# Indices 1 2 3 4 5 6 
#
# 1 0.016036 -0.008972 -0.010141 0.000000 0.004937 0.000000
# 2 -0.008972 0.061149 -0.034986 0.000000 -0.023339 0.000000
# 3 -0.010141 -0.034986 0.081453 0.000000 0.036886 0.000000
# 4 0.000000 0.000000 0.000000 0.023167 0.000000 0.002662
# 5 0.004937 -0.023339 0.036886 0.000000 0.062792 0.000000
# 6 0.000000 0.000000 0.000000 0.002662 0.000000 0.030533
#
#
# Mechanical properties :
#
#
# Convention : Reuss Voigt Hill
#
# Bulk Modulus (GPa) = 19.82515 34.73572 27.28043
# Shear Modulus (GPa) = 12.49554 26.11026 19.30290
#
# Velocity S-wave (km/s) = 2.61972 3.78689 3.25603
# Velocity P-wave (km/s) = 4.47651 6.18051 5.39620
#
# Compressibility (1/GPa) = 0.05044099
#
# Stress axis : x y z
#
# Youngs Moduli (GPa) = 62.35827 16.35338 12.27702
#
# Poissons Ratio (x) = 0.14672 0.12450
# Poissons Ratio (y) = 0.55946 0.42953
# Poissons Ratio (z) = 0.63236 0.57215
#
# Static dielectric constant tensor:
#      x y z
#    x 1.640700 0.000000 -0.006290 
#    y 0.000000 1.608790 0.000000 
#    z -0.006290 0.000000 1.606500 
# 
# From -- ./inp_files/63647.got.cif
#   From: 2010.05.17/outbox.cif.g08.bks.cpg/sg10_32_cif.got.tgz:63647.got - 2010.06.03 11:33:40.
