data_PCOD9150855
_publ_section_title
;
Structure prediction by ZEFSAII (Michael W. Deem and Ramdas Pophale) SiO2 
 PCOD9150855
Probable space group: P 2/M
;
_chemical_formula_sum "Si O2"
_cell_formula_units_Z 32
_cell_length_a 28.652189
_cell_length_b 8.658001
_cell_length_c 22.224429
_cell_angle_alpha 90.000000
_cell_angle_beta 18.877848
_cell_angle_gamma 90.000000
_cell_volume 1783.814215
_symmetry_space_group_name_H-M "P 2/M"
_symmetry_group_IT_number 10
_symmetry_cell_setting 'monoclinic'
loop_
_space_group_symop_operation_xyz
x,y,z
-x,y,-z
-x,-y,-z
x,-y,z
loop_
_atom_site_type_symbol
_atom_site_label
_atom_site_fract_x
_atom_site_fract_y
_atom_site_fract_z
Si Si1 0.329552 0.816253 0.594975
Si Si2 0.321627 0.686496 0.970038
Si Si3 0.838404 0.313330 0.085447
Si Si4 0.173133 0.315017 0.667990
Si Si5 0.453733 0.686850 0.989640
Si Si6 0.349274 0.313677 0.800848
Si Si7 0.842418 0.312172 0.711946
Si Si8 0.398049 0.816337 0.307053
O O1 0.239666 0.761176 0.762381
O O2 0.258135 0.744957 0.622547
O O3 0.493295 0.757632 0.400341
O O4 0.327591 0.000000 0.592777
O O5 0.335586 0.500000 0.956051
O O6 0.292916 0.729496 0.936132
O O7 0.472768 0.757620 0.807206
O O8 0.203759 0.732299 0.163868
O O9 0.830291 0.500000 0.101625
O O10 0.756081 0.269203 0.124697
O O11 0.006034 0.270079 0.877228
O O12 0.182193 0.500000 0.655135
O O13 0.251008 0.247956 0.514270
O O14 0.458266 0.500000 0.981310
O O15 0.291370 0.734340 0.167838
O O16 0.500000 0.734706 0.000000
O O17 0.561220 0.751795 0.808099
O O18 0.363610 0.500000 0.782234
O O19 0.846700 0.500000 0.705164
O O20 0.000000 0.255918 0.500000
O O21 0.396416 0.000000 0.308379
#
# Coordination Sequence:
#
# PCOD9150855 Si02
#       8
#     4   4   4   4   4   4   4   4
#     4  12  24  37  58  85 110 145 188 227 278 339
#     4   9  17  32  56  80 107 144 184 223 268 320
#     4  10  23  40  57  82 112 145 185 232 287 334
#     4  11  22  39  60  82 111 146 188 235 278 328
#     4   9  18  34  55  81 109 142 183 225 270 320
#     4  10  20  37  59  82 109 145 188 231 274 330
#     4   8  14  27  49  80 109 134 171 219 265 310
#     4  11  21  34  56  83 111 146 188 227 272 329
#
# _framework density 17.939088000000002
#
# number of rings (size 3 to 8) (size 9 to 14) (size 15 to 20)
#    0.000    2.000    1.250    4.125    0.000    4.750 
#    2.250    0.000    0.000    6.000    0.000    0.000 
#    0.000    0.000    0.000    0.000    0.000    0.000 
#
# Total GULP energy -178648.905954 kJ/mol
# GULP energy per Si atom -5582.778311 kJ/mol
# Density = 1.789826 g / cm^3
# Si number density = 17.939088 Si / 1000 Ang^3
#
#
#
# Elastic Constant Matrix: (Units=GPa)
#
#
# Indices 1 2 3 4 5 6 
#
# 1 109.1283 27.0133 54.0536 0.0000 18.1087 0.0000
# 2 27.0133 22.8992 24.3540 0.0000 4.3672 0.0000
# 3 54.0536 24.3540 126.7708 0.0000 15.8699 0.0000
# 4 0.0000 0.0000 0.0000 -13.9433 0.0000 7.4291
# 5 18.1087 4.3672 15.8699 0.0000 26.9962 0.0000
# 6 0.0000 0.0000 0.0000 7.4291 0.0000 -13.9254
#
#
#
# Elastic Compliance Matrix: (Units=1/GPa)
#
#
# Indices 1 2 3 4 5 6 
#
# 1 0.014975 -0.013226 -0.003081 0.000000 -0.006094 0.000000
# 2 -0.013226 0.066774 -0.007499 0.000000 0.002478 0.000000
# 3 -0.003081 -0.007499 0.011045 0.000000 -0.003213 0.000000
# 4 0.000000 0.000000 0.000000 -0.100201 0.000000 -0.053456
# 5 -0.006094 0.002478 -0.003213 0.000000 0.042618 0.000000
# 6 0.000000 0.000000 0.000000 -0.053456 0.000000 -0.100330
#
#
# Mechanical properties :
#
#
# Convention : Reuss Voigt Hill
#
# Bulk Modulus (GPa) = 22.13279 52.18223 37.15751
# Shear Modulus (GPa) = -2044.73289 10.05065 -1017.34112
#
# Velocity S-wave (km/s) = -33.79784 2.36956 -23.83988
# Velocity P-wave (km/s) = 38.86765 6.05294 27.14826
#
# Compressibility (1/GPa) = 0.04518182
#
# Stress axis : x y z
#
# Youngs Moduli (GPa) = 66.77808 14.97580 90.53926
#
# Poissons Ratio (x) = 0.19807 0.27899
# Poissons Ratio (y) = 0.88320 0.67894
# Poissons Ratio (z) = 0.20577 0.11230
#
# Static dielectric constant tensor:
#      x y z
#    x 1.603810 0.000000 0.009720 
#    y 0.000000 1.595490 0.000000 
#    z 0.009720 0.000000 1.599440 
# 
# From -- ./inp_files/86878.got.cif
#   From: 2010.05.17/outbox.cif.g08.bks.cpg/sg10_44_cif.got.tgz:86878.got - 2010.06.03 11:33:40.
