data_PCOD9150208
_publ_section_title
;
Structure prediction by ZEFSAII (Michael W. Deem and Ramdas Pophale) SiO2 
 PCOD9150208
Probable space group: P 2/M
;
_chemical_formula_sum "Si O2"
_cell_formula_units_Z 28
_cell_length_a 19.821820
_cell_length_b 14.946628
_cell_length_c 8.549470
_cell_angle_alpha 90.000000
_cell_angle_beta 148.095510
_cell_angle_gamma 90.000000
_cell_volume 1338.674326
_symmetry_space_group_name_H-M "P 2/M"
_symmetry_group_IT_number 10
_symmetry_cell_setting 'monoclinic'
loop_
_space_group_symop_operation_xyz
x,y,z
-x,y,-z
-x,-y,-z
x,-y,z
loop_
_atom_site_type_symbol
_atom_site_label
_atom_site_fract_x
_atom_site_fract_y
_atom_site_fract_z
Si Si1 0.754176 0.251235 0.214749
Si Si2 0.620414 0.247110 0.638839
Si Si3 0.147022 0.653650 0.298297
Si Si4 0.044002 0.904955 0.408372
Si Si5 0.623178 0.099152 0.134996
Si Si6 0.410115 0.398849 0.675200
Si Si7 0.801496 0.154411 0.752703
O O1 0.799545 0.328649 0.421231
O O2 0.869158 0.180776 0.437862
O O3 0.643809 0.187064 0.070551
O O4 0.716035 0.279211 0.965310
O O5 0.500000 0.211406 0.500000
O O6 0.578720 0.328385 0.443691
O O7 0.696168 0.177111 0.678626
O O8 0.261911 0.602184 0.438304
O O9 0.150066 0.750734 0.219857
O O10 0.000000 0.620700 0.000000
O O11 0.000000 0.906021 0.500000
O O12 0.109916 0.000000 0.505663
O O13 0.920283 0.895620 0.058858
O O14 0.738740 0.102861 0.486074
O O15 0.612273 0.000000 0.039454
O O16 0.500000 0.112207 0.000000
O O17 0.446458 0.500000 0.701842
O O18 0.500000 0.372608 0.000000
#
# Coordination Sequence:
#
# PCOD9150208 Si02
#       7
#     4   4   4   4   4   4   4
#     4  11  21  36  58  87 117 154 203 250 295 350
#     4  11  22  37  62  90 115 152 193 243 294 358
#     4  10  20  36  63  91 121 159 199 244 295 348
#     4  11  21  34  54  81 118 161 203 254 302 339
#     4  10  21  36  53  77 117 160 203 256 304 349
#     4  10  23  44  67  93 124 154 188 233 295 372
#     4  10  20  36  55  83 114 158 205 250 294 350
#
# _framework density 20.916215999999999
#
# number of rings (size 3 to 8) (size 9 to 14) (size 15 to 20)
#    0.000    1.571    2.857    2.571    0.000    4.571 
#    0.000    2.857    0.000    4.286    0.000    0.000 
#    0.000    0.000    0.000    0.000    0.000    0.000 
#
# Total GULP energy -156344.838526 kJ/mol
# GULP energy per Si atom -5583.744233 kJ/mol
# Density = 2.086861 g / cm^3
# Si number density = 20.916216 Si / 1000 Ang^3
#
#
#
# Elastic Constant Matrix: (Units=GPa)
#
#
# Indices 1 2 3 4 5 6 
#
# 1 83.4872 10.2187 21.9603 0.0000 1.5510 0.0000
# 2 10.2187 56.0422 13.0041 0.0000 -9.3041 0.0000
# 3 21.9603 13.0041 103.6564 0.0000 -15.8642 0.0000
# 4 0.0000 0.0000 0.0000 33.8321 0.0000 2.0273
# 5 1.5510 -9.3041 -15.8642 0.0000 47.7857 0.0000
# 6 0.0000 0.0000 0.0000 2.0273 0.0000 9.0283
#
#
#
# Elastic Compliance Matrix: (Units=1/GPa)
#
#
# Indices 1 2 3 4 5 6 
#
# 1 0.012983 -0.002014 -0.002763 0.000000 -0.001731 0.000000
# 2 -0.002014 0.019098 -0.001465 0.000000 0.003298 0.000000
# 3 -0.002763 -0.001465 0.010942 0.000000 0.003437 0.000000
# 4 0.000000 0.000000 0.000000 0.029961 0.000000 -0.006728
# 5 -0.001731 0.003298 0.003437 0.000000 0.022766 0.000000
# 6 0.000000 0.000000 0.000000 -0.006728 0.000000 0.112274
#
#
# Mechanical properties :
#
#
# Convention : Reuss Voigt Hill
#
# Bulk Modulus (GPa) = 32.74220 37.06132 34.90176
# Shear Modulus (GPa) = 21.67439 31.32940 26.50190
#
# Velocity S-wave (km/s) = 3.22257 3.87441 3.56343
# Velocity P-wave (km/s) = 5.43457 6.14590 5.80115
#
# Compressibility (1/GPa) = 0.03054162
#
# Stress axis : x y z
#
# Youngs Moduli (GPa) = 77.02251 52.36101 91.38779
#
# Poissons Ratio (x) = 0.10543 0.25249
# Poissons Ratio (y) = 0.15509 0.13385
# Poissons Ratio (z) = 0.21280 0.07669
#
# Static dielectric constant tensor:
#      x y z
#    x 1.748110 0.000000 -0.002600 
#    y 0.000000 1.738580 0.000000 
#    z -0.002600 0.000000 1.717440 
# 
# From -- ./inp_files/35296.got.cif
#   From: 2010.05.17/outbox.cif.g08.bks.cpg/sg10_18_cif.got.tgz:35296.got - 2010.06.03 11:33:40.
