data_PCOD9150378
_publ_section_title
;
Structure prediction by ZEFSAII (Michael W. Deem and Ramdas Pophale) SiO2 
 PCOD9150378
Probable space group: P 2/M
;
_chemical_formula_sum "Si O2"
_cell_formula_units_Z 20
_cell_length_a 12.332210
_cell_length_b 7.677397
_cell_length_c 8.314772
_cell_angle_alpha 90.000000
_cell_angle_beta 96.018111
_cell_angle_gamma 90.000000
_cell_volume 782.897946
_symmetry_space_group_name_H-M "P 2/M"
_symmetry_group_IT_number 10
_symmetry_cell_setting 'monoclinic'
loop_
_space_group_symop_operation_xyz
x,y,z
-x,y,-z
-x,-y,-z
x,-y,z
loop_
_atom_site_type_symbol
_atom_site_label
_atom_site_fract_x
_atom_site_fract_y
_atom_site_fract_z
Si Si1 0.759511 0.289129 0.898135
Si Si2 0.371120 0.803680 0.803244
Si Si3 0.833722 0.708632 0.399438
Si Si4 0.432131 0.698279 0.344385
Si Si5 0.961385 0.290949 0.753556
O O1 0.762755 0.500000 0.888425
O O2 0.677488 0.224614 0.745756
O O3 0.882964 0.227558 0.884038
O O4 0.701099 0.245547 0.054722
O O5 0.284707 0.786288 0.644396
O O6 0.478323 0.693654 0.784175
O O7 0.409427 0.000000 0.826355
O O8 0.822608 0.500000 0.377472
O O9 0.889273 0.735076 0.580515
O O10 0.919770 0.775622 0.278413
O O11 0.500000 0.783291 0.500000
O O12 0.404974 0.500000 0.391841
O O13 0.975639 0.500000 0.778029
#
# Coordination Sequence:
#
# PCOD9150378 Si02
#       5
#     4   4   4   4   4
#     4  10  20  36  58  83 110 141 180 226 277 326
#     4  12  25  37  51  78 117 154 184 217 264 322
#     4   9  17  35  61  85 109 139 182 231 276 322
#     4  10  21  39  64  87 105 133 179 232 279 325
#     4   8  16  33  61  89 107 133 180 236 281 319
#
# _framework density 25.546116000000001
#
# number of rings (size 3 to 8) (size 9 to 14) (size 15 to 20)
#    0.000    2.200    0.000    4.800    0.000    7.600 
#    0.000   10.000    0.000    0.000    0.000    0.000 
#    0.000    0.000    0.000    0.000    0.000    0.000 
#
# Total GULP energy -111835.428747 kJ/mol
# GULP energy per Si atom -5591.771437 kJ/mol
# Density = 2.548797 g / cm^3
# Si number density = 25.546116 Si / 1000 Ang^3
#
#
#
# Elastic Constant Matrix: (Units=GPa)
#
#
# Indices 1 2 3 4 5 6 
#
# 1 140.1974 1.1676 6.6764 0.0000 -17.3199 0.0000
# 2 1.1676 59.2029 -3.2268 0.0000 -2.2919 0.0000
# 3 6.6764 -3.2268 60.2743 0.0000 -16.1009 0.0000
# 4 0.0000 0.0000 0.0000 43.1107 0.0000 32.4774
# 5 -17.3199 -2.2919 -16.1009 0.0000 50.2255 0.0000
# 6 0.0000 0.0000 0.0000 32.4774 0.0000 -60.8549
#
#
#
# Elastic Compliance Matrix: (Units=1/GPa)
#
#
# Indices 1 2 3 4 5 6 
#
# 1 0.007452 -0.000058 -0.000156 0.000000 0.002517 0.000000
# 2 -0.000058 0.017003 0.001223 0.000000 0.001148 0.000000
# 3 -0.000156 0.001223 0.018236 0.000000 0.005848 0.000000
# 4 0.000000 0.000000 0.000000 0.016544 0.000000 0.008830
# 5 0.002517 0.001148 0.005848 0.000000 0.022705 0.000000
# 6 0.000000 0.000000 0.000000 0.008830 0.000000 -0.011720
#
#
# Mechanical properties :
#
#
# Convention : Reuss Voigt Hill
#
# Bulk Modulus (GPa) = 22.36680 29.87879 26.12279
# Shear Modulus (GPa) = 60.16511 23.50009 41.83260
#
# Velocity S-wave (km/s) = 4.85826 3.03629 4.05103
# Velocity P-wave (km/s) = 6.34387 4.90036 5.66825
#
# Compressibility (1/GPa) = 0.04470912
#
# Stress axis : x y z
#
# Youngs Moduli (GPa) = 134.19829 58.81196 54.83738
#
# Poissons Ratio (x) = 0.00341 0.00856
# Poissons Ratio (y) = 0.00779 -0.06709
# Poissons Ratio (z) = 0.02096 -0.07195
#
# Static dielectric constant tensor:
#      x y z
#    x 1.961780 0.000000 -0.014720 
#    y 0.000000 1.994820 0.000000 
#    z -0.014720 0.000000 2.112550 
# 
# From -- ./inp_files/22125.got.cif
#   From: 2010.05.17/outbox.cif.g08.bks.cpg/sg10_12_cif.got.tgz:22125.got - 2010.06.03 11:33:40.
