data_PCOD9150622
_publ_section_title
;
Structure prediction by ZEFSAII (Michael W. Deem and Ramdas Pophale) SiO2 
 PCOD9150622
Probable space group: P 2/M
;
_chemical_formula_sum "Si O2"
_cell_formula_units_Z 28
_cell_length_a 22.014686
_cell_length_b 7.957927
_cell_length_c 9.773446
_cell_angle_alpha 90.000000
_cell_angle_beta 133.498541
_cell_angle_gamma 90.000000
_cell_volume 1242.032229
_symmetry_space_group_name_H-M "P 2/M"
_symmetry_group_IT_number 10
_symmetry_cell_setting 'monoclinic'
loop_
_space_group_symop_operation_xyz
x,y,z
-x,y,-z
-x,-y,-z
x,-y,z
loop_
_atom_site_type_symbol
_atom_site_label
_atom_site_fract_x
_atom_site_fract_y
_atom_site_fract_z
Si Si1 0.625748 0.189429 0.898765
Si Si2 0.718770 0.692708 0.800851
Si Si3 0.440424 0.296594 0.621935
Si Si4 0.641464 0.696571 0.228919
Si Si5 0.891875 0.805441 0.962057
Si Si6 0.828535 0.204337 0.574568
Si Si7 0.974923 0.794453 0.612400
O O1 0.690229 0.300751 0.913548
O O2 0.530018 0.231929 0.714246
O O3 0.645410 0.000000 0.890620
O O4 0.633486 0.212465 0.072678
O O5 0.734261 0.500000 0.783177
O O6 0.638155 0.756945 0.591677
O O7 0.801803 0.793347 0.895167
O O8 0.443346 0.500000 0.621886
O O9 0.420121 0.244644 0.746182
O O10 0.624037 0.500000 0.177837
O O11 0.736162 0.720095 0.428504
O O12 0.877913 0.737995 0.787419
O O13 0.916042 0.000000 0.980462
O O14 0.959831 0.732350 0.171313
O O15 0.882724 0.248232 0.524874
O O16 0.820637 0.000000 0.568397
O O17 0.000000 0.736028 0.500000
O O18 0.979171 0.000000 0.616347
#
# Coordination Sequence:
#
# PCOD9150622 Si02
#       7
#     4   4   4   4   4   4   4
#     4  12  26  40  60  91 124 159 204 258 310 356
#     4  11  23  41  63  89 123 164 205 249 306 368
#     4  10  22  42  64  87 120 163 207 248 304 368
#     4  11  23  41  63  89 123 164 205 249 306 368
#     4  10  20  36  60  89 122 160 204 251 300 355
#     4  10  20  36  60  89 122 160 204 251 300 355
#     4   9  19  35  58  89 124 160 200 247 301 356
#
# _framework density 22.543700999999999
#
# number of rings (size 3 to 8) (size 9 to 14) (size 15 to 20)
#    0.000    1.571    1.429    3.429    2.000    7.429 
#    0.000    0.714    0.000    2.571    0.000    0.000 
#    0.000    0.000    0.000    0.000    0.000    0.000 
#
# Total GULP energy -156597.046740 kJ/mol
# GULP energy per Si atom -5592.751669 kJ/mol
# Density = 2.249239 g / cm^3
# Si number density = 22.543701 Si / 1000 Ang^3
#
#
#
# Elastic Constant Matrix: (Units=GPa)
#
#
# Indices 1 2 3 4 5 6 
#
# 1 117.1896 -1.9506 2.5396 0.0000 -11.6769 0.0000
# 2 -1.9506 32.9291 -1.5482 0.0000 -2.3115 0.0000
# 3 2.5396 -1.5482 52.0122 0.0000 -1.6566 0.0000
# 4 0.0000 0.0000 0.0000 21.1653 0.0000 7.9688
# 5 -11.6769 -2.3115 -1.6566 0.0000 27.8091 0.0000
# 6 0.0000 0.0000 0.0000 7.9688 0.0000 34.2780
#
#
#
# Elastic Compliance Matrix: (Units=1/GPa)
#
#
# Indices 1 2 3 4 5 6 
#
# 1 0.008931 0.000782 -0.000292 0.000000 0.003798 0.000000
# 2 0.000782 0.030666 0.000968 0.000000 0.002935 0.000000
# 3 -0.000292 0.000968 0.019305 0.000000 0.001108 0.000000
# 4 0.000000 0.000000 0.000000 0.051779 0.000000 -0.012037
# 5 0.003798 0.002935 0.001108 0.000000 0.037864 0.000000
# 6 0.000000 0.000000 0.000000 -0.012037 0.000000 0.031972
#
#
# Mechanical properties :
#
#
# Convention : Reuss Voigt Hill
#
# Bulk Modulus (GPa) = 16.17653 22.24584 19.21119
# Shear Modulus (GPa) = 25.22627 30.18983 27.70805
#
# Velocity S-wave (km/s) = 3.34877 3.66344 3.50963
# Velocity P-wave (km/s) = 4.70569 5.27102 4.99636
#
# Compressibility (1/GPa) = 0.06181797
#
# Stress axis : x y z
#
# Youngs Moduli (GPa) = 111.97050 32.60925 51.80114
#
# Poissons Ratio (x) = -0.02550 0.01512
# Poissons Ratio (y) = -0.08755 -0.05015
# Poissons Ratio (z) = 0.03268 -0.03157
#
# Static dielectric constant tensor:
#      x y z
#    x 1.791820 0.000000 -0.021410 
#    y 0.000000 1.796390 0.000000 
#    z -0.021410 0.000000 1.841650 
# 
# From -- ./inp_files/34311.got.cif
#   From: 2010.05.17/outbox.cif.g08.bks.cpg/sg10_18_cif.got.tgz:34311.got - 2010.06.03 11:33:40.
