data_PCOD9150830
_publ_section_title
;
Structure prediction by ZEFSAII (Michael W. Deem and Ramdas Pophale) SiO2 
 PCOD9150830
Probable space group: P 2/M
;
_chemical_formula_sum "Si O2"
_cell_formula_units_Z 28
_cell_length_a 15.879252
_cell_length_b 19.483237
_cell_length_c 9.189359
_cell_angle_alpha 90.000000
_cell_angle_beta 29.780941
_cell_angle_gamma 90.000000
_cell_volume 1412.074662
_symmetry_space_group_name_H-M "P 2/M"
_symmetry_group_IT_number 10
_symmetry_cell_setting 'monoclinic'
loop_
_space_group_symop_operation_xyz
x,y,z
-x,y,-z
-x,-y,-z
x,-y,z
loop_
_atom_site_type_symbol
_atom_site_label
_atom_site_fract_x
_atom_site_fract_y
_atom_site_fract_z
Si Si1 0.955115 0.923357 0.233454
Si Si2 0.182672 0.923480 0.147925
Si Si3 0.738180 0.213836 0.527673
Si Si4 0.512613 0.578241 0.305033
Si Si5 0.357310 0.207423 0.007715
Si Si6 0.827446 0.671761 0.854396
Si Si7 0.832306 0.341923 0.195229
O O1 0.830060 0.858787 0.419077
O O2 0.124700 0.906456 0.070875
O O3 0.894859 0.000000 0.375973
O O4 0.000000 0.931127 0.000000
O O5 0.293282 0.868034 0.063587
O O6 0.000000 0.923247 0.500000
O O7 0.255684 0.000000 0.042377
O O8 0.706132 0.237000 0.741874
O O9 0.827672 0.270795 0.294295
O O10 0.558163 0.204261 0.719371
O O11 0.500000 0.577293 0.500000
O O12 0.507681 0.500000 0.259666
O O13 0.347179 0.620892 0.504299
O O14 0.691835 0.614674 0.004196
O O15 0.273865 0.257259 0.015819
O O16 0.000000 0.671167 0.500000
O O17 0.853424 0.665251 0.989167
O O18 0.000000 0.380579 0.000000
#
# Coordination Sequence:
#
# PCOD9150830 Si02
#       7
#     4   4   4   4   4   4   4
#     4  10  22  39  57  82 117 160 208 260 314 369
#     4  10  20  37  58  82 116 159 208 255 312 374
#     4  11  23  38  58  86 123 160 204 263 313 372
#     4   9  20  42  67  94 131 169 205 249 306 370
#     4  11  23  37  58  88 121 159 207 262 315 363
#     4  11  23  40  65  95 127 165 210 257 305 371
#     4  11  23  40  64  95 127 167 209 252 311 370
#
# _framework density 19.828979
#
# number of rings (size 3 to 8) (size 9 to 14) (size 15 to 20)
#    0.000    1.571    2.857    1.714    4.000    1.143 
#    0.000    1.429    0.000    8.571    0.000    0.000 
#    0.000    0.000    0.000    0.000    0.000    0.000 
#
# Total GULP energy -156085.118541 kJ/mol
# GULP energy per Si atom -5574.468519 kJ/mol
# Density = 1.978385 g / cm^3
# Si number density = 19.828979 Si / 1000 Ang^3
#
#
#
# Elastic Constant Matrix: (Units=GPa)
#
#
# Indices 1 2 3 4 5 6 
#
# 1 105.3469 29.4141 27.7001 0.0000 -16.0631 0.0000
# 2 29.4141 106.0557 31.6387 0.0000 -21.9003 0.0000
# 3 27.7001 31.6387 41.4534 0.0000 -22.3567 0.0000
# 4 0.0000 0.0000 0.0000 19.5075 0.0000 -0.6716
# 5 -16.0631 -21.9003 -22.3567 0.0000 29.0251 0.0000
# 6 0.0000 0.0000 0.0000 -0.6716 0.0000 4.6340
#
#
#
# Elastic Compliance Matrix: (Units=1/GPa)
#
#
# Indices 1 2 3 4 5 6 
#
# 1 0.011631 -0.001149 -0.006657 0.000000 0.000443 0.000000
# 2 -0.001149 0.012531 -0.006911 0.000000 0.003496 0.000000
# 3 -0.006657 -0.006911 0.049689 0.000000 0.029374 0.000000
# 4 0.000000 0.000000 0.000000 0.051519 0.000000 0.007466
# 5 0.000443 0.003496 0.029374 0.000000 0.059962 0.000000
# 6 0.000000 0.000000 0.000000 0.007466 0.000000 0.216879
#
#
# Mechanical properties :
#
#
# Convention : Reuss Voigt Hill
#
# Bulk Modulus (GPa) = 22.51333 47.81797 35.16565
# Shear Modulus (GPa) = 11.19946 21.57353 16.38650
#
# Velocity S-wave (km/s) = 2.37914 3.30203 2.87782
# Velocity P-wave (km/s) = 4.35034 6.22137 5.36800
#
# Compressibility (1/GPa) = 0.04441813
#
# Stress axis : x y z
#
# Youngs Moduli (GPa) = 85.97740 79.80034 20.12531
#
# Poissons Ratio (x) = 0.09165 0.13397
# Poissons Ratio (y) = 0.09875 0.13909
# Poissons Ratio (z) = 0.57231 0.55152
#
# Static dielectric constant tensor:
#      x y z
#    x 1.742710 0.000000 -0.007890 
#    y 0.000000 1.748600 0.000000 
#    z -0.007890 0.000000 1.738270 
# 
# From -- ./inp_files/30384.got.cif
#   From: 2010.05.17/outbox.cif.g08.bks.cpg/sg10_16_cif.got.tgz:30384.got - 2010.06.03 11:33:40.
