data_PCOD9150401
_publ_section_title
;
Structure prediction by ZEFSAII (Michael W. Deem and Ramdas Pophale) SiO2 
 PCOD9150401
Probable space group: P 2/M
;
_chemical_formula_sum "Si O2"
_cell_formula_units_Z 24
_cell_length_a 10.301956
_cell_length_b 9.130068
_cell_length_c 14.280649
_cell_angle_alpha 90.000000
_cell_angle_beta 89.985358
_cell_angle_gamma 90.000000
_cell_volume 1343.202939
_symmetry_space_group_name_H-M "P 2/M"
_symmetry_group_IT_number 10
_symmetry_cell_setting 'monoclinic'
loop_
_space_group_symop_operation_xyz
x,y,z
-x,y,-z
-x,-y,-z
x,-y,z
loop_
_atom_site_type_symbol
_atom_site_label
_atom_site_fract_x
_atom_site_fract_y
_atom_site_fract_z
Si Si1 0.877265 0.330215 0.568953
Si Si2 0.639597 0.823921 0.044394
Si Si3 0.021528 0.825108 0.249389
Si Si4 0.629923 0.676319 0.444182
Si Si5 0.715648 0.823907 0.254422
Si Si6 0.126753 0.671207 0.065483
O O1 0.859713 0.500000 0.598990
O O2 0.908881 0.230592 0.657188
O O3 0.752228 0.284488 0.509491
O O4 0.000000 0.325139 0.500000
O O5 0.653192 0.784137 0.154166
O O6 0.657689 0.000000 0.038257
O O7 0.500000 0.788348 0.000000
O O8 0.752971 0.745672 0.986813
O O9 0.090902 0.751894 0.161216
O O10 0.868673 0.782442 0.252539
O O11 0.027110 0.000000 0.241562
O O12 0.500000 0.717280 0.500000
O O13 0.630833 0.500000 0.432036
O O14 0.647528 0.749814 0.343198
O O15 0.708715 0.000000 0.264370
O O16 0.153033 0.500000 0.082149
O O17 0.000000 0.683167 0.000000
#
# Coordination Sequence:
#
# PCOD9150401 Si02
#       6
#     4   4   4   4   4   4
#     4  10  20  36  58  84 114 148 191 239 286 343
#     4  10  22  41  63  88 122 159 198 245 299 354
#     4  11  22  36  60  89 118 153 197 246 295 346
#     4  10  22  39  59  84 116 154 191 235 292 349
#     4  10  21  37  59  86 115 152 194 240 294 350
#     4  11  23  38  60  89 119 155 200 245 293 349
#
# _framework density 17.867739
#
# number of rings (size 3 to 8) (size 9 to 14) (size 15 to 20)
#    0.000    1.667    3.333    1.000    0.000    5.000 
#    0.000    3.333    0.000    0.000    0.000    0.000 
#    0.000    0.000    0.000    0.000    0.000    0.000 
#
# Total GULP energy -134056.668366 kJ/mol
# GULP energy per Si atom -5585.694515 kJ/mol
# Density = 1.782707 g / cm^3
# Si number density = 17.867739 Si / 1000 Ang^3
#
#
#
# Elastic Constant Matrix: (Units=GPa)
#
#
# Indices 1 2 3 4 5 6 
#
# 1 149.0566 54.0620 91.9768 0.0000 -5.4600 0.0000
# 2 54.0620 53.3326 69.8970 0.0000 -5.8824 0.0000
# 3 91.9768 69.8970 180.0250 0.0000 -10.2164 0.0000
# 4 0.0000 0.0000 0.0000 34.5192 0.0000 -23.8087
# 5 -5.4600 -5.8824 -10.2164 0.0000 28.0305 0.0000
# 6 0.0000 0.0000 0.0000 -23.8087 0.0000 17.4472
#
#
#
# Elastic Compliance Matrix: (Units=1/GPa)
#
#
# Indices 1 2 3 4 5 6 
#
# 1 0.011215 -0.007890 -0.002692 0.000000 -0.000452 0.000000
# 2 -0.007890 0.043923 -0.012853 0.000000 0.002996 0.000000
# 3 -0.002692 -0.012853 0.011986 0.000000 0.001147 0.000000
# 4 0.000000 0.000000 0.000000 0.492728 0.000000 0.672384
# 5 -0.000452 0.002996 0.001147 0.000000 0.036634 0.000000
# 6 0.000000 0.000000 0.000000 0.672384 0.000000 0.974860
#
#
# Mechanical properties :
#
#
# Convention : Reuss Voigt Hill
#
# Bulk Modulus (GPa) = 49.37268 90.47619 69.92444
# Shear Modulus (GPa) = 3.07699 27.09794 15.08746
#
# Velocity S-wave (km/s) = 1.31371 3.89856 2.90900
# Velocity P-wave (km/s) = 5.47662 8.42684 7.10651
#
# Compressibility (1/GPa) = 0.02025412
#
# Stress axis : x y z
#
# Youngs Moduli (GPa) = 89.16422 22.76707 83.43413
#
# Poissons Ratio (x) = 0.17964 0.22462
# Poissons Ratio (y) = 0.70352 1.07234
# Poissons Ratio (z) = 0.24005 0.29261
#
# Static dielectric constant tensor:
#      x y z
#    x 1.592270 0.000000 0.016500 
#    y 0.000000 1.600730 0.000000 
#    z 0.016500 0.000000 1.587420 
# 
# From -- ./inp_files/60280.got.cif
#   From: 2010.05.17/outbox.cif.g08.bks.cpg/sg10_31_cif.got.tgz:60280.got - 2010.06.03 11:33:40.
