data_PCOD9150252
_publ_section_title
;
Structure prediction by ZEFSAII (Michael W. Deem and Ramdas Pophale) SiO2 
 PCOD9150252
Probable space group: P 2/M
;
_chemical_formula_sum "Si O2"
_cell_formula_units_Z 30
_cell_length_a 11.457150
_cell_length_b 18.825159
_cell_length_c 11.070668
_cell_angle_alpha 90.000000
_cell_angle_beta 141.633589
_cell_angle_gamma 90.000000
_cell_volume 1482.049119
_symmetry_space_group_name_H-M "P 2/M"
_symmetry_group_IT_number 10
_symmetry_cell_setting 'monoclinic'
loop_
_space_group_symop_operation_xyz
x,y,z
-x,y,-z
-x,-y,-z
x,-y,z
loop_
_atom_site_type_symbol
_atom_site_label
_atom_site_fract_x
_atom_site_fract_y
_atom_site_fract_z
Si Si1 0.195079 0.580157 0.819698
Si Si2 0.230285 0.188632 0.048330
Si Si3 0.000000 0.690310 0.000000
Si Si4 0.156822 0.658169 0.362601
Si Si5 0.725010 0.918041 0.698340
Si Si6 0.885775 0.822165 0.617435
Si Si7 0.596632 0.626284 0.237050
Si Si8 0.400969 0.792438 0.796510
O O1 0.140100 0.500000 0.806865
O O2 0.266281 0.582572 0.739417
O O3 0.026288 0.633374 0.710969
O O4 0.382864 0.603560 0.043954
O O5 0.142322 0.257822 0.042522
O O6 0.107645 0.177190 0.826876
O O7 0.216872 0.125563 0.134893
O O8 0.444203 0.197648 0.182934
O O9 0.113736 0.644630 0.188716
O O10 0.177594 0.743266 0.391436
O O11 0.333941 0.622886 0.569990
O O12 0.500000 0.915117 0.500000
O O13 0.807303 0.879609 0.647375
O O14 0.782465 0.000000 0.753046
O O15 0.790799 0.827939 0.408693
O O16 0.626621 0.707533 0.216445
O O17 0.500000 0.817882 0.000000
#
# Coordination Sequence:
#
# PCOD9150252 Si02
#       8
#     4   4   2   4   4   4   4   4
#     4  11  22  38  59  85 118 152 201 257 305 358
#     4  11  20  37  58  87 126 154 199 250 302 351
#     4  10  20  36  60  88 116 162 194 250 296 362
#     4  10  21  36  57  85 119 154 195 248 302 353
#     4  11  21  37  64  95 127 161 202 253 308 355
#     4  10  21  36  58  91 119 160 199 251 299 357
#     4  10  20  36  56  86 113 154 200 250 300 354
#     4  11  22  36  58  86 124 156 202 256 301 351
#
# _framework density 20.242243999999999
#
# number of rings (size 3 to 8) (size 9 to 14) (size 15 to 20)
#    0.000    1.467    5.333    2.800    0.000    3.200 
#    0.000    2.333    0.000    2.400    0.000    1.867 
#    0.000    0.000    0.000    0.000    0.000    0.000 
#
# Total GULP energy -167437.106362 kJ/mol
# GULP energy per Si atom -5581.236879 kJ/mol
# Density = 2.019617 g / cm^3
# Si number density = 20.242244 Si / 1000 Ang^3
#
#
#
# Elastic Constant Matrix: (Units=GPa)
#
#
# Indices 1 2 3 4 5 6 
#
# 1 33.3487 12.0896 15.4689 0.0000 1.0350 0.0000
# 2 12.0896 64.6949 16.2884 0.0000 -6.4354 0.0000
# 3 15.4689 16.2884 154.5202 0.0000 -34.9075 0.0000
# 4 0.0000 0.0000 0.0000 6.0379 0.0000 -4.8469
# 5 1.0350 -6.4354 -34.9075 0.0000 37.2921 0.0000
# 6 0.0000 0.0000 0.0000 -4.8469 0.0000 36.0493
#
#
#
# Elastic Compliance Matrix: (Units=1/GPa)
#
#
# Indices 1 2 3 4 5 6 
#
# 1 0.034230 -0.005940 -0.004117 0.000000 -0.005829 0.000000
# 2 -0.005940 0.016975 -0.000629 0.000000 0.002506 0.000000
# 3 -0.004117 -0.000629 0.008816 0.000000 0.008258 0.000000
# 4 0.000000 0.000000 0.000000 0.185660 0.000000 0.024962
# 5 -0.005829 0.002506 0.008258 0.000000 0.035139 0.000000
# 6 0.000000 0.000000 0.000000 0.024962 0.000000 0.031096
#
#
# Mechanical properties :
#
#
# Convention : Reuss Voigt Hill
#
# Bulk Modulus (GPa) = 25.87418 37.80640 31.84029
# Shear Modulus (GPa) = 14.44376 29.79031 22.11704
#
# Velocity S-wave (km/s) = 2.67413 3.84042 3.30906
# Velocity P-wave (km/s) = 4.72701 6.19537 5.51032
#
# Compressibility (1/GPa) = 0.03864857
#
# Stress axis : x y z
#
# Youngs Moduli (GPa) = 29.21392 58.91130 113.43529
#
# Poissons Ratio (x) = 0.34992 0.46707
# Poissons Ratio (y) = 0.17352 0.07131
# Poissons Ratio (z) = 0.12029 0.03704
#
# Static dielectric constant tensor:
#      x y z
#    x 1.709030 0.000000 -0.018480 
#    y 0.000000 1.687420 0.000000 
#    z -0.018480 0.000000 1.803940 
# 
# From -- ./inp_files/47918.got.cif
#   From: 2010.05.17/outbox.cif.g08.bks.cpg/sg10_24_cif.got.tgz:47918.got - 2010.06.03 11:33:40.
