data_PCOD9150773
_publ_section_title
;
Structure prediction by ZEFSAII (Michael W. Deem and Ramdas Pophale) SiO2 
 PCOD9150773
Probable space group: P 2/M
;
_chemical_formula_sum "Si O2"
_cell_formula_units_Z 30
_cell_length_a 21.183150
_cell_length_b 7.605232
_cell_length_c 14.713095
_cell_angle_alpha 90.000000
_cell_angle_beta 36.691773
_cell_angle_gamma 90.000000
_cell_volume 1416.290156
_symmetry_space_group_name_H-M "P 2/M"
_symmetry_group_IT_number 10
_symmetry_cell_setting 'monoclinic'
loop_
_space_group_symop_operation_xyz
x,y,z
-x,y,-z
-x,-y,-z
x,-y,z
loop_
_atom_site_type_symbol
_atom_site_label
_atom_site_fract_x
_atom_site_fract_y
_atom_site_fract_z
Si Si1 0.408618 0.298594 0.813477
Si Si2 0.157512 0.795718 0.616923
Si Si3 0.128152 0.711100 0.249519
Si Si4 0.122078 0.709570 0.460088
Si Si5 0.643417 0.202836 0.505211
Si Si6 0.710168 0.703548 0.229711
Si Si7 0.282174 0.000000 0.020528
Si Si8 0.046185 0.788326 0.046894
O O1 0.375493 0.500000 0.869218
O O2 0.533142 0.295052 0.651973
O O3 0.350768 0.227583 0.788358
O O4 0.371398 0.157454 0.929428
O O5 0.173235 0.784895 0.491328
O O6 0.256328 0.718442 0.557005
O O7 0.043009 0.723839 0.779310
O O8 0.153098 0.000000 0.650400
O O9 0.142757 0.500000 0.219189
O O10 0.160942 0.763352 0.315401
O O11 0.003113 0.746453 0.389505
O O12 0.191435 0.843200 0.113718
O O13 0.133439 0.500000 0.450143
O O14 0.672991 0.207058 0.365027
O O15 0.629783 0.000000 0.549037
O O16 0.679429 0.500000 0.272967
O O17 0.836514 0.715911 0.075227
O O18 0.057500 0.000000 0.039331
O O19 0.000000 0.746849 0.000000
#
# Coordination Sequence:
#
# PCOD9150773 Si02
#       8
#     4   4   4   4   4   4   2   4
#     4  11  26  43  61  93 123 156 217 266 302 368
#     4  10  22  35  60  91 122 161 211 259 294 372
#     4   9  21  40  63  96 132 160 200 250 300 384
#     4   9  20  38  60  93 132 165 199 246 306 366
#     4  11  22  42  63  85 118 167 217 259 307 355
#     4  11  24  38  58  87 122 162 206 260 306 359
#     4  12  24  39  67  91 119 169 195 250 332 359
#     4  10  20  37  55  83 123 161 200 245 302 363
#
# _framework density 21.182100999999999
#
# number of rings (size 3 to 8) (size 9 to 14) (size 15 to 20)
#    0.000    1.733    2.000    2.400    5.600    4.000 
#    0.000    0.000    0.000    1.600    0.000    2.800 
#    0.000    0.000    0.000    0.000    0.000    0.000 
#
# Total GULP energy -167074.304538 kJ/mol
# GULP energy per Si atom -5569.143485 kJ/mol
# Density = 2.113389 g / cm^3
# Si number density = 21.182101 Si / 1000 Ang^3
#
#
#
# Elastic Constant Matrix: (Units=GPa)
#
#
# Indices 1 2 3 4 5 6 
#
# 1 18.5324 3.3926 8.0503 0.0000 4.1021 0.0000
# 2 3.3926 84.3382 17.4884 0.0000 -2.5304 0.0000
# 3 8.0503 17.4884 48.7509 0.0000 -18.7167 0.0000
# 4 0.0000 0.0000 0.0000 115.0835 0.0000 -20.5960
# 5 4.1021 -2.5304 -18.7167 0.0000 29.8617 0.0000
# 6 0.0000 0.0000 0.0000 -20.5960 0.0000 23.7384
#
#
#
# Elastic Compliance Matrix: (Units=1/GPa)
#
#
# Indices 1 2 3 4 5 6 
#
# 1 0.067057 0.000713 -0.019546 0.000000 -0.021402 0.000000
# 2 0.000713 0.012945 -0.005766 0.000000 -0.002615 0.000000
# 3 -0.019546 -0.005766 0.035097 0.000000 0.024195 0.000000
# 4 0.000000 0.000000 0.000000 0.010287 0.000000 0.008925
# 5 -0.021402 -0.002615 0.024195 0.000000 0.051371 0.000000
# 6 0.000000 0.000000 0.000000 0.008925 0.000000 0.049869
#
#
# Mechanical properties :
#
#
# Convention : Reuss Voigt Hill
#
# Bulk Modulus (GPa) = 15.17371 23.27601 19.22486
# Shear Modulus (GPa) = 16.79034 41.91604 29.35319
#
# Velocity S-wave (km/s) = 2.81849 4.45324 3.72661
# Velocity P-wave (km/s) = 4.21555 6.11999 5.25476
#
# Compressibility (1/GPa) = 0.06590347
#
# Stress axis : x y z
#
# Youngs Moduli (GPa) = 14.91274 77.24727 28.49217
#
# Poissons Ratio (x) = -0.05511 0.55690
# Poissons Ratio (y) = -0.01064 0.16428
# Poissons Ratio (z) = 0.29148 0.44538
#
# Static dielectric constant tensor:
#      x y z
#    x 1.792740 0.000000 0.030290 
#    y 0.000000 1.769760 0.000000 
#    z 0.030290 0.000000 1.813100 
# 
# From -- ./inp_files/69742.got.cif
#   From: 2010.05.17/outbox.cif.g08.bks.cpg/sg10_35_cif.got.tgz:69742.got - 2010.06.03 11:33:40.
