data_PCOD9150795
_publ_section_title
;
Structure prediction by ZEFSAII (Michael W. Deem and Ramdas Pophale) SiO2 
 PCOD9150795
Probable space group: P 2/M
;
_chemical_formula_sum "Si O2"
_cell_formula_units_Z 32
_cell_length_a 23.377132
_cell_length_b 7.469865
_cell_length_c 14.570359
_cell_angle_alpha 90.000000
_cell_angle_beta 147.144403
_cell_angle_gamma 90.000000
_cell_volume 1380.361600
_symmetry_space_group_name_H-M "P 2/M"
_symmetry_group_IT_number 10
_symmetry_cell_setting 'monoclinic'
loop_
_space_group_symop_operation_xyz
x,y,z
-x,y,-z
-x,-y,-z
x,-y,z
loop_
_atom_site_type_symbol
_atom_site_label
_atom_site_fract_x
_atom_site_fract_y
_atom_site_fract_z
Si Si1 0.517335 0.282014 0.778955
Si Si2 0.991610 0.219684 0.383112
Si Si3 0.277893 0.293540 0.451237
Si Si4 0.393555 0.716587 0.909874
Si Si5 0.826298 0.790192 0.018020
Si Si6 0.596803 0.794140 0.686292
Si Si7 0.184540 0.795088 0.518113
Si Si8 0.101545 0.283050 0.079813
O O1 0.518557 0.500000 0.779448
O O2 0.395527 0.220404 0.624708
O O3 0.563285 0.211220 0.746669
O O4 0.587766 0.227428 0.960428
O O5 0.089765 0.279062 0.452198
O O6 0.000000 0.276945 0.500000
O O7 0.886218 0.280007 0.188164
O O8 0.993016 0.000000 0.385595
O O9 0.294799 0.500000 0.448712
O O10 0.213001 0.289810 0.458732
O O11 0.206225 0.215689 0.273622
O O12 0.386489 0.500000 0.896046
O O13 0.289975 0.787975 0.721525
O O14 0.500000 0.767833 0.000000
O O15 0.807653 0.000000 0.011293
O O16 0.712887 0.710625 0.838553
O O17 0.898911 0.773454 0.026259
O O18 0.500000 0.710182 0.500000
O O19 0.605978 0.000000 0.664868
O O20 0.157832 0.000000 0.460828
O O21 0.102149 0.500000 0.082366
O O22 0.000000 0.223486 0.000000
#
# Coordination Sequence:
#
# PCOD9150795 Si02
#       8
#     4   4   4   4   4   4   4   4
#     4  10  21  36  57  81 106 149 194 221 268 341
#     4   9  20  38  57  79 110 150 192 229 276 340
#     4  10  20  37  57  79 114 153 181 220 284 344
#     4  10  20  38  58  79 115 154 184 223 281 345
#     4  10  21  38  60  82 112 154 189 228 286 340
#     4  10  22  38  57  85 118 148 183 234 289 330
#     4  11  22  34  57  87 111 142 191 240 279 323
#     4  10  21  36  58  86 113 144 184 233 284 331
#
# _framework density 23.18233
#
# number of rings (size 3 to 8) (size 9 to 14) (size 15 to 20)
#    0.000    2.000    1.250    1.875    1.750    2.750 
#    0.000    0.625    0.000    1.875    0.000    0.000 
#    0.000    0.000    0.000    0.000    0.000    0.000 
#
# Total GULP energy -178882.722078 kJ/mol
# GULP energy per Si atom -5590.085065 kJ/mol
# Density = 2.312957 g / cm^3
# Si number density = 23.182330 Si / 1000 Ang^3
#
#
#
# Elastic Constant Matrix: (Units=GPa)
#
#
# Indices 1 2 3 4 5 6 
#
# 1 96.0800 -15.2772 34.0775 0.0000 -7.1175 0.0000
# 2 -15.2772 66.1691 0.5764 0.0000 4.0647 0.0000
# 3 34.0775 0.5764 137.2363 0.0000 -14.4069 0.0000
# 4 0.0000 0.0000 0.0000 17.8666 0.0000 9.8857
# 5 -7.1175 4.0647 -14.4069 0.0000 45.0674 0.0000
# 6 0.0000 0.0000 0.0000 9.8857 0.0000 30.6973
#
#
#
# Elastic Compliance Matrix: (Units=1/GPa)
#
#
# Indices 1 2 3 4 5 6 
#
# 1 0.011923 0.002734 -0.002898 0.000000 0.000710 0.000000
# 2 0.002734 0.015830 -0.000880 0.000000 -0.001277 0.000000
# 3 -0.002898 -0.000880 0.008247 0.000000 0.002258 0.000000
# 4 0.000000 0.000000 0.000000 0.068106 0.000000 -0.021933
# 5 0.000710 -0.001277 0.002258 0.000000 0.023138 0.000000
# 6 0.000000 0.000000 0.000000 -0.021933 0.000000 0.039639
#
#
# Mechanical properties :
#
#
# Convention : Reuss Voigt Hill
#
# Bulk Modulus (GPa) = 29.48559 37.58209 33.53384
# Shear Modulus (GPa) = 27.73552 37.40017 32.56785
#
# Velocity S-wave (km/s) = 3.46267 4.02095 3.75221
# Velocity P-wave (km/s) = 5.36035 6.14851 5.76791
#
# Compressibility (1/GPa) = 0.03391487
#
# Stress axis : x y z
#
# Youngs Moduli (GPa) = 83.87079 63.17026 121.25689
#
# Poissons Ratio (x) = -0.17274 0.35135
# Poissons Ratio (y) = -0.22934 0.10665
# Poissons Ratio (z) = 0.24302 0.05556
#
# Static dielectric constant tensor:
#      x y z
#    x 1.818200 0.000000 0.017210 
#    y 0.000000 1.921530 0.000000 
#    z 0.017210 0.000000 1.877500 
# 
# From -- ./inp_files/71427.got.cif
#   From: 2010.05.17/outbox.cif.g08.bks.cpg/sg10_36_cif.got.tgz:71427.got - 2010.06.03 11:33:40.
