data_PCOD9150659
_publ_section_title
;
Structure prediction by ZEFSAII (Michael W. Deem and Ramdas Pophale) SiO2 
 PCOD9150659
Probable space group: P 2/M
;
_chemical_formula_sum "Si O2"
_cell_formula_units_Z 26
_cell_length_a 7.312174
_cell_length_b 9.629176
_cell_length_c 21.832346
_cell_angle_alpha 90.000000
_cell_angle_beta 46.476301
_cell_angle_gamma 90.000000
_cell_volume 1114.622271
_symmetry_space_group_name_H-M "P 2/M"
_symmetry_group_IT_number 10
_symmetry_cell_setting 'monoclinic'
loop_
_space_group_symop_operation_xyz
x,y,z
-x,y,-z
-x,-y,-z
x,-y,z
loop_
_atom_site_type_symbol
_atom_site_label
_atom_site_fract_x
_atom_site_fract_y
_atom_site_fract_z
Si Si1 0.863554 0.842845 0.466127
Si Si2 0.720019 0.150921 0.829218
Si Si3 0.097313 0.655913 0.310657
Si Si4 0.268699 0.157200 0.768071
Si Si5 0.458100 0.656901 0.620537
Si Si6 0.500000 0.261088 0.000000
Si Si7 0.035396 0.345292 0.919633
O O1 0.040362 0.762542 0.378004
O O2 0.620821 0.748859 0.536565
O O3 0.000000 0.851382 0.500000
O O4 0.805591 0.000000 0.458670
O O5 0.541701 0.174064 0.928543
O O6 0.716349 0.274833 0.781523
O O7 0.002620 0.149140 0.792509
O O8 0.673801 0.000000 0.811492
O O9 0.170079 0.500000 0.312370
O O10 0.825036 0.646238 0.339921
O O11 0.437842 0.261146 0.689173
O O12 0.194770 0.226706 0.849328
O O13 0.368499 0.000000 0.748645
O O14 0.559959 0.500000 0.602598
O O15 0.758485 0.342958 0.951925
O O16 0.144384 0.500000 0.885337
O O17 0.000000 0.322023 0.000000
#
# Coordination Sequence:
#
# PCOD9150659 Si02
#       7
#     4   4   4   4   4   2   4
#     4  11  24  40  57  81 115 153 193 238 290 347
#     4   9  18  34  58  86 116 150 191 238 288 344
#     4  10  21  37  59  88 116 147 193 240 289 351
#     4   9  18  34  57  84 114 148 189 236 285 342
#     4  10  20  36  61  88 113 147 189 236 289 348
#     4  10  20  36  62  88 116 158 200 246 300 354
#     4  10  21  37  57  84 117 153 197 246 298 356
#
# _framework density 23.32629
#
# number of rings (size 3 to 8) (size 9 to 14) (size 15 to 20)
#    0.000    2.154    0.000    2.769    0.000   10.154 
#    2.769    0.000    0.000    0.000    0.000    0.000 
#    0.000    0.000    0.000    0.000    0.000    0.000 
#
# Total GULP energy -145416.513302 kJ/mol
# GULP energy per Si atom -5592.942819 kJ/mol
# Density = 2.327320 g / cm^3
# Si number density = 23.326290 Si / 1000 Ang^3
#
#
#
# Elastic Constant Matrix: (Units=GPa)
#
#
# Indices 1 2 3 4 5 6 
#
# 1 64.0679 19.8314 4.0623 0.0000 -3.4407 0.0000
# 2 19.8314 226.4128 84.5005 0.0000 18.0662 0.0000
# 3 4.0623 84.5005 123.7169 0.0000 18.9868 0.0000
# 4 0.0000 0.0000 0.0000 9.5961 0.0000 11.3214
# 5 -3.4407 18.0662 18.9868 0.0000 29.8812 0.0000
# 6 0.0000 0.0000 0.0000 11.3214 0.0000 15.1799
#
#
#
# Elastic Compliance Matrix: (Units=1/GPa)
#
#
# Indices 1 2 3 4 5 6 
#
# 1 0.016279 -0.001730 0.000220 0.000000 0.002780 0.000000
# 2 -0.001730 0.006146 -0.003922 0.000000 -0.001423 0.000000
# 3 0.000220 -0.003922 0.011509 0.000000 -0.004916 0.000000
# 4 0.000000 0.000000 0.000000 0.867690 0.000000 -0.647135
# 5 0.002780 -0.001423 -0.004916 0.000000 0.037770 0.000000
# 6 0.000000 0.000000 0.000000 -0.647135 0.000000 0.548519
#
#
# Mechanical properties :
#
#
# Convention : Reuss Voigt Hill
#
# Bulk Modulus (GPa) = 43.34613 70.10956 56.72785
# Shear Modulus (GPa) = 3.31902 31.31834 17.31868
#
# Velocity S-wave (km/s) = 1.19413 3.66815 2.72776
# Velocity P-wave (km/s) = 4.53036 6.93266 5.85602
#
# Compressibility (1/GPa) = 0.02307011
#
# Stress axis : x y z
#
# Youngs Moduli (GPa) = 61.42771 162.71614 86.88597
#
# Poissons Ratio (x) = 0.28150 -0.01915
# Poissons Ratio (y) = 0.10627 0.34081
# Poissons Ratio (z) = -0.01354 0.63825
#
# Static dielectric constant tensor:
#      x y z
#    x 1.923810 0.000000 -0.007840 
#    y 0.000000 1.861030 0.000000 
#    z -0.007840 0.000000 1.836210 
# 
# From -- ./inp_files/34278.got.cif
#   From: 2010.05.17/outbox.cif.g08.bks.cpg/sg10_18_cif.got.tgz:34278.got - 2010.06.03 11:33:40.
