data_PCOD9150503
_publ_section_title
;
Structure prediction by ZEFSAII (Michael W. Deem and Ramdas Pophale) SiO2 
 PCOD9150503
Probable space group: P 2/M
;
_chemical_formula_sum "Si O2"
_cell_formula_units_Z 28
_cell_length_a 28.882051
_cell_length_b 8.428533
_cell_length_c 8.262967
_cell_angle_alpha 90.000000
_cell_angle_beta 44.421339
_cell_angle_gamma 90.000000
_cell_volume 1407.895006
_symmetry_space_group_name_H-M "P 2/M"
_symmetry_group_IT_number 10
_symmetry_cell_setting 'monoclinic'
loop_
_space_group_symop_operation_xyz
x,y,z
-x,y,-z
-x,-y,-z
x,-y,z
loop_
_atom_site_type_symbol
_atom_site_label
_atom_site_fract_x
_atom_site_fract_y
_atom_site_fract_z
Si Si1 0.934370 0.177973 0.556854
Si Si2 0.342262 0.691806 0.577150
Si Si3 0.346222 0.188485 0.199663
Si Si4 0.195189 0.813937 0.603192
Si Si5 0.068636 0.680874 0.761290
Si Si6 0.809025 0.315606 0.038482
Si Si7 0.576181 0.691650 0.309100
O O1 0.939075 0.310598 0.410057
O O2 0.866566 0.210344 0.819761
O O3 0.000000 0.186542 0.500000
O O4 0.932571 0.000000 0.490324
O O5 0.344423 0.500000 0.564134
O O6 0.358829 0.750902 0.353088
O O7 0.387646 0.745256 0.614628
O O8 0.266301 0.737143 0.808081
O O9 0.268652 0.222190 0.355684
O O10 0.355435 0.000000 0.179391
O O11 0.388975 0.257317 0.945416
O O12 0.134356 0.776748 0.639502
O O13 0.194620 0.000000 0.650893
O O14 0.184655 0.705085 0.785351
O O15 0.075242 0.500000 0.803604
O O16 0.000000 0.749513 0.000000
O O17 0.816402 0.500000 0.972790
O O18 0.500000 0.744786 0.500000
O O19 0.577387 0.500000 0.309647
#
# Coordination Sequence:
#
# PCOD9150503 Si02
#       7
#     4   4   4   4   4   4   4
#     4  11  24  39  56  80 113 153 192 237 293 353
#     4   9  20  39  62  89 120 160 204 249 303 361
#     4  10  22  39  61  91 124 161 201 250 308 364
#     4  10  21  38  59  85 115 151 192 238 298 360
#     4  11  24  39  57  82 112 149 193 243 293 346
#     4  10  20  36  59  86 113 147 193 245 295 348
#     4  10  22  40  63  91 124 163 207 254 303 363
#
# _framework density 19.887847000000001
#
# number of rings (size 3 to 8) (size 9 to 14) (size 15 to 20)
#    0.000    1.857    0.000    3.000    2.000    8.286 
#    0.000    2.857    0.000    0.000    0.000    0.000 
#    0.000    0.000    0.000    0.000    0.000    0.000 
#
# Total GULP energy -156213.199595 kJ/mol
# GULP energy per Si atom -5579.042843 kJ/mol
# Density = 1.984258 g / cm^3
# Si number density = 19.887847 Si / 1000 Ang^3
#
#
#
# Elastic Constant Matrix: (Units=GPa)
#
#
# Indices 1 2 3 4 5 6 
#
# 1 141.5732 27.0263 72.2917 0.0000 -13.7236 0.0000
# 2 27.0263 34.4230 27.5104 0.0000 -8.9577 0.0000
# 3 72.2917 27.5104 147.6313 0.0000 -1.8775 0.0000
# 4 0.0000 0.0000 0.0000 0.9769 0.0000 -8.8634
# 5 -13.7236 -8.9577 -1.8775 0.0000 14.5360 0.0000
# 6 0.0000 0.0000 0.0000 -8.8634 0.0000 22.2533
#
#
#
# Elastic Compliance Matrix: (Units=1/GPa)
#
#
# Indices 1 2 3 4 5 6 
#
# 1 0.010706 -0.002638 -0.004651 0.000000 0.007881 0.000000
# 2 -0.002638 0.041988 -0.006245 0.000000 0.022578 0.000000
# 3 -0.004651 -0.006245 0.010127 0.000000 -0.006931 0.000000
# 4 0.000000 0.000000 0.000000 -0.391641 0.000000 -0.155988
# 5 0.007881 0.022578 -0.006931 0.000000 0.089254 0.000000
# 6 0.000000 0.000000 0.000000 -0.155988 0.000000 -0.017192
#
#
# Mechanical properties :
#
#
# Convention : Reuss Voigt Hill
#
# Bulk Modulus (GPa) = 27.97004 64.14271 46.05637
# Shear Modulus (GPa) = -22.95960 20.67318 -1.14321
#
# Velocity S-wave (km/s) = -3.40141 3.22761 -0.75900
# Velocity P-wave (km/s) = 1.15400 6.79795 4.73711
#
# Compressibility (1/GPa) = 0.03575254
#
# Stress axis : x y z
#
# Youngs Moduli (GPa) = 93.40771 23.81645 98.74997
#
# Poissons Ratio (x) = 0.06282 0.45925
# Poissons Ratio (y) = 0.24638 0.61674
# Poissons Ratio (z) = 0.43440 0.14874
#
# Static dielectric constant tensor:
#      x y z
#    x 1.693810 0.000000 -0.054320 
#    y 0.000000 1.671380 0.000000 
#    z -0.054320 0.000000 1.818670 
# 
# From -- ./inp_files/37110.got.cif
#   From: 2010.05.17/outbox.cif.g08.bks.cpg/sg10_19_cif.got.tgz:37110.got - 2010.06.03 11:33:40.
