data_PCOD9150313
_publ_section_title
;
Structure prediction by ZEFSAII (Michael W. Deem and Ramdas Pophale) SiO2 
 PCOD9150313
Probable space group: P 2/M
;
_chemical_formula_sum "Si O2"
_cell_formula_units_Z 28
_cell_length_a 5.886188
_cell_length_b 8.432309
_cell_length_c 33.817465
_cell_angle_alpha 90.000000
_cell_angle_beta 135.905765
_cell_angle_gamma 90.000000
_cell_volume 1167.969269
_symmetry_space_group_name_H-M "P 2/M"
_symmetry_group_IT_number 10
_symmetry_cell_setting 'monoclinic'
loop_
_space_group_symop_operation_xyz
x,y,z
-x,y,-z
-x,-y,-z
x,-y,z
loop_
_atom_site_type_symbol
_atom_site_label
_atom_site_fract_x
_atom_site_fract_y
_atom_site_fract_z
Si Si1 0.135498 0.186116 0.340952
Si Si2 0.889865 0.500000 0.532753
Si Si3 0.613377 0.828031 0.773859
Si Si4 0.339431 0.673732 0.145846
Si Si5 0.645042 0.826406 0.935233
Si Si6 0.384761 0.500000 0.031717
Si Si7 0.844505 0.820456 0.565318
Si Si8 0.889867 0.671158 0.740885
O O1 0.747267 0.211594 0.286713
O O2 0.255974 0.294716 0.320352
O O3 0.219162 0.219946 0.396643
O O4 0.206507 0.000000 0.342793
O O5 0.500000 0.500000 0.500000
O O6 0.012370 0.668490 0.565906
O O7 0.000000 0.500000 0.500000
O O8 0.796864 0.722425 0.828775
O O9 0.809486 0.817634 0.758336
O O10 0.588195 0.000000 0.789314
O O11 0.228676 0.500000 0.119184
O O12 0.305358 0.790641 0.105022
O O13 0.720111 0.664348 0.206405
O O14 0.491056 0.667528 0.934951
O O15 0.483198 0.000000 0.920473
O O16 0.000000 0.837238 0.000000
O O17 0.500000 0.500000 0.000000
O O18 0.000000 0.500000 0.000000
O O19 0.500000 0.835858 0.500000
O O20 0.997316 0.000000 0.583008
O O21 0.763591 0.500000 0.739786
#
# Coordination Sequence:
#
# PCOD9150313 Si02
#       8
#     4   2   4   4   4   2   4   4
#     4   9  19  37  59  82 115 156 200 252 306 370
#     4  10  22  42  64  91 126 169 218 264 319 386
#     4  10  20  36  57  84 117 155 204 256 309 372
#     4  10  20  38  61  84 120 159 203 257 310 372
#     4  10  21  40  65  94 126 167 214 262 322 390
#     4  10  22  44  68  95 132 177 218 272 325 380
#     4   9  19  39  63  89 124 165 209 262 321 385
#     4  10  21  36  56  86 116 155 203 253 311 373
#
# _framework density 23.973231999999999
#
# number of rings (size 3 to 8) (size 9 to 14) (size 15 to 20)
#    0.000    2.286    0.714    1.286    1.000    2.857 
#   10.286    0.000    0.000    0.000    0.000    0.000 
#    0.000    0.000    0.000    0.000    0.000    0.000 
#
# Total GULP energy -155990.940525 kJ/mol
# GULP energy per Si atom -5571.105019 kJ/mol
# Density = 2.391867 g / cm^3
# Si number density = 23.973232 Si / 1000 Ang^3
#
#
#
# Elastic Constant Matrix: (Units=GPa)
#
#
# Indices 1 2 3 4 5 6 
#
# 1 58.7288 22.8924 41.6725 0.0000 -10.2031 0.0000
# 2 22.8924 136.6709 60.2741 0.0000 -32.6905 0.0000
# 3 41.6725 60.2741 147.4969 0.0000 -24.6836 0.0000
# 4 0.0000 0.0000 0.0000 35.4531 0.0000 -17.0721
# 5 -10.2031 -32.6905 -24.6836 0.0000 47.5927 0.0000
# 6 0.0000 0.0000 0.0000 -17.0721 0.0000 9.8290
#
#
#
# Elastic Compliance Matrix: (Units=1/GPa)
#
#
# Indices 1 2 3 4 5 6 
#
# 1 0.021487 -0.000896 -0.005515 0.000000 0.001130 0.000000
# 2 -0.000896 0.010009 -0.002977 0.000000 0.005139 0.000000
# 3 -0.005515 -0.002977 0.009871 0.000000 0.001892 0.000000
# 4 0.000000 0.000000 0.000000 0.172398 0.000000 0.299440
# 5 0.001130 0.005139 0.001892 0.000000 0.025765 0.000000
# 6 0.000000 0.000000 0.000000 0.299440 0.000000 0.621840
#
#
# Mechanical properties :
#
#
# Convention : Reuss Voigt Hill
#
# Bulk Modulus (GPa) = 44.26750 65.84163 55.05456
# Shear Modulus (GPa) = 5.63268 33.11214 19.37241
#
# Velocity S-wave (km/s) = 1.53449 3.72050 2.84577
# Velocity P-wave (km/s) = 4.65242 6.78089 5.81487
#
# Compressibility (1/GPa) = 0.02258994
#
# Stress axis : x y z
#
# Youngs Moduli (GPa) = 46.54051 99.90967 101.30445
#
# Poissons Ratio (x) = 0.08956 0.55872
# Poissons Ratio (y) = 0.04172 0.30157
# Poissons Ratio (z) = 0.25668 0.29742
#
# Static dielectric constant tensor:
#      x y z
#    x 2.109320 0.000000 -0.034100 
#    y 0.000000 2.035480 0.000000 
#    z -0.034100 0.000000 1.880520 
# 
# From -- ./inp_files/94369.got.cif
#   From: 2010.05.17/outbox.cif.g08.bks.cpg/sg10_48_cif.got.tgz:94369.got - 2010.06.03 11:33:40.
