data_PCOD9150752
_publ_section_title
;
Structure prediction by ZEFSAII (Michael W. Deem and Ramdas Pophale) SiO2 
 PCOD9150752
Probable space group: P 2/M
;
_chemical_formula_sum "Si O2"
_cell_formula_units_Z 32
_cell_length_a 10.383570
_cell_length_b 13.909884
_cell_length_c 27.094761
_cell_angle_alpha 90.000000
_cell_angle_beta 25.282412
_cell_angle_gamma 90.000000
_cell_volume 1671.341071
_symmetry_space_group_name_H-M "P 2/M"
_symmetry_group_IT_number 10
_symmetry_cell_setting 'monoclinic'
loop_
_space_group_symop_operation_xyz
x,y,z
-x,y,-z
-x,-y,-z
x,-y,z
loop_
_atom_site_type_symbol
_atom_site_label
_atom_site_fract_x
_atom_site_fract_y
_atom_site_fract_z
Si Si1 0.331139 0.885969 0.359661
Si Si2 0.323600 0.258302 0.269519
Si Si3 0.422744 0.892323 0.084005
Si Si4 0.188678 0.226912 0.979676
Si Si5 0.321662 0.385933 0.412357
Si Si6 0.632379 0.730123 0.503709
Si Si7 0.735313 0.115239 0.315502
Si Si8 0.732670 0.611780 0.179455
O O1 0.381694 0.819371 0.293836
O O2 0.583255 0.865858 0.314351
O O3 0.000000 0.869848 0.500000
O O4 0.344473 0.000000 0.342364
O O5 0.511916 0.251773 0.154313
O O6 0.430104 0.360842 0.254127
O O7 0.979994 0.248352 0.375704
O O8 0.690967 0.836826 0.017859
O O9 0.081419 0.852898 0.202973
O O10 0.412462 0.000000 0.108959
O O11 0.500000 0.898005 0.000000
O O12 0.000000 0.179309 0.000000
O O13 0.988166 0.315688 0.070070
O O14 0.291852 0.500000 0.428543
O O15 0.380192 0.336055 0.443778
O O16 0.610706 0.369307 0.276838
O O17 0.000000 0.352047 0.500000
O O18 0.500000 0.685980 0.500000
O O19 0.460655 0.827781 0.577046
O O20 0.721995 0.000000 0.326143
O O21 0.815647 0.500000 0.145256
#
# Coordination Sequence:
#
# PCOD9150752 Si02
#       8
#     4   4   4   4   4   4   4   4
#     4  10  20  36  63  98 130 166 217 272 312 368
#     4  11  22  37  60  95 129 166 209 261 325 379
#     4  10  23  42  62  87 124 171 216 257 313 379
#     4  10  24  41  63  94 124 165 214 266 321 371
#     4  10  21  40  67  94 120 160 209 261 323 391
#     4  12  24  36  61  96 134 166 201 260 325 380
#     4  10  22  39  61  90 128 176 217 253 312 378
#     4  10  22  42  69  95 121 162 218 268 317 383
#
# _framework density 19.146301000000001
#
# number of rings (size 3 to 8) (size 9 to 14) (size 15 to 20)
#    0.000    1.625    2.500    1.500    5.250    3.500 
#    0.000    0.000    0.000    2.625    0.000    0.000 
#    0.000    0.000    0.000    0.000    0.000    0.000 
#
# Total GULP energy -178409.437077 kJ/mol
# GULP energy per Si atom -5575.294909 kJ/mol
# Density = 1.910272 g / cm^3
# Si number density = 19.146301 Si / 1000 Ang^3
#
#
#
# Elastic Constant Matrix: (Units=GPa)
#
#
# Indices 1 2 3 4 5 6 
#
# 1 127.2361 51.7282 35.7842 0.0000 -5.1289 0.0000
# 2 51.7282 73.5721 34.4487 0.0000 -6.2206 0.0000
# 3 35.7842 34.4487 118.4206 0.0000 -11.0636 0.0000
# 4 0.0000 0.0000 0.0000 -6.5938 0.0000 1.4316
# 5 -5.1289 -6.2206 -11.0636 0.0000 33.9695 0.0000
# 6 0.0000 0.0000 0.0000 1.4316 0.0000 15.0683
#
#
#
# Elastic Compliance Matrix: (Units=1/GPa)
#
#
# Indices 1 2 3 4 5 6 
#
# 1 0.011166 -0.007262 -0.001267 0.000000 -0.000057 0.000000
# 2 -0.007262 0.020527 -0.003639 0.000000 0.001477 0.000000
# 3 -0.001267 -0.003639 0.010113 0.000000 0.002436 0.000000
# 4 0.000000 0.000000 0.000000 -0.148592 0.000000 0.014118
# 5 -0.000057 0.001477 0.002436 0.000000 0.030494 0.000000
# 6 0.000000 0.000000 0.000000 0.014118 0.000000 0.065023
#
#
# Mechanical properties :
#
#
# Convention : Reuss Voigt Hill
#
# Bulk Modulus (GPa) = 57.23939 62.57234 59.90586
# Shear Modulus (GPa) = 264.68805 21.63997 143.16401
#
# Velocity S-wave (km/s) = 11.77052 3.36556 8.65656
# Velocity P-wave (km/s) = 14.65222 6.91771 11.45736
#
# Compressibility (1/GPa) = 0.01747049
#
# Stress axis : x y z
#
# Youngs Moduli (GPa) = 89.55828 48.71655 98.87878
#
# Poissons Ratio (x) = 0.35380 0.12526
# Poissons Ratio (y) = 0.65040 0.35980
# Poissons Ratio (z) = 0.11345 0.17727
#
# Static dielectric constant tensor:
#      x y z
#    x 1.710970 0.000000 0.015600 
#    y 0.000000 1.688890 0.000000 
#    z 0.015600 0.000000 1.709520 
# 
# From -- ./inp_files/88243.got.cif
#   From: 2010.05.17/outbox.cif.g08.bks.cpg/sg10_45_cif.got.tgz:88243.got - 2010.06.03 11:33:40.
