data_PCOD9150730
_publ_section_title
;
Structure prediction by ZEFSAII (Michael W. Deem and Ramdas Pophale) SiO2 
 PCOD9150730
Probable space group: P 2/M
;
_chemical_formula_sum "Si O2"
_cell_formula_units_Z 25
_cell_length_a 16.001281
_cell_length_b 7.606714
_cell_length_c 22.117641
_cell_angle_alpha 90.000000
_cell_angle_beta 23.250319
_cell_angle_gamma 90.000000
_cell_volume 1062.702377
_symmetry_space_group_name_H-M "P 2/M"
_symmetry_group_IT_number 10
_symmetry_cell_setting 'monoclinic'
loop_
_space_group_symop_operation_xyz
x,y,z
-x,y,-z
-x,-y,-z
x,-y,z
loop_
_atom_site_type_symbol
_atom_site_label
_atom_site_fract_x
_atom_site_fract_y
_atom_site_fract_z
Si Si1 0.511554 0.212867 0.773699
Si Si2 0.297273 0.788357 0.478897
Si Si3 0.070278 0.797794 0.017064
Si Si4 0.175447 0.198688 0.199045
Si Si5 0.178107 0.704809 0.333134
Si Si6 0.635213 0.294630 0.354728
Si Si7 0.500000 0.500000 0.000000
O O1 0.659847 0.268665 0.618593
O O2 0.605903 0.280241 0.773244
O O3 0.515944 0.000000 0.774517
O O4 0.276257 0.275056 0.913087
O O5 0.488640 0.723747 0.393115
O O6 0.064056 0.741690 0.657629
O O7 0.305147 0.000000 0.473724
O O8 0.860715 0.794234 0.196239
O O9 0.130836 0.000000 0.962487
O O10 0.000000 0.713853 0.000000
O O11 0.171173 0.192400 0.275535
O O12 0.349273 0.344334 0.070149
O O13 0.216761 0.000000 0.148689
O O14 0.149342 0.500000 0.334900
O O15 0.000000 0.758527 0.500000
O O16 0.500000 0.221464 0.500000
O O17 0.676572 0.500000 0.338335
#
# Coordination Sequence:
#
# PCOD9150730 Si02
#       7
#     4   4   4   4   4   4   1
#     4  10  20  36  62  95 129 164 208 270 334 397
#     4  10  21  40  68  95 122 166 217 267 329 397
#     4  10  20  39  64  91 124 161 211 271 330 388
#     4  11  24  44  70  97 130 177 224 275 335 393
#     4  11  22  37  62  97 135 168 209 268 339 399
#     4  11  25  42  61  90 130 173 216 267 327 394
#     4  12  26  48  66  90 134 178 228 282 316 398
#
# _framework density 23.524930999999999
#
# number of rings (size 3 to 8) (size 9 to 14) (size 15 to 20)
#    0.000    1.440    4.000    1.200    1.120    3.520 
#    2.880    0.000    0.000    0.000    0.000    0.000 
#    0.000    0.000    0.000    0.000    0.000    0.000 
#
# Total GULP energy -139573.861304 kJ/mol
# GULP energy per Si atom -5582.954452 kJ/mol
# Density = 2.347139 g / cm^3
# Si number density = 23.524931 Si / 1000 Ang^3
#
#
#
# Elastic Constant Matrix: (Units=GPa)
#
#
# Indices 1 2 3 4 5 6 
#
# 1 49.1772 -17.9630 9.3499 0.0000 -6.3405 0.0000
# 2 -17.9630 78.0344 20.7567 0.0000 1.6887 0.0000
# 3 9.3499 20.7567 113.0480 0.0000 -30.4151 0.0000
# 4 0.0000 0.0000 0.0000 -66.9106 0.0000 49.3312
# 5 -6.3405 1.6887 -30.4151 0.0000 37.7869 0.0000
# 6 0.0000 0.0000 0.0000 49.3312 0.0000 -10.8737
#
#
#
# Elastic Compliance Matrix: (Units=1/GPa)
#
#
# Indices 1 2 3 4 5 6 
#
# 1 0.023223 0.006008 -0.002614 0.000000 0.001524 0.000000
# 2 0.006008 0.015360 -0.004123 0.000000 -0.002997 0.000000
# 3 -0.002614 -0.004123 0.012446 0.000000 0.009764 0.000000
# 4 0.000000 0.000000 0.000000 0.006374 0.000000 0.028916
# 5 0.001524 -0.002997 0.009764 0.000000 0.034713 0.000000
# 6 0.000000 0.000000 0.000000 0.028916 0.000000 0.039221
#
#
# Mechanical properties :
#
#
# Convention : Reuss Voigt Hill
#
# Bulk Modulus (GPa) = 20.17364 29.39409 24.78386
# Shear Modulus (GPa) = 33.48578 7.20825 20.34702
#
# Velocity S-wave (km/s) = 3.77691 1.75235 2.94413
# Velocity P-wave (km/s) = 5.25492 4.07631 4.70268
#
# Compressibility (1/GPa) = 0.04956965
#
# Stress axis : x y z
#
# Youngs Moduli (GPa) = 43.06145 65.10621 80.34764
#
# Poissons Ratio (x) = -0.39115 0.21000
# Poissons Ratio (y) = -0.25871 0.33131
# Poissons Ratio (z) = 0.11255 0.26846
#
# Static dielectric constant tensor:
#      x y z
#    x 1.878330 0.000000 0.034620 
#    y 0.000000 1.975640 0.000000 
#    z 0.034620 0.000000 1.947280 
# 
# From -- ./inp_files/93372.got.cif
#   From: 2010.05.17/outbox.cif.g08.bks.cpg/sg10_47_cif.got.tgz:93372.got - 2010.06.03 11:33:40.
