data_PCOD9150895
_publ_section_title
;
Structure prediction by ZEFSAII (Michael W. Deem and Ramdas Pophale) SiO2 
 PCOD9150895
Probable space group: P 2/M
;
_chemical_formula_sum "Si O2"
_cell_formula_units_Z 28
_cell_length_a 9.499367
_cell_length_b 9.563553
_cell_length_c 26.876680
_cell_angle_alpha 90.000000
_cell_angle_beta 143.318152
_cell_angle_gamma 90.000000
_cell_volume 1458.591800
_symmetry_space_group_name_H-M "P 2/M"
_symmetry_group_IT_number 10
_symmetry_cell_setting 'monoclinic'
loop_
_space_group_symop_operation_xyz
x,y,z
-x,y,-z
-x,-y,-z
x,-y,z
loop_
_atom_site_type_symbol
_atom_site_label
_atom_site_fract_x
_atom_site_fract_y
_atom_site_fract_z
Si Si1 0.791324 0.658507 0.128666
Si Si2 0.030202 0.834005 0.907421
Si Si3 0.390799 0.160903 0.525203
Si Si4 0.677536 0.341997 0.938161
Si Si5 0.966205 0.334861 0.369499
Si Si6 0.422144 0.336935 0.207238
Si Si7 0.189452 0.338979 0.324097
O O1 0.796498 0.500000 0.108806
O O2 0.807982 0.772638 0.090690
O O3 0.558836 0.669440 0.096133
O O4 0.013400 0.675062 0.228261
O O5 0.774475 0.764662 0.826667
O O6 0.022458 0.000000 0.906305
O O7 0.138881 0.768925 0.988555
O O8 0.500000 0.165221 0.500000
O O9 0.586794 0.238255 0.613606
O O10 0.145808 0.243811 0.452709
O O11 0.358695 0.000000 0.530017
O O12 0.773491 0.500000 0.972117
O O13 0.605876 0.326447 0.860535
O O14 0.998336 0.500000 0.388794
O O15 0.690730 0.301583 0.297243
O O16 0.041849 0.313253 0.333112
O O17 0.378514 0.500000 0.208441
O O18 0.271911 0.500000 0.350087
#
# Coordination Sequence:
#
# PCOD9150895 Si02
#       7
#     4   4   4   4   4   4   4
#     4  10  20  37  60  82 105 138 182 229 272 314
#     4  12  26  38  50  77 114 149 180 214 268 330
#     4   9  17  27  43  74 113 146 171 202 256 320
#     4  10  20  38  62  83 102 133 183 234 274 314
#     4   9  16  30  53  80 105 132 174 224 267 307
#     4  10  20  37  60  82 105 138 182 229 272 314
#     4   9  16  30  53  80 105 132 174 224 267 307
#
# _framework density 19.196596
#
# number of rings (size 3 to 8) (size 9 to 14) (size 15 to 20)
#    0.000    2.143    1.429    2.571    0.000    7.429 
#    0.000    0.000    0.000    0.857    0.000    6.000 
#    0.000    0.000    0.000    0.000    0.000    0.000 
#
# Total GULP energy -156393.178251 kJ/mol
# GULP energy per Si atom -5585.470652 kJ/mol
# Density = 1.915290 g / cm^3
# Si number density = 19.196596 Si / 1000 Ang^3
#
#
#
# Elastic Constant Matrix: (Units=GPa)
#
#
# Indices 1 2 3 4 5 6 
#
# 1 51.9547 32.9127 10.9132 0.0000 15.0781 0.0000
# 2 32.9127 107.8594 56.6487 0.0000 22.3594 0.0000
# 3 10.9132 56.6487 95.2519 0.0000 28.2516 0.0000
# 4 0.0000 0.0000 0.0000 -12.8653 0.0000 8.9120
# 5 15.0781 22.3594 28.2516 0.0000 24.1868 0.0000
# 6 0.0000 0.0000 0.0000 8.9120 0.0000 6.7258
#
#
#
# Elastic Compliance Matrix: (Units=1/GPa)
#
#
# Indices 1 2 3 4 5 6 
#
# 1 0.028593 -0.008814 0.007399 0.000000 -0.018321 0.000000
# 2 -0.008814 0.016564 -0.009072 0.000000 0.000779 0.000000
# 3 0.007399 -0.009072 0.021309 0.000000 -0.021117 0.000000
# 4 0.000000 0.000000 0.000000 -0.040528 0.000000 0.053702
# 5 -0.018321 0.000779 -0.021117 0.000000 0.076711 0.000000
# 6 0.000000 0.000000 0.000000 0.053702 0.000000 0.077523
#
#
# Mechanical properties :
#
#
# Convention : Reuss Voigt Hill
#
# Bulk Modulus (GPa) = 21.98077 50.66838 36.32458
# Shear Modulus (GPa) = 23.11489 13.91557 18.51523
#
# Velocity S-wave (km/s) = 3.47380 2.69531 3.10902
# Velocity P-wave (km/s) = 5.25023 6.01149 5.64371
#
# Compressibility (1/GPa) = 0.04549431
#
# Stress axis : x y z
#
# Youngs Moduli (GPa) = 34.97304 60.37131 46.92778
#
# Poissons Ratio (x) = 0.53208 -0.34724
# Poissons Ratio (y) = 0.30824 0.42574
# Poissons Ratio (z) = -0.25878 0.54771
#
# Static dielectric constant tensor:
#      x y z
#    x 1.682960 0.000000 0.000350 
#    y 0.000000 1.640020 0.000000 
#    z 0.000350 0.000000 1.662350 
# 
# From -- ./inp_files/36810.got.cif
#   From: 2010.05.17/outbox.cif.g08.bks.cpg/sg10_19_cif.got.tgz:36810.got - 2010.06.03 11:33:40.
