data_PCOD9150799
_publ_section_title
;
Structure prediction by ZEFSAII (Michael W. Deem and Ramdas Pophale) SiO2 
 PCOD9150799
Probable space group: P 2/M
;
_chemical_formula_sum "Si O2"
_cell_formula_units_Z 32
_cell_length_a 8.918249
_cell_length_b 13.074770
_cell_length_c 24.384913
_cell_angle_alpha 90.000000
_cell_angle_beta 148.272797
_cell_angle_gamma 90.000000
_cell_volume 1495.263852
_symmetry_space_group_name_H-M "P 2/M"
_symmetry_group_IT_number 10
_symmetry_cell_setting 'monoclinic'
loop_
_space_group_symop_operation_xyz
x,y,z
-x,y,-z
-x,-y,-z
x,-y,z
loop_
_atom_site_type_symbol
_atom_site_label
_atom_site_fract_x
_atom_site_fract_y
_atom_site_fract_z
Si Si1 0.622746 0.217129 0.778043
Si Si2 0.979040 0.198490 0.430327
Si Si3 0.552463 0.885065 0.576437
Si Si4 0.270151 0.388030 0.476733
Si Si5 0.689246 0.387691 0.710211
Si Si6 0.662799 0.382959 0.885650
Si Si7 0.332250 0.680502 0.892806
Si Si8 0.986962 0.878087 0.187114
O O1 0.594790 0.306113 0.724546
O O2 0.638674 0.283959 0.838055
O O3 0.882593 0.152221 0.832302
O O4 0.327091 0.155713 0.681987
O O5 0.239725 0.121022 0.504664
O O6 0.047744 0.296609 0.413452
O O7 0.000000 0.231205 0.500000
O O8 0.500000 0.836341 0.500000
O O9 0.775894 0.848726 0.691946
O O10 0.649930 0.000000 0.595605
O O11 0.500000 0.381545 0.500000
O O12 0.131058 0.500000 0.430577
O O13 0.471635 0.382679 0.592552
O O14 0.677465 0.500000 0.731354
O O15 0.014799 0.366930 0.793975
O O16 0.571237 0.500000 0.840160
O O17 0.500138 0.354110 0.891276
O O18 0.000000 0.390537 0.000000
O O19 0.274077 0.802850 0.880100
O O20 0.500000 0.648305 0.000000
O O21 0.934831 0.000000 0.173201
#
# Coordination Sequence:
#
# PCOD9150799 Si02
#       8
#     4   4   4   4   4   4   4   4
#     4  11  23  37  59  90 124 163 202 252 305 368
#     4  12  21  35  56  85 122 163 199 245 301 353
#     4  10  22  39  62  90 121 161 208 255 303 361
#     4  10  22  36  52  78 118 164 206 242 288 358
#     4  10  20  37  57  81 116 160 206 249 299 360
#     4  11  25  44  66  94 126 158 199 258 319 373
#     4  11  24  42  67  93 119 157 209 258 315 375
#     4  10  22  43  66  92 127 167 210 256 309 368
#
# _framework density 21.400905999999999
#
# number of rings (size 3 to 8) (size 9 to 14) (size 15 to 20)
#    0.000    1.375    2.500    3.375    3.500    4.250 
#    0.000    0.625    0.000    1.500    0.000    0.000 
#    0.000    0.000    0.000    0.000    0.000    0.000 
#
# Total GULP energy -178457.072173 kJ/mol
# GULP energy per Si atom -5576.783505 kJ/mol
# Density = 2.135220 g / cm^3
# Si number density = 21.400906 Si / 1000 Ang^3
#
#
#
# Elastic Constant Matrix: (Units=GPa)
#
#
# Indices 1 2 3 4 5 6 
#
# 1 97.4636 -3.7007 19.1459 0.0000 -11.2309 0.0000
# 2 -3.7007 74.3077 -3.3770 0.0000 -4.9075 0.0000
# 3 19.1459 -3.3770 53.1365 0.0000 7.1550 0.0000
# 4 0.0000 0.0000 0.0000 10.9218 0.0000 -4.8447
# 5 -11.2309 -4.9075 7.1550 0.0000 30.1935 0.0000
# 6 0.0000 0.0000 0.0000 -4.8447 0.0000 13.8976
#
#
#
# Elastic Compliance Matrix: (Units=1/GPa)
#
#
# Indices 1 2 3 4 5 6 
#
# 1 0.011940 0.000746 -0.005029 0.000000 0.005754 0.000000
# 2 0.000746 0.013668 0.000272 0.000000 0.002435 0.000000
# 3 -0.005029 0.000272 0.021584 0.000000 -0.006941 0.000000
# 4 0.000000 0.000000 0.000000 0.108308 0.000000 0.037756
# 5 0.005754 0.002435 -0.006941 0.000000 0.037301 0.000000
# 6 0.000000 0.000000 0.000000 0.037756 0.000000 0.085117
#
#
# Mechanical properties :
#
#
# Convention : Reuss Voigt Hill
#
# Bulk Modulus (GPa) = 25.53084 27.67159 26.60122
# Shear Modulus (GPa) = 16.72268 25.19189 20.95728
#
# Velocity S-wave (km/s) = 2.79839 3.43467 3.13273
# Velocity P-wave (km/s) = 4.73255 5.35607 5.05393
#
# Compressibility (1/GPa) = 0.03916831
#
# Stress axis : x y z
#
# Youngs Moduli (GPa) = 83.75465 73.16435 46.33148
#
# Poissons Ratio (x) = -0.05459 0.23302
# Poissons Ratio (y) = -0.06249 -0.01260
# Poissons Ratio (z) = 0.42124 -0.01990
#
# Static dielectric constant tensor:
#      x y z
#    x 1.821960 0.000000 -0.031990 
#    y 0.000000 1.813150 0.000000 
#    z -0.031990 0.000000 1.916130 
# 
# From -- ./inp_files/88291.got.cif
#   From: 2010.05.17/outbox.cif.g08.bks.cpg/sg10_45_cif.got.tgz:88291.got - 2010.06.03 11:33:40.
