data_PCOD9150399
_publ_section_title
;
Structure prediction by ZEFSAII (Michael W. Deem and Ramdas Pophale) SiO2 
 PCOD9150399
Probable space group: P 2/M
;
_chemical_formula_sum "Si O2"
_cell_formula_units_Z 22
_cell_length_a 9.249799
_cell_length_b 27.803875
_cell_length_c 7.919790
_cell_angle_alpha 90.000000
_cell_angle_beta 146.478543
_cell_angle_gamma 90.000000
_cell_volume 1124.828755
_symmetry_space_group_name_H-M "P 2/M"
_symmetry_group_IT_number 10
_symmetry_cell_setting 'monoclinic'
loop_
_space_group_symop_operation_xyz
x,y,z
-x,y,-z
-x,-y,-z
x,-y,z
loop_
_atom_site_type_symbol
_atom_site_label
_atom_site_fract_x
_atom_site_fract_y
_atom_site_fract_z
Si Si1 0.895280 0.157497 0.086207
Si Si2 0.757458 0.744344 0.138817
Si Si3 0.258104 0.656965 0.135483
Si Si4 0.605469 0.896138 0.295287
Si Si5 0.740184 0.000000 0.363086
Si Si6 0.257722 0.551498 0.134913
O O1 0.140728 0.136959 0.431324
O O2 0.803042 0.207509 0.075659
O O3 0.000000 0.164311 0.000000
O O4 0.645693 0.121758 0.844742
O O5 0.000000 0.737217 0.500000
O O6 0.500000 0.750100 0.000000
O O7 0.732212 0.699112 0.990229
O O8 0.500000 0.660428 0.500000
O O9 0.262436 0.603766 0.053731
O O10 0.000000 0.660934 0.000000
O O11 0.705620 0.950289 0.429565
O O12 0.500000 0.894012 0.000000
O O13 0.000000 0.000000 0.500000
O O14 0.500000 0.000000 0.000000
O O15 0.500000 0.551397 0.500000
O O16 0.263800 0.500000 0.045740
O O17 0.000000 0.551367 0.000000
#
# Coordination Sequence:
#
# PCOD9150399 Si02
#       6
#     4   4   4   4   2   4
#     4  12  25  41  60  86 117 150 189 237 288 334
#     4  12  25  40  59  82 112 151 192 234 284 343
#     4  10  20  36  58  84 114 147 187 237 284 329
#     4  11  22  41  65  90 117 151 192 229 273 334
#     4  10  20  36  63  92 117 150 189 228 269 330
#     4   8  14  26  48  78 108 140 181 226 272 326
#
# _framework density 19.558534000000002
#
# number of rings (size 3 to 8) (size 9 to 14) (size 15 to 20)
#    0.000    1.455    0.000    7.636    0.000    1.455 
#    0.000    2.727    0.000    1.091    0.000    0.000 
#    0.000    0.000    0.000    0.000    0.000    0.000 
#
# Total GULP energy -122841.941564 kJ/mol
# GULP energy per Si atom -5583.724617 kJ/mol
# Density = 1.951402 g / cm^3
# Si number density = 19.558534 Si / 1000 Ang^3
#
#
#
# Elastic Constant Matrix: (Units=GPa)
#
#
# Indices 1 2 3 4 5 6 
#
# 1 111.3760 87.5914 47.4440 0.0000 21.7483 0.0000
# 2 87.5914 217.3045 55.0447 0.0000 7.1931 0.0000
# 3 47.4440 55.0447 126.4695 0.0000 35.0480 0.0000
# 4 0.0000 0.0000 0.0000 30.3442 0.0000 3.6625
# 5 21.7483 7.1931 35.0480 0.0000 33.8283 0.0000
# 6 0.0000 0.0000 0.0000 3.6625 0.0000 36.2097
#
#
#
# Elastic Compliance Matrix: (Units=1/GPa)
#
#
# Indices 1 2 3 4 5 6 
#
# 1 0.015398 -0.005639 -0.001278 0.000000 -0.007376 0.000000
# 2 -0.005639 0.007310 -0.002301 0.000000 0.004454 0.000000
# 3 -0.001278 -0.002301 0.012659 0.000000 -0.011805 0.000000
# 4 0.000000 0.000000 0.000000 0.033363 0.000000 -0.003375
# 5 -0.007376 0.004454 -0.011805 0.000000 0.045586 0.000000
# 6 0.000000 0.000000 0.000000 -0.003375 0.000000 0.027958
#
#
# Mechanical properties :
#
#
# Convention : Reuss Voigt Hill
#
# Bulk Modulus (GPa) = 59.05908 92.81225 75.93567
# Shear Modulus (GPa) = 30.05643 37.74777 33.90210
#
# Velocity S-wave (km/s) = 3.92438 4.39793 4.16789
# Velocity P-wave (km/s) = 7.12713 8.56421 7.87850
#
# Compressibility (1/GPa) = 0.01693220
#
# Stress axis : x y z
#
# Youngs Moduli (GPa) = 64.94373 136.79798 78.99318
#
# Poissons Ratio (x) = 0.77137 0.10096
# Poissons Ratio (y) = 0.36620 0.18174
# Poissons Ratio (z) = 0.08300 0.31474
#
# Static dielectric constant tensor:
#      x y z
#    x 1.835840 0.000000 0.326820 
#    y 0.000000 1.759310 0.000000 
#    z 0.326820 0.000000 2.279320 
# 
# From -- ./inp_files/20907.got.cif
#   From: 2010.05.17/outbox.cif.g08.bks.cpg/sg10_11_cif.got.tgz:20907.got - 2010.06.03 11:33:40.
