data_PCOD9150685
_publ_section_title
;
Structure prediction by ZEFSAII (Michael W. Deem and Ramdas Pophale) SiO2 
 PCOD9150685
Probable space group: P 2/M
;
_chemical_formula_sum "Si O2"
_cell_formula_units_Z 28
_cell_length_a 15.021340
_cell_length_b 11.758127
_cell_length_c 10.022457
_cell_angle_alpha 90.000000
_cell_angle_beta 60.650165
_cell_angle_gamma 90.000000
_cell_volume 1542.978283
_symmetry_space_group_name_H-M "P 2/M"
_symmetry_group_IT_number 10
_symmetry_cell_setting 'monoclinic'
loop_
_space_group_symop_operation_xyz
x,y,z
-x,y,-z
-x,-y,-z
x,-y,z
loop_
_atom_site_type_symbol
_atom_site_label
_atom_site_fract_x
_atom_site_fract_y
_atom_site_fract_z
Si Si1 0.773995 0.755999 0.880299
Si Si2 0.454802 0.000000 0.241640
Si Si3 0.119434 0.366901 0.435741
Si Si4 0.560560 0.635595 0.090441
Si Si5 0.560414 0.233526 0.593190
Si Si6 0.887627 0.367301 0.021743
Si Si7 0.328201 0.000000 0.059642
Si Si8 0.236404 0.368309 0.618151
O O1 0.812460 0.712824 0.708279
O O2 0.740146 0.887153 0.905742
O O3 0.673004 0.686365 0.995676
O O4 0.859580 0.717725 0.923722
O O5 0.431719 0.887898 0.342369
O O6 0.384720 0.000000 0.161324
O O7 0.574982 0.000000 0.112496
O O8 0.138987 0.500000 0.386057
O O9 0.150766 0.352970 0.566852
O O10 0.000000 0.344824 0.500000
O O11 0.564701 0.500000 0.095836
O O12 0.501513 0.686344 0.259494
O O13 0.500000 0.668228 0.000000
O O14 0.500000 0.223619 0.500000
O O15 0.669906 0.287565 0.483106
O O16 0.880522 0.500000 0.981387
O O17 0.809606 0.350804 0.201664
O O18 0.000000 0.351322 0.000000
O O19 0.270747 0.500000 0.584292
#
# Coordination Sequence:
#
# PCOD9150685 Si02
#       8
#     4   2   4   4   4   4   2   4
#     4  12  22  38  61  88 115 156 206 246 291 350
#     4  11  23  44  60  82 115 160 208 252 288 355
#     4  10  20  36  61  90 118 149 191 245 300 356
#     4  11  22  36  58  88 122 159 198 245 304 366
#     4  12  24  38  58  86 120 156 196 245 298 360
#     4  10  21  39  63  90 122 158 196 240 296 361
#     4  11  24  40  66  84 112 158 210 256 295 335
#     4  10  21  36  55  86 123 154 185 235 302 358
#
# _framework density 18.146723999999999
#
# number of rings (size 3 to 8) (size 9 to 14) (size 15 to 20)
#    0.000    1.143    1.429    6.214    0.000    6.857 
#    0.000    0.714    0.000    1.714    0.000    0.000 
#    0.000    0.000    0.000    0.000    0.000    0.000 
#
# Total GULP energy -156571.620407 kJ/mol
# GULP energy per Si atom -5591.843586 kJ/mol
# Density = 1.810542 g / cm^3
# Si number density = 18.146724 Si / 1000 Ang^3
#
#
#
# Elastic Constant Matrix: (Units=GPa)
#
#
# Indices 1 2 3 4 5 6 
#
# 1 62.6570 32.8838 2.2415 0.0000 7.0821 0.0000
# 2 32.8838 80.6327 33.4621 0.0000 4.8608 0.0000
# 3 2.2415 33.4621 56.2440 0.0000 6.9726 0.0000
# 4 0.0000 0.0000 0.0000 20.1130 0.0000 98.5450
# 5 7.0821 4.8608 6.9726 0.0000 34.0524 0.0000
# 6 0.0000 0.0000 0.0000 98.5450 0.0000 98.6753
#
#
#
# Elastic Compliance Matrix: (Units=1/GPa)
#
#
# Indices 1 2 3 4 5 6 
#
# 1 0.022258 -0.011514 0.006498 0.000000 -0.004316 0.000000
# 2 -0.011514 0.022428 -0.013117 0.000000 0.001879 0.000000
# 3 0.006498 -0.013117 0.025918 0.000000 -0.004786 0.000000
# 4 0.000000 0.000000 0.000000 -0.012771 0.000000 0.012754
# 5 -0.004316 0.001879 -0.004786 0.000000 0.030976 0.000000
# 6 0.000000 0.000000 0.000000 0.012754 0.000000 -0.002603
#
#
# Mechanical properties :
#
#
# Convention : Reuss Voigt Hill
#
# Bulk Modulus (GPa) = 29.12239 37.41204 33.26721
# Shear Modulus (GPa) = 37.33626 39.29790 38.31708
#
# Velocity S-wave (km/s) = 4.54085 4.65861 4.60011
# Velocity P-wave (km/s) = 6.60118 7.04259 6.82545
#
# Compressibility (1/GPa) = 0.03433785
#
# Stress axis : x y z
#
# Youngs Moduli (GPa) = 44.92767 44.58732 38.58285
#
# Poissons Ratio (x) = 0.51337 -0.25072
# Poissons Ratio (y) = 0.51729 0.50611
# Poissons Ratio (z) = -0.29195 0.58487
#
# Static dielectric constant tensor:
#      x y z
#    x 1.624360 0.000000 0.014920 
#    y 0.000000 1.596540 0.000000 
#    z 0.014920 0.000000 1.606310 
# 
# From -- ./inp_files/28534.got.cif
#   From: 2010.05.17/outbox.cif.g08.bks.cpg/sg10_15_cif.got.tgz:28534.got - 2010.06.03 11:33:40.
