data_PCOD9150269
_publ_section_title
;
Structure prediction by ZEFSAII (Michael W. Deem and Ramdas Pophale) SiO2 
 PCOD9150269
Probable space group: P 2/M
;
_chemical_formula_sum "Si O2"
_cell_formula_units_Z 28
_cell_length_a 26.045663
_cell_length_b 8.963558
_cell_length_c 9.708645
_cell_angle_alpha 90.000000
_cell_angle_beta 38.024378
_cell_angle_gamma 90.000000
_cell_volume 1396.216791
_symmetry_space_group_name_H-M "P 2/M"
_symmetry_group_IT_number 10
_symmetry_cell_setting 'monoclinic'
loop_
_space_group_symop_operation_xyz
x,y,z
-x,y,-z
-x,-y,-z
x,-y,z
loop_
_atom_site_type_symbol
_atom_site_label
_atom_site_fract_x
_atom_site_fract_y
_atom_site_fract_z
Si Si1 0.252097 0.320592 0.978134
Si Si2 0.196823 0.176096 0.595511
Si Si3 0.415393 0.177368 0.763136
Si Si4 0.046731 0.669186 0.049180
Si Si5 0.310196 0.676920 0.562706
Si Si6 0.123716 0.319512 0.474801
Si Si7 0.482663 0.174018 0.197719
O O1 0.255063 0.500000 0.973677
O O2 0.334682 0.260643 0.878827
O O3 0.256478 0.275231 0.809521
O O4 0.170900 0.274679 0.236130
O O5 0.279581 0.240066 0.490778
O O6 0.172909 0.250922 0.500805
O O7 0.201236 0.000000 0.569666
O O8 0.123560 0.224244 0.856501
O O9 0.500000 0.213661 0.500000
O O10 0.438851 0.210433 0.871848
O O11 0.401063 0.000000 0.778593
O O12 0.074873 0.500000 0.025323
O O13 0.973957 0.720897 0.305852
O O14 0.000000 0.659574 0.000000
O O15 0.302848 0.500000 0.559077
O O16 0.404357 0.723316 0.397521
O O17 0.126009 0.500000 0.483287
O O18 0.461141 0.000000 0.273081
O O19 0.500000 0.187750 0.000000
#
# Coordination Sequence:
#
# PCOD9150269 Si02
#       7
#     4   4   4   4   4   4   4
#     4  10  22  38  58  83 111 144 186 231 272 324
#     4  11  22  35  56  84 114 147 184 227 276 327
#     4  10  20  36  57  79 108 147 183 220 272 328
#     4   8  15  32  57  81 110 145 181 223 273 325
#     4  11  23  39  57  80 112 149 187 227 277 327
#     4   9  19  37  59  85 113 143 182 229 275 326
#     4  10  22  39  57  80 112 145 183 227 273 328
#
# _framework density 20.054193000000001
#
# number of rings (size 3 to 8) (size 9 to 14) (size 15 to 20)
#    0.000    2.143    1.429    2.571    2.000    4.857 
#    0.000    0.714    0.000    4.286    0.000    0.000 
#    0.000    0.000    0.000    0.000    0.000    0.000 
#
# Total GULP energy -156313.559399 kJ/mol
# GULP energy per Si atom -5582.627121 kJ/mol
# Density = 2.000855 g / cm^3
# Si number density = 20.054193 Si / 1000 Ang^3
#
#
#
# Elastic Constant Matrix: (Units=GPa)
#
#
# Indices 1 2 3 4 5 6 
#
# 1 35.1220 6.9128 -16.1827 0.0000 10.5663 0.0000
# 2 6.9128 24.0036 7.7977 0.0000 5.0428 0.0000
# 3 -16.1827 7.7977 64.1645 0.0000 8.4495 0.0000
# 4 0.0000 0.0000 0.0000 39.0271 0.0000 -3.5674
# 5 10.5663 5.0428 8.4495 0.0000 22.8313 0.0000
# 6 0.0000 0.0000 0.0000 -3.5674 0.0000 22.7200
#
#
#
# Elastic Compliance Matrix: (Units=1/GPa)
#
#
# Indices 1 2 3 4 5 6 
#
# 1 0.046071 -0.013486 0.016477 0.000000 -0.024441 0.000000
# 2 -0.013486 0.048764 -0.009178 0.000000 -0.001132 0.000000
# 3 0.016477 -0.009178 0.022699 0.000000 -0.013999 0.000000
# 4 0.000000 0.000000 0.000000 0.025996 0.000000 0.004082
# 5 -0.024441 -0.001132 -0.013999 0.000000 0.060541 0.000000
# 6 0.000000 0.000000 0.000000 0.004082 0.000000 0.044655
#
#
# Mechanical properties :
#
#
# Convention : Reuss Voigt Hill
#
# Bulk Modulus (GPa) = 9.50939 13.37176 11.44057
# Shear Modulus (GPa) = 16.88304 25.23316 21.05810
#
# Velocity S-wave (km/s) = 2.90465 3.55103 3.24398
# Velocity P-wave (km/s) = 4.00018 4.84720 4.44392
#
# Compressibility (1/GPa) = 0.10515926
#
# Stress axis : x y z
#
# Youngs Moduli (GPa) = 21.70554 20.50702 44.05419
#
# Poissons Ratio (x) = 0.27656 -0.72587
# Poissons Ratio (y) = 0.29272 0.40434
# Poissons Ratio (z) = -0.35764 0.18822
#
# Static dielectric constant tensor:
#      x y z
#    x 1.692760 0.000000 0.007030 
#    y 0.000000 1.671510 0.000000 
#    z 0.007030 0.000000 1.761320 
# 
# From -- ./inp_files/37078.got.cif
#   From: 2010.05.17/outbox.cif.g08.bks.cpg/sg10_19_cif.got.tgz:37078.got - 2010.06.03 11:33:40.
