data_PCOD9150236
_publ_section_title
;
Structure prediction by ZEFSAII (Michael W. Deem and Ramdas Pophale) SiO2 
 PCOD9150236
Probable space group: P 2/M
;
_chemical_formula_sum "Si O2"
_cell_formula_units_Z 28
_cell_length_a 12.116249
_cell_length_b 8.705789
_cell_length_c 16.033139
_cell_angle_alpha 90.000000
_cell_angle_beta 123.763187
_cell_angle_gamma 90.000000
_cell_volume 1405.964844
_symmetry_space_group_name_H-M "P 2/M"
_symmetry_group_IT_number 10
_symmetry_cell_setting 'monoclinic'
loop_
_space_group_symop_operation_xyz
x,y,z
-x,y,-z
-x,-y,-z
x,-y,z
loop_
_atom_site_type_symbol
_atom_site_label
_atom_site_fract_x
_atom_site_fract_y
_atom_site_fract_z
Si Si1 0.908147 0.183475 0.384006
Si Si2 0.348047 0.182968 0.463263
Si Si3 0.835764 0.183649 0.771169
Si Si4 0.916686 0.683806 0.208653
Si Si5 0.642746 0.314561 0.826179
Si Si6 0.637460 0.312773 0.016973
Si Si7 0.347960 0.317168 0.643658
O O1 0.952509 0.252240 0.314690
O O2 0.759389 0.237264 0.342439
O O3 0.000000 0.234653 0.500000
O O4 0.915161 0.000000 0.382072
O O5 0.500000 0.211285 0.500000
O O6 0.253736 0.226650 0.347110
O O7 0.318994 0.270563 0.536358
O O8 0.332753 0.000000 0.472142
O O9 0.759003 0.243774 0.819676
O O10 0.979070 0.255751 0.815260
O O11 0.844984 0.000000 0.777666
O O12 0.919981 0.500000 0.211977
O O13 0.767951 0.734950 0.122229
O O14 0.651944 0.500000 0.825813
O O15 0.498639 0.270159 0.728772
O O16 0.648413 0.267447 0.925047
O O17 0.634770 0.500000 0.017321
O O18 0.500000 0.259139 0.000000
O O19 0.337839 0.500000 0.650520
#
# Coordination Sequence:
#
# PCOD9150236 Si02
#       7
#     4   4   4   4   4   4   4
#     4  11  24  41  60  84 119 161 198 234 290 361
#     4  10  20  36  56  80 117 164 201 233 288 356
#     4  11  23  39  59  85 122 162 198 240 295 357
#     4  11  23  40  64  90 118 153 197 249 296 344
#     4  10  21  38  61  89 118 152 198 246 294 349
#     4   9  19  39  65  89 116 151 193 242 299 355
#     4  11  22  35  59  91 119 150 196 254 299 339
#
# _framework density 19.915150000000001
#
# number of rings (size 3 to 8) (size 9 to 14) (size 15 to 20)
#    0.000    1.571    1.429    3.429    0.000    9.429 
#    0.000    4.286    0.000    3.000    0.000    0.000 
#    0.000    0.000    0.000    0.000    0.000    0.000 
#
# Total GULP energy -156575.734724 kJ/mol
# GULP energy per Si atom -5591.990526 kJ/mol
# Density = 1.986982 g / cm^3
# Si number density = 19.915150 Si / 1000 Ang^3
#
#
#
# Elastic Constant Matrix: (Units=GPa)
#
#
# Indices 1 2 3 4 5 6 
#
# 1 154.4665 35.9279 59.4195 0.0000 -3.4630 0.0000
# 2 35.9279 28.8548 24.3122 0.0000 -2.4437 0.0000
# 3 59.4195 24.3122 100.3982 0.0000 -10.6630 0.0000
# 4 0.0000 0.0000 0.0000 19.5416 0.0000 -14.8095
# 5 -3.4630 -2.4437 -10.6630 0.0000 35.3448 0.0000
# 6 0.0000 0.0000 0.0000 -14.8095 0.0000 58.0220
#
#
#
# Elastic Compliance Matrix: (Units=1/GPa)
#
#
# Indices 1 2 3 4 5 6 
#
# 1 0.010113 -0.009479 -0.003775 0.000000 -0.000803 0.000000
# 2 -0.009479 0.052426 -0.007024 0.000000 0.000577 0.000000
# 3 -0.003775 -0.007024 0.014262 0.000000 0.003447 0.000000
# 4 0.000000 0.000000 0.000000 0.063445 0.000000 0.016194
# 5 -0.000803 0.000577 0.003447 0.000000 0.029294 0.000000
# 6 0.000000 0.000000 0.000000 0.016194 0.000000 0.021368
#
#
# Mechanical properties :
#
#
# Convention : Reuss Voigt Hill
#
# Bulk Modulus (GPa) = 27.59070 58.11541 42.85305
# Shear Modulus (GPa) = 20.53013 33.51901 27.02457
#
# Velocity S-wave (km/s) = 3.21421 4.10700 3.68772
# Velocity P-wave (km/s) = 5.25919 7.19269 6.30055
#
# Compressibility (1/GPa) = 0.03624409
#
# Stress axis : x y z
#
# Youngs Moduli (GPa) = 98.88436 19.07457 70.11844
#
# Poissons Ratio (x) = 0.18081 0.26470
# Poissons Ratio (y) = 0.93733 0.49251
# Poissons Ratio (z) = 0.37330 0.13398
#
# Static dielectric constant tensor:
#      x y z
#    x 1.686380 0.000000 0.015510 
#    y 0.000000 1.668020 0.000000 
#    z 0.015510 0.000000 1.694130 
# 
# From -- ./inp_files/63910.got.cif
#   From: 2010.05.17/outbox.cif.g08.bks.cpg/sg10_32_cif.got.tgz:63910.got - 2010.06.03 11:33:40.
