data_PCOD9150058
_publ_section_title
;
Structure prediction by ZEFSAII (Michael W. Deem and Ramdas Pophale) SiO2 
 PCOD9150058
Probable space group: P 2/M
;
_chemical_formula_sum "Si O2"
_cell_formula_units_Z 28
_cell_length_a 6.156931
_cell_length_b 12.946665
_cell_length_c 18.361626
_cell_angle_alpha 90.000000
_cell_angle_beta 117.784745
_cell_angle_gamma 90.000000
_cell_volume 1294.887011
_symmetry_space_group_name_H-M "P 2/M"
_symmetry_group_IT_number 10
_symmetry_cell_setting 'monoclinic'
loop_
_space_group_symop_operation_xyz
x,y,z
-x,y,-z
-x,-y,-z
x,-y,z
loop_
_atom_site_type_symbol
_atom_site_label
_atom_site_fract_x
_atom_site_fract_y
_atom_site_fract_z
Si Si1 0.106498 0.215128 0.590663
Si Si2 0.144336 0.757444 0.185774
Si Si3 0.884884 0.884240 0.257003
Si Si4 0.229923 0.319072 0.981146
Si Si5 0.491449 0.617457 0.312525
Si Si6 0.364148 0.117490 0.095296
Si Si7 0.240884 0.607814 0.419661
O O1 0.173041 0.141563 0.668111
O O2 0.317882 0.303156 0.620296
O O3 0.000000 0.165654 0.500000
O O4 0.884392 0.287588 0.579742
O O5 0.374162 0.679579 0.226957
O O6 0.202697 0.851258 0.140239
O O7 0.077904 0.805548 0.252775
O O8 0.914904 0.697361 0.116417
O O9 0.642259 0.877501 0.168797
O O10 0.981832 0.000000 0.267789
O O11 0.500000 0.366663 0.000000
O O12 0.303848 0.208384 0.029013
O O13 0.000000 0.358295 0.000000
O O14 0.573838 0.500000 0.307940
O O15 0.281441 0.605194 0.340061
O O16 0.316798 0.000000 0.062502
O O17 0.500000 0.605105 0.500000
O O18 0.112882 0.500000 0.422406
#
# Coordination Sequence:
#
# PCOD9150058 Si02
#       7
#     4   4   4   4   4   4   4
#     4  12  23  38  62  86 121 158 203 255 315 369
#     4  11  21  39  62  85 126 163 204 253 318 372
#     4  11  23  38  59  87 121 162 207 248 306 378
#     4  10  21  36  61  94 127 168 208 265 319 378
#     4  11  23  38  60  90 119 155 204 256 312 373
#     4  10  21  37  60  91 123 160 207 259 313 370
#     4  10  20  35  58  88 115 144 194 259 318 369
#
# _framework density 21.623508999999999
#
# number of rings (size 3 to 8) (size 9 to 14) (size 15 to 20)
#    0.000    1.286    5.714    0.857    0.000    4.286 
#    0.000    0.000    0.000    5.571    0.000    0.000 
#    0.000    0.000    0.000    0.000    0.000    0.000 
#
# Total GULP energy -155897.197402 kJ/mol
# GULP energy per Si atom -5567.757050 kJ/mol
# Density = 2.157429 g / cm^3
# Si number density = 21.623509 Si / 1000 Ang^3
#
#
#
# Elastic Constant Matrix: (Units=GPa)
#
#
# Indices 1 2 3 4 5 6 
#
# 1 69.5165 7.6969 1.8371 0.0000 3.8013 0.0000
# 2 7.6969 48.9606 23.7550 0.0000 6.4873 0.0000
# 3 1.8371 23.7550 88.2663 0.0000 5.1043 0.0000
# 4 0.0000 0.0000 0.0000 52.3199 0.0000 -12.4181
# 5 3.8013 6.4873 5.1043 0.0000 34.2737 0.0000
# 6 0.0000 0.0000 0.0000 -12.4181 0.0000 33.9324
#
#
#
# Elastic Compliance Matrix: (Units=1/GPa)
#
#
# Indices 1 2 3 4 5 6 
#
# 1 0.014702 -0.002338 0.000395 0.000000 -0.001247 0.000000
# 2 -0.002338 0.024296 -0.006293 0.000000 -0.003402 0.000000
# 3 0.000395 -0.006293 0.013061 0.000000 -0.000798 0.000000
# 4 0.000000 0.000000 0.000000 0.020931 0.000000 0.007660
# 5 -0.001247 -0.003402 -0.000798 0.000000 0.030078 0.000000
# 6 0.000000 0.000000 0.000000 0.007660 0.000000 0.032274
#
#
# Mechanical properties :
#
#
# Convention : Reuss Voigt Hill
#
# Bulk Modulus (GPa) = 28.10000 30.36905 29.23452
# Shear Modulus (GPa) = 30.54810 35.66883 33.10846
#
# Velocity S-wave (km/s) = 3.76270 4.06586 3.91721
# Velocity P-wave (km/s) = 5.64806 6.00970 5.83169
#
# Compressibility (1/GPa) = 0.03558719
#
# Stress axis : x y z
#
# Youngs Moduli (GPa) = 68.01961 41.15839 76.56374
#
# Poissons Ratio (x) = 0.09622 -0.03026
# Poissons Ratio (y) = 0.15901 0.48185
# Poissons Ratio (z) = -0.02689 0.25903
#
# Static dielectric constant tensor:
#      x y z
#    x 1.884090 0.000000 -0.002060 
#    y 0.000000 1.776570 0.000000 
#    z -0.002060 0.000000 1.825690 
# 
# From -- ./inp_files/73570.got.cif
#   From: 2010.05.17/outbox.cif.g08.bks.cpg/sg10_37_cif.got.tgz:73570.got - 2010.06.03 11:33:40.
