data_PCOD9150159
_publ_section_title
;
Structure prediction by ZEFSAII (Michael W. Deem and Ramdas Pophale) SiO2 
 PCOD9150159
Probable space group: P 2/M
;
_chemical_formula_sum "Si O2"
_cell_formula_units_Z 24
_cell_length_a 5.921688
_cell_length_b 14.700570
_cell_length_c 13.948687
_cell_angle_alpha 90.000000
_cell_angle_beta 99.142691
_cell_angle_gamma 90.000000
_cell_volume 1198.837353
_symmetry_space_group_name_H-M "P 2/M"
_symmetry_group_IT_number 10
_symmetry_cell_setting 'monoclinic'
loop_
_space_group_symop_operation_xyz
x,y,z
-x,y,-z
-x,-y,-z
x,-y,z
loop_
_atom_site_type_symbol
_atom_site_label
_atom_site_fract_x
_atom_site_fract_y
_atom_site_fract_z
Si Si1 0.600426 0.829472 0.412688
Si Si2 0.165896 0.396387 0.747080
Si Si3 0.736672 0.633486 0.458119
Si Si4 0.198454 0.895466 0.765357
Si Si5 0.524206 0.739965 0.114731
Si Si6 0.195988 0.248122 0.255899
O O1 0.500000 0.877565 0.500000
O O2 0.744485 0.743562 0.460100
O O3 0.730195 0.887400 0.341786
O O4 0.399862 0.780308 0.339018
O O5 0.119360 0.500000 0.771762
O O6 0.297585 0.395034 0.654764
O O7 0.309222 0.339196 0.834483
O O8 0.941307 0.334970 0.715087
O O9 0.500000 0.608368 0.500000
O O10 0.000000 0.602064 0.500000
O O11 0.374890 0.836144 0.840466
O O12 0.965918 0.839426 0.760208
O O13 0.185206 0.000000 0.792857
O O14 0.289751 0.728578 0.157163
O O15 0.500000 0.738081 0.000000
#
# Coordination Sequence:
#
# PCOD9150159 Si02
#       6
#     4   4   4   4   4   4
#     4  10  20  35  62  86 126 173 210 252 314 378
#     4  11  23  39  61  94 127 164 214 264 317 379
#     4  11  22  38  65  95 132 180 224 266 320 385
#     4  10  22  38  61  92 120 156 209 262 321 388
#     4  10  23  44  65  86 120 163 207 263 333 392
#     4  10  20  42  59  87 121 167 203 269 320 388
#
# _framework density 20.019397999999999
#
# number of rings (size 3 to 8) (size 9 to 14) (size 15 to 20)
#    0.000    1.667    5.000    2.000    0.000    7.667 
#    0.000    2.500    0.000    0.500    0.000    0.000 
#    0.000    0.000    0.000    0.000    0.000    0.000 
#
# Total GULP energy -133864.897897 kJ/mol
# GULP energy per Si atom -5577.704079 kJ/mol
# Density = 1.997383 g / cm^3
# Si number density = 20.019398 Si / 1000 Ang^3
#
#
#
# Elastic Constant Matrix: (Units=GPa)
#
#
# Indices 1 2 3 4 5 6 
#
# 1 111.1338 28.0839 36.5208 0.0000 -9.8529 0.0000
# 2 28.0839 130.3491 0.5642 0.0000 3.3101 0.0000
# 3 36.5208 0.5642 119.4897 0.0000 -21.1006 0.0000
# 4 0.0000 0.0000 0.0000 -4.2453 0.0000 -15.9154
# 5 -9.8529 3.3101 -21.1006 0.0000 22.7450 0.0000
# 6 0.0000 0.0000 0.0000 -15.9154 0.0000 -19.6963
#
#
#
# Elastic Compliance Matrix: (Units=1/GPa)
#
#
# Indices 1 2 3 4 5 6 
#
# 1 0.010742 -0.002362 -0.002858 0.000000 0.002346 0.000000
# 2 -0.002362 0.008227 0.000348 0.000000 -0.001898 0.000000
# 3 -0.002858 0.000348 0.010779 0.000000 0.008711 0.000000
# 4 0.000000 0.000000 0.000000 0.116076 0.000000 -0.093794
# 5 0.002346 -0.001898 0.008711 0.000000 0.053339 0.000000
# 6 0.000000 0.000000 0.000000 -0.093794 0.000000 0.025019
#
#
# Mechanical properties :
#
#
# Convention : Reuss Voigt Hill
#
# Bulk Modulus (GPa) = 49.98699 54.59005 52.28852
# Shear Modulus (GPa) = 20.78194 19.48094 20.13144
#
# Velocity S-wave (km/s) = 3.22544 3.12284 3.17455
# Velocity P-wave (km/s) = 6.23656 6.35064 6.29386
#
# Compressibility (1/GPa) = 0.02000520
#
# Stress axis : x y z
#
# Youngs Moduli (GPa) = 93.09210 121.54811 92.77268
#
# Poissons Ratio (x) = 0.28705 0.26513
# Poissons Ratio (y) = 0.21985 -0.03227
# Poissons Ratio (z) = 0.26604 -0.04228
#
# Static dielectric constant tensor:
#      x y z
#    x 1.786150 0.000000 -0.010460 
#    y 0.000000 1.690040 0.000000 
#    z -0.010460 0.000000 1.710830 
# 
# From -- ./inp_files/59038.got.cif
#   From: 2010.05.17/outbox.cif.g08.bks.cpg/sg10_30_cif.got.tgz:59038.got - 2010.06.03 11:33:40.
