data_PCOD9150120
_publ_section_title
;
Structure prediction by ZEFSAII (Michael W. Deem and Ramdas Pophale) SiO2 
 PCOD9150120
Probable space group: P 2/M
;
_chemical_formula_sum "Si O2"
_cell_formula_units_Z 32
_cell_length_a 23.828499
_cell_length_b 7.662860
_cell_length_c 14.839230
_cell_angle_alpha 90.000000
_cell_angle_beta 31.534593
_cell_angle_gamma 90.000000
_cell_volume 1417.136370
_symmetry_space_group_name_H-M "P 2/M"
_symmetry_group_IT_number 10
_symmetry_cell_setting 'monoclinic'
loop_
_space_group_symop_operation_xyz
x,y,z
-x,y,-z
-x,-y,-z
x,-y,z
loop_
_atom_site_type_symbol
_atom_site_label
_atom_site_fract_x
_atom_site_fract_y
_atom_site_fract_z
Si Si1 0.240989 0.211306 0.949494
Si Si2 0.003764 0.205097 0.716893
Si Si3 0.920870 0.711117 0.186540
Si Si4 0.108645 0.298668 0.397020
Si Si5 0.401496 0.706963 0.576972
Si Si6 0.474852 0.299393 0.131560
Si Si7 0.324540 0.714613 0.491242
Si Si8 0.331849 0.799448 0.011235
O O1 0.295044 0.267534 0.782518
O O2 0.239270 0.000000 0.954347
O O3 0.118270 0.272222 0.127611
O O4 0.311839 0.271242 0.937831
O O5 0.038994 0.231750 0.770842
O O6 0.085533 0.290005 0.534734
O O7 0.002944 0.000000 0.697183
O O8 0.921831 0.500000 0.184021
O O9 0.799049 0.767489 0.336549
O O10 0.000000 0.773654 0.000000
O O11 0.119684 0.500000 0.353508
O O12 0.216085 0.206460 0.217975
O O13 0.000000 0.226794 0.500000
O O14 0.500000 0.782400 0.500000
O O15 0.420275 0.500000 0.542019
O O16 0.385072 0.775308 0.498685
O O17 0.442222 0.500000 0.158119
O O18 0.382276 0.222836 0.321476
O O19 0.500000 0.217720 0.000000
O O20 0.581061 0.297072 0.047744
O O21 0.328069 0.500000 0.486383
O O22 0.367358 0.000000 0.955838
#
# Coordination Sequence:
#
# PCOD9150120 Si02
#       8
#     4   4   4   4   4   4   4   4
#     4  10  22  38  57  84 120 157 189 236 299 362
#     4  11  23  39  59  86 122 160 198 243 304 364
#     4  10  21  38  61  88 121 163 207 254 305 358
#     4  11  23  39  62  92 121 156 202 249 299 364
#     4  10  20  35  60  88 114 148 194 247 298 354
#     4  10  22  40  62  87 117 158 206 256 303 354
#     4   9  19  37  58  85 122 156 195 253 310 352
#     4  11  23  40  61  86 123 160 195 245 306 365
#
# _framework density 22.580746999999999
#
# number of rings (size 3 to 8) (size 9 to 14) (size 15 to 20)
#    0.000    1.750    1.250    2.625    1.750    5.250 
#    0.000    1.875    0.000    0.000    0.000    0.000 
#    0.000    0.000    0.000    0.000    0.000    0.000 
#
# Total GULP energy -178967.974433 kJ/mol
# GULP energy per Si atom -5592.749201 kJ/mol
# Density = 2.252935 g / cm^3
# Si number density = 22.580747 Si / 1000 Ang^3
#
#
#
# Elastic Constant Matrix: (Units=GPa)
#
#
# Indices 1 2 3 4 5 6 
#
# 1 124.2446 2.8124 43.2372 0.0000 22.1261 0.0000
# 2 2.8124 49.0149 -1.0824 0.0000 -1.5478 0.0000
# 3 43.2372 -1.0824 128.0183 0.0000 19.4172 0.0000
# 4 0.0000 0.0000 0.0000 10.8747 0.0000 8.3792
# 5 22.1261 -1.5478 19.4172 0.0000 44.6042 0.0000
# 6 0.0000 0.0000 0.0000 8.3792 0.0000 36.9357
#
#
#
# Elastic Compliance Matrix: (Units=1/GPa)
#
#
# Indices 1 2 3 4 5 6 
#
# 1 0.009658 -0.000729 -0.002717 0.000000 -0.003633 0.000000
# 2 -0.000729 0.020480 0.000275 0.000000 0.000953 0.000000
# 3 -0.002717 0.000275 0.009128 0.000000 -0.002616 0.000000
# 4 0.000000 0.000000 0.000000 0.111436 0.000000 -0.025280
# 5 -0.003633 0.000953 -0.002616 0.000000 0.025394 0.000000
# 6 0.000000 0.000000 0.000000 -0.025280 0.000000 0.032809
#
#
# Mechanical properties :
#
#
# Convention : Reuss Voigt Hill
#
# Bulk Modulus (GPa) = 30.37307 43.46804 36.92056
# Shear Modulus (GPa) = 22.10223 35.57028 28.83625
#
# Velocity S-wave (km/s) = 3.13199 3.97325 3.57743
# Velocity P-wave (km/s) = 5.15356 6.35144 5.78359
#
# Compressibility (1/GPa) = 0.03292390
#
# Stress axis : x y z
#
# Youngs Moduli (GPa) = 103.54487 48.82828 109.55112
#
# Poissons Ratio (x) = 0.03559 0.29764
# Poissons Ratio (y) = 0.07547 -0.03011
# Poissons Ratio (z) = 0.28132 -0.01342
#
# Static dielectric constant tensor:
#      x y z
#    x 1.812120 0.000000 0.006200 
#    y 0.000000 1.841090 0.000000 
#    z 0.006200 0.000000 1.813210 
# 
# From -- ./inp_files/71518.got.cif
#   From: 2010.05.17/outbox.cif.g08.bks.cpg/sg10_36_cif.got.tgz:71518.got - 2010.06.03 11:33:40.
