data_PCOD9150130
_publ_section_title
;
Structure prediction by ZEFSAII (Michael W. Deem and Ramdas Pophale) SiO2 
 PCOD9150130
Probable space group: P 2/M
;
_chemical_formula_sum "Si O2"
_cell_formula_units_Z 28
_cell_length_a 15.996626
_cell_length_b 8.956218
_cell_length_c 19.956164
_cell_angle_alpha 90.000000
_cell_angle_beta 30.198444
_cell_angle_gamma 90.000000
_cell_volume 1438.119758
_symmetry_space_group_name_H-M "P 2/M"
_symmetry_group_IT_number 10
_symmetry_cell_setting 'monoclinic'
loop_
_space_group_symop_operation_xyz
x,y,z
-x,y,-z
-x,-y,-z
x,-y,z
loop_
_atom_site_type_symbol
_atom_site_label
_atom_site_fract_x
_atom_site_fract_y
_atom_site_fract_z
Si Si1 0.922904 0.822079 0.870626
Si Si2 0.523710 0.174904 0.404188
Si Si3 0.980279 0.179814 0.674283
Si Si4 0.121417 0.321740 0.853777
Si Si5 0.464699 0.821362 0.830162
Si Si6 0.326461 0.323162 0.429333
Si Si7 0.633180 0.181746 0.852169
O O1 0.953597 0.784965 0.771518
O O2 0.036964 0.734230 0.843679
O O3 0.954365 0.000000 0.856719
O O4 0.729548 0.794300 0.021538
O O5 0.500000 0.190442 0.500000
O O6 0.701370 0.242571 0.261261
O O7 0.379475 0.259613 0.464709
O O8 0.517171 0.000000 0.391470
O O9 0.148633 0.255257 0.533410
O O10 0.817493 0.228032 0.745844
O O11 0.995123 0.000000 0.658636
O O12 0.144042 0.500000 0.836746
O O13 0.000000 0.284340 0.000000
O O14 0.534908 0.735518 0.718030
O O15 0.569756 0.775207 0.822916
O O16 0.485330 0.000000 0.806209
O O17 0.320679 0.500000 0.434204
O O18 0.631857 0.000000 0.854658
O O19 0.500000 0.231794 0.000000
#
# Coordination Sequence:
#
# PCOD9150130 Si02
#       7
#     4   4   4   4   4   4   4
#     4  10  20  35  60  90 116 148 194 248 298 348
#     4  11  24  43  66  89 114 149 199 253 300 348
#     4  10  20  37  62  90 119 150 194 248 297 348
#     4  11  24  39  57  85 121 158 194 236 290 355
#     4  10  20  37  63  91 120 156 198 248 301 346
#     4  12  26  41  57  84 124 164 199 237 290 356
#     4   9  16  33  63  95 120 147 194 252 300 344
#
# _framework density 19.469866
#
# number of rings (size 3 to 8) (size 9 to 14) (size 15 to 20)
#    0.000    1.571    1.429    3.857    0.000    9.714 
#    0.000    3.571    0.000    0.857    0.000    0.000 
#    0.000    0.000    0.000    0.000    0.000    0.000 
#
# Total GULP energy -156561.441146 kJ/mol
# GULP energy per Si atom -5591.480041 kJ/mol
# Density = 1.942555 g / cm^3
# Si number density = 19.469866 Si / 1000 Ang^3
#
#
#
# Elastic Constant Matrix: (Units=GPa)
#
#
# Indices 1 2 3 4 5 6 
#
# 1 63.2407 15.8266 -9.4914 0.0000 -17.4178 0.0000
# 2 15.8266 38.4460 28.0557 0.0000 -2.5087 0.0000
# 3 -9.4914 28.0557 63.8805 0.0000 -10.8502 0.0000
# 4 0.0000 0.0000 0.0000 -16.0837 0.0000 -12.2134
# 5 -17.4178 -2.5087 -10.8502 0.0000 32.5536 0.0000
# 6 0.0000 0.0000 0.0000 -12.2134 0.0000 -25.1683
#
#
#
# Elastic Compliance Matrix: (Units=1/GPa)
#
#
# Indices 1 2 3 4 5 6 
#
# 1 0.030857 -0.025431 0.019319 0.000000 0.020989 0.000000
# 2 -0.025431 0.059482 -0.033321 0.000000 -0.020129 0.000000
# 3 0.019319 -0.033321 0.036548 0.000000 0.019950 0.000000
# 4 0.000000 0.000000 0.000000 -0.098456 0.000000 0.047778
# 5 0.020989 -0.020129 0.019950 0.000000 0.047047 0.000000
# 6 0.000000 0.000000 0.000000 0.047778 0.000000 -0.062918
#
#
# Mechanical properties :
#
#
# Convention : Reuss Voigt Hill
#
# Bulk Modulus (GPa) = 20.82460 26.03878 23.43169
# Shear Modulus (GPa) = 46.54042 7.00542 26.77292
#
# Velocity S-wave (km/s) = 4.89446 1.89892 3.71225
# Velocity P-wave (km/s) = 6.53146 4.26741 5.51683
#
# Compressibility (1/GPa) = 0.04802013
#
# Stress axis : x y z
#
# Youngs Moduli (GPa) = 32.40729 16.81188 27.36162
#
# Poissons Ratio (x) = 0.42754 -0.52859
# Poissons Ratio (y) = 0.82414 0.91172
# Poissons Ratio (z) = -0.62607 0.56019
#
# Static dielectric constant tensor:
#      x y z
#    x 1.674410 0.000000 0.003260 
#    y 0.000000 1.648010 0.000000 
#    z 0.003260 0.000000 1.664820 
# 
# From -- ./inp_files/84913.got.cif
#   From: 2010.05.17/outbox.cif.g08.bks.cpg/sg10_43_cif.got.tgz:84913.got - 2010.06.03 11:33:40.
