data_PCOD9150864
_publ_section_title
;
Structure prediction by ZEFSAII (Michael W. Deem and Ramdas Pophale) SiO2 
 PCOD9150864
Probable space group: P 2/M
;
_chemical_formula_sum "Si O2"
_cell_formula_units_Z 30
_cell_length_a 7.174678
_cell_length_b 32.632881
_cell_length_c 5.330735
_cell_angle_alpha 90.000000
_cell_angle_beta 101.377568
_cell_angle_gamma 90.000000
_cell_volume 1223.560385
_symmetry_space_group_name_H-M "P 2/M"
_symmetry_group_IT_number 10
_symmetry_cell_setting 'monoclinic'
loop_
_space_group_symop_operation_xyz
x,y,z
-x,y,-z
-x,-y,-z
x,-y,z
loop_
_atom_site_type_symbol
_atom_site_label
_atom_site_fract_x
_atom_site_fract_y
_atom_site_fract_z
Si Si1 0.722430 0.243430 0.626780
Si Si2 0.226881 0.330578 0.091511
Si Si3 0.314814 0.879883 0.778874
Si Si4 0.000000 0.919206 0.000000
Si Si5 0.628554 0.544986 0.283291
Si Si6 0.286064 0.212562 0.873719
Si Si7 0.777712 0.368036 0.413257
Si Si8 0.215746 0.955584 0.447041
O O1 0.500000 0.236918 0.500000
O O2 0.745020 0.286284 0.776269
O O3 0.806094 0.240750 0.365354
O O4 0.794663 0.211697 0.862151
O O5 0.302014 0.361080 0.327834
O O6 0.303435 0.339522 0.832214
O O7 0.000000 0.336492 0.000000
O O8 0.307247 0.831267 0.739665
O O9 0.318186 0.914956 0.569317
O O10 0.500000 0.886246 0.000000
O O11 0.110455 0.889583 0.844867
O O12 0.167875 0.948227 0.144693
O O13 0.500000 0.546178 0.500000
O O14 0.724520 0.500000 0.304338
O O15 0.757918 0.585054 0.325501
O O16 0.500000 0.547535 0.000000
O O17 0.500000 0.226596 0.000000
O O18 0.000000 0.357687 0.500000
O O19 0.000000 0.956070 0.500000
O O20 0.299621 0.000000 0.526358
#
# Coordination Sequence:
#
# PCOD9150864 Si02
#       8
#     4   4   4   2   4   4   4   4
#     4  10  20  37  59  84 113 152 196 240 293 359
#     4  10  21  37  55  83 116 150 191 244 297 345
#     4  10  22  39  61  87 120 157 198 253 307 364
#     4  10  21  38  60  86 118 156 204 242 304 372
#     4  10  21  37  57  85 119 152 195 249 299 347
#     4   9  20  37  59  84 116 153 193 242 297 351
#     4  10  21  37  58  81 117 156 196 239 293 355
#     4   9  19  37  59  86 120 155 197 250 302 362
#
# _framework density 24.518606999999999
#
# number of rings (size 3 to 8) (size 9 to 14) (size 15 to 20)
#    0.000    2.267    0.000    1.800    1.867    3.200 
#    1.200    0.667    0.000    4.800    0.000    0.000 
#    0.000    0.000    0.000    0.000    0.000    0.000 
#
# Total GULP energy -167288.625825 kJ/mol
# GULP energy per Si atom -5576.287528 kJ/mol
# Density = 2.446280 g / cm^3
# Si number density = 24.518607 Si / 1000 Ang^3
#
#
#
# Elastic Constant Matrix: (Units=GPa)
#
#
# Indices 1 2 3 4 5 6 
#
# 1 51.6186 -11.9017 21.6345 0.0000 5.7364 0.0000
# 2 -11.9017 145.2976 83.6009 0.0000 19.0555 0.0000
# 3 21.6345 83.6009 189.9029 0.0000 -4.3554 0.0000
# 4 0.0000 0.0000 0.0000 17.0019 0.0000 8.6292
# 5 5.7364 19.0555 -4.3554 0.0000 32.5344 0.0000
# 6 0.0000 0.0000 0.0000 8.6292 0.0000 23.6708
#
#
#
# Elastic Compliance Matrix: (Units=1/GPa)
#
#
# Indices 1 2 3 4 5 6 
#
# 1 0.024313 0.006520 -0.005844 0.000000 -0.008888 0.000000
# 2 0.006520 0.012282 -0.006361 0.000000 -0.009195 0.000000
# 3 -0.005844 -0.006361 0.008868 0.000000 0.005943 0.000000
# 4 0.000000 0.000000 0.000000 0.072170 0.000000 -0.026310
# 5 -0.008888 -0.009195 0.005943 0.000000 0.038485 0.000000
# 6 0.000000 0.000000 0.000000 -0.026310 0.000000 0.051837
#
#
# Mechanical properties :
#
#
# Convention : Reuss Voigt Hill
#
# Bulk Modulus (GPa) = 29.33114 63.72071 46.52593
# Shear Modulus (GPa) = 21.67418 34.20712 27.94065
#
# Velocity S-wave (km/s) = 2.97642 3.73922 3.37941
# Velocity P-wave (km/s) = 4.87862 6.68487 5.85185
#
# Compressibility (1/GPa) = 0.03409346
#
# Stress axis : x y z
#
# Youngs Moduli (GPa) = 41.13026 81.41992 112.76523
#
# Poissons Ratio (x) = -0.53082 0.65897
# Poissons Ratio (y) = -0.26815 0.71724
# Poissons Ratio (z) = 0.24036 0.51787
#
# Static dielectric constant tensor:
#      x y z
#    x 2.040640 0.000000 -0.112560 
#    y 0.000000 1.976950 0.000000 
#    z -0.112560 0.000000 2.135380 
# 
# From -- ./inp_files/5541.got.cif
#   From: 2010.05.17/outbox.cif.g08.bks.cpg/sg10_3_cif.got.tgz:5541.got - 2010.06.03 11:33:40.
