data_PCOD9150336
_publ_section_title
;
Structure prediction by ZEFSAII (Michael W. Deem and Ramdas Pophale) SiO2 
 PCOD9150336
Probable space group: P 2/M
;
_chemical_formula_sum "Si O2"
_cell_formula_units_Z 28
_cell_length_a 23.839637
_cell_length_b 8.051118
_cell_length_c 22.726042
_cell_angle_alpha 90.000000
_cell_angle_beta 17.664462
_cell_angle_gamma 90.000000
_cell_volume 1323.596115
_symmetry_space_group_name_H-M "P 2/M"
_symmetry_group_IT_number 10
_symmetry_cell_setting 'monoclinic'
loop_
_space_group_symop_operation_xyz
x,y,z
-x,y,-z
-x,-y,-z
x,-y,z
loop_
_atom_site_type_symbol
_atom_site_label
_atom_site_fract_x
_atom_site_fract_y
_atom_site_fract_z
Si Si1 0.235998 0.198012 0.216579
Si Si2 0.674483 0.802805 0.748787
Si Si3 0.108489 0.694711 0.667675
Si Si4 0.708377 0.796520 0.287410
Si Si5 0.995459 0.801282 0.099135
Si Si6 0.570059 0.304210 0.730180
Si Si7 0.840857 0.195082 0.832825
O O1 0.214059 0.260820 0.305375
O O2 0.139210 0.262872 0.254109
O O3 0.197692 0.000000 0.257520
O O4 0.455949 0.214097 0.983145
O O5 0.689497 0.718992 0.670619
O O6 0.711364 0.000000 0.705445
O O7 0.136461 0.500000 0.646620
O O8 0.035784 0.759401 0.802185
O O9 0.304767 0.763540 0.448053
O O10 0.962724 0.723872 0.761282
O O11 0.500000 0.737194 0.500000
O O12 0.829277 0.743431 0.222811
O O13 0.705025 0.000000 0.290876
O O14 0.816503 0.742799 0.120450
O O15 0.997336 0.000000 0.093033
O O16 0.532691 0.500000 0.760096
O O17 0.374789 0.215325 0.934422
O O18 0.886020 0.000000 0.786054
#
# Coordination Sequence:
#
# PCOD9150336 Si02
#       7
#     4   4   4   4   4   4   4
#     4   7  12  25  47  74  99 125 166 225 283 325
#     4   8  13  26  49  73  98 130 173 224 274 326
#     4  11  24  39  53  75 114 154 183 219 266 317
#     4   8  15  31  56  85 113 136 165 214 265 302
#     4   9  18  33  55  82 108 138 179 218 253 303
#     4  10  21  36  52  74 108 146 181 221 274 330
#     4  10  20  36  58  79 101 136 185 234 276 324
#
# _framework density 21.154489000000002
#
# number of rings (size 3 to 8) (size 9 to 14) (size 15 to 20)
#    0.000    3.000    0.000    3.857    0.000    3.429 
#    0.000   10.000    0.000    5.143    0.000    0.000 
#    0.000    0.000    0.000    0.000    0.000    0.000 
#
# Total GULP energy -156183.709614 kJ/mol
# GULP energy per Si atom -5577.989629 kJ/mol
# Density = 2.110634 g / cm^3
# Si number density = 21.154489 Si / 1000 Ang^3
#
#
#
# Elastic Constant Matrix: (Units=GPa)
#
#
# Indices 1 2 3 4 5 6 
#
# 1 75.0456 -2.5783 58.1376 0.0000 25.3202 0.0000
# 2 -2.5783 10.0725 -0.7413 0.0000 4.0267 0.0000
# 3 58.1376 -0.7413 127.5726 0.0000 17.0914 0.0000
# 4 0.0000 0.0000 0.0000 6.9149 0.0000 -8.3831
# 5 25.3202 4.0267 17.0914 0.0000 30.8961 0.0000
# 6 0.0000 0.0000 0.0000 -8.3831 0.0000 23.6943
#
#
#
# Elastic Compliance Matrix: (Units=1/GPa)
#
#
# Indices 1 2 3 4 5 6 
#
# 1 0.028244 0.014219 -0.010195 0.000000 -0.019360 0.000000
# 2 0.014219 0.112720 -0.002479 0.000000 -0.024972 0.000000
# 3 -0.010195 -0.002479 0.012213 0.000000 0.001922 0.000000
# 4 0.000000 0.000000 0.000000 0.253233 0.000000 0.089595
# 5 -0.019360 -0.024972 0.001922 0.000000 0.050424 0.000000
# 6 0.000000 0.000000 0.000000 0.089595 0.000000 0.073903
#
#
# Mechanical properties :
#
#
# Convention : Reuss Voigt Hill
#
# Bulk Modulus (GPa) = 6.39936 35.81409 21.10673
# Shear Modulus (GPa) = 8.62462 22.82591 15.72527
#
# Velocity S-wave (km/s) = 2.02134 3.28839 2.72941
# Velocity P-wave (km/s) = 2.91194 5.60219 4.46452
#
# Compressibility (1/GPa) = 0.15626559
#
# Stress axis : x y z
#
# Youngs Moduli (GPa) = 35.40625 8.87154 81.88142
#
# Poissons Ratio (x) = -0.12614 0.83477
# Poissons Ratio (y) = -0.50343 0.20300
# Poissons Ratio (z) = 0.36096 0.02199
#
# Static dielectric constant tensor:
#      x y z
#    x 1.767690 0.000000 0.010250 
#    y 0.000000 1.736920 0.000000 
#    z 0.010250 0.000000 1.833940 
# 
# From -- ./inp_files/86455.got.cif
#   From: 2010.05.17/outbox.cif.g08.bks.cpg/sg10_44_cif.got.tgz:86455.got - 2010.06.03 11:33:40.
