data_PCOD9150217
_publ_section_title
;
Structure prediction by ZEFSAII (Michael W. Deem and Ramdas Pophale) SiO2 
 PCOD9150217
Probable space group: P 2/M
;
_chemical_formula_sum "Si O2"
_cell_formula_units_Z 28
_cell_length_a 31.009865
_cell_length_b 8.718751
_cell_length_c 10.042071
_cell_angle_alpha 90.000000
_cell_angle_beta 36.606579
_cell_angle_gamma 90.000000
_cell_volume 1619.029151
_symmetry_space_group_name_H-M "P 2/M"
_symmetry_group_IT_number 10
_symmetry_cell_setting 'monoclinic'
loop_
_space_group_symop_operation_xyz
x,y,z
-x,y,-z
-x,-y,-z
x,-y,z
loop_
_atom_site_type_symbol
_atom_site_label
_atom_site_fract_x
_atom_site_fract_y
_atom_site_fract_z
Si Si1 0.939578 0.814350 0.543713
Si Si2 0.775687 0.814038 0.954946
Si Si3 0.658085 0.681610 0.746475
Si Si4 0.507450 0.176272 0.142693
Si Si5 0.936253 0.683887 0.258849
Si Si6 0.220992 0.815760 0.359913
Si Si7 0.652090 0.813476 0.464046
O O1 0.857840 0.769270 0.787686
O O2 0.952949 0.744689 0.365379
O O3 0.000000 0.767821 0.500000
O O4 0.940893 0.000000 0.529220
O O5 0.763136 0.767967 0.832687
O O6 0.773500 0.000000 0.962845
O O7 0.714615 0.761354 0.208684
O O8 0.664977 0.500000 0.723264
O O9 0.719458 0.751680 0.688031
O O10 0.663987 0.750007 0.582761
O O11 0.578423 0.727211 0.997731
O O12 0.428584 0.231133 0.385000
O O13 0.519003 0.000000 0.156639
O O14 0.500000 0.175485 0.000000
O O15 0.930377 0.500000 0.275477
O O16 0.859068 0.754398 0.409477
O O17 0.000000 0.727849 0.000000
O O18 0.220445 0.000000 0.366172
O O19 0.651894 0.000000 0.472484
#
# Coordination Sequence:
#
# PCOD9150217 Si02
#       7
#     4   4   4   4   4   4   4
#     4   9  18  33  53  77 103 133 172 210 245 294
#     4   8  16  32  53  75  98 127 166 212 255 292
#     4  11  21  32  49  75 105 134 166 205 251 301
#     4   8  15  29  49  71  96 129 169 210 251 294
#     4  10  21  36  53  76 106 135 165 205 253 300
#     4  10  20  36  56  75  99 133 171 207 247 297
#     4   9  17  32  53  75  99 129 169 214 254 296
#
# _framework density 17.294315000000001
#
# number of rings (size 3 to 8) (size 9 to 14) (size 15 to 20)
#    0.000    2.714    0.000    3.857    0.000    5.143 
#    0.000    5.714    0.000    4.286    0.000    0.000 
#    0.000    0.000    0.000    0.000    0.000    0.000 
#
# Total GULP energy -156086.680795 kJ/mol
# GULP energy per Si atom -5574.524314 kJ/mol
# Density = 1.725495 g / cm^3
# Si number density = 17.294315 Si / 1000 Ang^3
#
#
#
# Elastic Constant Matrix: (Units=GPa)
#
#
# Indices 1 2 3 4 5 6 
#
# 1 143.6530 45.8604 87.2460 0.0000 -27.0389 0.0000
# 2 45.8604 45.0225 40.7081 0.0000 -10.5745 0.0000
# 3 87.2460 40.7081 173.8315 0.0000 -22.9934 0.0000
# 4 0.0000 0.0000 0.0000 14.8078 0.0000 -1.6781
# 5 -27.0389 -10.5745 -22.9934 0.0000 13.2462 0.0000
# 6 0.0000 0.0000 0.0000 -1.6781 0.0000 6.3690
#
#
#
# Elastic Compliance Matrix: (Units=1/GPa)
#
#
# Indices 1 2 3 4 5 6 
#
# 1 0.014936 -0.007978 -0.003164 0.000000 0.018627 0.000000
# 2 -0.007978 0.034703 -0.003391 0.000000 0.005532 0.000000
# 3 -0.003164 -0.003391 0.008986 0.000000 0.006432 0.000000
# 4 0.000000 0.000000 0.000000 0.069610 0.000000 0.018340
# 5 0.018627 0.005532 0.006432 0.000000 0.129096 0.000000
# 6 0.000000 0.000000 0.000000 0.018340 0.000000 0.161842
#
#
# Mechanical properties :
#
#
# Convention : Reuss Voigt Hill
#
# Bulk Modulus (GPa) = 33.83145 78.90399 56.36772
# Shear Modulus (GPa) = 10.91486 19.46412 15.18949
#
# Velocity S-wave (km/s) = 2.51494 3.35843 2.96682
# Velocity P-wave (km/s) = 5.29508 7.79500 6.66333
#
# Compressibility (1/GPa) = 0.02955830
#
# Stress axis : x y z
#
# Youngs Moduli (GPa) = 66.95308 28.81607 111.28858
#
# Poissons Ratio (x) = 0.22989 0.35214
# Poissons Ratio (y) = 0.53415 0.37736
# Poissons Ratio (z) = 0.21185 0.09771
#
# Static dielectric constant tensor:
#      x y z
#    x 1.562600 0.000000 -0.016580 
#    y 0.000000 1.577940 0.000000 
#    z -0.016580 0.000000 1.597000 
# 
# From -- ./inp_files/37922.got.cif
#   From: 2010.05.17/outbox.cif.g08.bks.cpg/sg10_19_cif.got.tgz:37922.got - 2010.06.03 11:33:40.
