data_PCOD9150383
_publ_section_title
;
Structure prediction by ZEFSAII (Michael W. Deem and Ramdas Pophale) SiO2 
 PCOD9150383
Probable space group: P 2/M
;
_chemical_formula_sum "Si O2"
_cell_formula_units_Z 26
_cell_length_a 9.543421
_cell_length_b 7.401884
_cell_length_c 16.383074
_cell_angle_alpha 90.000000
_cell_angle_beta 64.704621
_cell_angle_gamma 90.000000
_cell_volume 1046.324495
_symmetry_space_group_name_H-M "P 2/M"
_symmetry_group_IT_number 10
_symmetry_cell_setting 'monoclinic'
loop_
_space_group_symop_operation_xyz
x,y,z
-x,y,-z
-x,-y,-z
x,-y,z
loop_
_atom_site_type_symbol
_atom_site_label
_atom_site_fract_x
_atom_site_fract_y
_atom_site_fract_z
Si Si1 0.747264 0.713858 0.441139
Si Si2 0.413065 0.713498 0.349190
Si Si3 0.648667 0.000000 0.326233
Si Si4 0.661084 0.291653 0.988215
Si Si5 0.154099 0.210154 0.915631
Si Si6 0.039440 0.282617 0.181252
Si Si7 0.086243 0.718028 0.355852
O O1 0.749835 0.500000 0.416933
O O2 0.625053 0.734930 0.544518
O O3 0.917930 0.759783 0.435599
O O4 0.711699 0.842440 0.374925
O O5 0.438990 0.500000 0.326332
O O6 0.252904 0.777159 0.346442
O O7 0.555839 0.842040 0.296211
O O8 0.657627 0.500000 0.961726
O O9 0.698467 0.290351 0.075178
O O10 0.500000 0.209435 0.000000
O O11 0.811382 0.214009 0.905705
O O12 0.112093 0.222528 0.830963
O O13 0.162948 0.000000 0.932207
O O14 0.000000 0.288109 0.000000
O O15 0.034121 0.500000 0.181406
O O16 0.060135 0.225675 0.268570
O O17 0.097313 0.500000 0.357385
#
# Coordination Sequence:
#
# PCOD9150383 Si02
#       7
#     4   4   2   4   4   4   4
#     4  10  20  36  58  83 111 146 191 239 280 331
#     4  10  20  36  58  83 113 148 189 235 284 336
#     4  12  23  36  56  84 114 148 188 230 287 344
#     4   9  17  30  52  80 105 133 174 219 262 318
#     4   9  17  30  49  74 103 134 169 211 259 312
#     4   9  17  33  55  75 100 137 178 220 267 318
#     4   9  19  36  57  79 106 145 189 236 283 326
#
# _framework density 24.848886
#
# number of rings (size 3 to 8) (size 9 to 14) (size 15 to 20)
#    0.000    2.462    0.000    2.769    0.000    5.846 
#    2.769    3.077    0.000    5.538    0.000    0.000 
#    0.000    0.000    0.000    0.000    0.000    0.000 
#
# Total GULP energy -144773.680865 kJ/mol
# GULP energy per Si atom -5568.218495 kJ/mol
# Density = 2.479233 g / cm^3
# Si number density = 24.848886 Si / 1000 Ang^3
#
#
#
# Elastic Constant Matrix: (Units=GPa)
#
#
# Indices 1 2 3 4 5 6 
#
# 1 185.7865 25.8767 20.6228 0.0000 14.9468 0.0000
# 2 25.8767 103.5151 3.0347 0.0000 -2.7552 0.0000
# 3 20.6228 3.0347 40.2782 0.0000 2.9324 0.0000
# 4 0.0000 0.0000 0.0000 23.1650 0.0000 42.5802
# 5 14.9468 -2.7552 2.9324 0.0000 29.1591 0.0000
# 6 0.0000 0.0000 0.0000 42.5802 0.0000 9.1044
#
#
#
# Elastic Compliance Matrix: (Units=1/GPa)
#
#
# Indices 1 2 3 4 5 6 
#
# 1 0.006151 -0.001535 -0.002814 0.000000 -0.003015 0.000000
# 2 -0.001535 0.010094 -0.000102 0.000000 0.001751 0.000000
# 3 -0.002814 -0.000102 0.026365 0.000000 -0.001218 0.000000
# 4 0.000000 0.000000 0.000000 -0.005683 0.000000 0.026577
# 5 -0.003015 0.001751 -0.001218 0.000000 0.036128 0.000000
# 6 0.000000 0.000000 0.000000 0.026577 0.000000 -0.014458
#
#
# Mechanical properties :
#
#
# Convention : Reuss Voigt Hill
#
# Bulk Modulus (GPa) = 29.66777 47.62759 38.64768
# Shear Modulus (GPa) = 63.50346 30.95540 47.22943
#
# Velocity S-wave (km/s) = 5.06076 3.53334 4.36439
# Velocity P-wave (km/s) = 6.79070 5.98786 6.40188
#
# Compressibility (1/GPa) = 0.03370661
#
# Stress axis : x y z
#
# Youngs Moduli (GPa) = 162.56556 99.07021 37.92955
#
# Poissons Ratio (x) = 0.15212 0.10675
# Poissons Ratio (y) = 0.24961 0.00386
# Poissons Ratio (z) = 0.45751 0.01009
#
# Static dielectric constant tensor:
#      x y z
#    x 2.044240 0.000000 -0.067360 
#    y 0.000000 1.936200 0.000000 
#    z -0.067360 0.000000 2.055650 
# 
# From -- ./inp_files/74331.got.cif
#   From: 2010.05.17/outbox.cif.g08.bks.cpg/sg10_38_cif.got.tgz:74331.got - 2010.06.03 11:33:40.
