data_PCOD9150582
_publ_section_title
;
Structure prediction by ZEFSAII (Michael W. Deem and Ramdas Pophale) SiO2 
 PCOD9150582
Probable space group: P 2/M
;
_chemical_formula_sum "Si O2"
_cell_formula_units_Z 28
_cell_length_a 9.560800
_cell_length_b 7.561103
_cell_length_c 27.690356
_cell_angle_alpha 90.000000
_cell_angle_beta 142.441777
_cell_angle_gamma 90.000000
_cell_volume 1220.195989
_symmetry_space_group_name_H-M "P 2/M"
_symmetry_group_IT_number 10
_symmetry_cell_setting 'monoclinic'
loop_
_space_group_symop_operation_xyz
x,y,z
-x,y,-z
-x,-y,-z
x,-y,z
loop_
_atom_site_type_symbol
_atom_site_label
_atom_site_fract_x
_atom_site_fract_y
_atom_site_fract_z
Si Si1 0.219860 0.294372 0.030105
Si Si2 0.439880 0.202660 0.252486
Si Si3 0.255618 0.703366 0.575852
Si Si4 0.738966 0.795655 0.168830
Si Si5 0.301159 0.213709 0.482041
Si Si6 0.077603 0.784308 0.882918
Si Si7 0.848653 0.217874 0.301301
O O1 0.241512 0.500000 0.049455
O O2 0.175342 0.277896 0.960730
O O3 0.468403 0.210178 0.106449
O O4 0.000000 0.222820 0.000000
O O5 0.583793 0.205849 0.341312
O O6 0.609428 0.280939 0.258915
O O7 0.187334 0.276807 0.191006
O O8 0.400884 0.000000 0.227028
O O9 0.231395 0.500000 0.585069
O O10 0.351944 0.712353 0.548521
O O11 0.000000 0.781518 0.500000
O O12 0.795035 0.721870 0.131059
O O13 0.866653 0.721184 0.250928
O O14 0.811747 0.000000 0.185934
O O15 0.500000 0.264148 0.500000
O O16 0.057408 0.270729 0.393069
O O17 0.297046 0.000000 0.484817
O O18 0.092085 0.000000 0.887931
O O19 0.847363 0.000000 0.301051
#
# Coordination Sequence:
#
# PCOD9150582 Si02
#       7
#     4   4   4   4   4   4   4
#     4  11  24  41  61  86 118 156 196 233 277 339
#     4  10  20  36  60  86 114 150 197 243 287 341
#     4  11  23  38  56  82 118 158 197 240 291 344
#     4  10  21  38  61  89 121 149 186 237 291 346
#     4  10  21  36  60  87 114 150 196 247 295 340
#     4  10  22  38  62  93 119 147 187 240 293 343
#     4   9  18  34  56  85 115 148 189 239 289 336
#
# _framework density 22.947133999999998
#
# number of rings (size 3 to 8) (size 9 to 14) (size 15 to 20)
#    0.000    1.857    1.429    2.143    2.000    6.000 
#    0.000    1.429    0.000    0.000    0.000    0.000 
#    0.000    0.000    0.000    0.000    0.000    0.000 
#
# Total GULP energy -156466.591554 kJ/mol
# GULP energy per Si atom -5588.092556 kJ/mol
# Density = 2.289490 g / cm^3
# Si number density = 22.947134 Si / 1000 Ang^3
#
#
#
# Elastic Constant Matrix: (Units=GPa)
#
#
# Indices 1 2 3 4 5 6 
#
# 1 117.9604 -2.5341 10.0121 0.0000 -17.0255 0.0000
# 2 -2.5341 53.5884 -12.7643 0.0000 3.4805 0.0000
# 3 10.0121 -12.7643 70.1983 0.0000 -14.8633 0.0000
# 4 0.0000 0.0000 0.0000 34.6503 0.0000 -19.6916
# 5 -17.0255 3.4805 -14.8633 0.0000 43.3088 0.0000
# 6 0.0000 0.0000 0.0000 -19.6916 0.0000 15.4541
#
#
#
# Elastic Compliance Matrix: (Units=1/GPa)
#
#
# Indices 1 2 3 4 5 6 
#
# 1 0.009009 0.000075 -0.000564 0.000000 0.003342 0.000000
# 2 0.000075 0.019512 0.003463 0.000000 -0.000350 0.000000
# 3 -0.000564 0.003463 0.016013 0.000000 0.004996 0.000000
# 4 0.000000 0.000000 0.000000 0.104611 0.000000 0.133295
# 5 0.003342 -0.000350 0.004996 0.000000 0.026147 0.000000
# 6 0.000000 0.000000 0.000000 0.133295 0.000000 0.234552
#
#
# Mechanical properties :
#
#
# Convention : Reuss Voigt Hill
#
# Bulk Modulus (GPa) = 19.80883 25.68605 22.74744
# Shear Modulus (GPa) = 11.88428 35.15153 23.51791
#
# Velocity S-wave (km/s) = 2.27821 3.91813 3.20484
# Velocity P-wave (km/s) = 3.94606 5.62911 4.86098
#
# Compressibility (1/GPa) = 0.05048253
#
# Stress axis : x y z
#
# Youngs Moduli (GPa) = 110.99687 51.25080 62.44835
#
# Poissons Ratio (x) = -0.00383 0.03520
# Poissons Ratio (y) = -0.00829 -0.21626
# Poissons Ratio (z) = 0.06257 -0.17749
#
# Static dielectric constant tensor:
#      x y z
#    x 1.867060 0.000000 0.003840 
#    y 0.000000 1.882320 0.000000 
#    z 0.003840 0.000000 1.818400 
# 
# From -- ./inp_files/36835.got.cif
#   From: 2010.05.17/outbox.cif.g08.bks.cpg/sg10_19_cif.got.tgz:36835.got - 2010.06.03 11:33:40.
