data_PCOD9150616
_publ_section_title
;
Structure prediction by ZEFSAII (Michael W. Deem and Ramdas Pophale) SiO2 
 PCOD9150616
Probable space group: P 2/M
;
_chemical_formula_sum "Si O2"
_cell_formula_units_Z 32
_cell_length_a 13.915217
_cell_length_b 13.585706
_cell_length_c 18.963902
_cell_angle_alpha 90.000000
_cell_angle_beta 158.002214
_cell_angle_gamma 90.000000
_cell_volume 1342.869395
_symmetry_space_group_name_H-M "P 2/M"
_symmetry_group_IT_number 10
_symmetry_cell_setting 'monoclinic'
loop_
_space_group_symop_operation_xyz
x,y,z
-x,y,-z
-x,-y,-z
x,-y,z
loop_
_atom_site_type_symbol
_atom_site_label
_atom_site_fract_x
_atom_site_fract_y
_atom_site_fract_z
Si Si1 0.962274 0.617226 0.896383
Si Si2 0.347645 0.880307 0.966932
Si Si3 0.129187 0.381107 0.862657
Si Si4 0.673647 0.382544 0.204525
Si Si5 0.235584 0.616701 0.566601
Si Si6 0.243201 0.883676 0.466283
Si Si7 0.430904 0.688826 0.562675
Si Si8 0.269423 0.881457 0.651599
O O1 0.007386 0.500000 0.930767
O O2 0.125195 0.653811 0.941255
O O3 0.661934 0.638352 0.679326
O O4 0.000000 0.660525 0.000000
O O5 0.047348 0.857418 0.754985
O O6 0.355284 0.000000 0.972851
O O7 0.500000 0.850963 0.000000
O O8 0.499038 0.847536 0.140331
O O9 0.144027 0.500000 0.872523
O O10 0.848899 0.352693 0.645968
O O11 0.382900 0.347321 0.993239
O O12 0.678068 0.500000 0.191826
O O13 0.701906 0.372574 0.308634
O O14 0.943334 0.344451 0.357800
O O15 0.235401 0.500000 0.552223
O O16 0.437465 0.662123 0.650308
O O17 0.426702 0.806516 0.552209
O O18 0.274171 0.864099 0.571321
O O19 0.286716 0.000000 0.483648
O O20 0.000000 0.844878 0.500000
O O21 0.265473 0.000000 0.655463
#
# Coordination Sequence:
#
# PCOD9150616 Si02
#       8
#     4   4   4   4   4   4   4   4
#     4  10  21  40  68  94 118 149 189 244 304 358
#     4   9  15  29  53  76 103 146 201 256 304 349
#     4  10  20  36  60  89 117 147 190 247 298 350
#     4   8  16  33  54  79 118 163 195 223 278 354
#     4   9  17  33  54  78 119 164 193 226 277 356
#     4  10  22  39  53  78 119 160 203 252 306 360
#     4  12  23  36  55  90 118 152 197 246 303 352
#     4   9  15  29  54  76 101 148 203 254 304 348
#
# _framework density 23.829567999999998
#
# number of rings (size 3 to 8) (size 9 to 14) (size 15 to 20)
#    0.000    2.375    1.250    3.000    0.000    3.500 
#    9.000    1.875    0.000    1.875    0.000    0.000 
#    0.000    0.000    0.000    0.000    0.000    0.000 
#
# Total GULP energy -178897.283933 kJ/mol
# GULP energy per Si atom -5590.540123 kJ/mol
# Density = 2.377533 g / cm^3
# Si number density = 23.829568 Si / 1000 Ang^3
#
#
#
# Elastic Constant Matrix: (Units=GPa)
#
#
# Indices 1 2 3 4 5 6 
#
# 1 69.8315 1.1350 23.4866 0.0000 6.3008 0.0000
# 2 1.1350 56.2044 -16.2400 0.0000 1.4346 0.0000
# 3 23.4866 -16.2400 91.3698 0.0000 -21.5443 0.0000
# 4 0.0000 0.0000 0.0000 13.8216 0.0000 2.8350
# 5 6.3008 1.4346 -21.5443 0.0000 46.9621 0.0000
# 6 0.0000 0.0000 0.0000 2.8350 0.0000 17.1312
#
#
#
# Elastic Compliance Matrix: (Units=1/GPa)
#
#
# Indices 1 2 3 4 5 6 
#
# 1 0.016730 -0.001883 -0.005776 0.000000 -0.004837 0.000000
# 2 -0.001883 0.019016 0.004246 0.000000 0.001620 0.000000
# 3 -0.005776 0.004246 0.014953 0.000000 0.007505 0.000000
# 4 0.000000 0.000000 0.000000 0.074893 0.000000 -0.012394
# 5 -0.004837 0.001620 0.007505 0.000000 0.025336 0.000000
# 6 0.000000 0.000000 0.000000 -0.012394 0.000000 0.060424
#
#
# Mechanical properties :
#
#
# Convention : Reuss Voigt Hill
#
# Bulk Modulus (GPa) = 22.79310 26.01878 24.40594
# Shear Modulus (GPa) = 21.47745 29.51792 25.49769
#
# Velocity S-wave (km/s) = 3.00541 3.52335 3.27464
# Velocity P-wave (km/s) = 4.65072 5.24351 4.95598
#
# Compressibility (1/GPa) = 0.04387293
#
# Stress axis : x y z
#
# Youngs Moduli (GPa) = 59.77389 52.58817 66.87419
#
# Poissons Ratio (x) = 0.09903 0.38623
# Poissons Ratio (y) = 0.11257 -0.28393
# Poissons Ratio (z) = 0.34523 -0.22328
#
# Static dielectric constant tensor:
#      x y z
#    x 1.929520 0.000000 -0.086990 
#    y 0.000000 1.938500 0.000000 
#    z -0.086990 0.000000 1.976410 
# 
# From -- ./inp_files/85435.got.cif
#   From: 2010.05.17/outbox.cif.g08.bks.cpg/sg10_43_cif.got.tgz:85435.got - 2010.06.03 11:33:40.
