data_PCOD9150903
_publ_section_title
;
Structure prediction by ZEFSAII (Michael W. Deem and Ramdas Pophale) SiO2 
 PCOD9150903
Probable space group: P 2/M
;
_chemical_formula_sum "Si O2"
_cell_formula_units_Z 28
_cell_length_a 15.572620
_cell_length_b 9.837321
_cell_length_c 21.079434
_cell_angle_alpha 90.000000
_cell_angle_beta 28.788525
_cell_angle_gamma 90.000000
_cell_volume 1555.121259
_symmetry_space_group_name_H-M "P 2/M"
_symmetry_group_IT_number 10
_symmetry_cell_setting 'monoclinic'
loop_
_space_group_symop_operation_xyz
x,y,z
-x,y,-z
-x,-y,-z
x,-y,z
loop_
_atom_site_type_symbol
_atom_site_label
_atom_site_fract_x
_atom_site_fract_y
_atom_site_fract_z
Si Si1 0.926569 0.340203 0.361051
Si Si2 0.775688 0.339593 0.935310
Si Si3 0.459067 0.155236 0.101521
Si Si4 0.289590 0.155235 0.783683
Si Si5 0.912495 0.155515 0.956090
Si Si6 0.041855 0.839183 0.400021
Si Si7 0.555789 0.337426 0.535263
O O1 0.914001 0.500000 0.385914
O O2 0.759793 0.308616 0.422907
O O3 0.107762 0.320072 0.203822
O O4 0.933573 0.248326 0.418953
O O5 0.756236 0.500000 0.958640
O O6 0.882038 0.266157 0.922483
O O7 0.588181 0.263276 0.050421
O O8 0.251990 0.180967 0.249949
O O9 0.499809 0.000000 0.095999
O O10 0.500000 0.161818 0.000000
O O11 0.430638 0.260634 0.665949
O O12 0.107698 0.166722 0.860760
O O13 0.355254 0.000000 0.734454
O O14 0.229070 0.175370 0.895386
O O15 0.893413 0.000000 0.944538
O O16 0.000000 0.803270 0.500000
O O17 0.003605 0.000000 0.416533
O O18 0.500000 0.295266 0.500000
O O19 0.529835 0.500000 0.555873
#
# Coordination Sequence:
#
# PCOD9150903 Si02
#       7
#     4   4   4   4   4   4   4
#     4  10  22  38  56  81 114 151 188 231 282 335
#     4  11  22  35  57  86 112 143 189 233 275 333
#     4  10  20  37  60  83 110 145 182 227 284 332
#     4   9  19  36  56  79 108 145 189 234 277 328
#     4   9  19  36  56  79 111 146 182 231 286 332
#     4  10  22  40  61  85 113 148 190 235 286 343
#     4  10  21  37  56  80 116 154 186 227 281 339
#
# _framework density 18.005026999999998
#
# number of rings (size 3 to 8) (size 9 to 14) (size 15 to 20)
#    0.000    2.143    1.429    2.143    0.000    6.000 
#    0.000    5.714    0.000    0.000    0.000    0.000 
#    0.000    0.000    0.000    0.000    0.000    0.000 
#
# Total GULP energy -156259.196955 kJ/mol
# GULP energy per Si atom -5580.685606 kJ/mol
# Density = 1.796405 g / cm^3
# Si number density = 18.005027 Si / 1000 Ang^3
#
#
#
# Elastic Constant Matrix: (Units=GPa)
#
#
# Indices 1 2 3 4 5 6 
#
# 1 94.9462 59.7266 22.9749 0.0000 6.9382 0.0000
# 2 59.7266 76.0217 35.9473 0.0000 3.2543 0.0000
# 3 22.9749 35.9473 74.5875 0.0000 0.5441 0.0000
# 4 0.0000 0.0000 0.0000 23.3479 0.0000 0.7507
# 5 6.9382 3.2543 0.5441 0.0000 18.9327 0.0000
# 6 0.0000 0.0000 0.0000 0.7507 0.0000 37.0295
#
#
#
# Elastic Compliance Matrix: (Units=1/GPa)
#
#
# Indices 1 2 3 4 5 6 
#
# 1 0.021478 -0.017553 0.001880 0.000000 -0.004908 0.000000
# 2 -0.017553 0.031520 -0.009794 0.000000 0.001296 0.000000
# 3 0.001880 -0.009794 0.017545 0.000000 0.000490 0.000000
# 4 0.000000 0.000000 0.000000 0.042858 0.000000 -0.000869
# 5 -0.004908 0.001296 0.000490 0.000000 0.054380 0.000000
# 6 0.000000 0.000000 0.000000 -0.000869 0.000000 0.027023
#
#
# Mechanical properties :
#
#
# Convention : Reuss Voigt Hill
#
# Bulk Modulus (GPa) = 50.99804 53.65033 52.32418
# Shear Modulus (GPa) = 19.81970 24.32247 22.07109
#
# Velocity S-wave (km/s) = 3.32141 3.67941 3.50498
# Velocity P-wave (km/s) = 6.56467 6.92191 6.74565
#
# Compressibility (1/GPa) = 0.01960860
#
# Stress axis : x y z
#
# Youngs Moduli (GPa) = 46.55971 31.72582 56.99760
#
# Poissons Ratio (x) = 0.55688 -0.10713
# Poissons Ratio (y) = 0.81725 0.55822
# Poissons Ratio (z) = -0.08751 0.31071
#
# Static dielectric constant tensor:
#      x y z
#    x 1.613640 0.000000 -0.008450 
#    y 0.000000 1.597220 0.000000 
#    z -0.008450 0.000000 1.604030 
# 
# From -- ./inp_files/70277.got.cif
#   From: 2010.05.17/outbox.cif.g08.bks.cpg/sg10_36_cif.got.tgz:70277.got - 2010.06.03 11:33:40.
