data_PCOD9150765
_publ_section_title
;
Structure prediction by ZEFSAII (Michael W. Deem and Ramdas Pophale) SiO2 
 PCOD9150765
Probable space group: P 2/M
;
_chemical_formula_sum "Si O2"
_cell_formula_units_Z 28
_cell_length_a 11.822718
_cell_length_b 14.086126
_cell_length_c 9.114141
_cell_angle_alpha 90.000000
_cell_angle_beta 58.358721
_cell_angle_gamma 90.000000
_cell_volume 1292.207857
_symmetry_space_group_name_H-M "P 2/M"
_symmetry_group_IT_number 10
_symmetry_cell_setting 'monoclinic'
loop_
_space_group_symop_operation_xyz
x,y,z
-x,y,-z
-x,-y,-z
x,-y,z
loop_
_atom_site_type_symbol
_atom_site_label
_atom_site_fract_x
_atom_site_fract_y
_atom_site_fract_z
Si Si1 0.374693 0.782255 0.650524
Si Si2 0.126058 0.000000 0.519216
Si Si3 0.663532 0.000000 0.883841
Si Si4 0.001551 0.679775 0.662272
Si Si5 0.371215 0.798933 0.987710
Si Si6 0.297651 0.606775 0.502871
Si Si7 0.923506 0.847820 0.196029
Si Si8 0.276157 0.602378 0.178104
O O1 0.500000 0.839564 0.500000
O O2 0.362548 0.686536 0.560820
O O3 0.225587 0.820966 0.749689
O O4 0.409277 0.778059 0.796350
O O5 0.259987 0.000000 0.326484
O O6 0.106851 0.087356 0.642934
O O7 0.000000 0.000000 0.500000
O O8 0.702339 0.099563 0.937179
O O9 0.500000 0.000000 0.000000
O O10 0.140233 0.628708 0.602902
O O11 0.993393 0.758523 0.795411
O O12 0.000000 0.727055 0.500000
O O13 0.883684 0.604796 0.724825
O O14 0.304366 0.702120 0.084298
O O15 0.500000 0.807050 0.000000
O O16 0.323324 0.500000 0.538591
O O17 0.331591 0.610768 0.306425
O O18 0.000000 0.885112 0.000000
O O19 0.323161 0.500000 0.086603
#
# Coordination Sequence:
#
# PCOD9150765 Si02
#       8
#     4   2   2   4   4   4   4   4
#     4  11  25  42  69  96 133 185 229 288 356 414
#     4  12  29  44  76 106 137 183 234 292 347 405
#     4  10  28  48  76 102 137 186 237 290 343 409
#     4   9  18  34  62  91 134 183 229 276 341 417
#     4  11  25  45  70  95 137 175 240 290 347 415
#     4   9  19  36  60  95 137 178 227 286 353 417
#     4  11  25  44  65 100 144 180 226 287 352 413
#     4  10  20  36  66 100 135 180 233 288 345 417
#
# _framework density 21.668341000000002
#
# number of rings (size 3 to 8) (size 9 to 14) (size 15 to 20)
#    0.000    1.714    0.000    2.786   14.000    3.429 
#    0.000    0.714    0.000    4.714    0.000    0.000 
#    0.000    0.000    0.000    0.000    0.000    0.000 
#
# Total GULP energy -155985.044709 kJ/mol
# GULP energy per Si atom -5570.894454 kJ/mol
# Density = 2.161902 g / cm^3
# Si number density = 21.668341 Si / 1000 Ang^3
#
#
#
# Elastic Constant Matrix: (Units=GPa)
#
#
# Indices 1 2 3 4 5 6 
#
# 1 112.8611 12.9592 38.0863 0.0000 6.1706 0.0000
# 2 12.9592 102.6995 54.7167 0.0000 -3.5154 0.0000
# 3 38.0863 54.7167 133.7704 0.0000 3.2958 0.0000
# 4 0.0000 0.0000 0.0000 19.9929 0.0000 -33.3033
# 5 6.1706 -3.5154 3.2958 0.0000 31.6958 0.0000
# 6 0.0000 0.0000 0.0000 -33.3033 0.0000 47.8962
#
#
#
# Elastic Compliance Matrix: (Units=1/GPa)
#
#
# Indices 1 2 3 4 5 6 
#
# 1 0.009890 0.000226 -0.002869 0.000000 -0.001602 0.000000
# 2 0.000226 0.012573 -0.005254 0.000000 0.001897 0.000000
# 3 -0.002869 -0.005254 0.010469 0.000000 -0.001113 0.000000
# 4 0.000000 0.000000 0.000000 -0.316092 0.000000 -0.219786
# 5 -0.001602 0.001897 -0.001113 0.000000 0.032188 0.000000
# 6 0.000000 0.000000 0.000000 -0.219786 0.000000 -0.131943
#
#
# Mechanical properties :
#
#
# Convention : Reuss Voigt Hill
#
# Bulk Modulus (GPa) = 58.34990 62.31725 60.33358
# Shear Modulus (GPa) = -13.83472 36.15492 11.16010
#
# Velocity S-wave (km/s) = -2.52955 4.08923 2.27192
# Velocity P-wave (km/s) = 4.29600 7.14967 5.89802
#
# Compressibility (1/GPa) = 0.01713799
#
# Stress axis : x y z
#
# Youngs Moduli (GPa) = 101.11003 79.53778 95.52419
#
# Poissons Ratio (x) = -0.01794 0.27403
# Poissons Ratio (y) = -0.02280 0.50184
# Poissons Ratio (z) = 0.29005 0.41786
#
# Static dielectric constant tensor:
#      x y z
#    x 1.827410 0.000000 -0.056460 
#    y 0.000000 1.907250 0.000000 
#    z -0.056460 0.000000 1.862760 
# 
# From -- ./inp_files/25263.got.cif
#   From: 2010.05.17/outbox.cif.g08.bks.cpg/sg10_13_cif.got.tgz:25263.got - 2010.06.03 11:33:40.
