data_PCOD9150668
_publ_section_title
;
Structure prediction by ZEFSAII (Michael W. Deem and Ramdas Pophale) SiO2 
 PCOD9150668
Probable space group: P 2/M
;
_chemical_formula_sum "Si O2"
_cell_formula_units_Z 28
_cell_length_a 15.331334
_cell_length_b 9.926534
_cell_length_c 19.798049
_cell_angle_alpha 90.000000
_cell_angle_beta 147.720806
_cell_angle_gamma 90.000000
_cell_volume 1609.081826
_symmetry_space_group_name_H-M "P 2/M"
_symmetry_group_IT_number 10
_symmetry_cell_setting 'monoclinic'
loop_
_space_group_symop_operation_xyz
x,y,z
-x,y,-z
-x,-y,-z
x,-y,z
loop_
_atom_site_type_symbol
_atom_site_label
_atom_site_fract_x
_atom_site_fract_y
_atom_site_fract_z
Si Si1 0.486927 0.850186 0.911485
Si Si2 0.599399 0.657790 0.635149
Si Si3 0.804907 0.651268 0.303717
Si Si4 0.163992 0.345930 0.513848
Si Si5 0.981886 0.658165 0.907553
Si Si6 0.267623 0.841410 0.040005
Si Si7 0.461179 0.839008 0.664706
O O1 0.340363 0.751389 0.802574
O O2 0.649280 0.808444 0.977530
O O3 0.448455 0.000000 0.859246
O O4 0.500000 0.857416 0.000000
O O5 0.500000 0.674167 0.500000
O O6 0.577568 0.500000 0.642109
O O7 0.795580 0.679556 0.760752
O O8 0.531722 0.762350 0.645665
O O9 0.764202 0.500000 0.254813
O O10 0.826116 0.648034 0.398442
O O11 0.974236 0.689877 0.378125
O O12 0.195668 0.500000 0.509863
O O13 0.293239 0.237921 0.572555
O O14 0.020647 0.500000 0.923222
O O15 0.000000 0.685585 0.000000
O O16 0.112323 0.750909 0.955259
O O17 0.408622 0.819739 0.188979
O O18 0.223975 0.000000 0.012749
O O19 0.440318 0.000000 0.641479
#
# Coordination Sequence:
#
# PCOD9150668 Si02
#       7
#     4   4   4   4   4   4   4
#     4  10  21  38  56  76 112 155 190 230 285 341
#     4  10  22  41  61  82 115 152 183 228 291 343
#     4   9  18  33  54  79 106 139 182 230 276 324
#     4   9  18  33  54  80 109 140 177 227 281 326
#     4  10  20  36  61  89 111 143 192 235 278 340
#     4  10  21  36  56  84 113 147 189 235 285 332
#     4  11  21  34  57  86 112 143 188 233 278 337
#
# _framework density 17.401226999999999
#
# number of rings (size 3 to 8) (size 9 to 14) (size 15 to 20)
#    0.000    2.143    2.857    1.286    0.000    3.143 
#    2.571    1.429    0.000    0.000    0.000    0.000 
#    0.000    0.000    0.000    0.000    0.000    0.000 
#
# Total GULP energy -156049.697155 kJ/mol
# GULP energy per Si atom -5573.203470 kJ/mol
# Density = 1.736162 g / cm^3
# Si number density = 17.401227 Si / 1000 Ang^3
#
#
#
# Elastic Constant Matrix: (Units=GPa)
#
#
# Indices 1 2 3 4 5 6 
#
# 1 116.0139 83.1292 58.8820 0.0000 25.6914 0.0000
# 2 83.1292 106.5361 64.3219 0.0000 36.9512 0.0000
# 3 58.8820 64.3219 88.9550 0.0000 27.0712 0.0000
# 4 0.0000 0.0000 0.0000 17.3540 0.0000 11.6973
# 5 25.6914 36.9512 27.0712 0.0000 33.5163 0.0000
# 6 0.0000 0.0000 0.0000 11.6973 0.0000 33.0552
#
#
#
# Elastic Compliance Matrix: (Units=1/GPa)
#
#
# Indices 1 2 3 4 5 6 
#
# 1 0.020465 -0.014986 -0.003930 0.000000 0.004010 0.000000
# 2 -0.014986 0.031773 -0.007810 0.000000 -0.017233 0.000000
# 3 -0.003930 -0.007810 0.021153 0.000000 -0.005462 0.000000
# 4 0.000000 0.000000 0.000000 0.075674 0.000000 -0.026779
# 5 0.004010 -0.017233 -0.005462 0.000000 0.050174 0.000000
# 6 0.000000 0.000000 0.000000 -0.026779 0.000000 0.039729
#
#
# Mechanical properties :
#
#
# Convention : Reuss Voigt Hill
#
# Bulk Modulus (GPa) = 50.15714 80.46346 65.31030
# Shear Modulus (GPa) = 16.71879 23.79657 20.25768
#
# Velocity S-wave (km/s) = 3.10301 3.70201 3.41567
# Velocity P-wave (km/s) = 6.45947 8.03826 7.29172
#
# Compressibility (1/GPa) = 0.01993734
#
# Stress axis : x y z
#
# Youngs Moduli (GPa) = 48.86421 31.47353 47.27567
#
# Poissons Ratio (x) = 0.47168 0.18580
# Poissons Ratio (y) = 0.73230 0.36922
# Poissons Ratio (z) = 0.19204 0.24580
#
# Static dielectric constant tensor:
#      x y z
#    x 1.604020 0.000000 -0.026650 
#    y 0.000000 1.590610 0.000000 
#    z -0.026650 0.000000 1.616990 
# 
# From -- ./inp_files/84960.got.cif
#   From: 2010.05.17/outbox.cif.g08.bks.cpg/sg10_43_cif.got.tgz:84960.got - 2010.06.03 11:33:40.
