data_PCOD9150249
_publ_section_title
;
Structure prediction by ZEFSAII (Michael W. Deem and Ramdas Pophale) SiO2 
 PCOD9150249
Probable space group: P 2/M
;
_chemical_formula_sum "Si O2"
_cell_formula_units_Z 30
_cell_length_a 22.686153
_cell_length_b 16.157005
_cell_length_c 8.156426
_cell_angle_alpha 90.000000
_cell_angle_beta 32.574914
_cell_angle_gamma 90.000000
_cell_volume 1609.637880
_symmetry_space_group_name_H-M "P 2/M"
_symmetry_group_IT_number 10
_symmetry_cell_setting 'monoclinic'
loop_
_space_group_symop_operation_xyz
x,y,z
-x,y,-z
-x,-y,-z
x,-y,z
loop_
_atom_site_type_symbol
_atom_site_label
_atom_site_fract_x
_atom_site_fract_y
_atom_site_fract_z
Si Si1 0.143364 0.839698 0.015160
Si Si2 0.750262 0.660574 0.241047
Si Si3 0.000000 0.704439 0.000000
Si Si4 0.404001 0.725434 0.114425
Si Si5 0.975736 0.406385 0.742157
Si Si6 0.458130 0.593680 0.414178
Si Si7 0.795635 0.830252 0.477748
Si Si8 0.905344 0.905374 0.531292
O O1 0.157370 0.889482 0.151129
O O2 0.013065 0.847046 0.283673
O O3 0.189048 0.747394 0.939434
O O4 0.201163 0.870050 0.712020
O O5 0.675699 0.677778 0.573634
O O6 0.665852 0.627732 0.304427
O O7 0.844574 0.596081 0.058877
O O8 0.985488 0.649377 0.197591
O O9 0.890786 0.759920 0.240671
O O10 0.322881 0.789428 0.216716
O O11 0.500000 0.766137 0.000000
O O12 0.464757 0.658286 0.861161
O O13 0.018391 0.500000 0.655999
O O14 0.000000 0.375985 0.500000
O O15 0.500000 0.590316 0.500000
O O16 0.461354 0.500000 0.337028
O O17 0.834285 0.885842 0.538011
O O18 0.944309 0.000000 0.434787
#
# Coordination Sequence:
#
# PCOD9150249 Si02
#       8
#     4   4   2   4   4   4   4   4
#     4  10  20  36  56  84 120 157 193 232 286 360
#     4  10  20  37  59  78 111 159 201 240 299 358
#     4  12  21  38  57  84 114 156 208 236 301 366
#     4   9  20  38  58  84 110 152 204 246 297 350
#     4  11  24  37  53  80 119 161 202 246 294 355
#     4  10  22  37  56  87 116 148 202 264 313 343
#     4  11  21  37  60  88 116 158 197 244 297 364
#     4  11  23  36  59  94 125 155 192 239 305 365
#
# _framework density 18.637732
#
# number of rings (size 3 to 8) (size 9 to 14) (size 15 to 20)
#    0.000    1.600    4.000    1.400    5.600    4.533 
#    0.000    1.333    0.000    0.400    0.000   14.000 
#    0.000    0.000    0.000    0.000    0.000    0.000 
#
# Total GULP energy -167251.494025 kJ/mol
# GULP energy per Si atom -5575.049801 kJ/mol
# Density = 1.859531 g / cm^3
# Si number density = 18.637732 Si / 1000 Ang^3
#
#
#
# Elastic Constant Matrix: (Units=GPa)
#
#
# Indices 1 2 3 4 5 6 
#
# 1 95.3970 38.4768 27.5537 0.0000 6.4374 0.0000
# 2 38.4768 65.0319 31.0548 0.0000 2.7779 0.0000
# 3 27.5537 31.0548 66.7260 0.0000 -6.3774 0.0000
# 4 0.0000 0.0000 0.0000 -8.3876 0.0000 -12.4190
# 5 6.4374 2.7779 -6.3774 0.0000 33.1847 0.0000
# 6 0.0000 0.0000 0.0000 -12.4190 0.0000 10.6170
#
#
#
# Elastic Compliance Matrix: (Units=1/GPa)
#
#
# Indices 1 2 3 4 5 6 
#
# 1 0.014322 -0.006950 -0.002944 0.000000 -0.002762 0.000000
# 2 -0.006950 0.023548 -0.008301 0.000000 -0.002218 0.000000
# 3 -0.002944 -0.008301 0.020564 0.000000 0.005218 0.000000
# 4 0.000000 0.000000 0.000000 -0.043641 0.000000 -0.051047
# 5 -0.002762 -0.002218 0.005218 0.000000 0.031859 0.000000
# 6 0.000000 0.000000 0.000000 -0.051047 0.000000 0.034477
#
#
# Mechanical properties :
#
#
# Convention : Reuss Voigt Hill
#
# Bulk Modulus (GPa) = 45.36305 46.81394 46.08849
# Shear Modulus (GPa) = 40.04192 15.75411 27.89802
#
# Velocity S-wave (km/s) = 4.64015 2.91053 3.87312
# Velocity P-wave (km/s) = 7.28699 6.03881 6.69206
#
# Compressibility (1/GPa) = 0.02204438
#
# Stress axis : x y z
#
# Youngs Moduli (GPa) = 69.82056 42.46584 48.62762
#
# Poissons Ratio (x) = 0.29515 0.14314
# Poissons Ratio (y) = 0.48528 0.40368
# Poissons Ratio (z) = 0.20552 0.35253
#
# Static dielectric constant tensor:
#      x y z
#    x 1.689210 0.000000 0.016170 
#    y 0.000000 1.655120 0.000000 
#    z 0.016170 0.000000 1.641440 
# 
# From -- ./inp_files/36299.got.cif
#   From: 2010.05.17/outbox.cif.g08.bks.cpg/sg10_19_cif.got.tgz:36299.got - 2010.06.03 11:33:40.
