data_PCOD9150111
_publ_section_title
;
Structure prediction by ZEFSAII (Michael W. Deem and Ramdas Pophale) SiO2 
 PCOD9150111
Probable space group: P 2/M
;
_chemical_formula_sum "Si O2"
_cell_formula_units_Z 30
_cell_length_a 21.767449
_cell_length_b 12.820513
_cell_length_c 5.513027
_cell_angle_alpha 90.000000
_cell_angle_beta 92.938063
_cell_angle_gamma 90.000000
_cell_volume 1536.497346
_symmetry_space_group_name_H-M "P 2/M"
_symmetry_group_IT_number 10
_symmetry_cell_setting 'monoclinic'
loop_
_space_group_symop_operation_xyz
x,y,z
-x,y,-z
-x,-y,-z
x,-y,z
loop_
_atom_site_type_symbol
_atom_site_label
_atom_site_fract_x
_atom_site_fract_y
_atom_site_fract_z
Si Si1 0.665896 0.221692 0.776988
Si Si2 0.050044 0.887677 0.297183
Si Si3 0.714457 0.877676 0.282174
Si Si4 0.230699 0.380548 0.201487
Si Si5 0.163270 0.209758 0.522812
Si Si6 0.000000 0.308325 0.000000
Si Si7 0.538692 0.879285 0.757782
Si Si8 0.119184 0.610941 0.803662
O O1 0.685411 0.177538 0.515265
O O2 0.701207 0.332149 0.822049
O O3 0.592762 0.205903 0.768897
O O4 0.688842 0.156650 0.016267
O O5 0.121220 0.873259 0.382199
O O6 0.000000 0.896551 0.500000
O O7 0.048331 0.000000 0.163991
O O8 0.032114 0.777185 0.179318
O O9 0.786052 0.846282 0.304438
O O10 0.705630 0.000000 0.311017
O O11 0.234519 0.500000 0.293223
O O12 0.198516 0.295149 0.366869
O O13 0.183521 0.384225 0.964543
O O14 0.116694 0.282323 0.658586
O O15 0.943161 0.381706 0.058268
O O16 0.500000 0.868907 0.500000
O O17 0.563222 0.000000 0.761514
O O18 0.500000 0.869475 0.000000
O O19 0.119326 0.500000 0.667134
#
# Coordination Sequence:
#
# PCOD9150111 Si02
#       8
#     4   4   4   4   4   2   4   4
#     4  11  22  39  61  92 127 164 209 248 300 357
#     4  11  23  38  55  75 106 145 185 233 292 366
#     4  11  22  36  59  89 124 160 198 249 302 360
#     4  10  22  40  61  84 115 155 201 254 309 358
#     4  11  21  39  56  83 111 147 192 245 304 372
#     4  12  22  40  58  82 106 146 194 246 300 376
#     4  10  20  35  59  90 127 168 203 240 292 353
#     4  11  22  38  58  82 109 143 193 252 307 360
#
# _framework density 19.524927000000002
#
# number of rings (size 3 to 8) (size 9 to 14) (size 15 to 20)
#    0.000    1.200    4.000    3.200    0.000    1.067 
#    0.000    2.000    0.000    0.800    0.000    0.000 
#    0.000    0.000    0.000    0.000    0.000    0.000 
#
# Total GULP energy -167017.674922 kJ/mol
# GULP energy per Si atom -5567.255831 kJ/mol
# Density = 1.948049 g / cm^3
# Si number density = 19.524927 Si / 1000 Ang^3
#
#
#
# Elastic Constant Matrix: (Units=GPa)
#
#
# Indices 1 2 3 4 5 6 
#
# 1 107.5530 34.2691 19.9073 0.0000 8.6856 0.0000
# 2 34.2691 90.6073 10.1669 0.0000 0.5130 0.0000
# 3 19.9073 10.1669 55.3133 0.0000 9.7360 0.0000
# 4 0.0000 0.0000 0.0000 31.9681 0.0000 -1.7949
# 5 8.6856 0.5130 9.7360 0.0000 29.7378 0.0000
# 6 0.0000 0.0000 0.0000 -1.7949 0.0000 35.0089
#
#
#
# Elastic Compliance Matrix: (Units=1/GPa)
#
#
# Indices 1 2 3 4 5 6 
#
# 1 0.011274 -0.003921 -0.002938 0.000000 -0.002263 0.000000
# 2 -0.003921 0.012640 -0.001141 0.000000 0.001301 0.000000
# 3 -0.002938 -0.001141 0.020365 0.000000 -0.005790 0.000000
# 4 0.000000 0.000000 0.000000 0.031372 0.000000 0.001608
# 5 -0.002263 0.001301 -0.005790 0.000000 0.036161 0.000000
# 6 0.000000 0.000000 0.000000 0.001608 0.000000 0.028647
#
#
# Mechanical properties :
#
#
# Convention : Reuss Voigt Hill
#
# Bulk Modulus (GPa) = 35.36341 42.46226 38.91284
# Shear Modulus (GPa) = 30.14111 31.95163 31.04637
#
# Velocity S-wave (km/s) = 3.93329 4.04970 3.99192
# Velocity P-wave (km/s) = 6.22727 6.60770 6.42030
#
# Compressibility (1/GPa) = 0.02827781
#
# Stress axis : x y z
#
# Youngs Moduli (GPa) = 88.70102 79.11113 49.10355
#
# Poissons Ratio (x) = 0.31023 0.14428
# Poissons Ratio (y) = 0.34783 0.05603
# Poissons Ratio (z) = 0.26063 0.09027
#
# Static dielectric constant tensor:
#      x y z
#    x 1.732610 0.000000 0.010500 
#    y 0.000000 1.711730 0.000000 
#    z 0.010500 0.000000 1.821570 
# 
# From -- ./inp_files/12436.got.cif
#   From: 2010.05.17/outbox.cif.g08.bks.cpg/sg10_7_cif.got.tgz:12436.got - 2010.06.03 11:33:40.
