data_PCOD9150425
_publ_section_title
;
Structure prediction by ZEFSAII (Michael W. Deem and Ramdas Pophale) SiO2 
 PCOD9150425
Probable space group: P 2/M
;
_chemical_formula_sum "Si O2"
_cell_formula_units_Z 32
_cell_length_a 15.320232
_cell_length_b 8.370849
_cell_length_c 24.153088
_cell_angle_alpha 90.000000
_cell_angle_beta 149.460228
_cell_angle_gamma 90.000000
_cell_volume 1573.938544
_symmetry_space_group_name_H-M "P 2/M"
_symmetry_group_IT_number 10
_symmetry_cell_setting 'monoclinic'
loop_
_space_group_symop_operation_xyz
x,y,z
-x,y,-z
-x,-y,-z
x,-y,z
loop_
_atom_site_type_symbol
_atom_site_label
_atom_site_fract_x
_atom_site_fract_y
_atom_site_fract_z
Si Si1 0.506243 0.809398 0.256969
Si Si2 0.923251 0.183943 0.808588
Si Si3 0.565373 0.309470 0.164869
Si Si4 0.109853 0.308556 0.726958
Si Si5 0.264653 0.193397 0.516338
Si Si6 0.164648 0.678150 0.128265
Si Si7 0.249401 0.808301 0.921955
Si Si8 0.439962 0.185316 0.404945
O O1 0.526509 0.763316 0.203878
O O2 0.667826 0.764154 0.385052
O O3 0.335111 0.731760 0.189473
O O4 0.487451 0.000000 0.250723
O O5 0.895636 0.197281 0.858510
O O6 0.746648 0.264163 0.693034
O O7 0.100535 0.250647 0.882940
O O8 0.925181 0.000000 0.790030
O O9 0.561919 0.500000 0.168956
O O10 0.752320 0.259917 0.244556
O O11 0.426531 0.262373 0.042003
O O12 0.112669 0.500000 0.733552
O O13 0.180693 0.238871 0.823739
O O14 0.918949 0.256179 0.604648
O O15 0.416651 0.251134 0.557944
O O16 0.255717 0.000000 0.507918
O O17 0.194678 0.500000 0.168468
O O18 0.000000 0.666742 0.000000
O O19 0.268207 0.000000 0.934404
O O20 0.500000 0.179854 0.500000
O O21 0.414924 0.000000 0.372029
#
# Coordination Sequence:
#
# PCOD9150425 Si02
#       8
#     4   4   4   4   4   4   4   4
#     4  11  23  41  65  92 124 164 212 265 316 369
#     4  10  20  36  58  87 120 156 197 241 297 358
#     4  11  25  44  64  89 125 167 209 260 324 384
#     4  11  25  43  64  90 125 168 208 258 324 384
#     4  10  21  39  63  91 124 163 210 263 311 365
#     4  11  23  37  56  85 123 165 203 245 300 364
#     4  11  23  40  67  98 126 161 209 265 316 371
#     4   9  16  31  56  84 117 155 193 239 296 355
#
# _framework density 20.331161999999999
#
# number of rings (size 3 to 8) (size 9 to 14) (size 15 to 20)
#    0.000    1.500    1.250    3.750    0.000   11.000 
#    0.000    2.500    0.000    1.500    0.000    0.000 
#    0.000    0.000    0.000    0.000    0.000    0.000 
#
# Total GULP energy -178504.168363 kJ/mol
# GULP energy per Si atom -5578.255261 kJ/mol
# Density = 2.028489 g / cm^3
# Si number density = 20.331162 Si / 1000 Ang^3
#
#
#
# Elastic Constant Matrix: (Units=GPa)
#
#
# Indices 1 2 3 4 5 6 
#
# 1 98.2300 17.2767 42.9741 0.0000 10.0244 0.0000
# 2 17.2767 35.7756 22.8826 0.0000 3.2081 0.0000
# 3 42.9741 22.8826 135.5623 0.0000 9.2911 0.0000
# 4 0.0000 0.0000 0.0000 108.2192 0.0000 -10.4027
# 5 10.0244 3.2081 9.2911 0.0000 38.6379 0.0000
# 6 0.0000 0.0000 0.0000 -10.4027 0.0000 20.4156
#
#
#
# Elastic Compliance Matrix: (Units=1/GPa)
#
#
# Indices 1 2 3 4 5 6 
#
# 1 0.012450 -0.003799 -0.003158 0.000000 -0.002155 0.000000
# 2 -0.003799 0.032564 -0.004245 0.000000 -0.000697 0.000000
# 3 -0.003158 -0.004245 0.009165 0.000000 -0.001032 0.000000
# 4 0.000000 0.000000 0.000000 0.009716 0.000000 0.004951
# 5 -0.002155 -0.000697 -0.001032 0.000000 0.026747 0.000000
# 6 0.000000 0.000000 0.000000 0.004951 0.000000 0.051505
#
#
# Mechanical properties :
#
#
# Convention : Reuss Voigt Hill
#
# Bulk Modulus (GPa) = 31.47041 48.42608 39.94824
# Shear Modulus (GPa) = 28.54831 45.88351 37.21591
#
# Velocity S-wave (km/s) = 3.75128 4.75574 4.28306
# Velocity P-wave (km/s) = 5.85452 7.35027 6.64461
#
# Compressibility (1/GPa) = 0.03177588
#
# Stress axis : x y z
#
# Youngs Moduli (GPa) = 80.32280 30.70859 109.11207
#
# Poissons Ratio (x) = 0.11667 0.34454
# Poissons Ratio (y) = 0.30517 0.46313
# Poissons Ratio (z) = 0.25363 0.13034
#
# Static dielectric constant tensor:
#      x y z
#    x 1.716960 0.000000 0.017120 
#    y 0.000000 1.746680 0.000000 
#    z 0.017120 0.000000 1.691900 
# 
# From -- ./inp_files/89605.got.cif
#   From: 2010.05.17/outbox.cif.g08.bks.cpg/sg10_45_cif.got.tgz:89605.got - 2010.06.03 11:33:40.
