data_PCOD9150332
_publ_section_title
;
Structure prediction by ZEFSAII (Michael W. Deem and Ramdas Pophale) SiO2 
 PCOD9150332
Probable space group: P 2/M
;
_chemical_formula_sum "Si O2"
_cell_formula_units_Z 30
_cell_length_a 17.935254
_cell_length_b 10.982794
_cell_length_c 7.034527
_cell_angle_alpha 90.000000
_cell_angle_beta 101.000224
_cell_angle_gamma 90.000000
_cell_volume 1360.196073
_symmetry_space_group_name_H-M "P 2/M"
_symmetry_group_IT_number 10
_symmetry_cell_setting 'monoclinic'
loop_
_space_group_symop_operation_xyz
x,y,z
-x,y,-z
-x,-y,-z
x,-y,z
loop_
_atom_site_type_symbol
_atom_site_label
_atom_site_fract_x
_atom_site_fract_y
_atom_site_fract_z
Si Si1 0.347229 0.634369 0.271018
Si Si2 0.296009 0.362519 0.813472
Si Si3 0.610738 0.864753 0.219529
Si Si4 0.923089 0.131098 0.841242
Si Si5 0.874928 0.635031 0.323448
Si Si6 0.171036 0.635517 0.256484
Si Si7 0.561881 0.865039 0.750303
Si Si8 0.000000 0.193524 0.500000
O O1 0.375530 0.500000 0.345612
O O2 0.261509 0.652019 0.302067
O O3 0.399642 0.750480 0.331992
O O4 0.336519 0.629502 0.036902
O O5 0.299434 0.500000 0.730012
O O6 0.335389 0.251504 0.722540
O O7 0.206995 0.335120 0.804217
O O8 0.528867 0.852500 0.279241
O O9 0.642686 0.000000 0.278716
O O10 0.591493 0.865305 0.983634
O O11 0.871726 0.249276 0.853145
O O12 0.947469 0.129313 0.630260
O O13 0.885753 0.000000 0.867966
O O14 0.000000 0.137767 0.000000
O O15 0.898638 0.500000 0.275963
O O16 0.857237 0.632184 0.540394
O O17 0.944158 0.726125 0.341554
O O18 0.156156 0.500000 0.166838
O O19 0.580104 0.000000 0.681807
#
# Coordination Sequence:
#
# PCOD9150332 Si02
#       8
#     4   4   4   4   4   4   4   2
#     4   9  17  28  45  71  99 123 157 203 247 292
#     4   9  17  28  45  70  97 123 156 204 251 292
#     4   8  14  26  42  65  95 125 160 199 240 294
#     4  10  22  38  55  78 106 136 171 215 263 309
#     4   9  18  33  52  74  99 130 167 207 253 303
#     4   9  19  35  52  72  99 132 168 204 248 304
#     4   8  14  25  43  65  94 128 159 196 243 292
#     4  10  20  36  58  76 103 140 175 214 259 312
#
# _framework density 22.055644000000001
#
# number of rings (size 3 to 8) (size 9 to 14) (size 15 to 20)
#    0.000    3.067    0.000    1.200    1.867    1.867 
#    0.000    6.000    0.000    0.800    0.000    5.600 
#    0.000    0.000    0.000    0.000    0.000    0.000 
#
# Total GULP energy -167402.211626 kJ/mol
# GULP energy per Si atom -5580.073721 kJ/mol
# Density = 2.200544 g / cm^3
# Si number density = 22.055644 Si / 1000 Ang^3
#
#
#
# Elastic Constant Matrix: (Units=GPa)
#
#
# Indices 1 2 3 4 5 6 
#
# 1 63.4681 100.7192 -3.3406 0.0000 -4.9496 0.0000
# 2 100.7192 226.9267 18.9804 0.0000 10.6582 0.0000
# 3 -3.3406 18.9804 64.2275 0.0000 1.6938 0.0000
# 4 0.0000 0.0000 0.0000 -4.5228 0.0000 -12.5957
# 5 -4.9496 10.6582 1.6938 0.0000 22.7018 0.0000
# 6 0.0000 0.0000 0.0000 -12.5957 0.0000 -59.0700
#
#
#
# Elastic Compliance Matrix: (Units=1/GPa)
#
#
# Indices 1 2 3 4 5 6 
#
# 1 0.080237 -0.038454 0.014629 0.000000 0.034456 0.000000
# 2 -0.038454 0.023043 -0.008320 0.000000 -0.018582 0.000000
# 3 0.014629 -0.008320 0.018639 0.000000 0.005705 0.000000
# 4 0.000000 0.000000 0.000000 -0.544371 0.000000 0.116078
# 5 0.034456 -0.018582 0.005705 0.000000 0.059860 0.000000
# 6 0.000000 0.000000 0.000000 0.116078 0.000000 -0.041681
#
#
# Mechanical properties :
#
#
# Convention : Reuss Voigt Hill
#
# Bulk Modulus (GPa) = 17.35267 65.26003 41.30635
# Shear Modulus (GPa) = -15.58738 7.70603 -3.94068
#
# Velocity S-wave (km/s) = -2.66132 1.87123 -1.33812
# Velocity P-wave (km/s) = 1.24851 5.85847 4.04740
#
# Compressibility (1/GPa) = 0.05762803
#
# Stress axis : x y z
#
# Youngs Moduli (GPa) = 12.46302 43.39722 53.65179
#
# Poissons Ratio (x) = 1.66882 -0.78485
# Poissons Ratio (y) = 0.47926 0.44637
# Poissons Ratio (z) = -0.18232 0.36105
#
# Static dielectric constant tensor:
#      x y z
#    x 1.753500 0.000000 -0.014190 
#    y 0.000000 1.835470 0.000000 
#    z -0.014190 0.000000 1.875810 
# 
# From -- ./inp_files/33928.got.cif
#   From: 2010.05.17/outbox.cif.g08.bks.cpg/sg10_17_cif.got.tgz:33928.got - 2010.06.03 11:33:40.
