data_PCOD9150902
_publ_section_title
;
Structure prediction by ZEFSAII (Michael W. Deem and Ramdas Pophale) SiO2 
 PCOD9150902
Probable space group: P 2/M
;
_chemical_formula_sum "Si O2"
_cell_formula_units_Z 32
_cell_length_a 14.576750
_cell_length_b 7.555641
_cell_length_c 18.550070
_cell_angle_alpha 90.000000
_cell_angle_beta 135.289518
_cell_angle_gamma 90.000000
_cell_volume 1437.331489
_symmetry_space_group_name_H-M "P 2/M"
_symmetry_group_IT_number 10
_symmetry_cell_setting 'monoclinic'
loop_
_space_group_symop_operation_xyz
x,y,z
-x,y,-z
-x,-y,-z
x,-y,z
loop_
_atom_site_type_symbol
_atom_site_label
_atom_site_fract_x
_atom_site_fract_y
_atom_site_fract_z
Si Si1 0.069201 0.785551 0.172489
Si Si2 0.609259 0.216692 0.403142
Si Si3 0.227091 0.700775 0.024919
Si Si4 0.667329 0.784292 0.273834
Si Si5 0.858562 0.216187 0.626359
Si Si6 0.318794 0.201923 0.227075
Si Si7 0.948817 0.215882 0.392743
Si Si8 0.442084 0.786743 0.043298
O O1 0.097129 0.727768 0.269873
O O2 0.188806 0.720099 0.190090
O O3 0.926660 0.731287 0.066332
O O4 0.067494 0.000000 0.169495
O O5 0.664213 0.269810 0.355346
O O6 0.712950 0.270842 0.521490
O O7 0.460093 0.280037 0.324640
O O8 0.606225 0.000000 0.401339
O O9 0.251797 0.500000 0.058362
O O10 0.294721 0.805144 0.127865
O O11 0.297609 0.738046 0.988260
O O12 0.798314 0.729265 0.306046
O O13 0.539841 0.724858 0.160443
O O14 0.666690 0.000000 0.273607
O O15 0.959627 0.275135 0.621093
O O16 0.859329 0.000000 0.626780
O O17 0.325152 0.000000 0.257882
O O18 0.000000 0.269686 0.500000
O O19 0.952492 0.000000 0.393606
O O20 0.445487 0.000000 0.042746
O O21 0.500000 0.722432 0.000000
#
# Coordination Sequence:
#
# PCOD9150902 Si02
#       8
#     4   4   4   4   4   4   4   4
#     4  10  22  37  56  83 113 146 187 240 294 342
#     4   9  15  27  50  79 113 145 177 225 283 339
#     4  12  25  40  59  81 111 150 192 238 282 338
#     4   9  15  25  44  74 109 143 176 215 266 321
#     4   9  17  28  46  79 117 146 178 225 283 344
#     4  10  20  37  60  83 110 144 187 241 294 342
#     4   9  14  21  38  69 108 144 173 207 257 320
#     4  10  21  36  58  87 116 148 185 228 279 335
#
# _framework density 22.263477000000002
#
# number of rings (size 3 to 8) (size 9 to 14) (size 15 to 20)
#    0.000    2.250    2.500    1.500    1.750    2.750 
#    0.000    2.500    0.000    0.750    0.000    1.750 
#    0.000    3.000    0.000    0.000    0.000    0.000 
#
# Total GULP energy -178722.610437 kJ/mol
# GULP energy per Si atom -5585.081576 kJ/mol
# Density = 2.221280 g / cm^3
# Si number density = 22.263477 Si / 1000 Ang^3
#
#
#
# Elastic Constant Matrix: (Units=GPa)
#
#
# Indices 1 2 3 4 5 6 
#
# 1 117.8946 -2.7996 19.1754 0.0000 29.4341 0.0000
# 2 -2.7996 56.1743 -4.7658 0.0000 1.7398 0.0000
# 3 19.1754 -4.7658 73.2338 0.0000 27.3804 0.0000
# 4 0.0000 0.0000 0.0000 -48.7662 0.0000 -20.6571
# 5 29.4341 1.7398 27.3804 0.0000 43.1302 0.0000
# 6 0.0000 0.0000 0.0000 -20.6571 0.0000 -30.0614
#
#
#
# Elastic Compliance Matrix: (Units=1/GPa)
#
#
# Indices 1 2 3 4 5 6 
#
# 1 0.010254 0.000727 -0.000013 0.000000 -0.007019 0.000000
# 2 0.000727 0.018074 0.001893 0.000000 -0.002427 0.000000
# 3 -0.000013 0.001893 0.018104 0.000000 -0.011560 0.000000
# 4 0.000000 0.000000 0.000000 -0.028926 0.000000 0.019877
# 5 -0.007019 -0.002427 -0.011560 0.000000 0.035412 0.000000
# 6 0.000000 0.000000 0.000000 0.019877 0.000000 -0.046924
#
#
# Mechanical properties :
#
#
# Convention : Reuss Voigt Hill
#
# Bulk Modulus (GPa) = 19.36280 30.05806 24.71043
# Shear Modulus (GPa) = 277.85544 8.57336 143.21440
#
# Velocity S-wave (km/s) = 11.18366 1.96449 8.02912
# Velocity P-wave (km/s) = 13.24695 4.32157 9.85286
#
# Compressibility (1/GPa) = 0.05164542
#
# Stress axis : x y z
#
# Youngs Moduli (GPa) = 97.52388 55.32875 55.23759
#
# Poissons Ratio (x) = -0.04024 0.00074
# Poissons Ratio (y) = -0.07093 -0.10458
# Poissons Ratio (z) = 0.00131 -0.10475
#
# Static dielectric constant tensor:
#      x y z
#    x 1.810810 0.000000 0.019560 
#    y 0.000000 1.853960 0.000000 
#    z 0.019560 0.000000 1.782180 
# 
# From -- ./inp_files/84746.got.cif
#   From: 2010.05.17/outbox.cif.g08.bks.cpg/sg10_43_cif.got.tgz:84746.got - 2010.06.03 11:33:40.
