data_PCOD9150815
_publ_section_title
;
Structure prediction by ZEFSAII (Michael W. Deem and Ramdas Pophale) SiO2 
 PCOD9150815
Probable space group: P 2/M
;
_chemical_formula_sum "Si O2"
_cell_formula_units_Z 28
_cell_length_a 14.982041
_cell_length_b 13.834292
_cell_length_c 14.227324
_cell_angle_alpha 90.000000
_cell_angle_beta 30.414677
_cell_angle_gamma 90.000000
_cell_volume 1492.863849
_symmetry_space_group_name_H-M "P 2/M"
_symmetry_group_IT_number 10
_symmetry_cell_setting 'monoclinic'
loop_
_space_group_symop_operation_xyz
x,y,z
-x,y,-z
-x,-y,-z
x,-y,z
loop_
_atom_site_type_symbol
_atom_site_label
_atom_site_fract_x
_atom_site_fract_y
_atom_site_fract_z
Si Si1 0.975299 0.115520 0.633792
Si Si2 0.682529 0.383852 0.288118
Si Si3 0.165403 0.384946 0.656137
Si Si4 0.426442 0.884070 0.962246
Si Si5 0.297041 0.237527 0.397961
Si Si6 0.448872 0.609851 0.154084
Si Si7 0.767263 0.616646 0.003375
O O1 0.000000 0.136219 0.500000
O O2 0.125820 0.171425 0.552585
O O3 0.997346 0.000000 0.623765
O O4 0.779968 0.140539 0.846797
O O5 0.500000 0.348906 0.500000
O O6 0.663892 0.500000 0.293903
O O7 0.827125 0.370285 0.238316
O O8 0.723371 0.345001 0.147644
O O9 0.206512 0.500000 0.603154
O O10 0.297668 0.309939 0.486344
O O11 0.970178 0.361638 0.795848
O O12 0.539984 0.831098 0.779133
O O13 0.445190 0.000000 0.934664
O O14 0.500000 0.859816 0.000000
O O15 0.293924 0.316349 0.316905
O O16 0.401689 0.500000 0.222341
O O17 0.618022 0.640480 0.063032
O O18 0.500000 0.612432 0.000000
O O19 0.764045 0.500000 0.011536
#
# Coordination Sequence:
#
# PCOD9150815 Si02
#       7
#     4   4   4   4   4   4   4
#     4  10  21  37  57  81 106 135 183 241 294 342
#     4   9  16  30  53  76 100 142 193 241 293 327
#     4  10  21  34  50  80 117 151 191 237 276 328
#     4  10  20  37  58  80 105 138 183 238 293 341
#     4  12  22  32  55  79 111 149 188 219 280 336
#     4  10  22  37  51  73 113 161 199 229 262 319
#     4   9  18  34  54  73 104 153 201 242 283 320
#
# _framework density 18.755897000000001
#
# number of rings (size 3 to 8) (size 9 to 14) (size 15 to 20)
#    0.000    2.000    1.429    2.571    2.000    4.000 
#    0.000    0.000    0.000    4.286    0.000    0.000 
#    0.000   29.714    0.000    0.143    0.000    0.000 
#
# Total GULP energy -156138.653785 kJ/mol
# GULP energy per Si atom -5576.380492 kJ/mol
# Density = 1.871321 g / cm^3
# Si number density = 18.755897 Si / 1000 Ang^3
#
#
#
# Elastic Constant Matrix: (Units=GPa)
#
#
# Indices 1 2 3 4 5 6 
#
# 1 72.0108 21.1888 44.4476 0.0000 5.7623 0.0000
# 2 21.1888 67.0118 45.3540 0.0000 -3.8188 0.0000
# 3 44.4476 45.3540 111.5439 0.0000 -2.4961 0.0000
# 4 0.0000 0.0000 0.0000 29.1300 0.0000 3.4747
# 5 5.7623 -3.8188 -2.4961 0.0000 29.6970 0.0000
# 6 0.0000 0.0000 0.0000 3.4747 0.0000 -0.3257
#
#
#
# Elastic Compliance Matrix: (Units=1/GPa)
#
#
# Indices 1 2 3 4 5 6 
#
# 1 0.019060 -0.001482 -0.007093 0.000000 -0.004485 0.000000
# 2 -0.001482 0.020817 -0.007822 0.000000 0.002307 0.000000
# 3 -0.007093 -0.007822 0.015008 0.000000 0.001632 0.000000
# 4 0.000000 0.000000 0.000000 0.015106 0.000000 0.161155
# 5 -0.004485 0.002307 0.001632 0.000000 0.034977 0.000000
# 6 0.000000 0.000000 0.000000 0.161155 0.000000 -1.351032
#
#
# Mechanical properties :
#
#
# Convention : Reuss Voigt Hill
#
# Bulk Modulus (GPa) = 45.26597 52.50524 48.88561
# Shear Modulus (GPa) = -4.14625 21.00534 8.42954
#
# Velocity S-wave (km/s) = -1.48844 3.35017 2.12229
# Velocity P-wave (km/s) = 4.60790 6.55893 5.66800
#
# Compressibility (1/GPa) = 0.02209165
#
# Stress axis : x y z
#
# Youngs Moduli (GPa) = 52.46721 48.03824 66.62974
#
# Poissons Ratio (x) = 0.07118 0.47258
# Poissons Ratio (y) = 0.07774 0.52118
# Poissons Ratio (z) = 0.37213 0.37576
#
# Static dielectric constant tensor:
#      x y z
#    x 1.680170 0.000000 -0.007840 
#    y 0.000000 1.655090 0.000000 
#    z -0.007840 0.000000 1.716270 
# 
# From -- ./inp_files/67551.got.cif
#   From: 2010.05.17/outbox.cif.g08.bks.cpg/sg10_34_cif.got.tgz:67551.got - 2010.06.03 11:33:40.
