data_PCOD9150026
_publ_section_title
;
Structure prediction by ZEFSAII (Michael W. Deem and Ramdas Pophale) SiO2 
 PCOD9150026
Probable space group: P 2/M
;
_chemical_formula_sum "Si O2"
_cell_formula_units_Z 16
_cell_length_a 6.936465
_cell_length_b 9.354075
_cell_length_c 17.271458
_cell_angle_alpha 90.000000
_cell_angle_beta 137.794834
_cell_angle_gamma 90.000000
_cell_volume 752.835152
_symmetry_space_group_name_H-M "P 2/M"
_symmetry_group_IT_number 10
_symmetry_cell_setting 'monoclinic'
loop_
_space_group_symop_operation_xyz
x,y,z
-x,y,-z
-x,-y,-z
x,-y,z
loop_
_atom_site_type_symbol
_atom_site_label
_atom_site_fract_x
_atom_site_fract_y
_atom_site_fract_z
Si Si1 0.369783 0.169749 0.724579
Si Si2 0.731341 0.837709 0.979305
Si Si3 0.827098 0.664933 0.599668
Si Si4 0.107603 0.336378 0.198051
O O1 0.468496 0.191015 0.843768
O O2 0.613528 0.246881 0.746173
O O3 0.059188 0.240861 0.623851
O O4 0.369010 0.000000 0.709759
O O5 0.716363 0.000000 0.004082
O O6 0.000000 0.832421 0.000000
O O7 0.826227 0.732549 0.075252
O O8 0.500000 0.718044 0.500000
O O9 0.830732 0.500000 0.572354
O O10 0.906118 0.663803 0.713830
O O11 0.139417 0.500000 0.180325
#
# Coordination Sequence:
#
# PCOD9150026 Si02
#       4
#     4   4   4   4
#     4  10  21  37  58  83 112 145 178 220 274 327
#     4   8  16  32  53  80 113 144 174 213 268 329
#     4  10  23  41  57  77 108 146 188 229 269 318
#     4  10  20  35  58  84 110 143 181 224 271 320
#
# _framework density 21.252993
#
# number of rings (size 3 to 8) (size 9 to 14) (size 15 to 20)
#    0.000    2.500    0.000    3.000    0.000   10.000 
#    0.000   10.000    0.000    0.000    0.000    0.000 
#    0.000    0.000    0.000    0.000    0.000    0.000 
#
# Total GULP energy -89358.056596 kJ/mol
# GULP energy per Si atom -5584.878537 kJ/mol
# Density = 2.120462 g / cm^3
# Si number density = 21.252993 Si / 1000 Ang^3
#
#
#
# Elastic Constant Matrix: (Units=GPa)
#
#
# Indices 1 2 3 4 5 6 
#
# 1 60.5757 36.7737 3.6558 0.0000 24.6675 0.0000
# 2 36.7737 88.2493 26.4264 0.0000 22.6325 0.0000
# 3 3.6558 26.4264 41.2284 0.0000 30.2759 0.0000
# 4 0.0000 0.0000 0.0000 48.5041 0.0000 85.6186
# 5 24.6675 22.6325 30.2759 0.0000 43.5278 0.0000
# 6 0.0000 0.0000 0.0000 85.6186 0.0000 220.9763
#
#
#
# Elastic Compliance Matrix: (Units=1/GPa)
#
#
# Indices 1 2 3 4 5 6 
#
# 1 0.041839 -0.018372 0.037739 0.000000 -0.040407 0.000000
# 2 -0.018372 0.022188 -0.024052 0.000000 0.015605 0.000000
# 3 0.037739 -0.024052 0.087582 0.000000 -0.069799 0.000000
# 4 0.000000 0.000000 0.000000 0.065229 0.000000 -0.025273
# 5 -0.040407 0.015605 -0.069799 0.000000 0.086308 0.000000
# 6 0.000000 0.000000 0.000000 -0.025273 0.000000 0.014318
#
#
# Mechanical properties :
#
#
# Convention : Reuss Voigt Hill
#
# Bulk Modulus (GPa) = 7.03045 35.97389 21.50217
# Shear Modulus (GPa) = 13.36017 70.81480 42.08748
#
# Velocity S-wave (km/s) = 2.50996 5.77860 4.45489
# Velocity P-wave (km/s) = 3.42272 7.84132 6.04985
#
# Compressibility (1/GPa) = 0.14223838
#
# Stress axis : x y z
#
# Youngs Moduli (GPa) = 23.90139 45.06977 11.41783
#
# Poissons Ratio (x) = 0.82804 -0.43090
# Poissons Ratio (y) = 0.43913 0.27462
# Poissons Ratio (z) = -0.90202 1.08401
#
# Static dielectric constant tensor:
#      x y z
#    x 1.773450 0.000000 0.000760 
#    y 0.000000 1.733800 0.000000 
#    z 0.000760 0.000000 1.796580 
# 
# From -- ./inp_files/21253.got.cif
#   From: 2010.05.17/outbox.cif.g08.bks.cpg/sg10_11_cif.got.tgz:21253.got - 2010.06.03 11:33:40.
