data_PCOD9150324
_publ_section_title
;
Structure prediction by ZEFSAII (Michael W. Deem and Ramdas Pophale) SiO2 
 PCOD9150324
Probable space group: P 2/M
;
_chemical_formula_sum "Si O2"
_cell_formula_units_Z 28
_cell_length_a 16.648834
_cell_length_b 11.136291
_cell_length_c 8.248407
_cell_angle_alpha 90.000000
_cell_angle_beta 66.060658
_cell_angle_gamma 90.000000
_cell_volume 1397.748562
_symmetry_space_group_name_H-M "P 2/M"
_symmetry_group_IT_number 10
_symmetry_cell_setting 'monoclinic'
loop_
_space_group_symop_operation_xyz
x,y,z
-x,y,-z
-x,-y,-z
x,-y,z
loop_
_atom_site_type_symbol
_atom_site_label
_atom_site_fract_x
_atom_site_fract_y
_atom_site_fract_z
Si Si1 0.431594 0.641247 0.362846
Si Si2 0.672709 0.362282 0.871496
Si Si3 0.620475 0.731680 0.264733
Si Si4 0.088820 0.865148 0.612835
Si Si5 0.057525 0.274803 0.098194
Si Si6 0.878595 0.367894 0.628644
Si Si7 0.788194 0.866438 0.187683
O O1 0.458506 0.500000 0.326180
O O2 0.381434 0.680551 0.241354
O O3 0.515945 0.726994 0.316952
O O4 0.374681 0.650815 0.574957
O O5 0.645258 0.500000 0.913786
O O6 0.774636 0.358650 0.742666
O O7 0.657168 0.306047 0.059283
O O8 0.684848 0.840354 0.259661
O O9 0.997305 0.836970 0.208273
O O10 0.095346 0.752048 0.488626
O O11 0.173273 0.860338 0.661973
O O12 0.084511 0.000000 0.546486
O O13 0.074575 0.359344 0.236051
O O14 0.151242 0.227841 0.958256
O O15 0.000000 0.329808 0.000000
O O16 0.895895 0.500000 0.539993
O O17 0.806692 0.000000 0.110247
#
# Coordination Sequence:
#
# PCOD9150324 Si02
#       7
#     4   4   4   4   4   4   4
#     4  10  21  35  58  89 118 154 203 250 297 368
#     4  10  20  36  57  86 122 158 199 250 304 363
#     4  11  19  35  59  83 116 154 193 249 307 359
#     4  10  22  40  64  89 117 160 210 256 303 360
#     4  10  21  39  61  87 118 155 204 254 301 362
#     4  11  23  39  59  90 127 160 199 250 312 369
#     4  10  21  39  61  87 116 154 205 258 305 360
#
# _framework density 20.032214
#
# number of rings (size 3 to 8) (size 9 to 14) (size 15 to 20)
#    0.000    1.714    1.429    3.857    0.000    6.000 
#    0.000    5.000    0.000    2.571    0.000    0.000 
#    0.000    0.000    0.000    0.000    0.000    0.000 
#
# Total GULP energy -155951.130036 kJ/mol
# GULP energy per Si atom -5569.683216 kJ/mol
# Density = 1.998662 g / cm^3
# Si number density = 20.032214 Si / 1000 Ang^3
#
#
#
# Elastic Constant Matrix: (Units=GPa)
#
#
# Indices 1 2 3 4 5 6 
#
# 1 127.2034 33.5938 36.4915 0.0000 14.9360 0.0000
# 2 33.5938 85.5363 35.8690 0.0000 11.1840 0.0000
# 3 36.4915 35.8690 84.3299 0.0000 12.1052 0.0000
# 4 0.0000 0.0000 0.0000 19.9036 0.0000 4.2886
# 5 14.9360 11.1840 12.1052 0.0000 28.3932 0.0000
# 6 0.0000 0.0000 0.0000 4.2886 0.0000 29.7649
#
#
#
# Elastic Compliance Matrix: (Units=1/GPa)
#
#
# Indices 1 2 3 4 5 6 
#
# 1 0.009594 -0.002210 -0.002782 0.000000 -0.002990 0.000000
# 2 -0.002210 0.015020 -0.005060 0.000000 -0.002597 0.000000
# 3 -0.002782 -0.005060 0.015677 0.000000 -0.003227 0.000000
# 4 0.000000 0.000000 0.000000 0.051852 0.000000 -0.007471
# 5 -0.002990 -0.002597 -0.003227 0.000000 0.039191 0.000000
# 6 0.000000 0.000000 0.000000 -0.007471 0.000000 0.034673
#
#
# Mechanical properties :
#
#
# Convention : Reuss Voigt Hill
#
# Bulk Modulus (GPa) = 49.53524 56.55313 53.04419
# Shear Modulus (GPa) = 25.92791 28.35335 27.14063
#
# Velocity S-wave (km/s) = 3.60156 3.76625 3.68482
# Velocity P-wave (km/s) = 6.48663 6.87060 6.68138
#
# Compressibility (1/GPa) = 0.02018765
#
# Stress axis : x y z
#
# Youngs Moduli (GPa) = 104.22661 66.57670 63.78584
#
# Poissons Ratio (x) = 0.14716 0.17747
# Poissons Ratio (y) = 0.23039 0.32272
# Poissons Ratio (z) = 0.28999 0.33685
#
# Static dielectric constant tensor:
#      x y z
#    x 1.728880 0.000000 0.012090 
#    y 0.000000 1.689880 0.000000 
#    z 0.012090 0.000000 1.759390 
# 
# From -- ./inp_files/28187.got.cif
#   From: 2010.05.17/outbox.cif.g08.bks.cpg/sg10_15_cif.got.tgz:28187.got - 2010.06.03 11:33:40.
