data_PCOD9150877
_publ_section_title
;
Structure prediction by ZEFSAII (Michael W. Deem and Ramdas Pophale) SiO2 
 PCOD9150877
Probable space group: P 2/M
;
_chemical_formula_sum "Si O2"
_cell_formula_units_Z 28
_cell_length_a 9.555847
_cell_length_b 8.797752
_cell_length_c 28.021504
_cell_angle_alpha 90.000000
_cell_angle_beta 37.525051
_cell_angle_gamma 90.000000
_cell_volume 1434.917133
_symmetry_space_group_name_H-M "P 2/M"
_symmetry_group_IT_number 10
_symmetry_cell_setting 'monoclinic'
loop_
_space_group_symop_operation_xyz
x,y,z
-x,y,-z
-x,-y,-z
x,-y,z
loop_
_atom_site_type_symbol
_atom_site_label
_atom_site_fract_x
_atom_site_fract_y
_atom_site_fract_z
Si Si1 0.459276 0.680733 0.868653
Si Si2 0.348300 0.182980 0.702136
Si Si3 0.775525 0.676634 0.424778
Si Si4 0.227209 0.678200 0.469538
Si Si5 0.963365 0.819173 0.733052
Si Si6 0.217051 0.183015 0.841098
Si Si7 0.318219 0.182930 0.008395
O O1 0.444514 0.500000 0.872502
O O2 0.722532 0.734910 0.793875
O O3 0.317915 0.744915 0.861761
O O4 0.368823 0.745047 0.943385
O O5 0.560258 0.243676 0.614014
O O6 0.345849 0.233828 0.757847
O O7 0.111575 0.226093 0.739470
O O8 0.356950 0.000000 0.699611
O O9 0.500000 0.678767 0.500000
O O10 0.849981 0.500000 0.398633
O O11 0.836154 0.736477 0.460815
O O12 0.881327 0.775257 0.354249
O O13 0.288918 0.500000 0.459018
O O14 0.000000 0.689610 0.500000
O O15 0.923164 0.000000 0.745803
O O16 0.239625 0.000000 0.839002
O O17 0.946579 0.216582 0.907484
O O18 0.340753 0.000000 0.997999
O O19 0.500000 0.232122 0.000000
#
# Coordination Sequence:
#
# PCOD9150877 Si02
#       7
#     4   4   4   4   4   4   4
#     4  12  26  41  61  92 128 162 201 248 301 358
#     4  10  22  40  62  89 118 154 204 255 300 355
#     4  10  20  37  59  85 120 159 201 248 304 363
#     4  10  22  38  57  83 120 162 200 243 301 365
#     4  11  23  40  63  89 120 158 207 256 305 361
#     4  10  22  41  64  91 124 161 200 246 300 356
#     4  10  21  42  71  96 124 161 201 244 297 357
#
# _framework density 19.513321999999999
#
# number of rings (size 3 to 8) (size 9 to 14) (size 15 to 20)
#    0.000    1.571    1.429    3.000    2.000    7.143 
#    0.000    1.429    0.000    0.000    0.000    0.000 
#    0.000    0.000    0.000    0.000    0.000    0.000 
#
# Total GULP energy -156448.020479 kJ/mol
# GULP energy per Si atom -5587.429303 kJ/mol
# Density = 1.946891 g / cm^3
# Si number density = 19.513322 Si / 1000 Ang^3
#
#
#
# Elastic Constant Matrix: (Units=GPa)
#
#
# Indices 1 2 3 4 5 6 
#
# 1 123.8558 32.6831 30.1772 0.0000 22.4612 0.0000
# 2 32.6831 26.4547 17.8197 0.0000 -0.1464 0.0000
# 3 30.1772 17.8197 60.5246 0.0000 11.3222 0.0000
# 4 0.0000 0.0000 0.0000 166.9601 0.0000 -98.2188
# 5 22.4612 -0.1464 11.3222 0.0000 37.1261 0.0000
# 6 0.0000 0.0000 0.0000 -98.2188 0.0000 72.3904
#
#
#
# Elastic Compliance Matrix: (Units=1/GPa)
#
#
# Indices 1 2 3 4 5 6 
#
# 1 0.014360 -0.017532 -0.000382 0.000000 -0.008641 0.000000
# 2 -0.017532 0.069337 -0.014538 0.000000 0.015314 0.000000
# 3 -0.000382 -0.014538 0.022228 0.000000 -0.006605 0.000000
# 4 0.000000 0.000000 0.000000 0.029676 0.000000 0.040264
# 5 -0.008641 0.015314 -0.006605 0.000000 0.034238 0.000000
# 6 0.000000 0.000000 0.000000 0.040264 0.000000 0.068444
#
#
# Mechanical properties :
#
#
# Convention : Reuss Voigt Hill
#
# Bulk Modulus (GPa) = 24.37650 41.35501 32.86575
# Shear Modulus (GPa) = 15.77986 63.97234 39.87610
#
# Velocity S-wave (km/s) = 2.84680 5.73194 4.52545
# Velocity P-wave (km/s) = 4.82960 8.06511 6.64722
#
# Compressibility (1/GPa) = 0.04102311
#
# Stress axis : x y z
#
# Youngs Moduli (GPa) = 69.63711 14.42230 44.98749
#
# Poissons Ratio (x) = 0.25285 0.01718
# Poissons Ratio (y) = 1.22086 0.65402
# Poissons Ratio (z) = 0.02659 0.20967
#
# Static dielectric constant tensor:
#      x y z
#    x 1.737260 0.000000 0.020300 
#    y 0.000000 1.665860 0.000000 
#    z 0.020300 0.000000 1.665480 
# 
# From -- ./inp_files/34194.got.cif
#   From: 2010.05.17/outbox.cif.g08.bks.cpg/sg10_18_cif.got.tgz:34194.got - 2010.06.03 11:33:40.
