data_PCOD9150117
_publ_section_title
;
Structure prediction by ZEFSAII (Michael W. Deem and Ramdas Pophale) SiO2 
 PCOD9150117
Probable space group: P 2/M
;
_chemical_formula_sum "Si O2"
_cell_formula_units_Z 28
_cell_length_a 7.439349
_cell_length_b 10.116491
_cell_length_c 26.708002
_cell_angle_alpha 90.000000
_cell_angle_beta 140.028049
_cell_angle_gamma 90.000000
_cell_volume 1291.279414
_symmetry_space_group_name_H-M "P 2/M"
_symmetry_group_IT_number 10
_symmetry_cell_setting 'monoclinic'
loop_
_space_group_symop_operation_xyz
x,y,z
-x,y,-z
-x,-y,-z
x,-y,z
loop_
_atom_site_type_symbol
_atom_site_label
_atom_site_fract_x
_atom_site_fract_y
_atom_site_fract_z
Si Si1 0.760913 0.353695 0.491959
Si Si2 0.059957 0.646834 0.173150
Si Si3 0.567127 0.840740 0.092707
Si Si4 0.771697 0.153241 0.240580
Si Si5 0.629030 0.239859 0.670756
Si Si6 0.879304 0.847453 0.373655
Si Si7 0.108327 0.645341 0.966957
O O1 0.742084 0.500000 0.510205
O O2 0.486091 0.314746 0.402479
O O3 0.000000 0.358049 0.500000
O O4 0.868565 0.243444 0.553116
O O5 0.938535 0.500000 0.156828
O O6 0.289664 0.667347 0.264905
O O7 0.845922 0.767365 0.134197
O O8 0.117943 0.652024 0.126113
O O9 0.568020 0.802887 0.152248
O O10 0.570825 0.000000 0.088277
O O11 0.315996 0.769483 0.010500
O O12 0.771621 0.206810 0.296951
O O13 0.087405 0.167527 0.285995
O O14 0.702396 0.000000 0.232062
O O15 0.372439 0.156752 0.639379
O O16 0.968967 0.000000 0.386924
O O17 0.248361 0.500000 0.989707
O O18 0.000000 0.644891 0.000000
#
# Coordination Sequence:
#
# PCOD9150117 Si02
#       7
#     4   4   4   4   4   4   4
#     4   9  19  36  56  82 116 148 185 236 285 333
#     4  10  21  38  60  83 111 150 190 232 285 341
#     4  10  21  38  59  83 115 149 189 237 285 337
#     4   9  20  37  55  84 118 147 187 237 284 334
#     4  10  20  35  60  84 111 149 193 234 282 340
#     4  10  21  37  59  83 112 152 191 232 285 340
#     4  10  22  38  57  84 116 149 188 232 283 342
#
# _framework density 21.683921000000002
#
# number of rings (size 3 to 8) (size 9 to 14) (size 15 to 20)
#    0.000    2.286    0.000    1.714    2.000    7.429 
#    0.000    6.429    0.000    0.000    0.000    0.000 
#    0.000    0.000    0.000    0.000    0.000    0.000 
#
# Total GULP energy -155956.155398 kJ/mol
# GULP energy per Si atom -5569.862693 kJ/mol
# Density = 2.163457 g / cm^3
# Si number density = 21.683921 Si / 1000 Ang^3
#
#
#
# Elastic Constant Matrix: (Units=GPa)
#
#
# Indices 1 2 3 4 5 6 
#
# 1 44.0454 10.7212 -3.9169 0.0000 -19.6084 0.0000
# 2 10.7212 124.0313 55.9163 0.0000 -11.9236 0.0000
# 3 -3.9169 55.9163 100.3743 0.0000 -14.7489 0.0000
# 4 0.0000 0.0000 0.0000 27.2063 0.0000 -4.8948
# 5 -19.6084 -11.9236 -14.7489 0.0000 27.9369 0.0000
# 6 0.0000 0.0000 0.0000 -4.8948 0.0000 12.2510
#
#
#
# Elastic Compliance Matrix: (Units=1/GPa)
#
#
# Indices 1 2 3 4 5 6 
#
# 1 0.037036 -0.004010 0.007857 0.000000 0.028431 0.000000
# 2 -0.004010 0.011263 -0.006654 0.000000 -0.001521 0.000000
# 3 0.007857 -0.006654 0.015578 0.000000 0.010899 0.000000
# 4 0.000000 0.000000 0.000000 0.039603 0.000000 0.015823
# 5 0.028431 -0.001521 0.010899 0.000000 0.060855 0.000000
# 6 0.000000 0.000000 0.000000 0.015823 0.000000 0.087948
#
#
# Mechanical properties :
#
#
# Convention : Reuss Voigt Hill
#
# Bulk Modulus (GPa) = 17.16402 43.76580 30.46491
# Shear Modulus (GPa) = 18.02982 27.19420 22.61201
#
# Velocity S-wave (km/s) = 2.88667 3.54520 3.23275
# Velocity P-wave (km/s) = 4.36386 6.08155 5.29285
#
# Compressibility (1/GPa) = 0.05826140
#
# Stress axis : x y z
#
# Youngs Moduli (GPa) = 27.00076 88.78771 64.19447
#
# Poissons Ratio (x) = 0.35607 -0.50438
# Poissons Ratio (y) = 0.10828 0.42716
# Poissons Ratio (z) = -0.21214 0.59081
#
# Static dielectric constant tensor:
#      x y z
#    x 1.823080 0.000000 -0.019260 
#    y 0.000000 1.771300 0.000000 
#    z -0.019260 0.000000 1.829260 
# 
# From -- ./inp_files/92083.got.cif
#   From: 2010.05.17/outbox.cif.g08.bks.cpg/sg10_47_cif.got.tgz:92083.got - 2010.06.03 11:33:40.
