data_PCOD9150547
_publ_section_title
;
Structure prediction by ZEFSAII (Michael W. Deem and Ramdas Pophale) SiO2 
 PCOD9150547
Probable space group: P 2/M
;
_chemical_formula_sum "Si O2"
_cell_formula_units_Z 32
_cell_length_a 11.239143
_cell_length_b 8.703551
_cell_length_c 15.013424
_cell_angle_alpha 90.000000
_cell_angle_beta 100.331944
_cell_angle_gamma 90.000000
_cell_volume 1444.806574
_symmetry_space_group_name_H-M "P 2/M"
_symmetry_group_IT_number 10
_symmetry_cell_setting 'monoclinic'
loop_
_space_group_symop_operation_xyz
x,y,z
-x,y,-z
-x,-y,-z
x,-y,z
loop_
_atom_site_type_symbol
_atom_site_label
_atom_site_fract_x
_atom_site_fract_y
_atom_site_fract_z
Si Si1 0.471667 0.684517 0.395581
Si Si2 0.209354 0.817986 0.804543
Si Si3 0.794784 0.683009 0.708939
Si Si4 0.111814 0.184342 0.450505
Si Si5 0.534794 0.320572 0.108794
Si Si6 0.124551 0.678057 0.963198
Si Si7 0.711334 0.179641 0.871935
Si Si8 0.713250 0.184914 0.373959
O O1 0.500000 0.738098 0.500000
O O2 0.477245 0.500000 0.395079
O O3 0.338531 0.728904 0.346091
O O4 0.579169 0.749288 0.349817
O O5 0.346879 0.777527 0.852518
O O6 0.206320 0.771405 0.700506
O O7 0.187950 0.000000 0.808316
O O8 0.122128 0.729501 0.860499
O O9 0.800831 0.500000 0.720106
O O10 0.886250 0.738629 0.645386
O O11 0.798882 0.761643 0.805332
O O12 0.226403 0.235816 0.525469
O O13 0.000000 0.218163 0.500000
O O14 0.116344 0.000000 0.438829
O O15 0.561127 0.500000 0.129211
O O16 0.415554 0.269371 0.146174
O O17 0.500000 0.302970 0.000000
O O18 0.163201 0.500000 0.973482
O O19 0.222563 0.781324 0.026906
O O20 0.000000 0.693468 0.000000
O O21 0.688580 0.000000 0.860331
O O22 0.707824 0.000000 0.373772
#
# Coordination Sequence:
#
# PCOD9150547 Si02
#       8
#     4   4   4   4   4   4   4   4
#     4  10  20  36  59  89 122 158 197 243 301 364
#     4  11  23  39  62  93 126 162 206 252 307 370
#     4  11  23  40  63  91 125 160 202 252 305 367
#     4  10  22  41  62  86 120 162 207 254 303 356
#     4  11  22  38  63  92 126 163 200 249 310 369
#     4  11  25  45  66  90 122 161 208 258 307 361
#     4  12  25  41  65  94 126 162 204 252 308 372
#     4  10  22  38  59  89 122 157 198 247 299 358
#
# _framework density 22.148294
#
# number of rings (size 3 to 8) (size 9 to 14) (size 15 to 20)
#    0.000    1.250    2.500    3.375    0.000    7.000 
#    0.000    1.250    0.000    0.000    0.000    0.000 
#    0.000    0.000    0.000    0.000    0.000    0.000 
#
# Total GULP energy -179065.836032 kJ/mol
# GULP energy per Si atom -5595.807376 kJ/mol
# Density = 2.209788 g / cm^3
# Si number density = 22.148294 Si / 1000 Ang^3
#
#
#
# Elastic Constant Matrix: (Units=GPa)
#
#
# Indices 1 2 3 4 5 6 
#
# 1 46.8905 8.5919 6.5770 0.0000 -22.4530 0.0000
# 2 8.5919 26.5089 14.5127 0.0000 -13.1166 0.0000
# 3 6.5770 14.5127 99.7354 0.0000 -34.9905 0.0000
# 4 0.0000 0.0000 0.0000 46.2560 0.0000 -6.2086
# 5 -22.4530 -13.1166 -34.9905 0.0000 37.9170 0.0000
# 6 0.0000 0.0000 0.0000 -6.2086 0.0000 26.7499
#
#
#
# Elastic Compliance Matrix: (Units=1/GPa)
#
#
# Indices 1 2 3 4 5 6 
#
# 1 0.032735 -0.001989 0.006935 0.000000 0.025097 0.000000
# 2 -0.001989 0.045813 -0.002053 0.000000 0.012776 0.000000
# 3 0.006935 -0.002053 0.016354 0.000000 0.018489 0.000000
# 4 0.000000 0.000000 0.000000 0.022314 0.000000 0.005179
# 5 0.025097 0.012776 0.018489 0.000000 0.062716 0.000000
# 6 0.000000 0.000000 0.000000 0.005179 0.000000 0.038585
#
#
# Mechanical properties :
#
#
# Convention : Reuss Voigt Hill
#
# Bulk Modulus (GPa) = 9.93150 25.83310 17.88230
# Shear Modulus (GPa) = 20.30087 31.74813 26.02450
#
# Velocity S-wave (km/s) = 3.03081 3.79018 3.43156
# Velocity P-wave (km/s) = 4.09164 5.55364 4.87773
#
# Compressibility (1/GPa) = 0.10068973
#
# Stress axis : x y z
#
# Youngs Moduli (GPa) = 30.54814 21.82772 61.14551
#
# Poissons Ratio (x) = 0.04342 -0.42407
# Poissons Ratio (y) = 0.06076 0.12554
# Poissons Ratio (z) = -0.21187 0.04481
#
# Static dielectric constant tensor:
#      x y z
#    x 1.822190 0.000000 -0.002160 
#    y 0.000000 1.732780 0.000000 
#    z -0.002160 0.000000 1.836450 
# 
# From -- ./inp_files/63788.got.cif
#   From: 2010.05.17/outbox.cif.g08.bks.cpg/sg10_32_cif.got.tgz:63788.got - 2010.06.03 11:33:40.
