data_PCOD9150151
_publ_section_title
;
Structure prediction by ZEFSAII (Michael W. Deem and Ramdas Pophale) SiO2 
 PCOD9150151
Probable space group: P 2/M
;
_chemical_formula_sum "Si O2"
_cell_formula_units_Z 24
_cell_length_a 15.157800
_cell_length_b 15.959571
_cell_length_c 8.334915
_cell_angle_alpha 90.000000
_cell_angle_beta 146.991950
_cell_angle_gamma 90.000000
_cell_volume 1098.401887
_symmetry_space_group_name_H-M "P 2/M"
_symmetry_group_IT_number 10
_symmetry_cell_setting 'monoclinic'
loop_
_space_group_symop_operation_xyz
x,y,z
-x,y,-z
-x,-y,-z
x,-y,z
loop_
_atom_site_type_symbol
_atom_site_label
_atom_site_fract_x
_atom_site_fract_y
_atom_site_fract_z
Si Si1 0.185094 0.153262 0.785331
Si Si2 0.657631 0.500000 0.623977
Si Si3 0.334843 0.322546 0.533484
Si Si4 0.290985 0.677180 0.836752
Si Si5 0.159784 0.096417 0.418677
Si Si6 0.197841 0.833218 0.151593
Si Si7 0.812996 0.500000 0.182647
O O1 0.184849 0.253539 0.763844
O O2 0.256572 0.118104 0.728196
O O3 0.000000 0.120022 0.500000
O O4 0.262097 0.137429 0.076317
O O5 0.500000 0.500000 0.500000
O O6 0.665814 0.417120 0.530914
O O7 0.797171 0.500000 0.967625
O O8 0.262200 0.318176 0.601807
O O9 0.247948 0.260780 0.275839
O O10 0.523319 0.298732 0.841551
O O11 0.263746 0.583697 0.859206
O O12 0.247845 0.114699 0.385350
O O13 0.108620 0.000000 0.344660
O O14 0.996699 0.153399 0.164015
O O15 0.000000 0.500000 0.500000
#
# Coordination Sequence:
#
# PCOD9150151 Si02
#       7
#     4   2   4   4   4   4   2
#     4  10  21  36  59  92 127 161 203 262 322 381
#     4  12  23  43  63  95 126 168 231 262 313 385
#     4  11  23  39  65  87 124 175 217 266 311 389
#     4  11  22  41  61  89 127 168 220 262 325 376
#     4  10  21  40  63  94 131 163 208 269 330 399
#     4  10  20  35  61  92 121 163 211 257 317 380
#     4  12  25  41  61  91 130 169 215 275 320 369
#
# _framework density 21.849926
#
# number of rings (size 3 to 8) (size 9 to 14) (size 15 to 20)
#    0.000    1.333    3.333    3.000    0.000    6.333 
#    0.000    0.833    0.000    3.000    0.000   11.667 
#    0.000    0.000    0.000    0.000    0.000    0.000 
#
# Total GULP energy -133979.030462 kJ/mol
# GULP energy per Si atom -5582.459603 kJ/mol
# Density = 2.180019 g / cm^3
# Si number density = 21.849926 Si / 1000 Ang^3
#
#
#
# Elastic Constant Matrix: (Units=GPa)
#
#
# Indices 1 2 3 4 5 6 
#
# 1 91.9211 18.5546 47.0235 0.0000 -50.3671 0.0000
# 2 18.5546 97.6698 34.9291 0.0000 -4.9169 0.0000
# 3 47.0235 34.9291 88.1574 0.0000 -40.9335 0.0000
# 4 0.0000 0.0000 0.0000 -43.0417 0.0000 -31.2361
# 5 -50.3671 -4.9169 -40.9335 0.0000 51.6390 0.0000
# 6 0.0000 0.0000 0.0000 -31.2361 0.0000 -5.8278
#
#
#
# Elastic Compliance Matrix: (Units=1/GPa)
#
#
# Indices 1 2 3 4 5 6 
#
# 1 0.024578 -0.003015 -0.001452 0.000000 0.022534 0.000000
# 2 -0.003015 0.012883 -0.006792 0.000000 -0.007098 0.000000
# 3 -0.001452 -0.006792 0.021918 0.000000 0.015312 0.000000
# 4 0.000000 0.000000 0.000000 0.008040 0.000000 -0.043093
# 5 0.022534 -0.007098 0.015312 0.000000 0.052806 0.000000
# 6 0.000000 0.000000 0.000000 -0.043093 0.000000 0.059380
#
#
# Mechanical properties :
#
#
# Convention : Reuss Voigt Hill
#
# Bulk Modulus (GPa) = 27.12913 53.19585 40.16249
# Shear Modulus (GPa) = 23.31979 12.36997 17.84488
#
# Velocity S-wave (km/s) = 3.27046 2.38194 2.86090
# Velocity P-wave (km/s) = 5.16761 5.65364 5.41608
#
# Compressibility (1/GPa) = 0.03686075
#
# Stress axis : x y z
#
# Youngs Moduli (GPa) = 40.68708 77.62141 45.62393
#
# Poissons Ratio (x) = 0.23406 0.06624
# Poissons Ratio (y) = 0.12269 0.30987
# Poissons Ratio (z) = 0.05907 0.52720
#
# Static dielectric constant tensor:
#      x y z
#    x 1.891800 0.000000 -0.158620 
#    y 0.000000 1.781700 0.000000 
#    z -0.158620 0.000000 2.422170 
# 
# From -- ./inp_files/32895.got.cif
#   From: 2010.05.17/outbox.cif.g08.bks.cpg/sg10_17_cif.got.tgz:32895.got - 2010.06.03 11:33:40.
