data_PCOD9150195
_publ_section_title
;
Structure prediction by ZEFSAII (Michael W. Deem and Ramdas Pophale) SiO2 
 PCOD9150195
Probable space group: P 2/M
;
_chemical_formula_sum "Si O2"
_cell_formula_units_Z 30
_cell_length_a 19.132546
_cell_length_b 17.594291
_cell_length_c 16.149380
_cell_angle_alpha 90.000000
_cell_angle_beta 18.918338
_cell_angle_gamma 90.000000
_cell_volume 1762.546022
_symmetry_space_group_name_H-M "P 2/M"
_symmetry_group_IT_number 10
_symmetry_cell_setting 'monoclinic'
loop_
_space_group_symop_operation_xyz
x,y,z
-x,y,-z
-x,-y,-z
x,-y,z
loop_
_atom_site_type_symbol
_atom_site_label
_atom_site_fract_x
_atom_site_fract_y
_atom_site_fract_z
Si Si1 0.868723 0.224261 0.443135
Si Si2 0.531486 0.675603 0.055113
Si Si3 0.112495 0.310177 0.043201
Si Si4 0.237944 0.413420 0.649916
Si Si5 0.500000 0.334008 0.500000
Si Si6 0.440958 0.912092 0.164143
Si Si7 0.331397 0.412362 0.939138
Si Si8 0.819008 0.183398 0.765069
O O1 0.694667 0.290535 0.657532
O O2 0.743520 0.145283 0.598938
O O3 0.975121 0.241340 0.235483
O O4 0.063391 0.221393 0.289844
O O5 0.644228 0.623172 0.997083
O O6 0.500000 0.639853 0.000000
O O7 0.681276 0.750252 0.875562
O O8 0.954178 0.359204 0.162993
O O9 0.328446 0.290088 0.750015
O O10 0.187427 0.362625 0.037296
O O11 0.162785 0.500000 0.741593
O O12 0.355804 0.385647 0.600938
O O13 0.427639 0.410885 0.369026
O O14 0.389930 0.000000 0.234637
O O15 0.500000 0.902250 0.000000
O O16 0.655935 0.883584 0.969704
O O17 0.257565 0.500000 0.023519
O O18 0.000000 0.154210 0.500000
#
# Coordination Sequence:
#
# PCOD9150195 Si02
#       8
#     4   4   4   4   2   4   4   4
#     4  11  20  34  55  75 102 147 180 213 265 321
#     4  11  20  32  52  74 101 137 194 231 258 315
#     4  11  21  36  56  75 105 141 181 225 272 332
#     4  10  20  36  55  76 108 141 173 223 288 340
#     4  10  23  34  52  86 105 130 180 232 275 332
#     4  10  21  33  50  83 115 138 177 219 259 323
#     4  10  21  34  49  74 104 139 186 233 273 314
#     4  11  18  32  52  76 103 143 179 216 264 311
#
# _framework density 17.020831999999999
#
# number of rings (size 3 to 8) (size 9 to 14) (size 15 to 20)
#    0.000    1.467    5.333    1.800    0.000    3.200 
#    0.000    0.000    0.000    1.200    0.000    0.467 
#    0.000    3.200    0.000    0.133    0.000    0.000 
#
# Total GULP energy -167323.030651 kJ/mol
# GULP energy per Si atom -5577.434355 kJ/mol
# Density = 1.698209 g / cm^3
# Si number density = 17.020832 Si / 1000 Ang^3
#
#
#
# Elastic Constant Matrix: (Units=GPa)
#
#
# Indices 1 2 3 4 5 6 
#
# 1 94.2324 27.3444 31.5069 0.0000 -4.6982 0.0000
# 2 27.3444 71.1878 38.7628 0.0000 10.5104 0.0000
# 3 31.5069 38.7628 83.6117 0.0000 3.7657 0.0000
# 4 0.0000 0.0000 0.0000 13.1998 0.0000 2.5735
# 5 -4.6982 10.5104 3.7657 0.0000 29.9651 0.0000
# 6 0.0000 0.0000 0.0000 2.5735 0.0000 10.1493
#
#
#
# Elastic Compliance Matrix: (Units=1/GPa)
#
#
# Indices 1 2 3 4 5 6 
#
# 1 0.012999 -0.003732 -0.003338 0.000000 0.003766 0.000000
# 2 -0.003732 0.020819 -0.007935 0.000000 -0.006890 0.000000
# 3 -0.003338 -0.007935 0.016891 0.000000 0.000137 0.000000
# 4 0.000000 0.000000 0.000000 0.079699 0.000000 -0.020209
# 5 0.003766 -0.006890 0.000137 0.000000 0.036362 0.000000
# 6 0.000000 0.000000 0.000000 -0.020209 0.000000 0.103653
#
#
# Mechanical properties :
#
#
# Convention : Reuss Voigt Hill
#
# Bulk Modulus (GPa) = 48.31240 49.36224 48.83732
# Shear Modulus (GPa) = 16.26909 20.75736 18.51322
#
# Velocity S-wave (km/s) = 3.09501 3.49596 3.30158
# Velocity P-wave (km/s) = 6.42013 6.73496 6.57943
#
# Compressibility (1/GPa) = 0.02069862
#
# Stress axis : x y z
#
# Youngs Moduli (GPa) = 76.93083 48.03331 59.20486
#
# Poissons Ratio (x) = 0.17924 0.19762
# Poissons Ratio (y) = 0.28707 0.46981
# Poissons Ratio (z) = 0.25679 0.38116
#
# Static dielectric constant tensor:
#      x y z
#    x 1.602750 0.000000 0.007650 
#    y 0.000000 1.556720 0.000000 
#    z 0.007650 0.000000 1.610080 
# 
# From -- ./inp_files/69390.got.cif
#   From: 2010.05.17/outbox.cif.g08.bks.cpg/sg10_35_cif.got.tgz:69390.got - 2010.06.03 11:33:40.
