data_PCOD9150103
_publ_section_title
;
Structure prediction by ZEFSAII (Michael W. Deem and Ramdas Pophale) SiO2 
 PCOD9150103
Probable space group: P 2/M
;
_chemical_formula_sum "Si O2"
_cell_formula_units_Z 28
_cell_length_a 12.275191
_cell_length_b 7.895883
_cell_length_c 14.710050
_cell_angle_alpha 90.000000
_cell_angle_beta 111.168037
_cell_angle_gamma 90.000000
_cell_volume 1329.547255
_symmetry_space_group_name_H-M "P 2/M"
_symmetry_group_IT_number 10
_symmetry_cell_setting 'monoclinic'
loop_
_space_group_symop_operation_xyz
x,y,z
-x,y,-z
-x,-y,-z
x,-y,z
loop_
_atom_site_type_symbol
_atom_site_label
_atom_site_fract_x
_atom_site_fract_y
_atom_site_fract_z
Si Si1 0.861808 0.301929 0.300353
Si Si2 0.715849 0.204729 0.779557
Si Si3 0.366986 0.197030 0.056621
Si Si4 0.886252 0.702096 0.675338
Si Si5 0.228687 0.800476 0.545984
Si Si6 0.487746 0.793172 0.601471
Si Si7 0.624919 0.696270 0.144303
O O1 0.858715 0.500000 0.274247
O O2 0.856710 0.285035 0.407484
O O3 0.739846 0.229120 0.226436
O O4 0.981818 0.230753 0.296634
O O5 0.709143 0.261583 0.881938
O O6 0.825762 0.256404 0.752341
O O7 0.598706 0.264921 0.692377
O O8 0.711150 0.000000 0.779990
O O9 0.503352 0.209993 0.126742
O O10 0.340481 0.000000 0.031052
O O11 0.355530 0.293469 0.958451
O O12 0.888751 0.500000 0.664590
O O13 0.809415 0.773369 0.569213
O O14 0.361291 0.736183 0.598357
O O15 0.226127 0.000000 0.563800
O O16 0.500000 0.742354 0.500000
O O17 0.487002 0.000000 0.602846
O O18 0.608890 0.500000 0.165892
#
# Coordination Sequence:
#
# PCOD9150103 Si02
#       7
#     4   4   4   4   4   4   4
#     4  10  23  40  55  76 109 147 185 228 274 316
#     4  10  20  36  56  80 110 145 181 220 270 327
#     4  10  20  35  59  88 116 140 170 223 285 330
#     4  11  23  38  54  75 110 150 185 226 271 319
#     4  11  21  35  58  83 107 143 186 226 273 327
#     4   9  16  30  52  76 107 138 168 213 264 314
#     4  10  20  37  60  83 110 143 183 225 267 326
#
# _framework density 21.059801
#
# number of rings (size 3 to 8) (size 9 to 14) (size 15 to 20)
#    0.000    1.857    1.429    3.857    0.000    6.286 
#    0.000    2.857    0.000    4.286    0.000    0.000 
#    0.000    0.000    0.000    0.000    0.000    0.000 
#
# Total GULP energy -156445.362124 kJ/mol
# GULP energy per Si atom -5587.334362 kJ/mol
# Density = 2.101187 g / cm^3
# Si number density = 21.059801 Si / 1000 Ang^3
#
#
#
# Elastic Constant Matrix: (Units=GPa)
#
#
# Indices 1 2 3 4 5 6 
#
# 1 122.6189 -6.0151 28.4196 0.0000 -25.9322 0.0000
# 2 -6.0151 29.2816 -4.0925 0.0000 4.9490 0.0000
# 3 28.4196 -4.0925 38.2123 0.0000 -19.1439 0.0000
# 4 0.0000 0.0000 0.0000 16.8756 0.0000 -2.3140
# 5 -25.9322 4.9490 -19.1439 0.0000 31.2569 0.0000
# 6 0.0000 0.0000 0.0000 -2.3140 0.0000 20.6817
#
#
#
# Elastic Compliance Matrix: (Units=1/GPa)
#
#
# Indices 1 2 3 4 5 6 
#
# 1 0.010515 0.000520 -0.004956 0.000000 0.005606 0.000000
# 2 0.000520 0.035168 0.001163 0.000000 -0.004425 0.000000
# 3 -0.004956 0.001163 0.040147 0.000000 0.020293 0.000000
# 4 0.000000 0.000000 0.000000 0.060180 0.000000 0.006733
# 5 0.005606 -0.004425 0.020293 0.000000 0.049773 0.000000
# 6 0.000000 0.000000 0.000000 0.006733 0.000000 0.049105
#
#
# Mechanical properties :
#
#
# Convention : Reuss Voigt Hill
#
# Bulk Modulus (GPa) = 12.61294 25.19297 18.90296
# Shear Modulus (GPa) = 17.99448 25.21624 21.60536
#
# Velocity S-wave (km/s) = 2.92626 3.46405 3.20645
# Velocity P-wave (km/s) = 4.17366 5.29037 4.76485
#
# Compressibility (1/GPa) = 0.07928363
#
# Stress axis : x y z
#
# Youngs Moduli (GPa) = 95.10081 28.43467 24.90876
#
# Poissons Ratio (x) = -0.01478 0.12345
# Poissons Ratio (y) = -0.04944 -0.02897
# Poissons Ratio (z) = 0.47134 -0.03307
#
# Static dielectric constant tensor:
#      x y z
#    x 1.769050 0.000000 0.005410 
#    y 0.000000 1.751210 0.000000 
#    z 0.005410 0.000000 1.755870 
# 
# From -- ./inp_files/63515.got.cif
#   From: 2010.05.17/outbox.cif.g08.bks.cpg/sg10_32_cif.got.tgz:63515.got - 2010.06.03 11:33:40.
