data_PCOD9150075
_publ_section_title
;
Structure prediction by ZEFSAII (Michael W. Deem and Ramdas Pophale) SiO2 
 PCOD9150075
Probable space group: P 2/M
;
_chemical_formula_sum "Si O2"
_cell_formula_units_Z 30
_cell_length_a 5.143007
_cell_length_b 18.331319
_cell_length_c 18.388819
_cell_angle_alpha 90.000000
_cell_angle_beta 108.581843
_cell_angle_gamma 90.000000
_cell_volume 1643.286132
_symmetry_space_group_name_H-M "P 2/M"
_symmetry_group_IT_number 10
_symmetry_cell_setting 'monoclinic'
loop_
_space_group_symop_operation_xyz
x,y,z
-x,y,-z
-x,-y,-z
x,-y,z
loop_
_atom_site_type_symbol
_atom_site_label
_atom_site_fract_x
_atom_site_fract_y
_atom_site_fract_z
Si Si1 0.683851 0.000000 0.947927
Si Si2 0.309977 0.226043 0.799743
Si Si3 0.687366 0.811029 0.587858
Si Si4 0.234451 0.121811 0.149467
Si Si5 0.248562 0.276728 0.640842
Si Si6 0.970280 0.083419 0.718055
Si Si7 0.313642 0.418348 0.553057
Si Si8 0.186237 0.216004 0.947714
O O1 0.617565 0.069243 0.892398
O O2 0.500000 0.000000 0.000000
O O3 0.000000 0.000000 0.000000
O O4 0.622791 0.200523 0.835012
O O5 0.263075 0.279837 0.729179
O O6 0.199439 0.252073 0.867907
O O7 0.176257 0.149392 0.758603
O O8 0.500000 0.820985 0.500000
O O9 0.486021 0.776361 0.630749
O O10 0.813379 0.884800 0.633652
O O11 0.947640 0.757297 0.595294
O O12 0.218350 0.085981 0.226712
O O13 0.940690 0.137991 0.086762
O O14 0.313809 0.354325 0.611379
O O15 0.068089 0.000000 0.716796
O O16 0.500000 0.398797 0.500000
O O17 0.398773 0.500000 0.585083
O O18 0.000000 0.422633 0.500000
O O19 0.500000 0.211476 0.000000
O O20 0.000000 0.241970 0.000000
#
# Coordination Sequence:
#
# PCOD9150075 Si02
#       8
#     2   4   4   4   4   4   4   4
#     4  12  30  34  50  74  93 127 175 219 282 348
#     4  10  23  36  55  75 104 142 188 224 283 340
#     4  11  22  37  58  81 104 140 191 236 278 321
#     4  11  22  38  51  71 101 136 174 228 277 351
#     4  11  21  38  58  83 114 148 185 222 269 329
#     4  10  22  38  52  73 101 140 184 237 293 334
#     4  10  20  35  58  91 125 155 181 214 265 321
#     4  11  22  36  55  74 101 134 171 226 281 323
#
# _framework density 18.256101999999998
#
# number of rings (size 3 to 8) (size 9 to 14) (size 15 to 20)
#    0.000    1.333    3.333    2.800    6.533    0.267 
#    0.000    0.000    0.000    2.400    0.000    0.000 
#    0.000    1.067    0.000    0.800    0.000    0.267 
#
# Total GULP energy -167257.076048 kJ/mol
# GULP energy per Si atom -5575.235868 kJ/mol
# Density = 1.821455 g / cm^3
# Si number density = 18.256102 Si / 1000 Ang^3
#
#
#
# Elastic Constant Matrix: (Units=GPa)
#
#
# Indices 1 2 3 4 5 6 
#
# 1 114.6040 25.7016 44.2300 0.0000 -9.0737 0.0000
# 2 25.7016 75.1477 47.7046 0.0000 -16.4194 0.0000
# 3 44.2300 47.7046 126.7558 0.0000 -21.1127 0.0000
# 4 0.0000 0.0000 0.0000 22.9781 0.0000 -8.6008
# 5 -9.0737 -16.4194 -21.1127 0.0000 32.3619 0.0000
# 6 0.0000 0.0000 0.0000 -8.6008 0.0000 17.8190
#
#
#
# Elastic Compliance Matrix: (Units=1/GPa)
#
#
# Indices 1 2 3 4 5 6 
#
# 1 0.010232 -0.001600 -0.002946 0.000000 0.000135 0.000000
# 2 -0.001600 0.018530 -0.005525 0.000000 0.005349 0.000000
# 3 -0.002946 -0.005525 0.011659 0.000000 0.003977 0.000000
# 4 0.000000 0.000000 0.000000 0.053116 0.000000 0.025638
# 5 0.000135 0.005349 0.003977 0.000000 0.036247 0.000000
# 6 0.000000 0.000000 0.000000 0.025638 0.000000 0.068495
#
#
# Mechanical properties :
#
#
# Convention : Reuss Voigt Hill
#
# Bulk Modulus (GPa) = 49.30892 61.30888 55.30890
# Shear Modulus (GPa) = 22.20455 27.88989 25.04722
#
# Velocity S-wave (km/s) = 3.49131 3.91282 3.70806
# Velocity P-wave (km/s) = 6.58183 7.35317 6.97817
#
# Compressibility (1/GPa) = 0.02028031
#
# Stress axis : x y z
#
# Youngs Moduli (GPa) = 97.73177 53.96625 85.77311
#
# Poissons Ratio (x) = 0.08635 0.25266
# Poissons Ratio (y) = 0.15637 0.47386
# Poissons Ratio (z) = 0.28788 0.29814
#
# Static dielectric constant tensor:
#      x y z
#    x 1.725930 0.000000 0.031150 
#    y 0.000000 1.618220 0.000000 
#    z 0.031150 0.000000 1.681210 
# 
# From -- ./inp_files/73705.got.cif
#   From: 2010.05.17/outbox.cif.g08.bks.cpg/sg10_37_cif.got.tgz:73705.got - 2010.06.03 11:33:40.
