data_PCOD9150972
_publ_section_title
;
Structure prediction by ZEFSAII (Michael W. Deem and Ramdas Pophale) SiO2 
 PCOD9150972
Probable space group: P 2/M
;
_chemical_formula_sum "Si O2"
_cell_formula_units_Z 32
_cell_length_a 29.831555
_cell_length_b 7.786349
_cell_length_c 12.836154
_cell_angle_alpha 90.000000
_cell_angle_beta 150.996928
_cell_angle_gamma 90.000000
_cell_volume 1445.632526
_symmetry_space_group_name_H-M "P 2/M"
_symmetry_group_IT_number 10
_symmetry_cell_setting 'monoclinic'
loop_
_space_group_symop_operation_xyz
x,y,z
-x,y,-z
-x,-y,-z
x,-y,z
loop_
_atom_site_type_symbol
_atom_site_label
_atom_site_fract_x
_atom_site_fract_y
_atom_site_fract_z
Si Si1 0.142982 0.800541 0.266792
Si Si2 0.895413 0.210415 0.261383
Si Si3 0.489392 0.293433 0.808551
Si Si4 0.244818 0.207567 0.842021
Si Si5 0.453135 0.204905 0.298993
Si Si6 0.647656 0.708770 0.287696
Si Si7 0.090534 0.307369 0.380574
Si Si8 0.099740 0.194831 0.954411
O O1 0.251553 0.786748 0.509713
O O2 0.091857 0.715322 0.259627
O O3 0.113937 0.000000 0.206207
O O4 0.125954 0.722891 0.117818
O O5 0.821377 0.262328 0.197214
O O6 0.870034 0.271714 0.093735
O O7 0.000000 0.265297 0.500000
O O8 0.896370 0.000000 0.260768
O O9 0.489955 0.500000 0.809620
O O10 0.489294 0.234435 0.689558
O O11 0.405502 0.241274 0.713744
O O12 0.582674 0.237887 0.058966
O O13 0.191549 0.267425 0.630724
O O14 0.246516 0.000000 0.843349
O O15 0.349122 0.272099 0.067759
O O16 0.500000 0.273123 0.500000
O O17 0.444074 0.000000 0.294233
O O18 0.654926 0.500000 0.300235
O O19 0.065425 0.500000 0.357874
O O20 0.012048 0.190750 0.272403
O O21 0.136405 0.000000 0.032325
#
# Coordination Sequence:
#
# PCOD9150972 Si02
#       8
#     4   4   4   4   4   4   4   4
#     4  11  23  36  55  84 116 147 185 230 279 338
#     4   9  16  32  60  83 103 139 186 229 272 329
#     4   9  19  37  60  82 109 150 191 227 277 341
#     4  10  20  37  61  84 110 148 190 231 282 339
#     4  10  22  37  55  84 118 148 185 238 288 330
#     4   9  19  37  59  83 112 145 185 232 281 336
#     4  12  24  37  56  81 113 149 189 234 279 330
#     4  10  21  38  58  82 111 147 188 230 279 338
#
# _framework density 22.135638
#
# number of rings (size 3 to 8) (size 9 to 14) (size 15 to 20)
#    0.000    2.000    1.250    3.375    0.000    7.250 
#    0.000    5.000    0.000    0.000    0.000    0.000 
#    0.000    0.000    0.000    0.000    0.000    0.000 
#
# Total GULP energy -178809.842953 kJ/mol
# GULP energy per Si atom -5587.807592 kJ/mol
# Density = 2.208526 g / cm^3
# Si number density = 22.135638 Si / 1000 Ang^3
#
#
#
# Elastic Constant Matrix: (Units=GPa)
#
#
# Indices 1 2 3 4 5 6 
#
# 1 104.5062 -0.3046 34.3213 0.0000 -35.3713 0.0000
# 2 -0.3046 41.5953 0.6737 0.0000 -3.0907 0.0000
# 3 34.3213 0.6737 62.9458 0.0000 -23.0271 0.0000
# 4 0.0000 0.0000 0.0000 37.3198 0.0000 1.8451
# 5 -35.3713 -3.0907 -23.0271 0.0000 43.3937 0.0000
# 6 0.0000 0.0000 0.0000 1.8451 0.0000 -44.0279
#
#
#
# Elastic Compliance Matrix: (Units=1/GPa)
#
#
# Indices 1 2 3 4 5 6 
#
# 1 0.014134 0.000864 -0.004317 0.000000 0.009292 0.000000
# 2 0.000864 0.024233 0.000197 0.000000 0.002535 0.000000
# 3 -0.004317 0.000197 0.021041 0.000000 0.007661 0.000000
# 4 0.000000 0.000000 0.000000 0.026740 0.000000 0.001121
# 5 0.009292 0.002535 0.007661 0.000000 0.034865 0.000000
# 6 0.000000 0.000000 0.000000 0.001121 0.000000 -0.022666
#
#
# Mechanical properties :
#
#
# Convention : Reuss Voigt Hill
#
# Bulk Modulus (GPa) = 18.90522 30.93644 24.92083
# Shear Modulus (GPa) = 40.81981 18.96091 29.89036
#
# Velocity S-wave (km/s) = 4.29893 2.92991 3.67867
# Velocity P-wave (km/s) = 5.76196 5.04500 5.41536
#
# Compressibility (1/GPa) = 0.05289544
#
# Stress axis : x y z
#
# Youngs Moduli (GPa) = 70.75198 41.26666 47.52694
#
# Poissons Ratio (x) = -0.03565 0.20515
# Poissons Ratio (y) = -0.06112 -0.00936
# Poissons Ratio (z) = 0.30541 -0.00812
#
# Static dielectric constant tensor:
#      x y z
#    x 1.794120 0.000000 -0.023910 
#    y 0.000000 1.815590 0.000000 
#    z -0.023910 0.000000 1.815900 
# 
# From -- ./inp_files/58360.got.cif
#   From: 2010.05.17/outbox.cif.g08.bks.cpg/sg10_30_cif.got.tgz:58360.got - 2010.06.03 11:33:40.
