data_PCOD9150128
_publ_section_title
;
Structure prediction by ZEFSAII (Michael W. Deem and Ramdas Pophale) SiO2 
 PCOD9150128
Probable space group: P 2/M
;
_chemical_formula_sum "Si O2"
_cell_formula_units_Z 32
_cell_length_a 11.784051
_cell_length_b 14.483963
_cell_length_c 10.495460
_cell_angle_alpha 90.000000
_cell_angle_beta 68.092132
_cell_angle_gamma 90.000000
_cell_volume 1661.999377
_symmetry_space_group_name_H-M "P 2/M"
_symmetry_group_IT_number 10
_symmetry_cell_setting 'monoclinic'
loop_
_space_group_symop_operation_xyz
x,y,z
-x,y,-z
-x,-y,-z
x,-y,z
loop_
_atom_site_type_symbol
_atom_site_label
_atom_site_fract_x
_atom_site_fract_y
_atom_site_fract_z
Si Si1 0.233160 0.764842 0.827709
Si Si2 0.960991 0.893103 0.166852
Si Si3 0.424243 0.891464 0.158576
Si Si4 0.106831 0.395805 0.766785
Si Si5 0.285173 0.605324 0.452959
Si Si6 0.205065 0.198732 0.125789
Si Si7 0.495719 0.240662 0.357567
Si Si8 0.834290 0.603433 0.768263
O O1 0.169806 0.843184 0.767192
O O2 0.136956 0.680193 0.860538
O O3 0.365703 0.729840 0.732182
O O4 0.242150 0.809485 0.962936
O O5 0.064542 0.833356 0.193709
O O6 0.959835 0.000000 0.206015
O O7 0.000000 0.890736 0.000000
O O8 0.285961 0.865659 0.180604
O O9 0.462187 0.834708 0.266258
O O10 0.441478 0.000000 0.170563
O O11 0.500000 0.863721 0.000000
O O12 0.119354 0.500000 0.812155
O O13 0.205939 0.380458 0.613319
O O14 0.974606 0.389548 0.755491
O O15 0.333053 0.500000 0.435171
O O16 0.395757 0.677433 0.394686
O O17 0.192868 0.611111 0.371111
O O18 0.227536 0.305884 0.148258
O O19 0.500000 0.204142 0.500000
O O20 0.791244 0.500000 0.824428
#
# Coordination Sequence:
#
# PCOD9150128 Si02
#       8
#     4   4   4   4   4   4   4   4
#     4  11  22  35  56  90 120 157 195 245 303 355
#     4   9  19  35  57  85 114 150 196 247 297 354
#     4  11  24  43  66  89 117 160 206 253 303 357
#     4  10  20  36  58  87 121 159 201 244 299 360
#     4  10  21  38  61  86 115 158 207 249 291 357
#     4  11  20  37  63  87 120 153 202 244 299 363
#     4  12  24  40  63  89 123 160 202 250 303 357
#     4  10  20  35  60  89 119 155 198 248 301 359
#
# _framework density 19.253917000000001
#
# number of rings (size 3 to 8) (size 9 to 14) (size 15 to 20)
#    0.000    1.500    5.000    0.750    0.000    4.000 
#    0.000    1.250    0.000    2.250    0.000    3.500 
#    0.000    0.000    0.000    0.000    0.000    0.000 
#
# Total GULP energy -178488.320488 kJ/mol
# GULP energy per Si atom -5577.760015 kJ/mol
# Density = 1.921009 g / cm^3
# Si number density = 19.253917 Si / 1000 Ang^3
#
#
#
# Elastic Constant Matrix: (Units=GPa)
#
#
# Indices 1 2 3 4 5 6 
#
# 1 74.8277 10.4336 15.8728 0.0000 16.7690 0.0000
# 2 10.4336 69.3434 8.5407 0.0000 12.7762 0.0000
# 3 15.8728 8.5407 33.8346 0.0000 14.1746 0.0000
# 4 0.0000 0.0000 0.0000 22.6826 0.0000 -6.0692
# 5 16.7690 12.7762 14.1746 0.0000 31.0973 0.0000
# 6 0.0000 0.0000 0.0000 -6.0692 0.0000 3.6740
#
#
#
# Elastic Compliance Matrix: (Units=1/GPa)
#
#
# Indices 1 2 3 4 5 6 
#
# 1 0.015824 -0.000676 -0.004690 0.000000 -0.006117 0.000000
# 2 -0.000676 0.015697 -0.001355 0.000000 -0.005467 0.000000
# 3 -0.004690 -0.001355 0.038076 0.000000 -0.014270 0.000000
# 4 0.000000 0.000000 0.000000 0.079010 0.000000 0.130520
# 5 -0.006117 -0.005467 -0.014270 0.000000 0.044206 0.000000
# 6 0.000000 0.000000 0.000000 0.130520 0.000000 0.487790
#
#
# Mechanical properties :
#
#
# Convention : Reuss Voigt Hill
#
# Bulk Modulus (GPa) = 17.80789 27.52223 22.66506
# Shear Modulus (GPa) = 7.01494 21.03467 14.02481
#
# Velocity S-wave (km/s) = 1.91084 3.30887 2.70184
# Velocity P-wave (km/s) = 3.75998 5.37806 4.64009
#
# Compressibility (1/GPa) = 0.05615488
#
# Stress axis : x y z
#
# Youngs Moduli (GPa) = 63.19463 63.70711 26.26329
#
# Poissons Ratio (x) = 0.04308 0.12318
# Poissons Ratio (y) = 0.04273 0.03558
# Poissons Ratio (z) = 0.29639 0.08631
#
# Static dielectric constant tensor:
#      x y z
#    x 1.686440 0.000000 0.000160 
#    y 0.000000 1.673760 0.000000 
#    z 0.000160 0.000000 1.677380 
# 
# From -- ./inp_files/46962.got.cif
#   From: 2010.05.17/outbox.cif.g08.bks.cpg/sg10_24_cif.got.tgz:46962.got - 2010.06.03 11:33:40.
