data_PCOD9150678
_publ_section_title
;
Structure prediction by ZEFSAII (Michael W. Deem and Ramdas Pophale) SiO2 
 PCOD9150678
Probable space group: P 2/M
;
_chemical_formula_sum "Si O2"
_cell_formula_units_Z 32
_cell_length_a 25.048994
_cell_length_b 15.100940
_cell_length_c 8.734013
_cell_angle_alpha 90.000000
_cell_angle_beta 30.373502
_cell_angle_gamma 90.000000
_cell_volume 1670.494598
_symmetry_space_group_name_H-M "P 2/M"
_symmetry_group_IT_number 10
_symmetry_cell_setting 'monoclinic'
loop_
_space_group_symop_operation_xyz
x,y,z
-x,y,-z
-x,-y,-z
x,-y,z
loop_
_atom_site_type_symbol
_atom_site_label
_atom_site_fract_x
_atom_site_fract_y
_atom_site_fract_z
Si Si1 0.878140 0.402991 0.745824
Si Si2 0.296293 0.103026 0.196687
Si Si3 0.883042 0.220042 0.860163
Si Si4 0.444014 0.402830 0.804236
Si Si5 0.497397 0.213328 0.319090
Si Si6 0.885033 0.224713 0.217953
Si Si7 0.191044 0.599849 0.431364
Si Si8 0.705857 0.897822 0.167764
O O1 0.831537 0.500000 0.900782
O O2 0.832623 0.314008 0.931689
O O3 0.865069 0.392938 0.595521
O O4 0.000000 0.405229 0.500000
O O5 0.198868 0.155056 0.509507
O O6 0.299472 0.000000 0.232695
O O7 0.403340 0.154103 0.975311
O O8 0.288148 0.107408 0.031848
O O9 0.000000 0.214774 0.500000
O O10 0.889219 0.220177 0.026065
O O11 0.812490 0.140471 0.973425
O O12 0.500000 0.406664 0.500000
O O13 0.460775 0.500000 0.835716
O O14 0.489087 0.314211 0.769844
O O15 0.317653 0.390580 0.096160
O O16 0.500000 0.216164 0.500000
O O17 0.389933 0.164585 0.542147
O O18 0.850490 0.322534 0.358861
O O19 0.000000 0.205786 0.000000
O O20 0.171027 0.500000 0.539463
O O21 0.686851 0.000000 0.255520
#
# Coordination Sequence:
#
# PCOD9150678 Si02
#       8
#     4   4   4   4   4   4   4   4
#     4   9  18  34  56  83 115 150 191 237 286 342
#     4  10  20  37  61  87 115 148 195 250 300 347
#     4  11  24  40  59  83 118 162 197 243 298 354
#     4   9  17  29  53  92 124 151 189 236 286 342
#     4   9  17  32  59  89 118 153 190 241 287 350
#     4  12  24  39  59  84 117 156 203 246 296 353
#     4  10  20  36  61  89 120 156 198 245 293 346
#     4  10  21  38  62  90 117 151 197 246 298 355
#
# _framework density 19.156002999999998
#
# number of rings (size 3 to 8) (size 9 to 14) (size 15 to 20)
#    0.000    2.000    1.250    3.375    3.500    3.250 
#    0.000    0.625    0.000    1.500    0.000    1.750 
#    0.000    0.000    0.000    0.000    0.000    0.000 
#
# Total GULP energy -178591.035188 kJ/mol
# GULP energy per Si atom -5580.969850 kJ/mol
# Density = 1.911240 g / cm^3
# Si number density = 19.156003 Si / 1000 Ang^3
#
#
#
# Elastic Constant Matrix: (Units=GPa)
#
#
# Indices 1 2 3 4 5 6 
#
# 1 44.9181 52.4035 25.7294 0.0000 -6.0150 0.0000
# 2 52.4035 181.5390 70.7203 0.0000 -7.2506 0.0000
# 3 25.7294 70.7203 111.7507 0.0000 -13.6165 0.0000
# 4 0.0000 0.0000 0.0000 -23.2394 0.0000 -34.1177
# 5 -6.0150 -7.2506 -13.6165 0.0000 14.3288 0.0000
# 6 0.0000 0.0000 0.0000 -34.1177 0.0000 -4.9015
#
#
#
# Elastic Compliance Matrix: (Units=1/GPa)
#
#
# Indices 1 2 3 4 5 6 
#
# 1 0.034933 -0.009314 -0.001059 0.000000 0.008945 0.000000
# 2 -0.009314 0.009802 -0.004445 0.000000 -0.003174 0.000000
# 3 -0.001059 -0.004445 0.013206 0.000000 0.009856 0.000000
# 4 0.000000 0.000000 0.000000 0.004668 0.000000 -0.032490
# 5 0.008945 -0.003174 0.009856 0.000000 0.081304 0.000000
# 6 0.000000 0.000000 0.000000 -0.032490 0.000000 0.022131
#
#
# Mechanical properties :
#
#
# Convention : Reuss Voigt Hill
#
# Bulk Modulus (GPa) = 35.32915 70.65715 52.99315
# Shear Modulus (GPa) = 24.37639 9.86121 17.11880
#
# Velocity S-wave (km/s) = 3.57111 2.27135 2.99264
# Velocity P-wave (km/s) = 5.95707 6.62147 6.29804
#
# Compressibility (1/GPa) = 0.02830524
#
# Stress axis : x y z
#
# Youngs Moduli (GPa) = 28.62585 102.01862 75.72069
#
# Poissons Ratio (x) = 0.95023 0.08016
# Poissons Ratio (y) = 0.26663 0.33661
# Poissons Ratio (z) = 0.03030 0.45352
#
# Static dielectric constant tensor:
#      x y z
#    x 1.640030 0.000000 -0.010090 
#    y 0.000000 1.701810 0.000000 
#    z -0.010090 0.000000 1.645900 
# 
# From -- ./inp_files/36331.got.cif
#   From: 2010.05.17/outbox.cif.g08.bks.cpg/sg10_19_cif.got.tgz:36331.got - 2010.06.03 11:33:40.
