data_PCOD9150751
_publ_section_title
;
Structure prediction by ZEFSAII (Michael W. Deem and Ramdas Pophale) SiO2 
 PCOD9150751
Probable space group: P 2/M
;
_chemical_formula_sum "Si O2"
_cell_formula_units_Z 28
_cell_length_a 31.314527
_cell_length_b 11.069320
_cell_length_c 23.907113
_cell_angle_alpha 90.000000
_cell_angle_beta 169.317164
_cell_angle_gamma 90.000000
_cell_volume 1536.167767
_symmetry_space_group_name_H-M "P 2/M"
_symmetry_group_IT_number 10
_symmetry_cell_setting 'monoclinic'
loop_
_space_group_symop_operation_xyz
x,y,z
-x,y,-z
-x,-y,-z
x,-y,z
loop_
_atom_site_type_symbol
_atom_site_label
_atom_site_fract_x
_atom_site_fract_y
_atom_site_fract_z
Si Si1 0.750088 0.639916 0.665635
Si Si2 0.670489 0.000000 0.620225
Si Si3 0.807502 0.000000 0.665311
Si Si4 0.053513 0.643992 0.291033
Si Si5 0.554864 0.251564 0.635178
Si Si6 0.875602 0.355834 0.279897
Si Si7 0.242984 0.354170 0.657632
Si Si8 0.386563 0.749568 0.626357
O O1 0.785053 0.500000 0.698082
O O2 0.593610 0.658180 0.517977
O O3 0.633053 0.696317 0.461191
O O4 0.000000 0.697633 0.000000
O O5 0.527864 0.881185 0.452973
O O6 0.716481 0.000000 0.612599
O O7 0.914784 0.000000 0.968257
O O8 0.711077 0.115811 0.507989
O O9 0.005278 0.500000 0.227358
O O10 0.167951 0.673294 0.498035
O O11 0.220997 0.678968 0.455954
O O12 0.820439 0.719545 0.986405
O O13 0.500000 0.268914 0.500000
O O14 0.816314 0.500000 0.196332
O O15 0.000000 0.345080 0.500000
O O16 0.053882 0.318937 0.460442
O O17 0.646455 0.275183 0.981097
O O18 0.253120 0.500000 0.674950
O O19 0.500000 0.307149 0.000000
#
# Coordination Sequence:
#
# PCOD9150751 Si02
#       8
#     4   2   2   4   4   4   4   4
#     4  11  22  36  56  83 117 157 197 246 312 373
#     4  11  23  44  64  84 114 162 216 267 299 362
#     4  11  24  42  67  86 113 158 223 266 305 345
#     4  11  23  37  58  91 127 159 195 250 316 376
#     4  12  24  38  59  85 119 157 201 251 306 364
#     4  10  20  36  63  96 127 163 204 246 305 378
#     4   9  18  34  56  86 124 158 192 238 293 359
#     4  12  23  40  62  88 119 163 210 262 304 364
#
# _framework density 18.227177000000001
#
# number of rings (size 3 to 8) (size 9 to 14) (size 15 to 20)
#    0.000    1.143    1.429    6.214    0.000    6.286 
#    0.000    0.357    0.000    0.000    0.000    2.500 
#    0.000    0.000    0.000    0.000    0.000    0.000 
#
# Total GULP energy -156424.231424 kJ/mol
# GULP energy per Si atom -5586.579694 kJ/mol
# Density = 1.818569 g / cm^3
# Si number density = 18.227177 Si / 1000 Ang^3
#
#
#
# Elastic Constant Matrix: (Units=GPa)
#
#
# Indices 1 2 3 4 5 6 
#
# 1 96.6428 22.8455 41.7664 0.0000 2.0449 0.0000
# 2 22.8455 77.5292 41.6249 0.0000 -16.5332 0.0000
# 3 41.7664 41.6249 153.7799 0.0000 -5.5344 0.0000
# 4 0.0000 0.0000 0.0000 -33.1708 0.0000 20.8214
# 5 2.0449 -16.5332 -5.5344 0.0000 31.2451 0.0000
# 6 0.0000 0.0000 0.0000 20.8214 0.0000 20.1835
#
#
#
# Elastic Compliance Matrix: (Units=1/GPa)
#
#
# Indices 1 2 3 4 5 6 
#
# 1 0.012208 -0.002744 -0.002671 0.000000 -0.002724 0.000000
# 2 -0.002744 0.017572 -0.003693 0.000000 0.008823 0.000000
# 3 -0.002671 -0.003693 0.008216 0.000000 -0.000324 0.000000
# 4 0.000000 0.000000 0.000000 -0.018298 0.000000 0.018876
# 5 -0.002724 0.008823 -0.000324 0.000000 0.036795 0.000000
# 6 0.000000 0.000000 0.000000 0.018876 0.000000 0.030072
#
#
# Mechanical properties :
#
#
# Convention : Reuss Voigt Hill
#
# Bulk Modulus (GPa) = 50.55933 60.04728 55.30331
# Shear Modulus (GPa) = 44.89351 18.43256 31.66304
#
# Velocity S-wave (km/s) = 4.96824 3.18349 4.17241
# Velocity P-wave (km/s) = 7.79166 6.82116 7.32250
#
# Compressibility (1/GPa) = 0.01977874
#
# Stress axis : x y z
#
# Youngs Moduli (GPa) = 81.91313 56.91021 121.70984
#
# Poissons Ratio (x) = 0.15618 0.32508
# Poissons Ratio (y) = 0.22479 0.44952
# Poissons Ratio (z) = 0.21878 0.21019
#
# Static dielectric constant tensor:
#      x y z
#    x 1.601160 0.000000 -0.003450 
#    y 0.000000 1.636310 0.000000 
#    z -0.003450 0.000000 1.634210 
# 
# From -- ./inp_files/91455.got.cif
#   From: 2010.05.17/outbox.cif.g08.bks.cpg/sg10_46_cif.got.tgz:91455.got - 2010.06.03 11:33:40.
