data_PCOD9150937
_publ_section_title
;
Structure prediction by ZEFSAII (Michael W. Deem and Ramdas Pophale) SiO2 
 PCOD9150937
Probable space group: P 2/M
;
_chemical_formula_sum "Si O2"
_cell_formula_units_Z 28
_cell_length_a 9.308945
_cell_length_b 13.685083
_cell_length_c 11.233600
_cell_angle_alpha 90.000000
_cell_angle_beta 69.861732
_cell_angle_gamma 90.000000
_cell_volume 1343.599332
_symmetry_space_group_name_H-M "P 2/M"
_symmetry_group_IT_number 10
_symmetry_cell_setting 'monoclinic'
loop_
_space_group_symop_operation_xyz
x,y,z
-x,y,-z
-x,-y,-z
x,-y,z
loop_
_atom_site_type_symbol
_atom_site_label
_atom_site_fract_x
_atom_site_fract_y
_atom_site_fract_z
Si Si1 0.650011 0.717419 0.535810
Si Si2 0.162284 0.613234 0.885933
Si Si3 0.673785 0.273666 0.968851
Si Si4 0.264817 0.615525 0.277576
Si Si5 0.075935 0.385073 0.652444
Si Si6 0.936205 0.116025 0.882398
Si Si7 0.885810 0.885712 0.419822
O O1 0.500000 0.710273 0.500000
O O2 0.626303 0.687888 0.679281
O O3 0.775644 0.635492 0.466249
O O4 0.739826 0.817284 0.484572
O O5 0.214969 0.500000 0.863503
O O6 0.119783 0.653224 0.769069
O O7 0.283070 0.681277 0.916307
O O8 0.000000 0.613324 0.000000
O O9 0.706577 0.362734 0.868706
O O10 0.789896 0.185548 0.910104
O O11 0.500000 0.243095 0.000000
O O12 0.284398 0.500000 0.296603
O O13 0.087727 0.649773 0.346756
O O14 0.051793 0.500000 0.671869
O O15 0.040693 0.132341 0.733100
O O16 0.899920 0.000000 0.890955
O O17 0.000000 0.135809 0.000000
O O18 0.000000 0.868065 0.500000
O O19 0.845298 0.000000 0.434926
#
# Coordination Sequence:
#
# PCOD9150937 Si02
#       7
#     4   4   4   4   4   4   4
#     4  12  26  39  60  93 129 163 205 255 328 378
#     4  10  20  37  60  87 116 159 213 256 298 362
#     4  12  25  37  61  94 130 167 201 253 326 381
#     4  11  24  43  63  89 125 170 220 264 305 366
#     4  10  21  39  62  83 114 164 215 258 298 358
#     4  10  23  43  69  97 125 164 216 268 317 378
#     4  10  22  44  72  95 121 165 218 266 314 381
#
# _framework density 20.839545999999999
#
# number of rings (size 3 to 8) (size 9 to 14) (size 15 to 20)
#    0.000    1.286    1.429    4.286    4.000    4.000 
#    0.000    0.000    0.000    5.143    0.000    0.000 
#    0.000    0.000    0.000    0.000    0.000    0.000 
#
# Total GULP energy -156349.639879 kJ/mol
# GULP energy per Si atom -5583.915710 kJ/mol
# Density = 2.079211 g / cm^3
# Si number density = 20.839546 Si / 1000 Ang^3
#
#
#
# Elastic Constant Matrix: (Units=GPa)
#
#
# Indices 1 2 3 4 5 6 
#
# 1 145.1203 54.5478 42.2259 0.0000 24.5791 0.0000
# 2 54.5478 119.9882 27.2076 0.0000 10.2092 0.0000
# 3 42.2259 27.2076 85.8767 0.0000 21.3768 0.0000
# 4 0.0000 0.0000 0.0000 24.0179 0.0000 18.4531
# 5 24.5791 10.2092 21.3768 0.0000 31.2127 0.0000
# 6 0.0000 0.0000 0.0000 18.4531 0.0000 14.0333
#
#
#
# Elastic Compliance Matrix: (Units=1/GPa)
#
#
# Indices 1 2 3 4 5 6 
#
# 1 0.009729 -0.003447 -0.002490 0.000000 -0.004829 0.000000
# 2 -0.003447 0.010238 -0.001676 0.000000 0.000514 0.000000
# 3 -0.002490 -0.001676 0.015401 0.000000 -0.008039 0.000000
# 4 0.000000 0.000000 0.000000 -4.048214 0.000000 5.323190
# 5 -0.004829 0.000514 -0.008039 0.000000 0.041178 0.000000
# 6 0.000000 0.000000 0.000000 5.323190 0.000000 -6.928458
#
#
# Mechanical properties :
#
#
# Convention : Reuss Voigt Hill
#
# Bulk Modulus (GPa) = 49.65078 66.54974 58.10026
# Shear Modulus (GPa) = -0.45964 28.98637 14.26337
#
# Velocity S-wave (km/s) = -0.47015 3.73356 2.61901
# Velocity P-wave (km/s) = 4.85616 7.11264 6.08983
#
# Compressibility (1/GPa) = 0.02014067
#
# Stress axis : x y z
#
# Youngs Moduli (GPa) = 102.78666 97.67730 64.93110
#
# Poissons Ratio (x) = 0.33674 0.16165
# Poissons Ratio (y) = 0.35436 0.10885
# Poissons Ratio (z) = 0.25589 0.16375
#
# Static dielectric constant tensor:
#      x y z
#    x 1.725670 0.000000 0.022410 
#    y 0.000000 1.733560 0.000000 
#    z 0.022410 0.000000 1.955930 
# 
# From -- ./inp_files/42675.got.cif
#   From: 2010.05.17/outbox.cif.g08.bks.cpg/sg10_22_cif.got.tgz:42675.got - 2010.06.03 11:33:40.
