data_PCOD9150836
_publ_section_title
;
Structure prediction by ZEFSAII (Michael W. Deem and Ramdas Pophale) SiO2 
 PCOD9150836
Probable space group: P 2/M
;
_chemical_formula_sum "Si O2"
_cell_formula_units_Z 32
_cell_length_a 12.610485
_cell_length_b 20.229588
_cell_length_c 9.255570
_cell_angle_alpha 90.000000
_cell_angle_beta 131.592711
_cell_angle_gamma 90.000000
_cell_volume 1765.856450
_symmetry_space_group_name_H-M "P 2/M"
_symmetry_group_IT_number 10
_symmetry_cell_setting 'monoclinic'
loop_
_space_group_symop_operation_xyz
x,y,z
-x,y,-z
-x,-y,-z
x,-y,z
loop_
_atom_site_type_symbol
_atom_site_label
_atom_site_fract_x
_atom_site_fract_y
_atom_site_fract_z
Si Si1 0.168982 0.828952 0.467594
Si Si2 0.164513 0.173548 0.811661
Si Si3 0.181122 0.310031 0.334153
Si Si4 0.343242 0.422916 0.658572
Si Si5 0.676707 0.576048 0.018243
Si Si6 0.387607 0.925397 0.512430
Si Si7 0.598364 0.926317 0.966633
Si Si8 0.840953 0.307239 0.022704
O O1 0.186320 0.828581 0.657452
O O2 0.213810 0.757111 0.449923
O O3 0.257288 0.882066 0.453929
O O4 0.999660 0.838999 0.296983
O O5 0.268793 0.116665 0.959746
O O6 0.199388 0.243767 0.916500
O O7 0.264139 0.371217 0.482637
O O8 0.010431 0.317043 0.188012
O O9 0.206989 0.299608 0.186905
O O10 0.313521 0.500000 0.593420
O O11 0.513700 0.414696 0.820266
O O12 0.303883 0.413341 0.792024
O O13 0.713867 0.500000 0.022304
O O14 0.770450 0.627667 0.020211
O O15 0.500000 0.895218 0.500000
O O16 0.344492 0.000000 0.423548
O O17 0.489434 0.933437 0.740157
O O18 0.643454 0.000000 0.058201
O O19 0.500000 0.893573 0.000000
#
# Coordination Sequence:
#
# PCOD9150836 Si02
#       8
#     4   4   4   4   4   4   4   4
#     4  10  21  38  58  82 114 149 191 237 281 336
#     4  10  21  37  59  84 111 149 192 237 284 332
#     4  10  22  38  55  80 114 151 187 229 281 336
#     4   9  19  37  59  83 112 145 185 232 281 334
#     4   9  19  37  59  83 111 144 185 233 280 331
#     4  10  22  39  58  83 116 150 185 230 284 343
#     4  10  20  37  58  84 115 145 185 234 283 336
#     4  10  22  38  55  80 115 149 187 233 279 333
#
# _framework density 18.121517999999998
#
# number of rings (size 3 to 8) (size 9 to 14) (size 15 to 20)
#    0.000    2.250    1.250    1.500    1.750    4.500 
#    2.250    5.000    0.000    2.250    0.000    0.000 
#    0.000    0.000    0.000    0.000    0.000    0.000 
#
# Total GULP energy -178237.038620 kJ/mol
# GULP energy per Si atom -5569.907457 kJ/mol
# Density = 1.808027 g / cm^3
# Si number density = 18.121518 Si / 1000 Ang^3
#
#
#
# Elastic Constant Matrix: (Units=GPa)
#
#
# Indices 1 2 3 4 5 6 
#
# 1 98.9601 57.0714 10.1172 0.0000 -6.5391 0.0000
# 2 57.0714 93.0518 26.0547 0.0000 12.1390 0.0000
# 3 10.1172 26.0547 43.3106 0.0000 6.3350 0.0000
# 4 0.0000 0.0000 0.0000 38.0097 0.0000 14.5426
# 5 -6.5391 12.1390 6.3350 0.0000 10.4350 0.0000
# 6 0.0000 0.0000 0.0000 14.5426 0.0000 41.4518
#
#
#
# Elastic Compliance Matrix: (Units=1/GPa)
#
#
# Indices 1 2 3 4 5 6 
#
# 1 0.023912 -0.019792 0.000835 0.000000 0.037501 0.000000
# 2 -0.019792 0.030651 -0.007447 0.000000 -0.043537 0.000000
# 3 0.000835 -0.007447 0.028567 0.000000 -0.008156 0.000000
# 4 0.000000 0.000000 0.000000 0.030388 0.000000 -0.010661
# 5 0.037501 -0.043537 -0.008156 0.000000 0.174931 0.000000
# 6 0.000000 0.000000 0.000000 -0.010661 0.000000 0.027865
#
#
# Mechanical properties :
#
#
# Convention : Reuss Voigt Hill
#
# Bulk Modulus (GPa) = 32.97954 46.86770 39.92362
# Shear Modulus (GPa) = 13.18468 27.45122 20.31795
#
# Velocity S-wave (km/s) = 2.70028 3.89632 3.35207
# Velocity P-wave (km/s) = 5.28778 6.79418 6.08775
#
# Compressibility (1/GPa) = 0.03032183
#
# Stress axis : x y z
#
# Youngs Moduli (GPa) = 41.82001 32.62577 35.00549
#
# Poissons Ratio (x) = 0.64573 -0.02924
# Poissons Ratio (y) = 0.82770 0.26069
# Poissons Ratio (z) = -0.03494 0.24297
#
# Static dielectric constant tensor:
#      x y z
#    x 1.315450 0.000000 0.221910 
#    y 0.000000 1.633790 0.000000 
#    z 0.221910 0.000000 1.452390 
# 
# From -- ./inp_files/26078.got.cif
#   From: 2010.05.17/outbox.cif.g08.bks.cpg/sg10_14_cif.got.tgz:26078.got - 2010.06.03 11:33:40.
