data_PCOD9150243
_publ_section_title
;
Structure prediction by ZEFSAII (Michael W. Deem and Ramdas Pophale) SiO2 
 PCOD9150243
Probable space group: P 2/M
;
_chemical_formula_sum "Si O2"
_cell_formula_units_Z 24
_cell_length_a 10.473096
_cell_length_b 13.045648
_cell_length_c 20.952137
_cell_angle_alpha 90.000000
_cell_angle_beta 154.533047
_cell_angle_gamma 90.000000
_cell_volume 1230.914418
_symmetry_space_group_name_H-M "P 2/M"
_symmetry_group_IT_number 10
_symmetry_cell_setting 'monoclinic'
loop_
_space_group_symop_operation_xyz
x,y,z
-x,y,-z
-x,-y,-z
x,-y,z
loop_
_atom_site_type_symbol
_atom_site_label
_atom_site_fract_x
_atom_site_fract_y
_atom_site_fract_z
Si Si1 0.276109 0.729679 0.053924
Si Si2 0.204988 0.187253 0.327275
Si Si3 0.353548 0.709793 0.652255
Si Si4 0.635079 0.113951 0.131936
Si Si5 0.740033 0.883930 0.790382
Si Si6 0.175099 0.383238 0.231047
O O1 0.458561 0.693061 0.197815
O O2 0.501220 0.794025 0.111901
O O3 0.006122 0.812868 0.937216
O O4 0.105056 0.637060 0.942159
O O5 0.500000 0.194593 0.500000
O O6 0.227995 0.123239 0.271950
O O7 0.129272 0.300945 0.266843
O O8 0.975051 0.135807 0.271301
O O9 0.434368 0.827966 0.671612
O O10 0.525934 0.647352 0.673987
O O11 0.000000 0.692094 0.500000
O O12 0.578887 0.000000 0.133854
O O13 0.500000 0.116203 0.000000
O O14 0.759319 0.000000 0.820724
O O15 0.190698 0.500000 0.258852
#
# Coordination Sequence:
#
# PCOD9150243 Si02
#       6
#     4   4   4   4   4   4
#     4  10  21  37  60  85 116 153 194 243 280 338
#     4  10  22  38  57  85 122 153 187 239 285 339
#     4  10  23  39  57  85 118 147 188 247 297 340
#     4  11  20  35  60  88 118 156 194 225 274 342
#     4  10  20  36  56  82 117 160 200 232 278 339
#     4  10  22  42  65  83 107 151 198 243 296 350
#
# _framework density 19.497699999999998
#
# number of rings (size 3 to 8) (size 9 to 14) (size 15 to 20)
#    0.000    2.167    3.333    3.000    4.667    5.667 
#    0.000    1.667    0.000    0.000    0.000    0.000 
#    0.000    0.000    0.000    0.000    0.000    0.000 
#
# Total GULP energy -133759.975796 kJ/mol
# GULP energy per Si atom -5573.332325 kJ/mol
# Density = 1.945332 g / cm^3
# Si number density = 19.497700 Si / 1000 Ang^3
#
#
#
# Elastic Constant Matrix: (Units=GPa)
#
#
# Indices 1 2 3 4 5 6 
#
# 1 32.9621 -26.0445 0.9311 0.0000 2.6445 0.0000
# 2 -26.0445 60.8572 -4.9862 0.0000 0.2411 0.0000
# 3 0.9311 -4.9862 84.0238 0.0000 -3.9005 0.0000
# 4 0.0000 0.0000 0.0000 -1.0132 0.0000 6.2445
# 5 2.6445 0.2411 -3.9005 0.0000 22.2771 0.0000
# 6 0.0000 0.0000 0.0000 6.2445 0.0000 4.0088
#
#
#
# Elastic Compliance Matrix: (Units=1/GPa)
#
#
# Indices 1 2 3 4 5 6 
#
# 1 0.046575 0.019988 0.000407 0.000000 -0.005674 0.000000
# 2 0.019988 0.025090 0.001154 0.000000 -0.002442 0.000000
# 3 0.000407 0.001154 0.012061 0.000000 0.002051 0.000000
# 4 0.000000 0.000000 0.000000 -0.093107 0.000000 0.145033
# 5 -0.005674 -0.002442 0.002051 0.000000 0.045948 0.000000
# 6 0.000000 0.000000 0.000000 0.145033 0.000000 0.023533
#
#
# Mechanical properties :
#
#
# Convention : Reuss Voigt Hill
#
# Bulk Modulus (GPa) = 7.88503 13.07155 10.47829
# Shear Modulus (GPa) = 84.34939 18.91737 51.63338
#
# Velocity S-wave (km/s) = 6.58446 3.11824 5.15163
# Velocity P-wave (km/s) = 7.86509 4.43658 6.38525
#
# Compressibility (1/GPa) = 0.12682259
#
# Stress axis : x y z
#
# Youngs Moduli (GPa) = 21.47090 39.85627 82.91478
#
# Poissons Ratio (x) = -0.79664 -0.03372
# Poissons Ratio (y) = -0.42916 -0.09569
# Poissons Ratio (z) = -0.00873 -0.04600
#
# Static dielectric constant tensor:
#      x y z
#    x 1.765340 0.000000 -0.008160 
#    y 0.000000 1.680790 0.000000 
#    z -0.008160 0.000000 1.650360 
# 
# From -- ./inp_files/89007.got.cif
#   From: 2010.05.17/outbox.cif.g08.bks.cpg/sg10_45_cif.got.tgz:89007.got - 2010.06.03 11:33:40.
