data_PCOD9150645
_publ_section_title
;
Structure prediction by ZEFSAII (Michael W. Deem and Ramdas Pophale) SiO2 
 PCOD9150645
Probable space group: P 2/M
;
_chemical_formula_sum "Si O2"
_cell_formula_units_Z 28
_cell_length_a 17.648640
_cell_length_b 7.612255
_cell_length_c 14.377800
_cell_angle_alpha 90.000000
_cell_angle_beta 40.545626
_cell_angle_gamma 90.000000
_cell_volume 1255.642555
_symmetry_space_group_name_H-M "P 2/M"
_symmetry_group_IT_number 10
_symmetry_cell_setting 'monoclinic'
loop_
_space_group_symop_operation_xyz
x,y,z
-x,y,-z
-x,-y,-z
x,-y,z
loop_
_atom_site_type_symbol
_atom_site_label
_atom_site_fract_x
_atom_site_fract_y
_atom_site_fract_z
Si Si1 0.461675 0.295851 0.437023
Si Si2 0.298152 0.293090 0.436546
Si Si3 0.615246 0.211592 0.840676
Si Si4 0.307865 0.212309 0.885125
Si Si5 0.033234 0.791097 0.679788
Si Si6 0.201209 0.785707 0.184351
Si Si7 0.936445 0.785489 0.966605
O O1 0.500000 0.215547 0.500000
O O2 0.432403 0.500000 0.483374
O O3 0.354352 0.216250 0.478477
O O4 0.572977 0.287769 0.265165
O O5 0.293967 0.500000 0.453350
O O6 0.378551 0.255377 0.273014
O O7 0.167696 0.236647 0.533756
O O8 0.728566 0.276102 0.791353
O O9 0.614357 0.000000 0.847459
O O10 0.500000 0.276584 0.000000
O O11 0.317726 0.000000 0.874618
O O12 0.271360 0.261107 0.024394
O O13 0.198551 0.263556 0.921638
O O14 0.932028 0.724870 0.705196
O O15 0.003229 0.725468 0.811413
O O16 0.015891 0.000000 0.698933
O O17 0.200423 0.000000 0.189129
O O18 0.938825 0.000000 0.965658
O O19 0.000000 0.723372 0.000000
#
# Coordination Sequence:
#
# PCOD9150645 Si02
#       7
#     4   4   4   4   4   4   4
#     4  10  23  40  53  69 104 149 181 216 273 327
#     4  11  24  39  54  77 111 144 181 229 272 317
#     4  10  20  36  61  86 109 140 181 224 267 323
#     4   9  17  32  56  83 106 131 174 224 264 314
#     4   9  18  34  56  79 110 147 180 215 265 327
#     4   8  16  33  56  84 113 140 171 217 273 320
#     4   8  15  28  50  81 111 135 166 220 276 311
#
# _framework density 22.299340000000001
#
# number of rings (size 3 to 8) (size 9 to 14) (size 15 to 20)
#    0.000    2.714    0.000    3.000    2.000    3.429 
#    0.000    7.143    0.000    0.857    0.000    0.000 
#    0.000    0.000    0.000    0.000    0.000    0.000 
#
# Total GULP energy -156296.718859 kJ/mol
# GULP energy per Si atom -5582.025674 kJ/mol
# Density = 2.224859 g / cm^3
# Si number density = 22.299340 Si / 1000 Ang^3
#
#
#
# Elastic Constant Matrix: (Units=GPa)
#
#
# Indices 1 2 3 4 5 6 
#
# 1 267.2532 22.9003 109.3943 0.0000 5.8334 0.0000
# 2 22.9003 45.3322 2.7106 0.0000 1.6365 0.0000
# 3 109.3943 2.7106 117.0819 0.0000 -13.8148 0.0000
# 4 0.0000 0.0000 0.0000 38.6398 0.0000 -3.9707
# 5 5.8334 1.6365 -13.8148 0.0000 23.4924 0.0000
# 6 0.0000 0.0000 0.0000 -3.9707 0.0000 3.9817
#
#
#
# Elastic Compliance Matrix: (Units=1/GPa)
#
#
# Indices 1 2 3 4 5 6 
#
# 1 0.007081 -0.002935 -0.007233 0.000000 -0.005807 0.000000
# 2 -0.002935 0.023392 0.002250 0.000000 0.000423 0.000000
# 3 -0.007233 0.002250 0.016592 0.000000 0.011396 0.000000
# 4 0.000000 0.000000 0.000000 0.028835 0.000000 0.028756
# 5 -0.005807 0.000423 0.011396 0.000000 0.050681 0.000000
# 6 0.000000 0.000000 0.000000 0.028756 0.000000 0.279827
#
#
# Mechanical properties :
#
#
# Convention : Reuss Voigt Hill
#
# Bulk Modulus (GPa) = 32.02087 77.74199 54.88143
# Shear Modulus (GPa) = 11.55662 32.86691 22.21176
#
# Velocity S-wave (km/s) = 2.27898 3.84330 3.15949
# Velocity P-wave (km/s) = 4.61690 7.39143 6.16234
#
# Compressibility (1/GPa) = 0.03122964
#
# Stress axis : x y z
#
# Youngs Moduli (GPa) = 141.22928 42.74945 60.27117
#
# Poissons Ratio (x) = 0.12546 0.43594
# Poissons Ratio (y) = 0.41448 -0.13563
# Poissons Ratio (z) = 1.02151 -0.09620
#
# Static dielectric constant tensor:
#      x y z
#    x 1.910140 0.000000 -0.076220 
#    y 0.000000 1.863720 0.000000 
#    z -0.076220 0.000000 1.845520 
# 
# From -- ./inp_files/68586.got.cif
#   From: 2010.05.17/outbox.cif.g08.bks.cpg/sg10_35_cif.got.tgz:68586.got - 2010.06.03 11:33:40.
