data_PCOD9150569
_publ_section_title
;
Structure prediction by ZEFSAII (Michael W. Deem and Ramdas Pophale) SiO2 
 PCOD9150569
Probable space group: P 2/M
;
_chemical_formula_sum "Si O2"
_cell_formula_units_Z 24
_cell_length_a 19.476048
_cell_length_b 15.502858
_cell_length_c 12.887436
_cell_angle_alpha 90.000000
_cell_angle_beta 19.587975
_cell_angle_gamma 90.000000
_cell_volume 1304.526474
_symmetry_space_group_name_H-M "P 2/M"
_symmetry_group_IT_number 10
_symmetry_cell_setting 'monoclinic'
loop_
_space_group_symop_operation_xyz
x,y,z
-x,y,-z
-x,-y,-z
x,-y,z
loop_
_atom_site_type_symbol
_atom_site_label
_atom_site_fract_x
_atom_site_fract_y
_atom_site_fract_z
Si Si1 0.479234 0.598785 0.719482
Si Si2 0.642472 0.309931 0.897322
Si Si3 0.088958 0.681172 0.191957
Si Si4 0.781114 0.161252 0.843378
Si Si5 0.419558 0.903946 0.496240
Si Si6 0.829253 0.270339 0.156436
O O1 0.544678 0.500000 0.622830
O O2 0.643431 0.663106 0.436249
O O3 0.446872 0.631822 0.883213
O O4 0.264764 0.611785 0.964448
O O5 0.680717 0.214068 0.890621
O O6 0.865763 0.345372 0.548391
O O7 0.500000 0.307289 0.000000
O O8 0.157116 0.762788 0.164477
O O9 0.082611 0.711963 0.082917
O O10 0.000000 0.120029 0.500000
O O11 0.610639 0.106147 0.145147
O O12 0.500000 0.895075 0.500000
O O13 0.263749 0.825587 0.700673
O O14 0.330748 0.000000 0.611376
O O15 0.000000 0.284567 0.000000
#
# Coordination Sequence:
#
# PCOD9150569 Si02
#       6
#     4   4   4   4   4   4
#     4  11  23  40  61  86 117 155 201 247 294 355
#     4  10  20  36  60  89 116 155 194 241 298 355
#     4  10  20  36  60  85 113 157 202 235 291 352
#     4   9  18  35  59  86 115 152 197 241 286 350
#     4  11  21  38  64  90 119 157 201 243 291 354
#     4  12  23  39  61  86 122 157 194 250 303 349
#
# _framework density 18.397479000000001
#
# number of rings (size 3 to 8) (size 9 to 14) (size 15 to 20)
#    0.000    1.500    5.000    3.000    0.000    4.000 
#    0.000    1.667    0.000    0.500    0.000    0.000 
#    0.000    0.000    0.000    0.000    0.000    0.000 
#
# Total GULP energy -133973.933480 kJ/mol
# GULP energy per Si atom -5582.247228 kJ/mol
# Density = 1.835561 g / cm^3
# Si number density = 18.397479 Si / 1000 Ang^3
#
#
#
# Elastic Constant Matrix: (Units=GPa)
#
#
# Indices 1 2 3 4 5 6 
#
# 1 89.9945 -5.7000 -6.5089 0.0000 -5.1739 0.0000
# 2 -5.7000 67.8592 0.1868 0.0000 1.3282 0.0000
# 3 -6.5089 0.1868 33.7185 0.0000 12.4026 0.0000
# 4 0.0000 0.0000 0.0000 -10.8442 0.0000 0.2155
# 5 -5.1739 1.3282 12.4026 0.0000 29.5272 0.0000
# 6 0.0000 0.0000 0.0000 0.2155 0.0000 8.5080
#
#
#
# Elastic Compliance Matrix: (Units=1/GPa)
#
#
# Indices 1 2 3 4 5 6 
#
# 1 0.011366 0.000926 0.001741 0.000000 0.001219 0.000000
# 2 0.000926 0.014826 0.000334 0.000000 -0.000645 0.000000
# 3 0.001741 0.000334 0.035346 0.000000 -0.014557 0.000000
# 4 0.000000 0.000000 0.000000 -0.092169 0.000000 0.002335
# 5 0.001219 -0.000645 -0.014557 0.000000 0.040224 0.000000
# 6 0.000000 0.000000 0.000000 0.002335 0.000000 0.117478
#
#
# Mechanical properties :
#
#
# Convention : Reuss Voigt Hill
#
# Bulk Modulus (GPa) = 14.80621 18.61424 16.71023
# Shear Modulus (GPa) = 34.82305 19.01115 26.91710
#
# Velocity S-wave (km/s) = 4.35537 3.21807 3.82918
# Velocity P-wave (km/s) = 5.77562 4.89365 5.35283
#
# Compressibility (1/GPa) = 0.06753922
#
# Stress axis : x y z
#
# Youngs Moduli (GPa) = 87.97852 67.44958 28.29188
#
# Poissons Ratio (x) = -0.06247 -0.04925
# Poissons Ratio (y) = -0.08148 -0.00944
# Poissons Ratio (z) = -0.15314 -0.02251
#
# Static dielectric constant tensor:
#      x y z
#    x 1.620310 0.000000 0.013600 
#    y 0.000000 1.622950 0.000000 
#    z 0.013600 0.000000 1.646670 
# 
# From -- ./inp_files/19310.got.cif
#   From: 2010.05.17/outbox.cif.g08.bks.cpg/sg10_10_cif.got.tgz:19310.got - 2010.06.03 11:33:40.
