data_PCOD9150113
_publ_section_title
;
Structure prediction by ZEFSAII (Michael W. Deem and Ramdas Pophale) SiO2 
 PCOD9150113
Probable space group: P 2/M
;
_chemical_formula_sum "Si O2"
_cell_formula_units_Z 28
_cell_length_a 12.032742
_cell_length_b 14.557468
_cell_length_c 9.517473
_cell_angle_alpha 90.000000
_cell_angle_beta 60.632127
_cell_angle_gamma 90.000000
_cell_volume 1452.894165
_symmetry_space_group_name_H-M "P 2/M"
_symmetry_group_IT_number 10
_symmetry_cell_setting 'monoclinic'
loop_
_space_group_symop_operation_xyz
x,y,z
-x,y,-z
-x,-y,-z
x,-y,z
loop_
_atom_site_type_symbol
_atom_site_label
_atom_site_fract_x
_atom_site_fract_y
_atom_site_fract_z
Si Si1 0.850445 0.894641 0.711740
Si Si2 0.220931 0.211866 0.511404
Si Si3 0.623903 0.195933 0.024738
Si Si4 0.067881 0.894624 0.813591
Si Si5 0.524428 0.104637 0.650198
Si Si6 0.848405 0.395152 0.565426
Si Si7 0.650372 0.397590 0.951341
O O1 0.858649 0.831823 0.569073
O O2 0.963879 0.892861 0.753755
O O3 0.835726 0.000000 0.673406
O O4 0.730929 0.857336 0.872591
O O5 0.177229 0.170201 0.686277
O O6 0.362044 0.175954 0.393744
O O7 0.200648 0.319726 0.512949
O O8 0.591827 0.140493 0.184842
O O9 0.500000 0.196692 0.000000
O O10 0.662187 0.302126 0.028443
O O11 0.113741 0.000000 0.802203
O O12 0.000000 0.866708 0.000000
O O13 0.500000 0.104038 0.500000
O O14 0.558159 0.000000 0.671547
O O15 0.837494 0.500000 0.522744
O O16 0.752904 0.387086 0.759624
O O17 0.000000 0.379121 0.500000
O O18 0.675175 0.500000 0.997751
O O19 0.500000 0.399517 0.000000
#
# Coordination Sequence:
#
# PCOD9150113 Si02
#       7
#     4   4   4   4   4   4   4
#     4  11  21  33  55  84 113 146 188 242 287 341
#     4  12  21  38  61  84 115 152 197 247 296 351
#     4  11  20  35  57  85 114 146 191 243 297 350
#     4  10  23  38  54  80 114 155 195 234 287 353
#     4  11  25  40  57  84 121 163 199 241 297 364
#     4  10  20  35  59  92 124 153 194 250 308 361
#     4   9  17  32  55  85 118 150 191 245 304 360
#
# _framework density 19.271878999999998
#
# number of rings (size 3 to 8) (size 9 to 14) (size 15 to 20)
#    0.000    1.429    2.857    3.857    2.000    1.714 
#    0.000    0.000    0.000    2.143    0.000    0.000 
#    0.000    0.000    0.000    0.000    0.000    0.000 
#
# Total GULP energy -156224.561315 kJ/mol
# GULP energy per Si atom -5579.448618 kJ/mol
# Density = 1.922802 g / cm^3
# Si number density = 19.271879 Si / 1000 Ang^3
#
#
#
# Elastic Constant Matrix: (Units=GPa)
#
#
# Indices 1 2 3 4 5 6 
#
# 1 34.3553 13.1580 12.2432 0.0000 -12.0416 0.0000
# 2 13.1580 104.3824 34.4422 0.0000 -7.5619 0.0000
# 3 12.2432 34.4422 128.9825 0.0000 -12.6303 0.0000
# 4 0.0000 0.0000 0.0000 36.8719 0.0000 -10.1367
# 5 -12.0416 -7.5619 -12.6303 0.0000 31.8492 0.0000
# 6 0.0000 0.0000 0.0000 -10.1367 0.0000 105.8374
#
#
#
# Elastic Compliance Matrix: (Units=1/GPa)
#
#
# Indices 1 2 3 4 5 6 
#
# 1 0.034958 -0.003105 -0.001318 0.000000 0.011957 0.000000
# 2 -0.003105 0.010845 -0.002564 0.000000 0.000384 0.000000
# 3 -0.001318 -0.002564 0.008796 0.000000 0.002381 0.000000
# 4 0.000000 0.000000 0.000000 0.027854 0.000000 0.002668
# 5 0.011957 0.000384 0.002381 0.000000 0.036954 0.000000
# 6 0.000000 0.000000 0.000000 0.002668 0.000000 0.009704
#
#
# Mechanical properties :
#
#
# Convention : Reuss Voigt Hill
#
# Bulk Modulus (GPa) = 24.61577 43.04522 33.83049
# Shear Modulus (GPa) = 31.92292 48.77015 40.34653
#
# Velocity S-wave (km/s) = 4.07437 5.03600 4.58049
# Velocity P-wave (km/s) = 5.91055 7.49662 6.75033
#
# Compressibility (1/GPa) = 0.04062436
#
# Stress axis : x y z
#
# Youngs Moduli (GPa) = 28.60602 92.20532 113.69014
#
# Poissons Ratio (x) = 0.28634 0.14986
# Poissons Ratio (y) = 0.08884 0.29146
# Poissons Ratio (z) = 0.03771 0.23638
#
# Static dielectric constant tensor:
#      x y z
#    x 1.806730 0.000000 -0.079300 
#    y 0.000000 1.687670 0.000000 
#    z -0.079300 0.000000 1.688300 
# 
# From -- ./inp_files/25072.got.cif
#   From: 2010.05.17/outbox.cif.g08.bks.cpg/sg10_13_cif.got.tgz:25072.got - 2010.06.03 11:33:40.
