data_PCOD9150246
_publ_section_title
;
Structure prediction by ZEFSAII (Michael W. Deem and Ramdas Pophale) SiO2 
 PCOD9150246
Probable space group: P 2/M
;
_chemical_formula_sum "Si O2"
_cell_formula_units_Z 14
_cell_length_a 22.427971
_cell_length_b 7.314796
_cell_length_c 7.198072
_cell_angle_alpha 90.000000
_cell_angle_beta 39.349231
_cell_angle_gamma 90.000000
_cell_volume 748.736239
_symmetry_space_group_name_H-M "P 2/M"
_symmetry_group_IT_number 10
_symmetry_cell_setting 'monoclinic'
loop_
_space_group_symop_operation_xyz
x,y,z
-x,y,-z
-x,-y,-z
x,-y,z
loop_
_atom_site_type_symbol
_atom_site_label
_atom_site_fract_x
_atom_site_fract_y
_atom_site_fract_z
Si Si1 0.202671 0.500000 0.609806
Si Si2 0.201387 0.215688 0.299189
Si Si3 0.603606 0.500000 0.666914
Si Si4 0.111915 0.500000 0.235101
Si Si5 0.402752 0.214588 0.639116
O O1 0.178421 0.323206 0.543646
O O2 0.314108 0.500000 0.381585
O O3 0.152708 0.500000 0.929048
O O4 0.149442 0.323889 0.258705
O O5 0.180312 0.000000 0.355216
O O6 0.312856 0.238339 0.988511
O O7 0.614617 0.326676 0.505317
O O8 0.500000 0.500000 0.000000
O O9 0.000000 0.500000 0.500000
O O10 0.500000 0.275152 0.500000
O O11 0.411564 0.000000 0.575809
#
# Coordination Sequence:
#
# PCOD9150246 Si02
#       5
#     2   4   2   2   4
#     4  11  22  39  61  92 120 155 205 251 298 356
#     4  10  22  41  63  89 124 160 199 251 306 357
#     4  12  21  32  57  88 121 162 202 238 294 358
#     4  11  24  44  65  88 122 159 202 254 306 359
#     4  10  20  36  56  83 123 162 197 244 295 352
#
# _framework density 18.698174000000002
#
# number of rings (size 3 to 8) (size 9 to 14) (size 15 to 20)
#    0.000    1.429    2.857    3.000    0.000    5.714 
#    0.000    1.429    0.000    0.000    0.000    0.000 
#    0.000    0.000    0.000    0.000    0.000    0.000 
#
# Total GULP energy -78220.191654 kJ/mol
# GULP energy per Si atom -5587.156547 kJ/mol
# Density = 1.865562 g / cm^3
# Si number density = 18.698174 Si / 1000 Ang^3
#
#
#
# Elastic Constant Matrix: (Units=GPa)
#
#
# Indices 1 2 3 4 5 6 
#
# 1 102.6186 72.2612 66.0340 0.0000 7.9904 0.0000
# 2 72.2612 151.7752 58.4347 0.0000 17.5313 0.0000
# 3 66.0340 58.4347 100.5284 0.0000 12.9546 0.0000
# 4 0.0000 0.0000 0.0000 16.5543 0.0000 -0.5468
# 5 7.9904 17.5313 12.9546 0.0000 43.5289 0.0000
# 6 0.0000 0.0000 0.0000 -0.5468 0.0000 10.1461
#
#
#
# Elastic Compliance Matrix: (Units=1/GPa)
#
#
# Indices 1 2 3 4 5 6 
#
# 1 0.020317 -0.005985 -0.010083 0.000000 0.001682 0.000000
# 2 -0.005985 0.010427 -0.001799 0.000000 -0.002566 0.000000
# 3 -0.010083 -0.001799 0.017974 0.000000 -0.002774 0.000000
# 4 0.000000 0.000000 0.000000 0.060515 0.000000 0.003262
# 5 0.001682 -0.002566 -0.002774 0.000000 0.024523 0.000000
# 6 0.000000 0.000000 0.000000 0.003262 0.000000 0.098736
#
#
# Mechanical properties :
#
#
# Convention : Reuss Voigt Hill
#
# Bulk Modulus (GPa) = 77.02237 83.15354 80.08795
# Shear Modulus (GPa) = 18.34490 24.59201 21.46846
#
# Velocity S-wave (km/s) = 3.13566 3.63052 3.39212
# Velocity P-wave (km/s) = 7.37507 7.88303 7.63328
#
# Compressibility (1/GPa) = 0.01298324
#
# Stress axis : x y z
#
# Youngs Moduli (GPa) = 49.21995 95.90257 55.63582
#
# Poissons Ratio (x) = 0.57399 0.56099
# Poissons Ratio (y) = 0.29459 0.10009
# Poissons Ratio (z) = 0.49630 0.17253
#
# Static dielectric constant tensor:
#      x y z
#    x 1.633970 0.000000 -0.009010 
#    y 0.000000 1.645180 0.000000 
#    z -0.009010 0.000000 1.635740 
# 
# From -- ./inp_files/8403.got.cif
#   From: 2010.05.17/outbox.cif.g08.bks.cpg/sg10_5_cif.got.tgz:8403.got - 2010.06.03 11:33:40.
