data_PCOD9150525
_publ_section_title
;
Structure prediction by ZEFSAII (Michael W. Deem and Ramdas Pophale) SiO2 
 PCOD9150525
Probable space group: P 2/M
;
_chemical_formula_sum "Si O2"
_cell_formula_units_Z 24
_cell_length_a 15.298066
_cell_length_b 8.586180
_cell_length_c 14.716377
_cell_angle_alpha 90.000000
_cell_angle_beta 31.611767
_cell_angle_gamma 90.000000
_cell_volume 1013.215853
_symmetry_space_group_name_H-M "P 2/M"
_symmetry_group_IT_number 10
_symmetry_cell_setting 'monoclinic'
loop_
_space_group_symop_operation_xyz
x,y,z
-x,y,-z
-x,-y,-z
x,-y,z
loop_
_atom_site_type_symbol
_atom_site_label
_atom_site_fract_x
_atom_site_fract_y
_atom_site_fract_z
Si Si1 0.813777 0.679906 0.063029
Si Si2 0.438164 0.820319 0.838048
Si Si3 0.919661 0.182965 0.307938
Si Si4 0.310513 0.321195 0.126827
Si Si5 0.212313 0.685189 0.405749
Si Si6 0.310546 0.187330 0.646632
O O1 0.859210 0.500000 0.016991
O O2 0.935701 0.778901 0.891437
O O3 0.633557 0.712402 0.177464
O O4 0.803288 0.735579 0.175565
O O5 0.623307 0.773819 0.704111
O O6 0.431539 0.000000 0.815576
O O7 0.323716 0.789149 0.028469
O O8 0.925991 0.273529 0.397266
O O9 0.754867 0.227787 0.395474
O O10 0.915507 0.000000 0.330977
O O11 0.272591 0.500000 0.132633
O O12 0.196640 0.273774 0.313151
O O13 0.500000 0.323806 0.000000
O O14 0.241420 0.500000 0.380675
O O15 0.500000 0.232292 0.500000
O O16 0.297494 0.000000 0.666766
#
# Coordination Sequence:
#
# PCOD9150525 Si02
#       6
#     4   4   4   4   4   4
#     4  12  25  40  59  83 116 155 194 238 288 343
#     4  11  21  35  58  86 116 151 195 243 288 339
#     4  11  23  39  60  86 119 155 191 234 284 341
#     4   8  16  32  54  82 116 151 188 235 288 337
#     4  10  20  36  59  87 119 153 192 237 285 340
#     4  10  22  41  64  89 116 147 186 234 287 341
#
# _framework density 23.686958000000001
#
# number of rings (size 3 to 8) (size 9 to 14) (size 15 to 20)
#    0.000    1.667    0.000    6.500    0.000    8.667 
#    0.000    0.833    0.000    5.000    0.000    0.000 
#    0.000    0.000    0.000    0.000    0.000    0.000 
#
# Total GULP energy -134351.147204 kJ/mol
# GULP energy per Si atom -5597.964467 kJ/mol
# Density = 2.363304 g / cm^3
# Si number density = 23.686958 Si / 1000 Ang^3
#
#
#
# Elastic Constant Matrix: (Units=GPa)
#
#
# Indices 1 2 3 4 5 6 
#
# 1 80.0363 16.9025 12.8452 0.0000 17.3377 0.0000
# 2 16.9025 36.1240 12.5669 0.0000 14.0799 0.0000
# 3 12.8452 12.5669 105.2838 0.0000 25.2536 0.0000
# 4 0.0000 0.0000 0.0000 -18.0151 0.0000 15.8603
# 5 17.3377 14.0799 25.2536 0.0000 46.6209 0.0000
# 6 0.0000 0.0000 0.0000 15.8603 0.0000 24.6184
#
#
#
# Elastic Compliance Matrix: (Units=1/GPa)
#
#
# Indices 1 2 3 4 5 6 
#
# 1 0.014432 -0.005242 -0.000261 0.000000 -0.003642 0.000000
# 2 -0.005242 0.033544 -0.001611 0.000000 -0.007308 0.000000
# 3 -0.000261 -0.001611 0.011013 0.000000 -0.005382 0.000000
# 4 0.000000 0.000000 0.000000 -0.035419 0.000000 0.022819
# 5 -0.003642 -0.007308 -0.005382 0.000000 0.027927 0.000000
# 6 0.000000 0.000000 0.000000 0.022819 0.000000 0.025919
#
#
# Mechanical properties :
#
#
# Convention : Reuss Voigt Hill
#
# Bulk Modulus (GPa) = 22.34144 34.00814 28.17479
# Shear Modulus (GPa) = 46.91916 22.58681 34.75298
#
# Velocity S-wave (km/s) = 4.45545 3.09132 3.83453
# Velocity P-wave (km/s) = 5.99337 5.20866 5.61474
#
# Compressibility (1/GPa) = 0.04475987
#
# Stress axis : x y z
#
# Youngs Moduli (GPa) = 69.28844 29.81126 90.79966
#
# Poissons Ratio (x) = 0.15628 0.02374
# Poissons Ratio (y) = 0.36323 0.14631
# Poissons Ratio (z) = 0.01811 0.04804
#
# Static dielectric constant tensor:
#      x y z
#    x 1.927460 0.000000 -0.060660 
#    y 0.000000 1.772300 0.000000 
#    z -0.060660 0.000000 1.963780 
# 
# From -- ./inp_files/27038.got.cif
#   From: 2010.05.17/outbox.cif.g08.bks.cpg/sg10_14_cif.got.tgz:27038.got - 2010.06.03 11:33:40.
