data_PCOD9150686
_publ_section_title
;
Structure prediction by ZEFSAII (Michael W. Deem and Ramdas Pophale) SiO2 
 PCOD9150686
Probable space group: P 2/M
;
_chemical_formula_sum "Si O2"
_cell_formula_units_Z 32
_cell_length_a 15.635006
_cell_length_b 14.963096
_cell_length_c 8.727794
_cell_angle_alpha 90.000000
_cell_angle_beta 130.567200
_cell_angle_gamma 90.000000
_cell_volume 1551.079148
_symmetry_space_group_name_H-M "P 2/M"
_symmetry_group_IT_number 10
_symmetry_cell_setting 'monoclinic'
loop_
_space_group_symop_operation_xyz
x,y,z
-x,y,-z
-x,-y,-z
x,-y,z
loop_
_atom_site_type_symbol
_atom_site_label
_atom_site_fract_x
_atom_site_fract_y
_atom_site_fract_z
Si Si1 0.085894 0.733388 0.770855
Si Si2 0.258933 0.720839 0.251773
Si Si3 0.149509 0.900067 0.629282
Si Si4 0.566462 0.715423 0.791515
Si Si5 0.341060 0.602375 0.579975
Si Si6 0.757404 0.395012 0.198561
Si Si7 0.088825 0.821988 0.243250
Si Si8 0.404985 0.097548 0.016650
O O1 0.104476 0.823294 0.691752
O O2 0.125217 0.652476 0.709033
O O3 0.968978 0.741081 0.726442
O O4 0.174798 0.729240 0.012489
O O5 0.381663 0.723861 0.318339
O O6 0.259201 0.628713 0.345463
O O7 0.208321 0.793828 0.309874
O O8 0.109962 0.890377 0.407029
O O9 0.122966 0.000000 0.654942
O O10 0.284059 0.889609 0.796139
O O11 0.448259 0.667759 0.690114
O O12 0.569235 0.816614 0.852898
O O13 0.658155 0.655523 0.990858
O O14 0.379364 0.500000 0.614925
O O15 0.276355 0.615371 0.663650
O O16 0.759338 0.500000 0.163343
O O17 0.000000 0.844622 0.000000
O O18 0.401936 0.000000 0.093006
O O19 0.500000 0.094310 0.000000
#
# Coordination Sequence:
#
# PCOD9150686 Si02
#       8
#     4   4   4   4   4   4   4   4
#     4  10  21  41  62  91 120 164 209 262 307 364
#     4  10  22  38  57  84 124 169 204 248 312 366
#     4  11  22  40  68  95 122 162 210 260 314 366
#     4  11  21  37  62  90 124 169 208 259 306 366
#     4  11  23  37  59  94 129 161 206 260 318 378
#     4  10  20  36  61  90 120 159 209 260 313 370
#     4  10  23  41  62  90 129 165 209 257 314 370
#     4  10  21  37  62  95 126 162 210 254 301 368
#
# _framework density 20.630796
#
# number of rings (size 3 to 8) (size 9 to 14) (size 15 to 20)
#    0.000    1.625    2.500    3.000    1.750    5.250 
#    0.000    3.125    0.000    9.750    0.000    0.000 
#    0.000    0.000    0.000    0.000    0.000    0.000 
#
# Total GULP energy -178330.862953 kJ/mol
# GULP energy per Si atom -5572.839467 kJ/mol
# Density = 2.058384 g / cm^3
# Si number density = 20.630796 Si / 1000 Ang^3
#
#
#
# Elastic Constant Matrix: (Units=GPa)
#
#
# Indices 1 2 3 4 5 6 
#
# 1 103.3728 46.8067 28.3624 0.0000 -8.0303 0.0000
# 2 46.8067 143.5396 45.7588 0.0000 -19.8967 0.0000
# 3 28.3624 45.7588 78.2542 0.0000 -11.8113 0.0000
# 4 0.0000 0.0000 0.0000 -32.8469 0.0000 30.3809
# 5 -8.0303 -19.8967 -11.8113 0.0000 32.1284 0.0000
# 6 0.0000 0.0000 0.0000 30.3809 0.0000 -36.9045
#
#
#
# Elastic Compliance Matrix: (Units=1/GPa)
#
#
# Indices 1 2 3 4 5 6 
#
# 1 0.011728 -0.003018 -0.002462 0.000000 0.000157 0.000000
# 2 -0.003018 0.009767 -0.004043 0.000000 0.003808 0.000000
# 3 -0.002462 -0.004043 0.016479 0.000000 0.002939 0.000000
# 4 0.000000 0.000000 0.000000 -0.127608 0.000000 -0.105051
# 5 0.000157 0.003808 0.002939 0.000000 0.034603 0.000000
# 6 0.000000 0.000000 0.000000 -0.105051 0.000000 -0.113578
#
#
# Mechanical properties :
#
#
# Convention : Reuss Voigt Hill
#
# Bulk Modulus (GPa) = 52.83034 63.00247 57.91641
# Shear Modulus (GPa) = -34.90322 6.09131 -14.40595
#
# Velocity S-wave (km/s) = -4.11761 1.72016 -2.64535
# Velocity P-wave (km/s) = 1.74836 5.87789 4.33627
#
# Compressibility (1/GPa) = 0.01892852
#
# Stress axis : x y z
#
# Youngs Moduli (GPa) = 85.26685 102.38078 60.68317
#
# Poissons Ratio (x) = 0.30894 0.14943
# Poissons Ratio (y) = 0.25730 0.24534
# Poissons Ratio (z) = 0.20996 0.41392
#
# Static dielectric constant tensor:
#      x y z
#    x 1.770610 0.000000 0.017980 
#    y 0.000000 1.740050 0.000000 
#    z 0.017980 0.000000 1.794390 
# 
# From -- ./inp_files/29560.got.cif
#   From: 2010.05.17/outbox.cif.g08.bks.cpg/sg10_15_cif.got.tgz:29560.got - 2010.06.03 11:33:40.
