data_PCOD9150456
_publ_section_title
;
Structure prediction by ZEFSAII (Michael W. Deem and Ramdas Pophale) SiO2 
 PCOD9150456
Probable space group: P 2/M
;
_chemical_formula_sum "Si O2"
_cell_formula_units_Z 28
_cell_length_a 8.672099
_cell_length_b 10.624422
_cell_length_c 24.457100
_cell_angle_alpha 90.000000
_cell_angle_beta 139.262001
_cell_angle_gamma 90.000000
_cell_volume 1470.558393
_symmetry_space_group_name_H-M "P 2/M"
_symmetry_group_IT_number 10
_symmetry_cell_setting 'monoclinic'
loop_
_space_group_symop_operation_xyz
x,y,z
-x,y,-z
-x,-y,-z
x,-y,z
loop_
_atom_site_type_symbol
_atom_site_label
_atom_site_fract_x
_atom_site_fract_y
_atom_site_fract_z
Si Si1 0.574740 0.637751 0.708255
Si Si2 0.796793 0.853348 0.400380
Si Si3 0.061985 0.720558 0.793875
Si Si4 0.595083 0.640127 0.944691
Si Si5 0.330156 0.248577 0.150540
Si Si6 0.154602 0.143979 0.711073
Si Si7 0.865425 0.141889 0.077431
O O1 0.468116 0.500000 0.670319
O O2 0.411281 0.753625 0.645510
O O3 0.617865 0.660322 0.784388
O O4 0.830264 0.645881 0.748953
O O5 0.894156 0.825655 0.365426
O O6 0.000000 0.842632 0.500000
O O7 0.713604 0.000000 0.377060
O O8 0.311207 0.648287 0.864523
O O9 0.038856 0.770900 0.726225
O O10 0.083136 0.831510 0.844952
O O11 0.666711 0.500000 0.981676
O O12 0.697049 0.673299 0.912188
O O13 0.691235 0.749961 0.009240
O O14 0.562822 0.163059 0.206064
O O15 0.105606 0.166564 0.107815
O O16 0.090266 0.000000 0.703521
O O17 0.779944 0.000000 0.045758
#
# Coordination Sequence:
#
# PCOD9150456 Si02
#       7
#     4   4   4   4   4   4   4
#     4  10  20  36  59  83 108 142 181 220 263 314
#     4   9  19  37  61  89 116 139 169 212 262 317
#     4  10  22  36  53  76 108 143 182 223 266 319
#     4  11  23  37  53  74 104 143 184 229 279 324
#     4   9  20  35  54  77 104 137 183 232 275 319
#     4   9  17  33  57  81 106 140 178 217 263 316
#     4  11  23  36  52  76 106 141 183 232 279 321
#
# _framework density 19.040386000000002
#
# number of rings (size 3 to 8) (size 9 to 14) (size 15 to 20)
#    0.000    2.143    0.000    2.571    0.000   13.429 
#    0.000    1.429    0.000    3.429    0.000    0.000 
#    0.000    0.000    0.000    0.000    0.000    0.000 
#
# Total GULP energy -156292.280682 kJ/mol
# GULP energy per Si atom -5581.867167 kJ/mol
# Density = 1.899705 g / cm^3
# Si number density = 19.040386 Si / 1000 Ang^3
#
#
#
# Elastic Constant Matrix: (Units=GPa)
#
#
# Indices 1 2 3 4 5 6 
#
# 1 89.1699 32.7012 25.4873 0.0000 -6.0472 0.0000
# 2 32.7012 136.9674 47.4602 0.0000 -8.9393 0.0000
# 3 25.4873 47.4602 67.6925 0.0000 -12.2683 0.0000
# 4 0.0000 0.0000 0.0000 12.7995 0.0000 14.1844
# 5 -6.0472 -8.9393 -12.2683 0.0000 17.9089 0.0000
# 6 0.0000 0.0000 0.0000 14.1844 0.0000 -47.3602
#
#
#
# Elastic Compliance Matrix: (Units=1/GPa)
#
#
# Indices 1 2 3 4 5 6 
#
# 1 0.012931 -0.001846 -0.003369 0.000000 0.001137 0.000000
# 2 -0.001846 0.009908 -0.006243 0.000000 0.000045 0.000000
# 3 -0.003369 -0.006243 0.022432 0.000000 0.011113 0.000000
# 4 0.000000 0.000000 0.000000 0.058659 0.000000 0.017568
# 5 0.001137 0.000045 0.011113 0.000000 0.063858 0.000000
# 6 0.000000 0.000000 0.000000 0.017568 0.000000 -0.015853
#
#
# Mechanical properties :
#
#
# Convention : Reuss Voigt Hill
#
# Bulk Modulus (GPa) = 44.73036 56.12524 50.42780
# Shear Modulus (GPa) = 27.42676 9.21504 18.32090
#
# Velocity S-wave (km/s) = 3.79945 2.20233 3.10532
# Velocity P-wave (km/s) = 6.54149 6.00066 6.27690
#
# Compressibility (1/GPa) = 0.02235618
#
# Stress axis : x y z
#
# Youngs Moduli (GPa) = 77.33068 100.92749 44.57821
#
# Poissons Ratio (x) = 0.18631 0.15016
# Poissons Ratio (y) = 0.14275 0.27832
# Poissons Ratio (z) = 0.26049 0.63014
#
# Static dielectric constant tensor:
#      x y z
#    x 1.669110 0.000000 -0.004240 
#    y 0.000000 1.664870 0.000000 
#    z -0.004240 0.000000 1.648760 
# 
# From -- ./inp_files/92066.got.cif
#   From: 2010.05.17/outbox.cif.g08.bks.cpg/sg10_47_cif.got.tgz:92066.got - 2010.06.03 11:33:40.
