data_PCOD9150136
_publ_section_title
;
Structure prediction by ZEFSAII (Michael W. Deem and Ramdas Pophale) SiO2 
 PCOD9150136
Probable space group: P 2/M
;
_chemical_formula_sum "Si O2"
_cell_formula_units_Z 28
_cell_length_a 30.465435
_cell_length_b 8.630224
_cell_length_c 10.324053
_cell_angle_alpha 90.000000
_cell_angle_beta 146.264142
_cell_angle_gamma 90.000000
_cell_volume 1507.502964
_symmetry_space_group_name_H-M "P 2/M"
_symmetry_group_IT_number 10
_symmetry_cell_setting 'monoclinic'
loop_
_space_group_symop_operation_xyz
x,y,z
-x,y,-z
-x,-y,-z
x,-y,z
loop_
_atom_site_type_symbol
_atom_site_label
_atom_site_fract_x
_atom_site_fract_y
_atom_site_fract_z
Si Si1 0.761602 0.184907 0.125978
Si Si2 0.329694 0.315771 0.338279
Si Si3 0.256561 0.815291 0.419441
Si Si4 0.495456 0.814587 0.642817
Si Si5 0.091763 0.314883 0.084842
Si Si6 0.077396 0.185572 0.339389
Si Si7 0.337611 0.684734 0.876473
O O1 0.851516 0.219543 0.388058
O O2 0.706798 0.237200 0.111140
O O3 0.753186 0.000000 0.087703
O O4 0.732030 0.270002 0.925537
O O5 0.333173 0.500000 0.361721
O O6 0.302698 0.238207 0.405421
O O7 0.414483 0.251879 0.500726
O O8 0.166518 0.755214 0.194744
O O9 0.296623 0.741335 0.644529
O O10 0.257254 0.000000 0.433360
O O11 0.500000 0.781859 0.500000
O O12 0.497783 0.000000 0.665360
O O13 0.571621 0.738113 0.895486
O O14 0.093136 0.500000 0.083905
O O15 0.097123 0.259541 0.247936
O O16 0.007635 0.251422 0.829296
O O17 0.072414 0.000000 0.310555
O O18 0.331667 0.500000 0.873047
#
# Coordination Sequence:
#
# PCOD9150136 Si02
#       7
#     4   4   4   4   4   4   4
#     4  11  22  39  63  93 126 166 210 252 306 372
#     4  12  26  43  65  93 127 163 207 260 316 368
#     4  12  25  44  65  89 127 169 209 252 314 381
#     4  11  23  41  66  93 126 164 209 254 306 370
#     4  11  21  35  59  91 127 161 205 259 313 361
#     4  10  20  35  60  91 125 163 209 254 305 367
#     4  12  24  39  65  96 126 160 208 261 310 361
#
# _framework density 18.573761000000001
#
# number of rings (size 3 to 8) (size 9 to 14) (size 15 to 20)
#    0.000    0.714    2.857    7.286    0.000    2.857 
#    0.000    3.571    0.000    4.286    0.000    0.000 
#    0.000    0.000    0.000    0.000    0.000    0.000 
#
# Total GULP energy -156674.446000 kJ/mol
# GULP energy per Si atom -5595.515929 kJ/mol
# Density = 1.853149 g / cm^3
# Si number density = 18.573761 Si / 1000 Ang^3
#
#
#
# Elastic Constant Matrix: (Units=GPa)
#
#
# Indices 1 2 3 4 5 6 
#
# 1 57.6863 4.8710 10.1141 0.0000 18.7292 0.0000
# 2 4.8710 74.4806 10.9624 0.0000 19.9440 0.0000
# 3 10.1141 10.9624 70.0510 0.0000 19.9341 0.0000
# 4 0.0000 0.0000 0.0000 57.4710 0.0000 16.6480
# 5 18.7292 19.9440 19.9341 0.0000 31.5466 0.0000
# 6 0.0000 0.0000 0.0000 16.6480 0.0000 51.2641
#
#
#
# Elastic Compliance Matrix: (Units=1/GPa)
#
#
# Indices 1 2 3 4 5 6 
#
# 1 0.021873 0.002483 0.000726 0.000000 -0.015015 0.000000
# 2 0.002483 0.016457 0.000544 0.000000 -0.012222 0.000000
# 3 0.000726 0.000544 0.017442 0.000000 -0.011797 0.000000
# 4 0.000000 0.000000 0.000000 0.019207 0.000000 -0.006237
# 5 -0.015015 -0.012222 -0.011797 0.000000 0.055794 0.000000
# 6 0.000000 0.000000 0.000000 -0.006237 0.000000 0.021532
#
#
# Mechanical properties :
#
#
# Convention : Reuss Voigt Hill
#
# Bulk Modulus (GPa) = 15.80314 28.23476 22.01895
# Shear Modulus (GPa) = 30.14012 39.80771 34.97391
#
# Velocity S-wave (km/s) = 4.03268 4.63452 4.34403
# Velocity P-wave (km/s) = 5.49637 6.62365 6.08617
#
# Compressibility (1/GPa) = 0.06327857
#
# Stress axis : x y z
#
# Youngs Moduli (GPa) = 45.71845 60.76589 57.33195
#
# Poissons Ratio (x) = -0.15089 -0.04162
# Poissons Ratio (y) = -0.11353 -0.03120
# Poissons Ratio (z) = -0.03319 -0.03307
#
# Static dielectric constant tensor:
#      x y z
#    x 1.611150 0.000000 0.014540 
#    y 0.000000 1.616270 0.000000 
#    z 0.014540 0.000000 1.636100 
# 
# From -- ./inp_files/37353.got.cif
#   From: 2010.05.17/outbox.cif.g08.bks.cpg/sg10_19_cif.got.tgz:37353.got - 2010.06.03 11:33:40.
