data_PCOD9150097
_publ_section_title
;
Structure prediction by ZEFSAII (Michael W. Deem and Ramdas Pophale) SiO2 
 PCOD9150097
Probable space group: P 2/M
;
_chemical_formula_sum "Si O2"
_cell_formula_units_Z 28
_cell_length_a 8.298936
_cell_length_b 23.500439
_cell_length_c 14.086453
_cell_angle_alpha 90.000000
_cell_angle_beta 30.855521
_cell_angle_gamma 90.000000
_cell_volume 1409.001813
_symmetry_space_group_name_H-M "P 2/M"
_symmetry_group_IT_number 10
_symmetry_cell_setting 'monoclinic'
loop_
_space_group_symop_operation_xyz
x,y,z
-x,y,-z
-x,-y,-z
x,-y,z
loop_
_atom_site_type_symbol
_atom_site_label
_atom_site_fract_x
_atom_site_fract_y
_atom_site_fract_z
Si Si1 0.537077 0.883470 0.723286
Si Si2 0.231445 0.219233 0.972853
Si Si3 0.083081 0.933993 0.320213
Si Si4 0.796587 0.347111 0.008101
Si Si5 0.168468 0.870715 0.724648
Si Si6 0.866959 0.563503 0.291704
Si Si7 0.256757 0.562261 0.288640
O O1 0.499672 0.821866 0.792761
O O2 0.593536 0.924253 0.785576
O O3 0.259010 0.891231 0.786012
O O4 0.833914 0.895771 0.504997
O O5 0.305639 0.283118 0.967482
O O6 0.000000 0.224749 0.000000
O O7 0.041510 0.185075 0.149975
O O8 0.037444 0.913070 0.235887
O O9 0.995081 0.000000 0.371693
O O10 0.496767 0.386732 0.174400
O O11 0.000000 0.343698 0.000000
O O12 0.011785 0.382668 0.827360
O O13 0.500000 0.860894 0.500000
O O14 0.500000 0.569298 0.500000
O O15 0.905390 0.500000 0.227465
O O16 0.074536 0.563235 0.281598
O O17 0.413897 0.500000 0.218046
O O18 0.000000 0.566460 0.500000
#
# Coordination Sequence:
#
# PCOD9150097 Si02
#       7
#     4   4   4   4   4   4   4
#     4   9  18  36  56  78 114 149 180 232 288 336
#     4   9  20  39  57  78 112 151 192 232 280 340
#     4  10  20  35  59  88 111 143 190 234 286 355
#     4  11  22  37  59  87 119 156 203 251 295 359
#     4   9  19  36  58  80 112 150 187 233 289 342
#     4  10  21  38  60  87 120 157 199 249 306 358
#     4  10  21  39  59  85 121 155 197 250 302 358
#
# _framework density 19.872223000000002
#
# number of rings (size 3 to 8) (size 9 to 14) (size 15 to 20)
#    0.000    2.286    0.000    2.571    0.000    7.714 
#    7.714    3.571    0.000   10.714    0.000    0.000 
#    0.000    0.000    0.000    0.000    0.000    0.000 
#
# Total GULP energy -155902.798325 kJ/mol
# GULP energy per Si atom -5567.957083 kJ/mol
# Density = 1.982699 g / cm^3
# Si number density = 19.872223 Si / 1000 Ang^3
#
#
#
# Elastic Constant Matrix: (Units=GPa)
#
#
# Indices 1 2 3 4 5 6 
#
# 1 102.6537 50.4430 22.5003 0.0000 4.2014 0.0000
# 2 50.4430 156.6008 68.1315 0.0000 0.8510 0.0000
# 3 22.5003 68.1315 87.7708 0.0000 10.4176 0.0000
# 4 0.0000 0.0000 0.0000 111.8555 0.0000 -2.0209
# 5 4.2014 0.8510 10.4176 0.0000 23.2115 0.0000
# 6 0.0000 0.0000 0.0000 -2.0209 0.0000 28.5314
#
#
#
# Elastic Compliance Matrix: (Units=1/GPa)
#
#
# Indices 1 2 3 4 5 6 
#
# 1 0.011666 -0.003855 0.000249 0.000000 -0.002082 0.000000
# 2 -0.003855 0.011142 -0.008128 0.000000 0.003937 0.000000
# 3 0.000249 -0.008128 0.018600 0.000000 -0.008095 0.000000
# 4 0.000000 0.000000 0.000000 0.008952 0.000000 0.000634
# 5 -0.002082 0.003937 -0.008095 0.000000 0.046948 0.000000
# 6 0.000000 0.000000 0.000000 0.000634 0.000000 0.035094
#
#
# Mechanical properties :
#
#
# Convention : Reuss Voigt Hill
#
# Bulk Modulus (GPa) = 55.74214 69.90834 62.82524
# Shear Modulus (GPa) = 30.89271 46.44970 38.67121
#
# Velocity S-wave (km/s) = 3.94708 4.83993 4.41613
# Velocity P-wave (km/s) = 6.99169 8.15405 7.59514
#
# Compressibility (1/GPa) = 0.01793975
#
# Stress axis : x y z
#
# Youngs Moduli (GPa) = 85.71642 89.74859 53.76382
#
# Poissons Ratio (x) = 0.34596 -0.01337
# Poissons Ratio (y) = 0.33041 0.43701
# Poissons Ratio (z) = -0.02131 0.72950
#
# Static dielectric constant tensor:
#      x y z
#    x 1.746780 0.000000 -0.009210 
#    y 0.000000 1.705790 0.000000 
#    z -0.009210 0.000000 1.717660 
# 
# From -- ./inp_files/62561.got.cif
#   From: 2010.05.17/outbox.cif.g08.bks.cpg/sg10_32_cif.got.tgz:62561.got - 2010.06.03 11:33:40.
