data_PCOD9150070
_publ_section_title
;
Structure prediction by ZEFSAII (Michael W. Deem and Ramdas Pophale) SiO2 
 PCOD9150070
Probable space group: P 2/M
;
_chemical_formula_sum "Si O2"
_cell_formula_units_Z 22
_cell_length_a 20.764795
_cell_length_b 7.619213
_cell_length_c 9.685163
_cell_angle_alpha 90.000000
_cell_angle_beta 141.730818
_cell_angle_gamma 90.000000
_cell_volume 949.042427
_symmetry_space_group_name_H-M "P 2/M"
_symmetry_group_IT_number 10
_symmetry_cell_setting 'monoclinic'
loop_
_space_group_symop_operation_xyz
x,y,z
-x,y,-z
-x,-y,-z
x,-y,z
loop_
_atom_site_type_symbol
_atom_site_label
_atom_site_fract_x
_atom_site_fract_y
_atom_site_fract_z
Si Si1 0.458242 0.785176 0.278791
Si Si2 0.000000 0.750933 0.000000
Si Si3 0.220148 0.787702 0.849347
Si Si4 0.177370 0.697093 0.472056
Si Si5 0.844809 0.787434 0.961215
Si Si6 0.348341 0.209364 0.562490
O O1 0.500000 0.733121 0.500000
O O2 0.539672 0.726147 0.299085
O O3 0.458450 0.000000 0.277805
O O4 0.340181 0.728518 0.058621
O O5 0.899894 0.818997 0.745170
O O6 0.932685 0.692699 0.020148
O O7 0.172792 0.726673 0.626027
O O8 0.220445 0.000000 0.849238
O O9 0.162585 0.733676 0.892378
O O10 0.143495 0.500000 0.378770
O O11 0.293387 0.720500 0.607451
O O12 0.733783 0.756690 0.700055
O O13 0.864440 0.000000 0.987836
O O14 0.355467 0.000000 0.591652
#
# Coordination Sequence:
#
# PCOD9150070 Si02
#       6
#     4   2   4   4   4   4
#     4   9  15  29  58  90 118 146 180 220 268 327
#     4  10  22  40  60  78 101 148 193 234 283 340
#     4  10  20  35  58  89 119 145 179 227 277 329
#     4  11  24  41  56  77 110 150 192 237 279 328
#     4   9  17  32  58  89 115 139 178 232 282 328
#     4   9  17  33  59  87 113 147 186 225 269 325
#
# _framework density 23.181260999999999
#
# number of rings (size 3 to 8) (size 9 to 14) (size 15 to 20)
#    0.000    2.364    1.818    1.091    0.000    3.636 
#    0.000   11.818    0.000    1.091    0.000    0.000 
#    0.000    0.000    0.000    0.000    0.000    0.000 
#
# Total GULP energy -122666.824736 kJ/mol
# GULP energy per Si atom -5575.764761 kJ/mol
# Density = 2.312850 g / cm^3
# Si number density = 23.181261 Si / 1000 Ang^3
#
#
#
# Elastic Constant Matrix: (Units=GPa)
#
#
# Indices 1 2 3 4 5 6 
#
# 1 223.4884 31.3927 64.1481 0.0000 -17.0054 0.0000
# 2 31.3927 71.0565 11.5819 0.0000 -1.2696 0.0000
# 3 64.1481 11.5819 80.1395 0.0000 -18.5540 0.0000
# 4 0.0000 0.0000 0.0000 -2.0897 0.0000 -7.1956
# 5 -17.0054 -1.2696 -18.5540 0.0000 47.8597 0.0000
# 6 0.0000 0.0000 0.0000 -7.1956 0.0000 36.7169
#
#
#
# Elastic Compliance Matrix: (Units=1/GPa)
#
#
# Indices 1 2 3 4 5 6 
#
# 1 0.006063 -0.001941 -0.004489 0.000000 0.000363 0.000000
# 2 -0.001941 0.015043 -0.000756 0.000000 -0.000583 0.000000
# 3 -0.004489 -0.000756 0.017365 0.000000 0.005117 0.000000
# 4 0.000000 0.000000 0.000000 -0.285724 0.000000 -0.055995
# 5 0.000363 -0.000583 0.005117 0.000000 0.022992 0.000000
# 6 0.000000 0.000000 0.000000 -0.055995 0.000000 0.016262
#
#
# Mechanical properties :
#
#
# Convention : Reuss Voigt Hill
#
# Bulk Modulus (GPa) = 41.49147 65.43663 53.46405
# Shear Modulus (GPa) = -26.94043 34.33482 3.69720
#
# Velocity S-wave (km/s) = -3.41275 3.85274 1.26427
# Velocity P-wave (km/s) = 1.55190 6.93405 5.02441
#
# Compressibility (1/GPa) = 0.02410134
#
# Stress axis : x y z
#
# Youngs Moduli (GPa) = 164.93162 66.47423 57.58606
#
# Poissons Ratio (x) = 0.12900 0.25849
# Poissons Ratio (y) = 0.32006 0.04353
# Poissons Ratio (z) = 0.74035 0.05025
#
# Static dielectric constant tensor:
#      x y z
#    x 1.846390 0.000000 0.012650 
#    y 0.000000 2.013120 0.000000 
#    z 0.012650 0.000000 1.815370 
# 
# From -- ./inp_files/27592.got.cif
#   From: 2010.05.17/outbox.cif.g08.bks.cpg/sg10_14_cif.got.tgz:27592.got - 2010.06.03 11:33:40.
