data_PCOD9150307
_publ_section_title
;
Structure prediction by ZEFSAII (Michael W. Deem and Ramdas Pophale) SiO2 
 PCOD9150307
Probable space group: P 2/M
;
_chemical_formula_sum "Si O2"
_cell_formula_units_Z 24
_cell_length_a 8.665924
_cell_length_b 14.549765
_cell_length_c 11.089939
_cell_angle_alpha 90.000000
_cell_angle_beta 111.845359
_cell_angle_gamma 90.000000
_cell_volume 1297.889194
_symmetry_space_group_name_H-M "P 2/M"
_symmetry_group_IT_number 10
_symmetry_cell_setting 'monoclinic'
loop_
_space_group_symop_operation_xyz
x,y,z
-x,y,-z
-x,-y,-z
x,-y,z
loop_
_atom_site_type_symbol
_atom_site_label
_atom_site_fract_x
_atom_site_fract_y
_atom_site_fract_z
Si Si1 0.858164 0.220595 0.537722
Si Si2 0.359171 0.895021 0.353555
Si Si3 0.011481 0.600502 0.294528
Si Si4 0.677726 0.345569 0.085030
Si Si5 0.725900 0.608306 0.842287
Si Si6 0.551293 0.251083 0.270113
O O1 0.792189 0.159666 0.628981
O O2 0.938691 0.314300 0.609414
O O3 0.703134 0.245125 0.407102
O O4 0.000000 0.171622 0.500000
O O5 0.500000 0.896771 0.500000
O O6 0.435499 0.835912 0.266548
O O7 0.320116 0.000000 0.310860
O O8 0.051137 0.500000 0.357869
O O9 0.122428 0.611895 0.206246
O O10 0.817495 0.604364 0.203520
O O11 0.621311 0.261297 0.154540
O O12 0.500000 0.391276 0.000000
O O13 0.756956 0.336471 0.975616
O O14 0.700122 0.500000 0.861038
O O15 0.562696 0.658409 0.741192
#
# Coordination Sequence:
#
# PCOD9150307 Si02
#       6
#     4   4   4   4   4   4
#     4  11  21  37  56  85 119 145 182 231 285 345
#     4   9  19  37  62  85 111 145 182 231 288 343
#     4  11  22  36  54  81 116 156 192 232 277 326
#     4  10  21  36  54  79 111 152 194 236 266 316
#     4  10  21  36  56  80 111 155 201 233 265 320
#     4  10  20  36  57  83 117 147 183 229 284 337
#
# _framework density 18.491564
#
# number of rings (size 3 to 8) (size 9 to 14) (size 15 to 20)
#    0.000    1.833    3.333    1.000    0.000    8.667 
#    0.000    1.667    0.000    4.500    0.000    4.667 
#    0.000    0.000    0.000    0.000    0.000    0.000 
#
# Total GULP energy -133663.519288 kJ/mol
# GULP energy per Si atom -5569.313304 kJ/mol
# Density = 1.844948 g / cm^3
# Si number density = 18.491564 Si / 1000 Ang^3
#
#
#
# Elastic Constant Matrix: (Units=GPa)
#
#
# Indices 1 2 3 4 5 6 
#
# 1 98.2117 51.6454 34.5557 0.0000 -7.4501 0.0000
# 2 51.6454 107.0706 41.8964 0.0000 -14.0531 0.0000
# 3 34.5557 41.8964 60.6051 0.0000 -5.0889 0.0000
# 4 0.0000 0.0000 0.0000 14.5392 0.0000 -2.1347
# 5 -7.4501 -14.0531 -5.0889 0.0000 40.5562 0.0000
# 6 0.0000 0.0000 0.0000 -2.1347 0.0000 0.1337
#
#
#
# Elastic Compliance Matrix: (Units=1/GPa)
#
#
# Indices 1 2 3 4 5 6 
#
# 1 0.014571 -0.005137 -0.004731 0.000000 0.000303 0.000000
# 2 -0.005137 0.015084 -0.007215 0.000000 0.003378 0.000000
# 3 -0.004731 -0.007215 0.024157 0.000000 -0.000338 0.000000
# 4 0.000000 0.000000 0.000000 -0.051198 0.000000 -0.817159
# 5 0.000303 0.003378 -0.000338 0.000000 0.025841 0.000000
# 6 0.000000 0.000000 0.000000 -0.817159 0.000000 -5.565635
#
#
# Mechanical properties :
#
#
# Convention : Reuss Voigt Hill
#
# Bulk Modulus (GPa) = 50.90206 58.00916 54.45561
# Shear Modulus (GPa) = -0.90968 20.23184 9.66108
#
# Velocity S-wave (km/s) = -0.70215 3.31132 2.28822
# Velocity P-wave (km/s) = 5.18937 6.78664 6.04103
#
# Compressibility (1/GPa) = 0.01964557
#
# Stress axis : x y z
#
# Youngs Moduli (GPa) = 68.62810 66.29501 41.39551
#
# Poissons Ratio (x) = 0.34058 0.19586
# Poissons Ratio (y) = 0.35257 0.29866
# Poissons Ratio (z) = 0.32470 0.47831
#
# Static dielectric constant tensor:
#      x y z
#    x 1.689410 0.000000 -0.017220 
#    y 0.000000 1.613810 0.000000 
#    z -0.017220 0.000000 1.664360 
# 
# From -- ./inp_files/24573.got.cif
#   From: 2010.05.17/outbox.cif.g08.bks.cpg/sg10_13_cif.got.tgz:24573.got - 2010.06.03 11:33:40.
