data_PCOD9150789
_publ_section_title
;
Structure prediction by ZEFSAII (Michael W. Deem and Ramdas Pophale) SiO2 
 PCOD9150789
Probable space group: P 2/M
;
_chemical_formula_sum "Si O2"
_cell_formula_units_Z 32
_cell_length_a 9.054446
_cell_length_b 13.775973
_cell_length_c 12.698225
_cell_angle_alpha 90.000000
_cell_angle_beta 88.872387
_cell_angle_gamma 90.000000
_cell_volume 1583.591172
_symmetry_space_group_name_H-M "P 2/M"
_symmetry_group_IT_number 10
_symmetry_cell_setting 'monoclinic'
loop_
_space_group_symop_operation_xyz
x,y,z
-x,y,-z
-x,-y,-z
x,-y,z
loop_
_atom_site_type_symbol
_atom_site_label
_atom_site_fract_x
_atom_site_fract_y
_atom_site_fract_z
Si Si1 0.544536 0.116610 0.616873
Si Si2 0.201429 0.884278 0.235793
Si Si3 0.397075 0.750548 0.092715
Si Si4 0.948768 0.217351 0.118099
Si Si5 0.847049 0.383451 0.628452
Si Si6 0.350392 0.248922 0.765083
Si Si7 0.195340 0.383138 0.598691
Si Si8 0.842861 0.385218 0.865786
O O1 0.500000 0.148008 0.500000
O O2 0.710564 0.141344 0.657128
O O3 0.426298 0.162436 0.698389
O O4 0.535437 0.000000 0.620877
O O5 0.307487 0.838061 0.145834
O O6 0.044329 0.837798 0.206929
O O7 0.190961 0.000000 0.230183
O O8 0.514517 0.705798 0.172164
O O9 0.278881 0.668720 0.062214
O O10 0.500000 0.788654 0.000000
O O11 0.003444 0.329565 0.120743
O O12 0.779144 0.213011 0.154772
O O13 0.000000 0.182289 0.000000
O O14 0.839004 0.500000 0.624323
O O15 0.769138 0.351084 0.522030
O O16 0.795013 0.358147 0.746023
O O17 0.021372 0.360821 0.618045
O O18 0.284548 0.325257 0.683967
O O19 0.213713 0.500000 0.607871
O O20 0.852367 0.500000 0.878149
#
# Coordination Sequence:
#
# PCOD9150789 Si02
#       8
#     4   4   4   4   4   4   4   4
#     4   9  20  41  63  85 117 151 185 227 278 348
#     4   9  20  40  63  82 108 148 185 229 291 345
#     4  10  22  39  55  78 112 146 193 243 278 325
#     4  11  23  38  56  85 120 147 189 248 286 329
#     4   8  15  31  52  75 105 143 182 221 270 325
#     4  11  21  34  58  87 112 149 190 232 288 339
#     4   9  17  30  51  81 113 140 175 225 274 328
#     4  10  20  37  57  76 109 159 196 227 280 338
#
# _framework density 20.207234
#
# number of rings (size 3 to 8) (size 9 to 14) (size 15 to 20)
#    0.000    2.375    1.250    2.250    0.000    5.000 
#    0.000    3.750    0.000    4.875    0.000    0.000 
#    0.000    0.000    0.000    0.000    0.000    0.000 
#
# Total GULP energy -178356.566566 kJ/mol
# GULP energy per Si atom -5573.642705 kJ/mol
# Density = 2.016124 g / cm^3
# Si number density = 20.207234 Si / 1000 Ang^3
#
#
#
# Elastic Constant Matrix: (Units=GPa)
#
#
# Indices 1 2 3 4 5 6 
#
# 1 93.8530 17.1421 19.1236 0.0000 5.0006 0.0000
# 2 17.1421 62.8913 5.0966 0.0000 8.8983 0.0000
# 3 19.1236 5.0966 61.7803 0.0000 5.8678 0.0000
# 4 0.0000 0.0000 0.0000 13.9177 0.0000 2.5368
# 5 5.0006 8.8983 5.8678 0.0000 33.2415 0.0000
# 6 0.0000 0.0000 0.0000 2.5368 0.0000 18.3774
#
#
#
# Elastic Compliance Matrix: (Units=1/GPa)
#
#
# Indices 1 2 3 4 5 6 
#
# 1 0.011902 -0.002910 -0.003405 0.000000 -0.000410 0.000000
# 2 -0.002910 0.017294 -0.000130 0.000000 -0.004169 0.000000
# 3 -0.003405 -0.000130 0.017492 0.000000 -0.002541 0.000000
# 4 0.000000 0.000000 0.000000 0.073706 0.000000 -0.010174
# 5 -0.000410 -0.004169 -0.002541 0.000000 0.031709 0.000000
# 6 0.000000 0.000000 0.000000 -0.010174 0.000000 0.055819
#
#
# Mechanical properties :
#
#
# Convention : Reuss Voigt Hill
#
# Bulk Modulus (GPa) = 29.58743 33.47216 31.52979
# Shear Modulus (GPa) = 21.54438 24.91812 23.23125
#
# Velocity S-wave (km/s) = 3.26877 3.51540 3.39433
# Velocity P-wave (km/s) = 5.37776 5.75133 5.56768
#
# Compressibility (1/GPa) = 0.03379814
#
# Stress axis : x y z
#
# Youngs Moduli (GPa) = 84.01810 57.82354 57.16741
#
# Poissons Ratio (x) = 0.16827 0.19467
# Poissons Ratio (y) = 0.24450 0.00743
# Poissons Ratio (z) = 0.28610 0.00751
#
# Static dielectric constant tensor:
#      x y z
#    x 1.729410 0.000000 0.023060 
#    y 0.000000 1.681680 0.000000 
#    z 0.023060 0.000000 1.822620 
# 
# From -- ./inp_files/42954.got.cif
#   From: 2010.05.17/outbox.cif.g08.bks.cpg/sg10_22_cif.got.tgz:42954.got - 2010.06.03 11:33:40.
