data_PCOD9150453
_publ_section_title
;
Structure prediction by ZEFSAII (Michael W. Deem and Ramdas Pophale) SiO2 
 PCOD9150453
Probable space group: P 2/M
;
_chemical_formula_sum "Si O2"
_cell_formula_units_Z 24
_cell_length_a 9.346965
_cell_length_b 7.649086
_cell_length_c 21.424253
_cell_angle_alpha 90.000000
_cell_angle_beta 132.499624
_cell_angle_gamma 90.000000
_cell_volume 1129.326046
_symmetry_space_group_name_H-M "P 2/M"
_symmetry_group_IT_number 10
_symmetry_cell_setting 'monoclinic'
loop_
_space_group_symop_operation_xyz
x,y,z
-x,y,-z
-x,-y,-z
x,-y,z
loop_
_atom_site_type_symbol
_atom_site_label
_atom_site_fract_x
_atom_site_fract_y
_atom_site_fract_z
Si Si1 0.481529 0.212968 0.594294
Si Si2 0.986412 0.702047 0.926976
Si Si3 0.752806 0.703908 0.240244
Si Si4 0.185100 0.211592 0.403868
Si Si5 0.286641 0.286512 0.912898
Si Si6 0.428567 0.202138 0.241508
O O1 0.294114 0.269335 0.499259
O O2 0.672197 0.263398 0.610898
O O3 0.497390 0.272392 0.670033
O O4 0.475030 0.000000 0.592331
O O5 0.050908 0.500000 0.952850
O O6 0.765514 0.706412 0.839300
O O7 0.125882 0.777438 0.914654
O O8 0.000000 0.783023 0.000000
O O9 0.699439 0.500000 0.221953
O O10 0.746651 0.774392 0.167711
O O11 0.597387 0.788723 0.240300
O O12 0.969517 0.721894 0.330415
O O13 0.177030 0.000000 0.401927
O O14 0.275033 0.500000 0.907420
O O15 0.500000 0.240018 0.000000
O O16 0.373859 0.000000 0.235043
#
# Coordination Sequence:
#
# PCOD9150453 Si02
#       6
#     4   4   4   4   4   4
#     4   8  17  34  57  80 103 137 178 219 263 316
#     4  10  20  36  59  83 107 137 173 215 265 316
#     4  11  22  35  52  78 110 141 176 217 263 313
#     4   9  17  35  59  79 102 136 178 219 265 317
#     4   9  18  34  56  79 104 137 174 210 254 313
#     4  11  22  36  54  78 108 141 179 219 260 308
#
# _framework density 21.251612999999999
#
# number of rings (size 3 to 8) (size 9 to 14) (size 15 to 20)
#    0.000    2.333    0.000    4.000    0.000    3.667 
#    0.000    8.333    0.000    3.500    0.000    0.000 
#    0.000    0.000    0.000    0.000    0.000    0.000 
#
# Total GULP energy -134059.012480 kJ/mol
# GULP energy per Si atom -5585.792187 kJ/mol
# Density = 2.120324 g / cm^3
# Si number density = 21.251613 Si / 1000 Ang^3
#
#
#
# Elastic Constant Matrix: (Units=GPa)
#
#
# Indices 1 2 3 4 5 6 
#
# 1 158.0808 -7.2071 105.6733 0.0000 -14.2870 0.0000
# 2 -7.2071 41.3145 -8.3425 0.0000 -8.3431 0.0000
# 3 105.6733 -8.3425 159.6067 0.0000 -18.8894 0.0000
# 4 0.0000 0.0000 0.0000 22.5096 0.0000 9.9419
# 5 -14.2870 -8.3431 -18.8894 0.0000 43.1883 0.0000
# 6 0.0000 0.0000 0.0000 9.9419 0.0000 18.3163
#
#
#
# Elastic Compliance Matrix: (Units=1/GPa)
#
#
# Indices 1 2 3 4 5 6 
#
# 1 0.011373 0.000613 -0.007423 0.000000 0.000634 0.000000
# 2 0.000613 0.025838 0.001644 0.000000 0.005913 0.000000
# 3 -0.007423 0.001644 0.011614 0.000000 0.002942 0.000000
# 4 0.000000 0.000000 0.000000 0.058434 0.000000 -0.031718
# 5 0.000634 0.005913 0.002942 0.000000 0.025793 0.000000
# 6 0.000000 0.000000 0.000000 -0.031718 0.000000 0.071813
#
#
# Mechanical properties :
#
#
# Convention : Reuss Voigt Hill
#
# Bulk Modulus (GPa) = 25.97783 59.91660 42.94722
# Shear Modulus (GPa) = 21.92718 34.72806 28.32762
#
# Velocity S-wave (km/s) = 3.21563 4.04683 3.65494
# Velocity P-wave (km/s) = 5.10270 7.07749 6.16962
#
# Compressibility (1/GPa) = 0.03849436
#
# Stress axis : x y z
#
# Youngs Moduli (GPa) = 87.92592 38.70306 86.10201
#
# Poissons Ratio (x) = -0.02373 0.63913
# Poissons Ratio (y) = -0.05391 -0.14159
# Poissons Ratio (z) = 0.65267 -0.06364
#
# Static dielectric constant tensor:
#      x y z
#    x 1.725270 0.000000 -0.037000 
#    y 0.000000 1.817190 0.000000 
#    z -0.037000 0.000000 1.739920 
# 
# From -- ./inp_files/33721.got.cif
#   From: 2010.05.17/outbox.cif.g08.bks.cpg/sg10_17_cif.got.tgz:33721.got - 2010.06.03 11:33:40.
