data_PCOD9150649
_publ_section_title
;
Structure prediction by ZEFSAII (Michael W. Deem and Ramdas Pophale) SiO2 
 PCOD9150649
Probable space group: P 2/M
;
_chemical_formula_sum "Si O2"
_cell_formula_units_Z 22
_cell_length_a 15.379963
_cell_length_b 13.221115
_cell_length_c 6.043751
_cell_angle_alpha 90.000000
_cell_angle_beta 110.377613
_cell_angle_gamma 90.000000
_cell_volume 1152.028646
_symmetry_space_group_name_H-M "P 2/M"
_symmetry_group_IT_number 10
_symmetry_cell_setting 'monoclinic'
loop_
_space_group_symop_operation_xyz
x,y,z
-x,y,-z
-x,-y,-z
x,-y,z
loop_
_atom_site_type_symbol
_atom_site_label
_atom_site_fract_x
_atom_site_fract_y
_atom_site_fract_z
Si Si1 0.771172 0.385282 0.968806
Si Si2 0.602789 0.697299 0.065159
Si Si3 0.594344 0.887613 0.726471
Si Si4 0.729921 0.222398 0.558612
Si Si5 0.103852 0.702653 0.537235
Si Si6 0.046753 0.500000 0.287868
O O1 0.789327 0.500000 0.915778
O O2 0.754736 0.305751 0.762363
O O3 0.675778 0.379228 0.023406
O O4 0.851514 0.345071 0.201874
O O5 0.648663 0.732924 0.333522
O O6 0.500000 0.655488 0.000000
O O7 0.595624 0.797633 0.905267
O O8 0.500000 0.879771 0.500000
O O9 0.683296 0.870531 0.645750
O O10 0.597175 0.000000 0.828998
O O11 0.822780 0.215715 0.491898
O O12 0.096396 0.608626 0.358316
O O13 0.000000 0.739150 0.500000
O O14 0.000000 0.500000 0.500000
O O15 0.000000 0.500000 0.000000
#
# Coordination Sequence:
#
# PCOD9150649 Si02
#       6
#     4   4   4   4   4   2
#     4  10  22  36  52  81 114 156 200 233 281 334
#     4  10  20  37  54  79 115 147 186 236 283 347
#     4  10  20  36  61  87 108 138 181 235 301 357
#     4  10  22  35  56  81 116 148 187 240 282 351
#     4  10  22  35  55  82 116 156 195 243 290 337
#     4  10  22  34  56  88 116 157 212 257 300 350
#
# _framework density 19.096748000000002
#
# number of rings (size 3 to 8) (size 9 to 14) (size 15 to 20)
#    0.000    2.000    2.727    0.000    6.364    2.182 
#    0.000    0.909    0.000    0.545    0.000   11.455 
#    0.000    0.000    0.000    0.000    0.000    0.000 
#
# Total GULP energy -122608.867696 kJ/mol
# GULP energy per Si atom -5573.130350 kJ/mol
# Density = 1.905328 g / cm^3
# Si number density = 19.096748 Si / 1000 Ang^3
#
#
#
# Elastic Constant Matrix: (Units=GPa)
#
#
# Indices 1 2 3 4 5 6 
#
# 1 121.6016 5.9387 9.6598 0.0000 26.3114 0.0000
# 2 5.9387 55.6849 18.0701 0.0000 3.1682 0.0000
# 3 9.6598 18.0701 120.2264 0.0000 16.5909 0.0000
# 4 0.0000 0.0000 0.0000 15.9816 0.0000 -5.4678
# 5 26.3114 3.1682 16.5909 0.0000 26.0983 0.0000
# 6 0.0000 0.0000 0.0000 -5.4678 0.0000 12.1706
#
#
#
# Elastic Compliance Matrix: (Units=1/GPa)
#
#
# Indices 1 2 3 4 5 6 
#
# 1 0.010599 -0.000756 0.000794 0.000000 -0.011098 0.000000
# 2 -0.000756 0.018940 -0.002821 0.000000 0.000257 0.000000
# 3 0.000794 -0.002821 0.009582 0.000000 -0.006549 0.000000
# 4 0.000000 0.000000 0.000000 0.073937 0.000000 0.033217
# 5 -0.011098 0.000257 -0.006549 0.000000 0.053637 0.000000
# 6 0.000000 0.000000 0.000000 0.033217 0.000000 0.097089
#
#
# Mechanical properties :
#
#
# Convention : Reuss Voigt Hill
#
# Bulk Modulus (GPa) = 29.80462 40.53891 35.17177
# Shear Modulus (GPa) = 17.82308 28.43970 23.13139
#
# Velocity S-wave (km/s) = 3.05832 3.86326 3.48411
# Velocity P-wave (km/s) = 5.30209 6.41669 5.88583
#
# Compressibility (1/GPa) = 0.03355184
#
# Stress axis : x y z
#
# Youngs Moduli (GPa) = 94.35036 52.79893 104.36633
#
# Poissons Ratio (x) = 0.03994 -0.08283
# Poissons Ratio (y) = 0.07137 0.29445
# Poissons Ratio (z) = -0.07488 0.14896
#
# Static dielectric constant tensor:
#      x y z
#    x 1.775540 0.000000 -0.038370 
#    y 0.000000 1.626190 0.000000 
#    z -0.038370 0.000000 1.666800 
# 
# From -- ./inp_files/9099.got.cif
#   From: 2010.05.17/outbox.cif.g08.bks.cpg/sg10_5_cif.got.tgz:9099.got - 2010.06.03 11:33:40.
