data_PCOD9150381
_publ_section_title
;
Structure prediction by ZEFSAII (Michael W. Deem and Ramdas Pophale) SiO2 
 PCOD9150381
Probable space group: P 2/M
;
_chemical_formula_sum "Si O2"
_cell_formula_units_Z 24
_cell_length_a 13.376295
_cell_length_b 7.583705
_cell_length_c 9.870093
_cell_angle_alpha 90.000000
_cell_angle_beta 101.301724
_cell_angle_gamma 90.000000
_cell_volume 981.825446
_symmetry_space_group_name_H-M "P 2/M"
_symmetry_group_IT_number 10
_symmetry_cell_setting 'monoclinic'
loop_
_space_group_symop_operation_xyz
x,y,z
-x,y,-z
-x,-y,-z
x,-y,z
loop_
_atom_site_type_symbol
_atom_site_label
_atom_site_fract_x
_atom_site_fract_y
_atom_site_fract_z
Si Si1 0.563578 0.285386 0.733621
Si Si2 0.758040 0.300808 0.622034
Si Si3 0.019447 0.715863 0.353359
Si Si4 0.665311 0.198429 0.332635
Si Si5 0.680488 0.711866 0.020841
Si Si6 0.095317 0.714749 0.936094
O O1 0.556863 0.500000 0.724324
O O2 0.658565 0.223678 0.667723
O O3 0.453638 0.218362 0.661834
O O4 0.592282 0.230729 0.894751
O O5 0.765334 0.500000 0.679792
O O6 0.869856 0.221901 0.668565
O O7 0.732823 0.307934 0.455380
O O8 0.023701 0.500000 0.356902
O O9 0.000000 0.776245 0.500000
O O10 0.931624 0.764099 0.225143
O O11 0.671194 0.242750 0.175708
O O12 0.699520 0.000000 0.362167
O O13 0.679560 0.500000 0.013832
O O14 0.791269 0.774372 0.998024
O O15 0.096252 0.500000 0.944878
O O16 0.000000 0.775194 0.000000
#
# Coordination Sequence:
#
# PCOD9150381 Si02
#       6
#     4   4   4   4   4   4
#     4  10  21  37  58  83 109 140 181 227 276 328
#     4  10  20  36  58  83 111 143 180 224 273 324
#     4   9  16  27  48  79 110 138 169 208 258 315
#     4  12  25  38  54  78 109 147 189 229 271 321
#     4  10  20  36  59  85 113 144 178 221 273 326
#     4   9  16  28  51  84 114 136 167 216 269 320
#
# _framework density 24.444261999999998
#
# number of rings (size 3 to 8) (size 9 to 14) (size 15 to 20)
#    0.000    2.000    0.000    4.500    0.000   12.000 
#    0.000    0.000    0.000    5.000    0.000    0.000 
#    0.000    0.000    0.000    0.000    0.000    0.000 
#
# Total GULP energy -134235.039077 kJ/mol
# GULP energy per Si atom -5593.126628 kJ/mol
# Density = 2.438863 g / cm^3
# Si number density = 24.444262 Si / 1000 Ang^3
#
#
#
# Elastic Constant Matrix: (Units=GPa)
#
#
# Indices 1 2 3 4 5 6 
#
# 1 77.5188 -5.8563 -12.1742 0.0000 9.3795 0.0000
# 2 -5.8563 60.9100 -1.5330 0.0000 1.4620 0.0000
# 3 -12.1742 -1.5330 67.2350 0.0000 3.2320 0.0000
# 4 0.0000 0.0000 0.0000 -43.6989 0.0000 -51.5705
# 5 9.3795 1.4620 3.2320 0.0000 45.0596 0.0000
# 6 0.0000 0.0000 0.0000 -51.5705 0.0000 127.4305
#
#
#
# Elastic Compliance Matrix: (Units=1/GPa)
#
#
# Indices 1 2 3 4 5 6 
#
# 1 0.013810 0.001470 0.002684 0.000000 -0.003115 0.000000
# 2 0.001470 0.016598 0.000688 0.000000 -0.000894 0.000000
# 3 0.002684 0.000688 0.015456 0.000000 -0.001690 0.000000
# 4 0.000000 0.000000 0.000000 -0.015487 0.000000 -0.006268
# 5 -0.003115 -0.000894 -0.001690 0.000000 0.022991 0.000000
# 6 0.000000 0.000000 0.000000 -0.006268 0.000000 0.005311
#
#
# Mechanical properties :
#
#
# Convention : Reuss Voigt Hill
#
# Bulk Modulus (GPa) = 18.00308 18.50407 18.25358
# Shear Modulus (GPa) = 74.06204 40.77339 57.41771
#
# Velocity S-wave (km/s) = 5.51036 4.08856 4.85183
# Velocity P-wave (km/s) = 6.91856 5.46579 6.23463
#
# Compressibility (1/GPa) = 0.05554606
#
# Stress axis : x y z
#
# Youngs Moduli (GPa) = 72.41388 60.24908 64.69964
#
# Poissons Ratio (x) = -0.08857 -0.17364
# Poissons Ratio (y) = -0.10645 -0.04449
# Poissons Ratio (z) = -0.19434 -0.04143
#
# Static dielectric constant tensor:
#      x y z
#    x 1.906420 0.000000 -0.041590 
#    y 0.000000 1.969320 0.000000 
#    z -0.041590 0.000000 1.937670 
# 
# From -- ./inp_files/27336.got.cif
#   From: 2010.05.17/outbox.cif.g08.bks.cpg/sg10_14_cif.got.tgz:27336.got - 2010.06.03 11:33:40.
