data_PCOD9150031
_publ_section_title
;
Structure prediction by ZEFSAII (Michael W. Deem and Ramdas Pophale) SiO2 
 PCOD9150031
Probable space group: P 2/M
;
_chemical_formula_sum "Si O2"
_cell_formula_units_Z 32
_cell_length_a 24.074955
_cell_length_b 7.557260
_cell_length_c 14.821602
_cell_angle_alpha 90.000000
_cell_angle_beta 31.602610
_cell_angle_gamma 90.000000
_cell_volume 1413.112560
_symmetry_space_group_name_H-M "P 2/M"
_symmetry_group_IT_number 10
_symmetry_cell_setting 'monoclinic'
loop_
_space_group_symop_operation_xyz
x,y,z
-x,y,-z
-x,-y,-z
x,-y,z
loop_
_atom_site_type_symbol
_atom_site_label
_atom_site_fract_x
_atom_site_fract_y
_atom_site_fract_z
Si Si1 0.174536 0.707430 0.513583
Si Si2 0.606020 0.794263 0.400392
Si Si3 0.822881 0.702299 0.012906
Si Si4 0.734089 0.285951 0.950448
Si Si5 0.509956 0.285965 0.719636
Si Si6 0.008511 0.282309 0.884722
Si Si7 0.588886 0.716600 0.807533
Si Si8 0.094634 0.791997 0.431636
O O1 0.188653 0.500000 0.512054
O O2 0.292421 0.780028 0.335843
O O3 0.106185 0.722226 0.516908
O O4 0.112530 0.777415 0.686402
O O5 0.500000 0.721071 0.500000
O O6 0.711185 0.702926 0.219557
O O7 0.583782 0.778699 0.536795
O O8 0.616050 0.000000 0.360786
O O9 0.856682 0.500000 0.949160
O O10 0.799308 0.782040 0.947172
O O11 0.910458 0.779201 0.958355
O O12 0.730784 0.500000 0.960199
O O13 0.796498 0.238284 0.773650
O O14 0.612108 0.225448 0.122554
O O15 0.509190 0.500000 0.716973
O O16 0.554938 0.233068 0.753982
O O17 0.007135 0.500000 0.888456
O O18 0.000000 0.224709 0.000000
O O19 0.588328 0.500000 0.812773
O O20 0.500000 0.778326 0.000000
O O21 0.000000 0.716954 0.500000
O O22 0.075982 0.000000 0.466696
#
# Coordination Sequence:
#
# PCOD9150031 Si02
#       8
#     4   4   4   4   4   4   4   4
#     4  10  20  37  61  86 115 151 190 239 290 339
#     4  11  23  37  54  81 118 157 191 229 284 348
#     4  10  20  35  58  84 113 146 191 244 288 337
#     4  10  20  35  58  88 114 143 186 238 288 341
#     4  10  20  35  59  88 115 145 187 235 286 340
#     4   9  19  34  56  87 115 144 190 243 294 340
#     4   9  18  33  57  89 119 147 184 231 286 343
#     4  11  24  39  57  82 113 151 191 233 284 342
#
# _framework density 22.645047000000002
#
# number of rings (size 3 to 8) (size 9 to 14) (size 15 to 20)
#    0.000    2.000    1.250    2.250    1.750    5.500 
#    0.000    1.250    0.000    2.250    0.000    0.000 
#    0.000    0.000    0.000    0.000    0.000    0.000 
#
# Total GULP energy -178881.013670 kJ/mol
# GULP energy per Si atom -5590.031677 kJ/mol
# Density = 2.259351 g / cm^3
# Si number density = 22.645047 Si / 1000 Ang^3
#
#
#
# Elastic Constant Matrix: (Units=GPa)
#
#
# Indices 1 2 3 4 5 6 
#
# 1 129.1129 0.8563 51.5488 0.0000 11.0510 0.0000
# 2 0.8563 52.8443 -1.9021 0.0000 -6.0328 0.0000
# 3 51.5488 -1.9021 122.8958 0.0000 16.8423 0.0000
# 4 0.0000 0.0000 0.0000 -16.3481 0.0000 1.6129
# 5 11.0510 -6.0328 16.8423 0.0000 44.8145 0.0000
# 6 0.0000 0.0000 0.0000 1.6129 0.0000 -5.7423
#
#
#
# Elastic Compliance Matrix: (Units=1/GPa)
#
#
# Indices 1 2 3 4 5 6 
#
# 1 0.009344 -0.000394 -0.003798 0.000000 -0.000930 0.000000
# 2 -0.000394 0.019236 0.000100 0.000000 0.002649 0.000000
# 3 -0.003798 0.000100 0.010123 0.000000 -0.002854 0.000000
# 4 0.000000 0.000000 0.000000 -0.062912 0.000000 -0.017671
# 5 -0.000930 0.002649 -0.002854 0.000000 0.023973 0.000000
# 6 0.000000 0.000000 0.000000 -0.017671 0.000000 -0.179111
#
#
# Mechanical properties :
#
#
# Convention : Reuss Voigt Hill
#
# Bulk Modulus (GPa) = 32.76742 45.09545 38.93144
# Shear Modulus (GPa) = -31.05763 21.50149 -4.77807
#
# Velocity S-wave (km/s) = -3.70739 3.08474 -1.45415
# Velocity P-wave (km/s) = 1.95574 5.71356 3.79604
#
# Compressibility (1/GPa) = 0.03051812
#
# Stress axis : x y z
#
# Youngs Moduli (GPa) = 107.02417 51.98608 98.78759
#
# Poissons Ratio (x) = 0.02050 0.37518
# Poissons Ratio (y) = 0.04220 -0.00988
# Poissons Ratio (z) = 0.40647 -0.00520
#
# Static dielectric constant tensor:
#      x y z
#    x 1.824670 0.000000 -0.016060 
#    y 0.000000 1.863970 0.000000 
#    z -0.016060 0.000000 1.811770 
# 
# From -- ./inp_files/71500.got.cif
#   From: 2010.05.17/outbox.cif.g08.bks.cpg/sg10_36_cif.got.tgz:71500.got - 2010.06.03 11:33:40.
