data_PCOD9150303
_publ_section_title
;
Structure prediction by ZEFSAII (Michael W. Deem and Ramdas Pophale) SiO2 
 PCOD9150303
Probable space group: P 2/M
;
_chemical_formula_sum "Si O2"
_cell_formula_units_Z 32
_cell_length_a 16.478899
_cell_length_b 7.670257
_cell_length_c 25.062963
_cell_angle_alpha 90.000000
_cell_angle_beta 26.833303
_cell_angle_gamma 90.000000
_cell_volume 1429.975161
_symmetry_space_group_name_H-M "P 2/M"
_symmetry_group_IT_number 10
_symmetry_cell_setting 'monoclinic'
loop_
_space_group_symop_operation_xyz
x,y,z
-x,y,-z
-x,-y,-z
x,-y,z
loop_
_atom_site_type_symbol
_atom_site_label
_atom_site_fract_x
_atom_site_fract_y
_atom_site_fract_z
Si Si1 0.735319 0.202808 0.999310
Si Si2 0.575726 0.298628 0.320691
Si Si3 0.133014 0.798094 0.769417
Si Si4 0.730328 0.700661 0.422612
Si Si5 0.022492 0.796060 0.332338
Si Si6 0.571719 0.788361 0.898937
Si Si7 0.146457 0.710694 0.456688
Si Si8 0.444679 0.288705 0.787407
O O1 0.572227 0.278286 0.059766
O O2 0.680336 0.214844 0.093212
O O3 0.749496 0.000000 0.974362
O O4 0.934584 0.278120 0.875522
O O5 0.518663 0.500000 0.346047
O O6 0.757713 0.291210 0.247418
O O7 0.420932 0.220146 0.449473
O O8 0.594460 0.227812 0.250009
O O9 0.243444 0.787557 0.649747
O O10 0.113392 0.000000 0.796439
O O11 0.681369 0.500000 0.440340
O O12 0.915877 0.708387 0.346687
O O13 0.222771 0.726417 0.226388
O O14 0.906130 0.775743 0.454051
O O15 0.037576 0.000000 0.309343
O O16 0.579848 0.000000 0.888548
O O17 0.500000 0.749108 0.000000
O O18 0.141011 0.500000 0.461821
O O19 0.348186 0.760628 0.322874
O O20 0.000000 0.771988 0.500000
O O21 0.428963 0.500000 0.799056
#
# Coordination Sequence:
#
# PCOD9150303 Si02
#       8
#     4   4   4   4   4   4   4   4
#     4  10  22  40  60  85 120 158 197 246 299 352
#     4  10  22  41  62  85 117 157 197 240 298 359
#     4  11  24  40  61  90 119 150 197 251 303 351
#     4  11  22  40  63  87 121 158 196 240 298 363
#     4  11  21  33  57  89 117 150 195 243 293 348
#     4   9  18  35  57  81 116 159 196 235 291 351
#     4  10  20  36  57  82 116 156 195 240 292 346
#     4  10  21  39  60  84 117 157 200 242 289 352
#
# _framework density 22.378011999999998
#
# number of rings (size 3 to 8) (size 9 to 14) (size 15 to 20)
#    0.000    1.750    1.250    3.000    0.000    7.250 
#    0.000    3.125    0.000    2.625    0.000    0.000 
#    0.000    0.000    0.000    0.000    0.000    0.000 
#
# Total GULP energy -178895.521017 kJ/mol
# GULP energy per Si atom -5590.485032 kJ/mol
# Density = 2.232708 g / cm^3
# Si number density = 22.378012 Si / 1000 Ang^3
#
#
#
# Elastic Constant Matrix: (Units=GPa)
#
#
# Indices 1 2 3 4 5 6 
#
# 1 120.4976 -6.9190 14.7131 0.0000 -4.3165 0.0000
# 2 -6.9190 41.3987 -4.7432 0.0000 -4.8117 0.0000
# 3 14.7131 -4.7432 72.4058 0.0000 -2.6391 0.0000
# 4 0.0000 0.0000 0.0000 19.4209 0.0000 0.1838
# 5 -4.3165 -4.8117 -2.6391 0.0000 32.9860 0.0000
# 6 0.0000 0.0000 0.0000 0.1838 0.0000 20.5188
#
#
#
# Elastic Compliance Matrix: (Units=1/GPa)
#
#
# Indices 1 2 3 4 5 6 
#
# 1 0.008619 0.001395 -0.001616 0.000000 0.001202 0.000000
# 2 0.001395 0.025020 0.001500 0.000000 0.003952 0.000000
# 3 -0.001616 0.001500 0.014280 0.000000 0.001150 0.000000
# 4 0.000000 0.000000 0.000000 0.051495 0.000000 -0.000461
# 5 0.001202 0.003952 0.001150 0.000000 0.031142 0.000000
# 6 0.000000 0.000000 0.000000 -0.000461 0.000000 0.048740
#
#
# Mechanical properties :
#
#
# Convention : Reuss Voigt Hill
#
# Bulk Modulus (GPa) = 19.81159 26.71154 23.26156
# Shear Modulus (GPa) = 25.83126 30.00189 27.91657
#
# Velocity S-wave (km/s) = 3.40121 3.66551 3.53583
# Velocity P-wave (km/s) = 4.92916 5.46599 5.20450
#
# Compressibility (1/GPa) = 0.05047551
#
# Stress axis : x y z
#
# Youngs Moduli (GPa) = 116.01674 39.96854 70.02981
#
# Poissons Ratio (x) = -0.05576 0.11319
# Poissons Ratio (y) = -0.16186 -0.10501
# Poissons Ratio (z) = 0.18752 -0.05994
#
# Static dielectric constant tensor:
#      x y z
#    x 1.798030 0.000000 -0.029690 
#    y 0.000000 1.824450 0.000000 
#    z -0.029690 0.000000 1.817760 
# 
# From -- ./inp_files/89514.got.cif
#   From: 2010.05.17/outbox.cif.g08.bks.cpg/sg10_45_cif.got.tgz:89514.got - 2010.06.03 11:33:40.
