data_PCOD9150214
_publ_section_title
;
Structure prediction by ZEFSAII (Michael W. Deem and Ramdas Pophale) SiO2 
 PCOD9150214
Probable space group: P 2/M
;
_chemical_formula_sum "Si O2"
_cell_formula_units_Z 21
_cell_length_a 14.302788
_cell_length_b 11.642134
_cell_length_c 11.126309
_cell_angle_alpha 90.000000
_cell_angle_beta 147.850943
_cell_angle_gamma 90.000000
_cell_volume 985.864006
_symmetry_space_group_name_H-M "P 2/M"
_symmetry_group_IT_number 10
_symmetry_cell_setting 'monoclinic'
loop_
_space_group_symop_operation_xyz
x,y,z
-x,y,-z
-x,-y,-z
x,-y,z
loop_
_atom_site_type_symbol
_atom_site_label
_atom_site_fract_x
_atom_site_fract_y
_atom_site_fract_z
Si Si1 0.019293 0.000000 0.379250
Si Si2 0.802246 0.686871 0.626697
Si Si3 0.711104 0.866991 0.718702
Si Si4 0.522370 0.741785 0.879526
Si Si5 0.567092 0.000000 0.209218
Si Si6 0.862941 0.237675 0.121621
Si Si7 0.000000 0.500000 0.000000
O O1 0.000000 0.000000 0.500000
O O2 0.924917 0.114157 0.234152
O O3 0.222525 0.000000 0.562125
O O4 0.779893 0.808314 0.671911
O O5 0.623609 0.673092 0.355689
O O6 0.962495 0.689278 0.707279
O O7 0.866321 0.598390 0.797033
O O8 0.500000 0.865243 0.500000
O O9 0.767957 0.000000 0.789001
O O10 0.779798 0.788892 0.901809
O O11 0.500854 0.877461 0.817278
O O12 0.500000 0.734253 0.000000
O O13 0.717339 0.709727 0.050213
O O14 0.500000 0.000000 0.000000
#
# Coordination Sequence:
#
# PCOD9150214 Si02
#       7
#     2   4   4   4   2   4   1
#     4  12  22  34  59 101 147 194 221 264 336 431
#     4  12  26  45  71  99 137 180 234 298 354 409
#     4  11  23  40  66 103 143 181 223 280 358 431
#     4  11  24  42  65 101 143 183 226 273 343 426
#     4  10  20  36  55  93 148 187 218 260 319 419
#     4  12  23  39  64  97 137 184 227 275 340 413
#     4  12  28  52  74 102 130 176 256 312 354 406
#
# _framework density 21.301112
#
# number of rings (size 3 to 8) (size 9 to 14) (size 15 to 20)
#    0.000    0.571    6.667    2.857    2.667    0.762 
#    0.000    4.762    0.000    1.143    0.000    0.000 
#    0.000    0.000    0.000    0.000    0.000    0.000 
#
# Total GULP energy -117090.791776 kJ/mol
# GULP energy per Si atom -5575.751989 kJ/mol
# Density = 2.125263 g / cm^3
# Si number density = 21.301112 Si / 1000 Ang^3
#
#
#
# Elastic Constant Matrix: (Units=GPa)
#
#
# Indices 1 2 3 4 5 6 
#
# 1 113.3689 7.3489 32.4606 0.0000 21.2238 0.0000
# 2 7.3489 53.8153 16.9015 0.0000 -0.0119 0.0000
# 3 32.4606 16.9015 109.4300 0.0000 11.0400 0.0000
# 4 0.0000 0.0000 0.0000 23.1167 0.0000 0.8992
# 5 21.2238 -0.0119 11.0400 0.0000 49.1277 0.0000
# 6 0.0000 0.0000 0.0000 0.8992 0.0000 -9.7024
#
#
#
# Elastic Compliance Matrix: (Units=1/GPa)
#
#
# Indices 1 2 3 4 5 6 
#
# 1 0.010325 -0.000601 -0.002578 0.000000 -0.003881 0.000000
# 2 -0.000601 0.019588 -0.002940 0.000000 0.000925 0.000000
# 3 -0.002578 -0.002940 0.010483 0.000000 -0.001243 0.000000
# 4 0.000000 0.000000 0.000000 0.043103 0.000000 0.003995
# 5 -0.003881 0.000925 -0.001243 0.000000 0.022311 0.000000
# 6 0.000000 0.000000 0.000000 0.003995 0.000000 -0.102697
#
#
# Mechanical properties :
#
#
# Convention : Reuss Voigt Hill
#
# Bulk Modulus (GPa) = 35.51688 43.33735 39.42712
# Shear Modulus (GPa) = 202.12910 27.16863 114.64886
#
# Velocity S-wave (km/s) = 9.75179 3.57523 7.34437
# Velocity P-wave (km/s) = 11.97941 6.11819 9.51154
#
# Compressibility (1/GPa) = 0.02815562
#
# Stress axis : x y z
#
# Youngs Moduli (GPa) = 96.85693 51.05206 95.39667
#
# Poissons Ratio (x) = 0.03068 0.24595
# Poissons Ratio (y) = 0.05821 0.28050
# Poissons Ratio (z) = 0.24972 0.15011
#
# Static dielectric constant tensor:
#      x y z
#    x 1.818760 0.000000 -0.060080 
#    y 0.000000 1.758740 0.000000 
#    z -0.060080 0.000000 1.928970 
# 
# From -- ./inp_files/51152.got.cif
#   From: 2010.05.17/outbox.cif.g08.bks.cpg/sg10_26_cif.got.tgz:51152.got - 2010.06.03 11:33:40.
