data_PCOD9150606
_publ_section_title
;
Structure prediction by ZEFSAII (Michael W. Deem and Ramdas Pophale) SiO2 
 PCOD9150606
Probable space group: P 2/M
;
_chemical_formula_sum "Si O2"
_cell_formula_units_Z 24
_cell_length_a 18.838408
_cell_length_b 8.190144
_cell_length_c 15.660636
_cell_angle_alpha 90.000000
_cell_angle_beta 23.717326
_cell_angle_gamma 90.000000
_cell_volume 971.882618
_symmetry_space_group_name_H-M "P 2/M"
_symmetry_group_IT_number 10
_symmetry_cell_setting 'monoclinic'
loop_
_space_group_symop_operation_xyz
x,y,z
-x,y,-z
-x,-y,-z
x,-y,z
loop_
_atom_site_type_symbol
_atom_site_label
_atom_site_fract_x
_atom_site_fract_y
_atom_site_fract_z
Si Si1 0.074408 0.814527 0.030278
Si Si2 0.826721 0.317338 0.440790
Si Si3 0.851212 0.679621 0.777538
Si Si4 0.649527 0.000000 0.709799
Si Si5 0.608065 0.812591 0.180574
Si Si6 0.657794 0.309700 0.395646
Si Si7 0.756509 0.000000 0.781861
O O1 0.238085 0.806748 0.917130
O O2 0.170975 0.770199 0.835351
O O3 0.009800 0.000000 0.100045
O O4 0.927648 0.705838 0.238846
O O5 0.748342 0.500000 0.530616
O O6 0.702687 0.164312 0.600458
O O7 0.981234 0.310732 0.343311
O O8 0.849880 0.500000 0.737860
O O9 0.839351 0.835102 0.729310
O O10 0.679315 0.698286 0.027678
O O11 0.761727 0.000000 0.674125
O O12 0.448866 0.000000 0.963317
O O13 0.429045 0.763288 0.424361
O O14 0.600710 0.000000 0.160181
O O15 0.500000 0.291905 0.500000
O O16 0.691099 0.500000 0.368998
#
# Coordination Sequence:
#
# PCOD9150606 Si02
#       7
#     4   4   4   2   4   4   2
#     4   9  15  25  43  70 107 147 183 222 270 322
#     4  10  20  36  60  88 116 147 185 231 282 333
#     4  10  20  36  60  88 116 147 185 231 282 333
#     4  11  25  43  61  82 111 146 184 229 281 341
#     4   9  15  25  43  70 107 147 183 222 270 322
#     4   9  15  21  33  63 107 148 183 219 265 319
#     4  11  25  43  61  82 111 146 184 229 281 341
#
# _framework density 24.694341000000001
#
# number of rings (size 3 to 8) (size 9 to 14) (size 15 to 20)
#    0.000    2.333    1.667    2.000    0.000    8.667 
#    0.000    3.333    0.000    0.000    0.000    2.333 
#    0.000    4.000    0.000    0.000    0.000    0.000 
#
# Total GULP energy -134431.537180 kJ/mol
# GULP energy per Si atom -5601.314049 kJ/mol
# Density = 2.463814 g / cm^3
# Si number density = 24.694341 Si / 1000 Ang^3
#
#
#
# Elastic Constant Matrix: (Units=GPa)
#
#
# Indices 1 2 3 4 5 6 
#
# 1 88.1239 30.5750 39.8035 0.0000 12.5160 0.0000
# 2 30.5750 171.0524 86.5801 0.0000 7.9170 0.0000
# 3 39.8035 86.5801 137.8481 0.0000 4.0827 0.0000
# 4 0.0000 0.0000 0.0000 -17.4929 0.0000 -26.9476
# 5 12.5160 7.9170 4.0827 0.0000 52.5459 0.0000
# 6 0.0000 0.0000 0.0000 -26.9476 0.0000 14.3680
#
#
#
# Elastic Compliance Matrix: (Units=1/GPa)
#
#
# Indices 1 2 3 4 5 6 
#
# 1 0.013512 -0.000514 -0.003494 0.000000 -0.002869 0.000000
# 2 -0.000514 0.008631 -0.005250 0.000000 -0.000770 0.000000
# 3 -0.003494 -0.005250 0.011539 0.000000 0.000727 0.000000
# 4 0.000000 0.000000 0.000000 -0.014698 0.000000 -0.027568
# 5 -0.002869 -0.000770 0.000727 0.000000 0.019774 0.000000
# 6 0.000000 0.000000 0.000000 -0.027568 0.000000 0.017895
#
#
# Mechanical properties :
#
#
# Convention : Reuss Voigt Hill
#
# Bulk Modulus (GPa) = 65.93412 78.99352 72.46382
# Shear Modulus (GPa) = 62.32680 25.88857 44.10769
#
# Velocity S-wave (km/s) = 5.02932 3.24135 4.23087
# Velocity P-wave (km/s) = 7.77712 6.78723 7.29897
#
# Compressibility (1/GPa) = 0.01516666
#
# Stress axis : x y z
#
# Youngs Moduli (GPa) = 74.01091 115.86323 86.66361
#
# Poissons Ratio (x) = 0.05955 0.30277
# Poissons Ratio (y) = 0.03804 0.45496
# Poissons Ratio (z) = 0.25857 0.60825
#
# Static dielectric constant tensor:
#      x y z
#    x 2.078010 0.000000 -0.022400 
#    y 0.000000 1.863960 0.000000 
#    z -0.022400 0.000000 1.924360 
# 
# From -- ./inp_files/80066.got.cif
#   From: 2010.05.17/outbox.cif.g08.bks.cpg/sg10_41_cif.got.tgz:80066.got - 2010.06.03 11:33:40.
