data_PCOD9150662
_publ_section_title
;
Structure prediction by ZEFSAII (Michael W. Deem and Ramdas Pophale) SiO2 
 PCOD9150662
Probable space group: P 2/M
;
_chemical_formula_sum "Si O2"
_cell_formula_units_Z 28
_cell_length_a 9.967294
_cell_length_b 23.469591
_cell_length_c 10.395745
_cell_angle_alpha 90.000000
_cell_angle_beta 39.983772
_cell_angle_gamma 90.000000
_cell_volume 1562.641196
_symmetry_space_group_name_H-M "P 2/M"
_symmetry_group_IT_number 10
_symmetry_cell_setting 'monoclinic'
loop_
_space_group_symop_operation_xyz
x,y,z
-x,y,-z
-x,-y,-z
x,-y,z
loop_
_atom_site_type_symbol
_atom_site_label
_atom_site_fract_x
_atom_site_fract_y
_atom_site_fract_z
Si Si1 0.819792 0.657340 0.523328
Si Si2 0.896717 0.354968 0.934833
Si Si3 0.530668 0.064851 0.618230
Si Si4 0.362312 0.135625 0.977501
Si Si5 0.989548 0.063410 0.660692
Si Si6 0.539558 0.731518 0.120492
Si Si7 0.478811 0.566242 0.860906
O O1 0.670888 0.712769 0.650525
O O2 0.661823 0.604870 0.665852
O O3 0.000000 0.658302 0.500000
O O4 0.930418 0.651342 0.304242
O O5 0.734001 0.302825 0.035954
O O6 0.745412 0.408978 0.017942
O O7 0.000000 0.356657 0.000000
O O8 0.500000 0.089875 0.500000
O O9 0.775859 0.062175 0.463159
O O10 0.446188 0.000000 0.681368
O O11 0.428271 0.101143 0.804436
O O12 0.133177 0.114889 0.184290
O O13 0.500000 0.118186 0.000000
O O14 0.404885 0.202049 0.922817
O O15 0.000000 0.071233 0.500000
O O16 0.893798 0.000000 0.755669
O O17 0.500000 0.713915 0.000000
O O18 0.500471 0.500000 0.810977
O O19 0.500000 0.571556 0.000000
#
# Coordination Sequence:
#
# PCOD9150662 Si02
#       7
#     4   4   4   4   4   4   4
#     4  11  19  39  67  84 115 167 203 239 295 350
#     4  11  23  41  61  89 123 160 200 250 301 344
#     4  10  22  40  59  86 121 155 192 240 301 365
#     4  11  22  38  60  88 116 152 197 251 298 348
#     4  10  20  36  61  88 115 152 195 237 294 363
#     4  10  22  40  59  88 114 152 209 248 289 359
#     4  10  21  37  62  97 128 156 205 247 282 358
#
# _framework density 17.918382000000001
#
# number of rings (size 3 to 8) (size 9 to 14) (size 15 to 20)
#    0.000    1.571    4.286    1.286    0.000    5.714 
#    5.143    2.857    0.000    0.000    0.000    0.000 
#    0.000    0.000    0.000    0.000    0.000    0.000 
#
# Total GULP energy -156231.492249 kJ/mol
# GULP energy per Si atom -5579.696152 kJ/mol
# Density = 1.787760 g / cm^3
# Si number density = 17.918382 Si / 1000 Ang^3
#
#
#
# Elastic Constant Matrix: (Units=GPa)
#
#
# Indices 1 2 3 4 5 6 
#
# 1 128.7987 31.4078 55.8427 0.0000 18.7842 0.0000
# 2 31.4078 91.3759 50.6240 0.0000 5.2617 0.0000
# 3 55.8427 50.6240 128.4327 0.0000 3.6471 0.0000
# 4 0.0000 0.0000 0.0000 78.9941 0.0000 36.5751
# 5 18.7842 5.2617 3.6471 0.0000 29.4396 0.0000
# 6 0.0000 0.0000 0.0000 36.5751 0.0000 36.0391
#
#
#
# Elastic Compliance Matrix: (Units=1/GPa)
#
#
# Indices 1 2 3 4 5 6 
#
# 1 0.010671 -0.001076 -0.004042 0.000000 -0.006115 0.000000
# 2 -0.001076 0.014208 -0.005098 0.000000 -0.001221 0.000000
# 3 -0.004042 -0.005098 0.011494 0.000000 0.002066 0.000000
# 4 0.000000 0.000000 0.000000 0.023881 0.000000 -0.024236
# 5 -0.006115 -0.001221 0.002066 0.000000 0.037832 0.000000
# 6 0.000000 0.000000 0.000000 -0.024236 0.000000 0.052344
#
#
# Mechanical properties :
#
#
# Convention : Reuss Voigt Hill
#
# Bulk Modulus (GPa) = 62.72916 69.37294 66.05105
# Shear Modulus (GPa) = 28.38079 42.94343 35.66211
#
# Velocity S-wave (km/s) = 3.98413 4.90083 4.46606
# Velocity P-wave (km/s) = 7.49991 8.41572 7.97098
#
# Compressibility (1/GPa) = 0.01594155
#
# Stress axis : x y z
#
# Youngs Moduli (GPa) = 93.71379 70.38108 87.00023
#
# Poissons Ratio (x) = 0.07576 0.35163
# Poissons Ratio (y) = 0.10088 0.44351
# Poissons Ratio (z) = 0.37876 0.35879
#
# Static dielectric constant tensor:
#      x y z
#    x 1.594260 0.000000 -0.008010 
#    y 0.000000 1.626500 0.000000 
#    z -0.008010 0.000000 1.605530 
# 
# From -- ./inp_files/20823.got.cif
#   From: 2010.05.17/outbox.cif.g08.bks.cpg/sg10_11_cif.got.tgz:20823.got - 2010.06.03 11:33:40.
