data_PCOD9150944
_publ_section_title
;
Structure prediction by ZEFSAII (Michael W. Deem and Ramdas Pophale) SiO2 
 PCOD9150944
Probable space group: P 2/M
;
_chemical_formula_sum "Si O2"
_cell_formula_units_Z 32
_cell_length_a 22.973665
_cell_length_b 14.191317
_cell_length_c 15.993548
_cell_angle_alpha 90.000000
_cell_angle_beta 161.130758
_cell_angle_gamma 90.000000
_cell_volume 1686.361030
_symmetry_space_group_name_H-M "P 2/M"
_symmetry_group_IT_number 10
_symmetry_cell_setting 'monoclinic'
loop_
_space_group_symop_operation_xyz
x,y,z
-x,y,-z
-x,-y,-z
x,-y,z
loop_
_atom_site_type_symbol
_atom_site_label
_atom_site_fract_x
_atom_site_fract_y
_atom_site_fract_z
Si Si1 0.218877 0.105044 0.488436
Si Si2 0.365818 0.106981 0.916101
Si Si3 0.767466 0.108229 0.075651
Si Si4 0.851201 0.388695 0.062410
Si Si5 0.936577 0.602122 0.816494
Si Si6 0.914372 0.228125 0.551537
Si Si7 0.535983 0.762162 0.645523
Si Si8 0.201330 0.221165 0.309444
O O1 0.093394 0.176245 0.368887
O O2 0.239928 0.132862 0.420470
O O3 0.146830 0.000000 0.398127
O O4 0.419316 0.108576 0.799016
O O5 0.320512 0.113157 0.952813
O O6 0.271718 0.196557 0.744554
O O7 0.303469 0.000000 0.804694
O O8 0.942606 0.172987 0.310753
O O9 0.812097 0.000000 0.118787
O O10 0.639289 0.152900 0.831510
O O11 0.836772 0.500000 0.063402
O O12 0.907250 0.383358 0.039984
O O13 0.010023 0.332697 0.328243
O O14 0.667990 0.329545 0.829488
O O15 0.855414 0.500000 0.687044
O O16 0.802599 0.689175 0.633438
O O17 0.000000 0.599205 0.000000
O O18 0.500000 0.780773 0.500000
O O19 0.347249 0.755816 0.437754
O O20 0.000000 0.209374 0.000000
#
# Coordination Sequence:
#
# PCOD9150944 Si02
#       8
#     4   4   4   4   4   4   4   4
#     4  11  22  37  57  87 120 155 196 240 286 344
#     4  10  20  37  60  87 119 156 200 245 287 340
#     4  10  21  37  57  86 120 155 199 244 288 345
#     4  10  22  40  61  88 119 150 194 250 299 353
#     4   9  17  33  58  82 107 144 189 237 291 344
#     4  11  21  36  61  88 114 153 195 242 300 350
#     4  11  23  37  59  86 118 159 199 241 296 352
#     4  11  22  37  57  83 120 156 197 241 291 350
#
# _framework density 18.975770000000001
#
# number of rings (size 3 to 8) (size 9 to 14) (size 15 to 20)
#    0.000    1.625    2.500    3.375    1.750    3.250 
#    0.000    0.000    0.000    8.250    0.000    0.000 
#    0.000    0.000    0.000    0.000    0.000    0.000 
#
# Total GULP energy -178344.074519 kJ/mol
# GULP energy per Si atom -5573.252329 kJ/mol
# Density = 1.893258 g / cm^3
# Si number density = 18.975770 Si / 1000 Ang^3
#
#
#
# Elastic Constant Matrix: (Units=GPa)
#
#
# Indices 1 2 3 4 5 6 
#
# 1 80.4317 28.0779 10.9271 0.0000 7.0529 0.0000
# 2 28.0779 72.6193 8.8965 0.0000 -16.9862 0.0000
# 3 10.9271 8.8965 52.5425 0.0000 -5.8240 0.0000
# 4 0.0000 0.0000 0.0000 18.0184 0.0000 -0.1927
# 5 7.0529 -16.9862 -5.8240 0.0000 31.4588 0.0000
# 6 0.0000 0.0000 0.0000 -0.1927 0.0000 25.8803
#
#
#
# Elastic Compliance Matrix: (Units=1/GPa)
#
#
# Indices 1 2 3 4 5 6 
#
# 1 0.016363 -0.007951 -0.003001 0.000000 -0.008517 0.000000
# 2 -0.007951 0.019786 -0.000321 0.000000 0.012407 0.000000
# 3 -0.003001 -0.000321 0.020180 0.000000 0.004235 0.000000
# 4 0.000000 0.000000 0.000000 0.055503 0.000000 0.000413
# 5 -0.008517 0.012407 0.004235 0.000000 0.041180 0.000000
# 6 0.000000 0.000000 0.000000 0.000413 0.000000 0.038643
#
#
# Mechanical properties :
#
#
# Convention : Reuss Voigt Hill
#
# Bulk Modulus (GPa) = 29.60116 33.48850 31.54483
# Shear Modulus (GPa) = 22.17651 25.58428 23.88039
#
# Velocity S-wave (km/s) = 3.42230 3.67585 3.55134
# Velocity P-wave (km/s) = 5.59012 5.97513 5.78583
#
# Compressibility (1/GPa) = 0.03378246
#
# Stress axis : x y z
#
# Youngs Moduli (GPa) = 61.11260 50.54017 49.55364
#
# Poissons Ratio (x) = 0.40187 0.14870
# Poissons Ratio (y) = 0.48593 0.01592
# Poissons Ratio (z) = 0.18339 0.01624
#
# Static dielectric constant tensor:
#      x y z
#    x 1.691490 0.000000 -0.008170 
#    y 0.000000 1.684030 0.000000 
#    z -0.008170 0.000000 1.701210 
# 
# From -- ./inp_files/70792.got.cif
#   From: 2010.05.17/outbox.cif.g08.bks.cpg/sg10_36_cif.got.tgz:70792.got - 2010.06.03 11:33:40.
