data_PCOD9150898
_publ_section_title
;
Structure prediction by ZEFSAII (Michael W. Deem and Ramdas Pophale) SiO2 
 PCOD9150898
Probable space group: P 2/M
;
_chemical_formula_sum "Si O2"
_cell_formula_units_Z 24
_cell_length_a 7.603315
_cell_length_b 9.195029
_cell_length_c 21.341297
_cell_angle_alpha 90.000000
_cell_angle_beta 43.499342
_cell_angle_gamma 90.000000
_cell_volume 1027.031690
_symmetry_space_group_name_H-M "P 2/M"
_symmetry_group_IT_number 10
_symmetry_cell_setting 'monoclinic'
loop_
_space_group_symop_operation_xyz
x,y,z
-x,y,-z
-x,-y,-z
x,-y,z
loop_
_atom_site_type_symbol
_atom_site_label
_atom_site_fract_x
_atom_site_fract_y
_atom_site_fract_z
Si Si1 0.959417 0.829124 0.794831
Si Si2 0.272710 0.341939 0.391454
Si Si3 0.641473 0.826121 0.070826
Si Si4 0.106751 0.324621 0.879701
Si Si5 0.595994 0.159714 0.535115
Si Si6 0.107261 0.160887 0.329550
O O1 0.650236 0.808345 0.875993
O O2 0.097207 0.729847 0.810442
O O3 0.010050 0.801871 0.707627
O O4 0.010435 0.000000 0.795077
O O5 0.389607 0.500000 0.364715
O O6 0.425566 0.227023 0.392405
O O7 0.256113 0.290127 0.324532
O O8 0.000000 0.351637 0.500000
O O9 0.691966 0.759350 0.127027
O O10 0.698329 0.000000 0.054863
O O11 0.836963 0.735930 0.977304
O O12 0.126351 0.500000 0.880033
O O13 0.500000 0.249283 0.500000
O O14 0.889214 0.142228 0.438796
O O15 0.474040 0.000000 0.567509
O O16 0.231865 0.000000 0.290222
#
# Coordination Sequence:
#
# PCOD9150898 Si02
#       6
#     4   4   4   4   4   4
#     4  10  21  37  57  81 110 147 187 227 274 323
#     4   9  17  30  49  71  97 131 167 206 254 308
#     4  10  20  37  60  82 107 144 189 230 267 319
#     4  11  22  36  57  84 114 145 179 225 275 329
#     4   9  17  31  52  76 100 131 173 218 259 306
#     4   9  18  34  53  74 101 134 174 218 261 310
#
# _framework density 23.368313000000001
#
# number of rings (size 3 to 8) (size 9 to 14) (size 15 to 20)
#    0.000    2.333    0.000    4.000    0.000    6.333 
#    3.000    0.000    0.000    0.000    0.000    0.000 
#    0.000    0.000    0.000    0.000    0.000    0.000 
#
# Total GULP energy -133885.038357 kJ/mol
# GULP energy per Si atom -5578.543265 kJ/mol
# Density = 2.331513 g / cm^3
# Si number density = 23.368313 Si / 1000 Ang^3
#
#
#
# Elastic Constant Matrix: (Units=GPa)
#
#
# Indices 1 2 3 4 5 6 
#
# 1 63.9744 42.9801 10.6535 0.0000 39.7732 0.0000
# 2 42.9801 128.8809 24.0769 0.0000 38.7958 0.0000
# 3 10.6535 24.0769 109.1533 0.0000 16.3559 0.0000
# 4 0.0000 0.0000 0.0000 7.1197 0.0000 -0.3248
# 5 39.7732 38.7958 16.3559 0.0000 48.5355 0.0000
# 6 0.0000 0.0000 0.0000 -0.3248 0.0000 21.5549
#
#
#
# Elastic Compliance Matrix: (Units=1/GPa)
#
#
# Indices 1 2 3 4 5 6 
#
# 1 0.033394 -0.003964 0.001307 0.000000 -0.024636 0.000000
# 2 -0.003964 0.010812 -0.001253 0.000000 -0.004971 0.000000
# 3 0.001307 -0.001253 0.009816 0.000000 -0.003377 0.000000
# 4 0.000000 0.000000 0.000000 0.140553 0.000000 0.002118
# 5 -0.024636 -0.004971 -0.003377 0.000000 0.045904 0.000000
# 6 0.000000 0.000000 0.000000 0.002118 0.000000 0.046425
#
#
# Mechanical properties :
#
#
# Convention : Reuss Voigt Hill
#
# Bulk Modulus (GPa) = 21.64487 50.82553 36.23520
# Shear Modulus (GPa) = 16.12256 30.39523 23.25890
#
# Velocity S-wave (km/s) = 2.62951 3.61044 3.15829
# Velocity P-wave (km/s) = 4.30136 6.25918 5.37024
#
# Compressibility (1/GPa) = 0.04620032
#
# Stress axis : x y z
#
# Youngs Moduli (GPa) = 29.94591 92.49262 101.87106
#
# Poissons Ratio (x) = 0.36668 -0.13312
# Poissons Ratio (y) = 0.11872 0.12764
# Poissons Ratio (z) = -0.03913 0.11589
#
# Static dielectric constant tensor:
#      x y z
#    x 1.907000 0.000000 -0.078770 
#    y 0.000000 1.845550 0.000000 
#    z -0.078770 0.000000 2.014180 
# 
# From -- ./inp_files/81930.got.cif
#   From: 2010.05.17/outbox.cif.g08.bks.cpg/sg10_41_cif.got.tgz:81930.got - 2010.06.03 11:33:40.
