data_PCOD9150465
_publ_section_title
;
Structure prediction by ZEFSAII (Michael W. Deem and Ramdas Pophale) SiO2 
 PCOD9150465
Probable space group: P 2/M
;
_chemical_formula_sum "Si O2"
_cell_formula_units_Z 32
_cell_length_a 15.300984
_cell_length_b 9.373314
_cell_length_c 11.740489
_cell_angle_alpha 90.000000
_cell_angle_beta 83.893010
_cell_angle_gamma 90.000000
_cell_volume 1674.276031
_symmetry_space_group_name_H-M "P 2/M"
_symmetry_group_IT_number 10
_symmetry_cell_setting 'monoclinic'
loop_
_space_group_symop_operation_xyz
x,y,z
-x,y,-z
-x,-y,-z
x,-y,z
loop_
_atom_site_type_symbol
_atom_site_label
_atom_site_fract_x
_atom_site_fract_y
_atom_site_fract_z
Si Si1 0.746059 0.832686 0.049962
Si Si2 0.967233 0.168805 0.318260
Si Si3 0.917551 0.331958 0.095570
Si Si4 0.860356 0.831684 0.568213
Si Si5 0.695574 0.331183 0.519273
Si Si6 0.338330 0.162294 0.688806
Si Si7 0.548180 0.167170 0.664944
Si Si8 0.413620 0.827246 0.079072
O O1 0.833589 0.742390 0.050260
O O2 0.695795 0.825942 0.178146
O O3 0.766797 0.000000 0.025637
O O4 0.676968 0.779159 0.965352
O O5 0.066414 0.201706 0.346662
O O6 0.937260 0.258309 0.214190
O O7 0.907076 0.190490 0.438761
O O8 0.962632 0.000000 0.291472
O O9 0.902162 0.500000 0.114008
O O10 0.000000 0.313184 0.000000
O O11 0.773274 0.738088 0.582899
O O12 0.838999 0.000000 0.580322
O O13 0.696837 0.500000 0.524394
O O14 0.706374 0.273268 0.389358
O O15 0.603442 0.266202 0.574393
O O16 0.443331 0.182119 0.672393
O O17 0.318822 0.000000 0.651978
O O18 0.576852 0.202666 0.789524
O O19 0.568299 0.000000 0.638730
O O20 0.413693 0.000000 0.066774
O O21 0.500000 0.774699 0.000000
#
# Coordination Sequence:
#
# PCOD9150465 Si02
#       8
#     4   4   4   4   4   4   4   4
#     4  10  20  36  63  92 113 142 188 242 291 340
#     4   9  19  38  65  89 108 137 185 241 289 337
#     4  11  25  41  55  79 120 162 193 229 279 338
#     4   9  19  38  62  87 112 139 179 236 294 342
#     4  12  25  36  50  79 119 156 191 228 272 335
#     4  10  20  36  59  84 111 145 188 236 288 339
#     4  10  20  36  59  83 111 148 187 234 288 337
#     4   9  16  33  61  90 113 136 181 240 289 335
#
# _framework density 19.112738
#
# number of rings (size 3 to 8) (size 9 to 14) (size 15 to 20)
#    0.000    2.000    1.250    3.375    0.000    8.500 
#    0.000    5.625    0.000    0.750    0.000    0.000 
#    0.000    0.000    0.000    0.000    0.000    0.000 
#
# Total GULP energy -178784.168148 kJ/mol
# GULP energy per Si atom -5587.005255 kJ/mol
# Density = 1.906924 g / cm^3
# Si number density = 19.112738 Si / 1000 Ang^3
#
#
#
# Elastic Constant Matrix: (Units=GPa)
#
#
# Indices 1 2 3 4 5 6 
#
# 1 100.8797 55.6844 23.4441 0.0000 19.7015 0.0000
# 2 55.6844 69.7346 30.2173 0.0000 9.6886 0.0000
# 3 23.4441 30.2173 51.8223 0.0000 25.3269 0.0000
# 4 0.0000 0.0000 0.0000 -3.1028 0.0000 -5.8380
# 5 19.7015 9.6886 25.3269 0.0000 27.2386 0.0000
# 6 0.0000 0.0000 0.0000 -5.8380 0.0000 -17.6231
#
#
#
# Elastic Compliance Matrix: (Units=1/GPa)
#
#
# Indices 1 2 3 4 5 6 
#
# 1 0.021832 -0.019428 0.010616 0.000000 -0.018752 0.000000
# 2 -0.019428 0.037139 -0.024337 0.000000 0.023472 0.000000
# 3 0.010616 -0.024337 0.051702 0.000000 -0.047095 0.000000
# 4 0.000000 0.000000 0.000000 -0.855511 0.000000 0.283404
# 5 -0.018752 0.023472 -0.047095 0.000000 0.085717 0.000000
# 6 0.000000 0.000000 0.000000 0.283404 0.000000 -0.150627
#
#
# Mechanical properties :
#
#
# Convention : Reuss Voigt Hill
#
# Bulk Modulus (GPa) = 22.53600 49.01424 35.77512
# Shear Modulus (GPa) = -6.86191 8.84194 0.99001
#
# Velocity S-wave (km/s) = -1.89685 2.15319 0.72049
# Velocity P-wave (km/s) = 2.64940 5.64643 4.41030
#
# Compressibility (1/GPa) = 0.04437345
#
# Stress axis : x y z
#
# Youngs Moduli (GPa) = 45.80475 26.92615 19.34177
#
# Poissons Ratio (x) = 0.52312 -0.20534
# Poissons Ratio (y) = 0.88990 0.47073
# Poissons Ratio (z) = -0.48627 0.65531
#
# Static dielectric constant tensor:
#      x y z
#    x 1.676230 0.000000 0.002620 
#    y 0.000000 1.628650 0.000000 
#    z 0.002620 0.000000 1.669990 
# 
# From -- ./inp_files/49950.got.cif
#   From: 2010.05.17/outbox.cif.g08.bks.cpg/sg10_25_cif.got.tgz:49950.got - 2010.06.03 11:33:40.
