data_PCOD9150489
_publ_section_title
;
Structure prediction by ZEFSAII (Michael W. Deem and Ramdas Pophale) SiO2 
 PCOD9150489
Probable space group: P 2/M
;
_chemical_formula_sum "Si O2"
_cell_formula_units_Z 20
_cell_length_a 14.801108
_cell_length_b 10.603207
_cell_length_c 12.654630
_cell_angle_alpha 90.000000
_cell_angle_beta 153.430127
_cell_angle_gamma 90.000000
_cell_volume 888.319114
_symmetry_space_group_name_H-M "P 2/M"
_symmetry_group_IT_number 10
_symmetry_cell_setting 'monoclinic'
loop_
_space_group_symop_operation_xyz
x,y,z
-x,y,-z
-x,-y,-z
x,-y,z
loop_
_atom_site_type_symbol
_atom_site_label
_atom_site_fract_x
_atom_site_fract_y
_atom_site_fract_z
Si Si1 0.159443 0.856744 0.261791
Si Si2 0.469125 0.358035 0.631301
Si Si3 0.745583 0.363819 0.366690
Si Si4 0.870026 0.256523 0.129888
Si Si5 0.238003 0.858920 0.772659
O O1 0.333927 0.751229 0.436941
O O2 0.024213 0.829316 0.224386
O O3 0.240372 0.000000 0.349363
O O4 0.000000 0.846382 0.000000
O O5 0.436283 0.500000 0.554860
O O6 0.388570 0.360925 0.668191
O O7 0.705588 0.323883 0.884159
O O8 0.721884 0.500000 0.288762
O O9 0.693828 0.247638 0.237754
O O10 0.978234 0.349052 0.648760
O O11 0.746563 0.180136 0.089145
O O12 0.000000 0.862873 0.500000
O O13 0.310435 0.000000 0.831694
#
# Coordination Sequence:
#
# PCOD9150489 Si02
#       5
#     4   4   4   4   4
#     4  10  23  43  64  86 114 149 191 241 295 350
#     4  10  22  39  61  89 118 152 193 237 288 345
#     4   9  19  35  55  81 116 155 193 233 277 331
#     4  10  20  36  59  85 115 151 193 238 286 340
#     4   9  18  32  52  79 113 153 193 232 278 331
#
# _framework density 22.514433
#
# number of rings (size 3 to 8) (size 9 to 14) (size 15 to 20)
#    0.000    2.400    0.000    1.200    0.000   13.600 
#    0.000    6.000    0.000    0.000    0.000    0.000 
#    0.000    0.000    0.000    0.000    0.000    0.000 
#
# Total GULP energy -111718.876709 kJ/mol
# GULP energy per Si atom -5585.943835 kJ/mol
# Density = 2.246319 g / cm^3
# Si number density = 22.514433 Si / 1000 Ang^3
#
#
#
# Elastic Constant Matrix: (Units=GPa)
#
#
# Indices 1 2 3 4 5 6 
#
# 1 47.7722 19.1357 11.2251 0.0000 -7.4336 0.0000
# 2 19.1357 203.2412 66.3626 0.0000 -7.4022 0.0000
# 3 11.2251 66.3626 108.3316 0.0000 22.0540 0.0000
# 4 0.0000 0.0000 0.0000 10.9321 0.0000 -12.4208
# 5 -7.4336 -7.4022 22.0540 0.0000 36.9670 0.0000
# 6 0.0000 0.0000 0.0000 -12.4208 0.0000 8.2921
#
#
#
# Elastic Compliance Matrix: (Units=1/GPa)
#
#
# Indices 1 2 3 4 5 6 
#
# 1 0.023010 -0.000926 -0.003097 0.000000 0.006290 0.000000
# 2 -0.000926 0.006743 -0.004862 0.000000 0.004065 0.000000
# 3 -0.003097 -0.004862 0.014633 0.000000 -0.010326 0.000000
# 4 0.000000 0.000000 0.000000 -0.130327 0.000000 -0.195217
# 5 0.006290 0.004065 -0.010326 0.000000 0.035290 0.000000
# 6 0.000000 0.000000 0.000000 -0.195217 0.000000 -0.171820
#
#
# Mechanical properties :
#
#
# Convention : Reuss Voigt Hill
#
# Bulk Modulus (GPa) = 37.57367 61.42130 49.49748
# Shear Modulus (GPa) = -25.53258 28.74635 1.60689
#
# Velocity S-wave (km/s) = -3.37123 3.57711 0.84573
# Velocity P-wave (km/s) = 1.25355 6.66341 4.79439
#
# Compressibility (1/GPa) = 0.02661439
#
# Stress axis : x y z
#
# Youngs Moduli (GPa) = 43.45916 148.29874 68.34032
#
# Poissons Ratio (x) = 0.13733 0.21168
# Poissons Ratio (y) = 0.04024 0.33229
# Poissons Ratio (z) = 0.13461 0.72108
#
# Static dielectric constant tensor:
#      x y z
#    x 1.859290 0.000000 -0.004460 
#    y 0.000000 1.835630 0.000000 
#    z -0.004460 0.000000 1.802150 
# 
# From -- ./inp_files/51122.got.cif
#   From: 2010.05.17/outbox.cif.g08.bks.cpg/sg10_26_cif.got.tgz:51122.got - 2010.06.03 11:33:40.
