data_PCOD9150431
_publ_section_title
;
Structure prediction by ZEFSAII (Michael W. Deem and Ramdas Pophale) SiO2 
 PCOD9150431
Probable space group: P 2/M
;
_chemical_formula_sum "Si O2"
_cell_formula_units_Z 16
_cell_length_a 12.003971
_cell_length_b 11.477095
_cell_length_c 7.194446
_cell_angle_alpha 90.000000
_cell_angle_beta 137.698553
_cell_angle_gamma 90.000000
_cell_volume 667.097732
_symmetry_space_group_name_H-M "P 2/M"
_symmetry_group_IT_number 10
_symmetry_cell_setting 'monoclinic'
loop_
_space_group_symop_operation_xyz
x,y,z
-x,y,-z
-x,-y,-z
x,-y,z
loop_
_atom_site_type_symbol
_atom_site_label
_atom_site_fract_x
_atom_site_fract_y
_atom_site_fract_z
Si Si1 0.512130 0.500000 0.291114
Si Si2 0.622399 0.751226 0.918464
Si Si3 0.097000 0.500000 0.314804
Si Si4 0.020416 0.752922 0.734885
Si Si5 0.298868 0.138219 0.579417
O O1 0.500000 0.500000 0.500000
O O2 0.419510 0.615375 0.108177
O O3 0.705241 0.500000 0.472265
O O4 0.450213 0.810404 0.647388
O O5 0.784000 0.761738 0.988790
O O6 0.667395 0.809500 0.172054
O O7 0.037893 0.618607 0.337676
O O8 0.000000 0.500000 0.000000
O O9 0.000000 0.800403 0.500000
O O10 0.885388 0.818241 0.692893
O O11 0.307138 0.000000 0.592576
#
# Coordination Sequence:
#
# PCOD9150431 Si02
#       5
#     2   4   2   4   4
#     4  12  24  39  60  89 119 159 201 244 306 366
#     4  10  20  36  58  88 122 150 196 243 300 348
#     4  12  23  40  60  87 123 159 195 252 304 368
#     4  10  21  37  59  91 123 156 197 244 303 358
#     4  10  21  37  61  90 120 160 199 241 293 350
#
# _framework density 23.984490999999998
#
# number of rings (size 3 to 8) (size 9 to 14) (size 15 to 20)
#    0.000    1.500    2.500    4.125    0.000   10.500 
#    0.000    0.000    0.000    3.750    0.000    0.000 
#    0.000    0.000    0.000    0.000    0.000    0.000 
#
# Total GULP energy -89488.885481 kJ/mol
# GULP energy per Si atom -5593.055343 kJ/mol
# Density = 2.392990 g / cm^3
# Si number density = 23.984491 Si / 1000 Ang^3
#
#
#
# Elastic Constant Matrix: (Units=GPa)
#
#
# Indices 1 2 3 4 5 6 
#
# 1 162.6174 51.5968 86.8076 0.0000 66.9335 0.0000
# 2 51.5968 198.3874 52.8766 0.0000 43.5063 0.0000
# 3 86.8076 52.8766 145.9187 0.0000 63.1077 0.0000
# 4 0.0000 0.0000 0.0000 -210.1568 0.0000 22.5374
# 5 66.9335 43.5063 63.1077 0.0000 78.7649 0.0000
# 6 0.0000 0.0000 0.0000 22.5374 0.0000 -41.7192
#
#
#
# Elastic Compliance Matrix: (Units=1/GPa)
#
#
# Indices 1 2 3 4 5 6 
#
# 1 0.010663 -0.000521 -0.003612 0.000000 -0.005879 0.000000
# 2 -0.000521 0.005875 -0.000929 0.000000 -0.002058 0.000000
# 3 -0.003612 -0.000929 0.011919 0.000000 -0.005968 0.000000
# 4 0.000000 0.000000 0.000000 -0.005051 0.000000 -0.002729
# 5 -0.005879 -0.002058 -0.005968 0.000000 0.023611 0.000000
# 6 0.000000 0.000000 0.000000 -0.002729 0.000000 -0.025444
#
#
# Mechanical properties :
#
#
# Convention : Reuss Voigt Hill
#
# Bulk Modulus (GPa) = 54.54427 98.83172 76.68800
# Shear Modulus (GPa) = 132.24959 -13.57938 59.33510
#
# Velocity S-wave (km/s) = 7.43366 -2.38202 4.97922
# Velocity P-wave (km/s) = 9.82191 5.80780 8.06847
#
# Compressibility (1/GPa) = 0.01833373
#
# Stress axis : x y z
#
# Youngs Moduli (GPa) = 93.78481 170.21026 83.89793
#
# Poissons Ratio (x) = 0.08871 0.30301
# Poissons Ratio (y) = 0.04888 0.07793
# Poissons Ratio (z) = 0.33872 0.15809
#
# Static dielectric constant tensor:
#      x y z
#    x 1.971480 0.000000 0.013170 
#    y 0.000000 1.863470 0.000000 
#    z 0.013170 0.000000 1.984890 
# 
# From -- ./inp_files/17212.got.cif
#   From: 2010.05.17/outbox.cif.g08.bks.cpg/sg10_9_cif.got.tgz:17212.got - 2010.06.03 11:33:40.
