data_PCOD9150563
_publ_section_title
;
Structure prediction by ZEFSAII (Michael W. Deem and Ramdas Pophale) SiO2 
 PCOD9150563
Probable space group: P 2/M
;
_chemical_formula_sum "Si O2"
_cell_formula_units_Z 26
_cell_length_a 21.348428
_cell_length_b 10.196683
_cell_length_c 7.717835
_cell_angle_alpha 90.000000
_cell_angle_beta 130.853280
_cell_angle_gamma 90.000000
_cell_volume 1270.762601
_symmetry_space_group_name_H-M "P 2/M"
_symmetry_group_IT_number 10
_symmetry_cell_setting 'monoclinic'
loop_
_space_group_symop_operation_xyz
x,y,z
-x,y,-z
-x,-y,-z
x,-y,z
loop_
_atom_site_type_symbol
_atom_site_label
_atom_site_fract_x
_atom_site_fract_y
_atom_site_fract_z
Si Si1 0.033893 0.649543 0.254664
Si Si2 0.658432 0.147345 0.185290
Si Si3 0.833717 0.849394 0.408475
Si Si4 0.500000 0.303328 0.000000
Si Si5 0.575595 0.353823 0.508417
Si Si6 0.898522 0.851111 0.137284
Si Si7 0.285354 0.851154 0.312867
O O1 0.044640 0.500000 0.342294
O O2 0.966217 0.740138 0.228123
O O3 0.116957 0.737082 0.401985
O O4 0.000000 0.638757 0.000000
O O5 0.737435 0.189505 0.216753
O O6 0.693616 0.147743 0.445272
O O7 0.637215 0.000000 0.095159
O O8 0.574489 0.226292 0.041901
O O9 0.875919 0.855546 0.298068
O O10 0.836503 0.000000 0.485969
O O11 0.455706 0.362413 0.748852
O O12 0.500000 0.318023 0.500000
O O13 0.603560 0.500000 0.610319
O O14 0.649907 0.249983 0.651961
O O15 0.925894 0.000000 0.134820
O O16 0.811225 0.819849 0.886998
O O17 0.297277 0.000000 0.266896
#
# Coordination Sequence:
#
# PCOD9150563 Si02
#       7
#     4   4   4   2   4   4   4
#     4  11  24  40  58  83 115 152 195 237 284 342
#     4   9  18  34  57  86 117 148 188 238 290 343
#     4  10  21  37  59  87 117 150 189 236 290 348
#     4  10  20  36  60  84 115 156 199 244 293 348
#     4  10  22  38  56  81 115 153 196 241 292 350
#     4  10  21  37  60  88 118 149 189 236 289 349
#     4   9  19  36  57  84 113 146 187 233 284 339
#
# _framework density 20.460155
#
# number of rings (size 3 to 8) (size 9 to 14) (size 15 to 20)
#    0.000    2.154    0.000    2.308    2.154    6.462 
#    0.000    5.385    0.000    0.000    0.000    0.000 
#    0.000    0.000    0.000    0.000    0.000    0.000 
#
# Total GULP energy -144983.719879 kJ/mol
# GULP energy per Si atom -5576.296918 kJ/mol
# Density = 2.041359 g / cm^3
# Si number density = 20.460155 Si / 1000 Ang^3
#
#
#
# Elastic Constant Matrix: (Units=GPa)
#
#
# Indices 1 2 3 4 5 6 
#
# 1 103.9209 69.0566 0.9115 0.0000 20.7990 0.0000
# 2 69.0566 123.7784 38.5000 0.0000 37.1777 0.0000
# 3 0.9115 38.5000 59.9037 0.0000 18.9050 0.0000
# 4 0.0000 0.0000 0.0000 16.4789 0.0000 -9.9714
# 5 20.7990 37.1777 18.9050 0.0000 33.2597 0.0000
# 6 0.0000 0.0000 0.0000 -9.9714 0.0000 -9.0163
#
#
#
# Elastic Compliance Matrix: (Units=1/GPa)
#
#
# Indices 1 2 3 4 5 6 
#
# 1 0.017833 -0.011640 0.008070 0.000000 -0.002728 0.000000
# 2 -0.011640 0.020741 -0.009911 0.000000 -0.010271 0.000000
# 3 0.008070 -0.009911 0.025636 0.000000 -0.008539 0.000000
# 4 0.000000 0.000000 0.000000 0.036355 0.000000 -0.040206
# 5 -0.002728 -0.010271 -0.008539 0.000000 0.048108 0.000000
# 6 0.000000 0.000000 0.000000 -0.040206 0.000000 -0.066445
#
#
# Mechanical properties :
#
#
# Convention : Reuss Voigt Hill
#
# Bulk Modulus (GPa) = 26.84733 56.05992 41.45362
# Shear Modulus (GPa) = 41.11721 20.08679 30.60200
#
# Velocity S-wave (km/s) = 4.48775 3.13669 3.87161
# Velocity P-wave (km/s) = 6.32482 6.37005 6.34747
#
# Compressibility (1/GPa) = 0.03724766
#
# Stress axis : x y z
#
# Youngs Moduli (GPa) = 56.07679 48.21419 39.00819
#
# Poissons Ratio (x) = 0.56120 -0.31481
# Poissons Ratio (y) = 0.65272 0.38663
# Poissons Ratio (z) = -0.45257 0.47787
#
# Static dielectric constant tensor:
#      x y z
#    x 1.743670 0.000000 -0.014490 
#    y 0.000000 1.737610 0.000000 
#    z -0.014490 0.000000 1.756160 
# 
# From -- ./inp_files/34227.got.cif
#   From: 2010.05.17/outbox.cif.g08.bks.cpg/sg10_18_cif.got.tgz:34227.got - 2010.06.03 11:33:40.
