data_PCOD9150720
_publ_section_title
;
Structure prediction by ZEFSAII (Michael W. Deem and Ramdas Pophale) SiO2 
 PCOD9150720
Probable space group: P 2/M
;
_chemical_formula_sum "Si O2"
_cell_formula_units_Z 28
_cell_length_a 9.771755
_cell_length_b 7.585851
_cell_length_c 29.376417
_cell_angle_alpha 90.000000
_cell_angle_beta 41.308158
_cell_angle_gamma 90.000000
_cell_volume 1437.444589
_symmetry_space_group_name_H-M "P 2/M"
_symmetry_group_IT_number 10
_symmetry_cell_setting 'monoclinic'
loop_
_space_group_symop_operation_xyz
x,y,z
-x,y,-z
-x,-y,-z
x,-y,z
loop_
_atom_site_type_symbol
_atom_site_label
_atom_site_fract_x
_atom_site_fract_y
_atom_site_fract_z
Si Si1 0.844591 0.713446 0.306524
Si Si2 0.054655 0.284505 0.434998
Si Si3 0.797720 0.202844 0.851165
Si Si4 0.123189 0.797525 0.849913
Si Si5 0.515623 0.500000 0.050193
Si Si6 0.527953 0.713500 0.307464
Si Si7 0.739077 0.284480 0.434699
Si Si8 0.000452 0.500000 0.053377
O O1 0.847952 0.500000 0.305273
O O2 0.651910 0.768431 0.322284
O O3 0.818336 0.770981 0.365051
O O4 0.053623 0.776062 0.229672
O O5 0.051711 0.500000 0.435411
O O6 0.290118 0.229090 0.365781
O O7 0.000000 0.229550 0.500000
O O8 0.888426 0.227118 0.438592
O O9 0.603884 0.331581 0.899808
O O10 0.945505 0.251469 0.857203
O O11 0.736238 0.000000 0.871432
O O12 0.337058 0.777093 0.768863
O O13 0.104681 0.668173 0.896685
O O14 0.092866 0.000000 0.870342
O O15 0.500000 0.500000 0.000000
O O16 0.757072 0.500000 0.997328
O O17 0.530568 0.500000 0.306215
O O18 0.500000 0.229665 0.500000
O O19 0.739962 0.500000 0.435022
O O20 0.000000 0.500000 0.000000
#
# Coordination Sequence:
#
# PCOD9150720 Si02
#       8
#     4   4   4   4   2   4   4   2
#     4   9  16  29  50  75 110 148 186 233 287 339
#     4   9  16  26  43  73 108 146 194 238 280 335
#     4  10  20  36  62  93 118 150 196 243 289 344
#     4  10  20  38  63  88 118 155 197 238 288 350
#     4  12  22  40  68  90 119 150 195 238 287 350
#     4   9  16  29  52  76 105 148 191 233 281 338
#     4   9  16  26  43  73 110 147 187 237 290 335
#     4  12  26  44  62  90 121 156 189 238 295 350
#
# _framework density 19.479012000000001
#
# number of rings (size 3 to 8) (size 9 to 14) (size 15 to 20)
#    0.000    2.286    2.857    0.857    0.000    4.571 
#    2.571    0.000    0.000    0.857    0.000    0.000 
#    0.000    0.000    0.000    0.000    0.000    0.000 
#
# Total GULP energy -156354.649092 kJ/mol
# GULP energy per Si atom -5584.094610 kJ/mol
# Density = 1.943468 g / cm^3
# Si number density = 19.479012 Si / 1000 Ang^3
#
#
#
# Elastic Constant Matrix: (Units=GPa)
#
#
# Indices 1 2 3 4 5 6 
#
# 1 123.7779 22.4536 79.7320 0.0000 12.1440 0.0000
# 2 22.4536 58.1120 36.5911 0.0000 6.7956 0.0000
# 3 79.7320 36.5911 132.5587 0.0000 12.1666 0.0000
# 4 0.0000 0.0000 0.0000 -22.4634 0.0000 -0.8636
# 5 12.1440 6.7956 12.1666 0.0000 41.7545 0.0000
# 6 0.0000 0.0000 0.0000 -0.8636 0.0000 -1.0412
#
#
#
# Elastic Compliance Matrix: (Units=1/GPa)
#
#
# Indices 1 2 3 4 5 6 
#
# 1 0.013290 -0.000010 -0.007846 0.000000 -0.001577 0.000000
# 2 -0.000010 0.020955 -0.005616 0.000000 -0.001771 0.000000
# 3 -0.007846 -0.005616 0.013891 0.000000 -0.000852 0.000000
# 4 0.000000 0.000000 0.000000 -0.045983 0.000000 0.038141
# 5 -0.001577 -0.001771 -0.000852 0.000000 0.024945 0.000000
# 6 0.000000 0.000000 0.000000 0.038141 0.000000 -0.992039
#
#
# Mechanical properties :
#
#
# Convention : Reuss Voigt Hill
#
# Bulk Modulus (GPa) = 47.18638 65.77799 56.48219
# Shear Modulus (GPa) = -5.37095 15.36143 4.99524
#
# Velocity S-wave (km/s) = -1.66231 2.81127 1.60312
# Velocity P-wave (km/s) = 4.53789 6.66180 5.69965
#
# Compressibility (1/GPa) = 0.02119256
#
# Stress axis : x y z
#
# Youngs Moduli (GPa) = 75.24724 47.72079 71.98739
#
# Poissons Ratio (x) = 0.00049 0.56480
# Poissons Ratio (y) = 0.00077 0.40426
# Poissons Ratio (z) = 0.59038 0.26799
#
# Static dielectric constant tensor:
#      x y z
#    x 1.650110 0.000000 -0.001530 
#    y 0.000000 1.713240 0.000000 
#    z -0.001530 0.000000 1.647380 
# 
# From -- ./inp_files/92034.got.cif
#   From: 2010.05.17/outbox.cif.g08.bks.cpg/sg10_47_cif.got.tgz:92034.got - 2010.06.03 11:33:40.
