data_PCOD9150896
_publ_section_title
;
Structure prediction by ZEFSAII (Michael W. Deem and Ramdas Pophale) SiO2 
 PCOD9150896
Probable space group: P 2/M
;
_chemical_formula_sum "Si O2"
_cell_formula_units_Z 28
_cell_length_a 9.422995
_cell_length_b 8.517963
_cell_length_c 30.033801
_cell_angle_alpha 90.000000
_cell_angle_beta 38.337194
_cell_angle_gamma 90.000000
_cell_volume 1495.301020
_symmetry_space_group_name_H-M "P 2/M"
_symmetry_group_IT_number 10
_symmetry_cell_setting 'monoclinic'
loop_
_space_group_symop_operation_xyz
x,y,z
-x,y,-z
-x,-y,-z
x,-y,z
loop_
_atom_site_type_symbol
_atom_site_label
_atom_site_fract_x
_atom_site_fract_y
_atom_site_fract_z
Si Si1 0.641879 0.188113 0.275464
Si Si2 0.261682 0.688109 0.430499
Si Si3 0.022809 0.809274 0.726857
Si Si4 0.574783 0.190127 0.432856
Si Si5 0.192149 0.688073 0.859680
Si Si6 0.335188 0.689990 0.000137
Si Si7 0.498563 0.188570 0.136105
O O1 0.398987 0.244082 0.354592
O O2 0.834664 0.239865 0.264233
O O3 0.698696 0.253680 0.213181
O O4 0.644186 0.000000 0.273627
O O5 0.267694 0.500000 0.426602
O O6 0.399609 0.746448 0.439510
O O7 0.000000 0.739931 0.500000
O O8 0.173964 0.762330 0.646816
O O9 0.762036 0.754927 0.791363
O O10 0.018496 0.000000 0.728598
O O11 0.500000 0.243873 0.500000
O O12 0.567310 0.000000 0.434020
O O13 0.195888 0.500000 0.859747
O O14 0.332894 0.750683 0.867140
O O15 0.926848 0.739536 0.927269
O O16 0.340458 0.500000 0.997114
O O17 0.421502 0.754359 0.931897
O O18 0.500000 0.740527 0.000000
O O19 0.499221 0.000000 0.136798
#
# Coordination Sequence:
#
# PCOD9150896 Si02
#       7
#     4   4   4   4   4   4   4
#     4  10  20  37  60  82 106 140 185 229 270 322
#     4  10  21  36  54  80 114 147 181 223 272 326
#     4   8  17  34  54  79 108 138 178 228 275 320
#     4   9  18  34  56  80 107 142 186 231 273 320
#     4  11  23  38  56  81 114 145 177 223 276 327
#     4  10  22  40  60  81 108 145 185 224 271 326
#     4  11  22  36  56  82 113 146 182 226 273 322
#
# _framework density 18.725328000000001
#
# number of rings (size 3 to 8) (size 9 to 14) (size 15 to 20)
#    0.000    2.143    0.000    3.857    0.000    5.714 
#    0.000    7.857    0.000    0.000    0.000    0.000 
#    0.000    0.000    0.000    0.000    0.000    0.000 
#
# Total GULP energy -156341.221927 kJ/mol
# GULP energy per Si atom -5583.615069 kJ/mol
# Density = 1.868271 g / cm^3
# Si number density = 18.725328 Si / 1000 Ang^3
#
#
#
# Elastic Constant Matrix: (Units=GPa)
#
#
# Indices 1 2 3 4 5 6 
#
# 1 138.7661 29.4690 128.0538 0.0000 0.4439 0.0000
# 2 29.4690 23.6724 40.4234 0.0000 0.7400 0.0000
# 3 128.0538 40.4234 211.3582 0.0000 -1.3491 0.0000
# 4 0.0000 0.0000 0.0000 29.5752 0.0000 4.8278
# 5 0.4439 0.7400 -1.3491 0.0000 39.5029 0.0000
# 6 0.0000 0.0000 0.0000 4.8278 0.0000 22.6458
#
#
#
# Elastic Compliance Matrix: (Units=1/GPa)
#
#
# Indices 1 2 3 4 5 6 
#
# 1 0.016777 -0.005214 -0.009170 0.000000 -0.000404 0.000000
# 2 -0.005214 0.064450 -0.009177 0.000000 -0.001462 0.000000
# 3 -0.009170 -0.009177 0.012047 0.000000 0.000686 0.000000
# 4 0.000000 0.000000 0.000000 0.035031 0.000000 -0.007468
# 5 -0.000404 -0.001462 0.000686 0.000000 0.025370 0.000000
# 6 0.000000 0.000000 0.000000 -0.007468 0.000000 0.045751
#
#
# Mechanical properties :
#
#
# Convention : Reuss Voigt Hill
#
# Bulk Modulus (GPa) = 21.66736 85.52101 53.59419
# Shear Modulus (GPa) = 19.08904 30.06814 24.57859
#
# Velocity S-wave (km/s) = 3.19630 4.01152 3.62689
# Velocity P-wave (km/s) = 5.02176 8.19920 6.79871
#
# Compressibility (1/GPa) = 0.04615236
#
# Stress axis : x y z
#
# Youngs Moduli (GPa) = 59.60584 15.51588 83.01151
#
# Poissons Ratio (x) = 0.08090 0.76121
# Poissons Ratio (y) = 0.31077 0.76179
# Poissons Ratio (z) = 0.54658 0.14239
#
# Static dielectric constant tensor:
#      x y z
#    x 1.619030 0.000000 -0.018140 
#    y 0.000000 1.641070 0.000000 
#    z -0.018140 0.000000 1.644080 
# 
# From -- ./inp_files/91969.got.cif
#   From: 2010.05.17/outbox.cif.g08.bks.cpg/sg10_46_cif.got.tgz:91969.got - 2010.06.03 11:33:40.
