data_PCOD9150825
_publ_section_title
;
Structure prediction by ZEFSAII (Michael W. Deem and Ramdas Pophale) SiO2 
 PCOD9150825
Probable space group: P 2/M
;
_chemical_formula_sum "Si O2"
_cell_formula_units_Z 21
_cell_length_a 10.010763
_cell_length_b 16.575330
_cell_length_c 15.262534
_cell_angle_alpha 90.000000
_cell_angle_beta 153.629495
_cell_angle_gamma 90.000000
_cell_volume 1124.887684
_symmetry_space_group_name_H-M "P 2/M"
_symmetry_group_IT_number 10
_symmetry_cell_setting 'monoclinic'
loop_
_space_group_symop_operation_xyz
x,y,z
-x,y,-z
-x,-y,-z
x,-y,z
loop_
_atom_site_type_symbol
_atom_site_label
_atom_site_fract_x
_atom_site_fract_y
_atom_site_fract_z
Si Si1 0.350582 0.910035 0.682200
Si Si2 0.185162 0.666685 0.527675
Si Si3 0.230805 0.908114 0.408422
Si Si4 0.000000 0.500000 0.500000
Si Si5 0.253545 0.241477 0.079278
Si Si6 0.155344 0.750954 0.828726
O O1 0.361863 0.906259 0.583491
O O2 0.556975 0.837984 0.836268
O O3 0.000000 0.900421 0.500000
O O4 0.443526 0.000000 0.766014
O O5 0.133526 0.572283 0.514128
O O6 0.522195 0.696481 0.741282
O O7 0.000000 0.706677 0.500000
O O8 0.045392 0.698248 0.355584
O O9 0.500000 0.888306 0.500000
O O10 0.972797 0.841690 0.251574
O O11 0.128453 0.000000 0.330798
O O12 0.133943 0.276116 0.917261
O O13 0.000000 0.218913 0.000000
O O14 0.500000 0.745830 0.000000
#
# Coordination Sequence:
#
# PCOD9150825 Si02
#       6
#     4   4   4   1   4   4
#     4  10  20  37  58  81 121 171 215 262 299 345
#     4  10  21  44  66  93 123 150 200 257 302 386
#     4  10  21  36  54  82 123 167 209 256 303 349
#     4   8  20  44  76  90 120 164 188 248 336 368
#     4  12  24  37  61  96 128 165 206 254 311 365
#     4  12  22  36  65  91 118 165 213 250 305 365
#
# _framework density 18.668531000000002
#
# number of rings (size 3 to 8) (size 9 to 14) (size 15 to 20)
#    0.571    0.762    3.810    2.857    0.000    1.524 
#    0.000    4.762    0.000    1.143    0.000    0.000 
#    0.000    0.000    0.000    0.000    0.000    0.000 
#
# Total GULP energy -116937.003541 kJ/mol
# GULP energy per Si atom -5568.428740 kJ/mol
# Density = 1.862604 g / cm^3
# Si number density = 18.668531 Si / 1000 Ang^3
#
#
#
# Elastic Constant Matrix: (Units=GPa)
#
#
# Indices 1 2 3 4 5 6 
#
# 1 84.3310 20.7703 20.0456 0.0000 -15.2092 0.0000
# 2 20.7703 130.7075 52.7485 0.0000 -7.7204 0.0000
# 3 20.0456 52.7485 74.0662 0.0000 -26.4897 0.0000
# 4 0.0000 0.0000 0.0000 1.4185 0.0000 -0.3740
# 5 -15.2092 -7.7204 -26.4897 0.0000 27.8201 0.0000
# 6 0.0000 0.0000 0.0000 -0.3740 0.0000 -6.3486
#
#
#
# Elastic Compliance Matrix: (Units=1/GPa)
#
#
# Indices 1 2 3 4 5 6 
#
# 1 0.013535 -0.001783 0.000115 0.000000 0.007015 0.000000
# 2 -0.001783 0.011813 -0.010776 0.000000 -0.007958 0.000000
# 3 0.000115 -0.010776 0.030477 0.000000 0.026092 0.000000
# 4 0.000000 0.000000 0.000000 0.694197 0.000000 -0.040891
# 5 0.007015 -0.007958 0.026092 0.000000 0.062416 0.000000
# 6 0.000000 0.000000 0.000000 -0.040891 0.000000 -0.155106
#
#
# Mechanical properties :
#
#
# Convention : Reuss Voigt Hill
#
# Bulk Modulus (GPa) = 32.32438 52.91484 42.61961
# Shear Modulus (GPa) = 7.21990 17.61402 12.41696
#
# Velocity S-wave (km/s) = 1.96871 3.07500 2.58180
# Velocity P-wave (km/s) = 4.74555 6.40417 5.63621
#
# Compressibility (1/GPa) = 0.03093640
#
# Stress axis : x y z
#
# Youngs Moduli (GPa) = 73.88347 84.65315 32.81215
#
# Poissons Ratio (x) = 0.15094 -0.00379
# Poissons Ratio (y) = 0.13174 0.35360
# Poissons Ratio (z) = -0.00853 0.91225
#
# Static dielectric constant tensor:
#      x y z
#    x 1.722300 0.000000 0.012560 
#    y 0.000000 1.634040 0.000000 
#    z 0.012560 0.000000 1.668870 
# 
# From -- ./inp_files/62237.got.cif
#   From: 2010.05.17/outbox.cif.g08.bks.cpg/sg10_32_cif.got.tgz:62237.got - 2010.06.03 11:33:40.
