data_PCOD9150292
_publ_section_title
;
Structure prediction by ZEFSAII (Michael W. Deem and Ramdas Pophale) SiO2 
 PCOD9150292
Probable space group: P 2/M
;
_chemical_formula_sum "Si O2"
_cell_formula_units_Z 32
_cell_length_a 12.906129
_cell_length_b 8.974112
_cell_length_c 34.124700
_cell_angle_alpha 90.000000
_cell_angle_beta 24.646615
_cell_angle_gamma 90.000000
_cell_volume 1648.214099
_symmetry_space_group_name_H-M "P 2/M"
_symmetry_group_IT_number 10
_symmetry_cell_setting 'monoclinic'
loop_
_space_group_symop_operation_xyz
x,y,z
-x,y,-z
-x,-y,-z
x,-y,z
loop_
_atom_site_type_symbol
_atom_site_label
_atom_site_fract_x
_atom_site_fract_y
_atom_site_fract_z
Si Si1 0.238805 0.822836 0.390095
Si Si2 0.739328 0.831581 0.113340
Si Si3 0.018901 0.679225 0.085878
Si Si4 0.060914 0.178519 0.581178
Si Si5 0.023036 0.177132 0.685983
Si Si6 0.406154 0.678600 0.609988
Si Si7 0.726701 0.678880 0.259005
Si Si8 0.482368 0.322114 0.130617
O O1 0.476380 0.739675 0.325207
O O2 0.000000 0.795326 0.500000
O O3 0.156412 0.779775 0.374434
O O4 0.288337 0.000000 0.373816
O O5 0.564761 0.735773 0.145220
O O6 0.815158 0.755871 0.127870
O O7 0.641847 0.000000 0.152010
O O8 0.000000 0.840216 0.000000
O O9 0.997537 0.500000 0.088814
O O10 0.954737 0.721236 0.152399
O O11 0.292028 0.719901 0.976177
O O12 0.313713 0.262449 0.483361
O O13 0.008953 0.209484 0.644441
O O14 0.099755 0.000000 0.563362
O O15 0.777882 0.246496 0.789719
O O16 0.265581 0.249058 0.621777
O O17 0.029214 0.000000 0.688805
O O18 0.403684 0.500000 0.607443
O O19 0.267646 0.725782 0.697755
O O20 0.713808 0.500000 0.263604
O O21 0.458023 0.500000 0.139091
#
# Coordination Sequence:
#
# PCOD9150292 Si02
#       8
#     4   4   4   4   4   4   4   4
#     4  10  20  36  59  86 117 151 187 230 284 346
#     4   9  17  30  50  77 110 146 183 227 278 331
#     4   9  19  36  56  81 114 153 191 232 285 342
#     4  10  22  40  60  85 117 151 187 232 289 347
#     4  11  24  40  60  84 115 152 194 241 289 339
#     4  11  23  40  61  85 114 149 194 241 287 342
#     4  10  22  38  58  86 118 152 192 236 285 341
#     4  10  20  36  57  81 113 150 192 238 285 337
#
# _framework density 19.414953000000001
#
# number of rings (size 3 to 8) (size 9 to 14) (size 15 to 20)
#    0.000    2.000    1.250    1.875    1.750    6.250 
#    0.000    0.625    0.000    3.750    0.000    0.000 
#    0.000    0.000    0.000    0.000    0.000    0.000 
#
# Total GULP energy -178725.561182 kJ/mol
# GULP energy per Si atom -5585.173787 kJ/mol
# Density = 1.937076 g / cm^3
# Si number density = 19.414953 Si / 1000 Ang^3
#
#
#
# Elastic Constant Matrix: (Units=GPa)
#
#
# Indices 1 2 3 4 5 6 
#
# 1 71.2466 18.6882 6.7271 0.0000 10.6280 0.0000
# 2 18.6882 23.8304 21.9526 0.0000 10.4988 0.0000
# 3 6.7271 21.9526 57.1342 0.0000 15.7367 0.0000
# 4 0.0000 0.0000 0.0000 10.4199 0.0000 -13.0057
# 5 10.6280 10.4988 15.7367 0.0000 26.0340 0.0000
# 6 0.0000 0.0000 0.0000 -13.0057 0.0000 22.9397
#
#
#
# Elastic Compliance Matrix: (Units=1/GPa)
#
#
# Indices 1 2 3 4 5 6 
#
# 1 0.018947 -0.018712 0.006012 0.000000 -0.003822 0.000000
# 2 -0.018712 0.087532 -0.028567 0.000000 -0.010393 0.000000
# 3 0.006012 -0.028567 0.030322 0.000000 -0.009263 0.000000
# 4 0.000000 0.000000 0.000000 0.328262 0.000000 0.186109
# 5 -0.003822 -0.010393 -0.009263 0.000000 0.049762 0.000000
# 6 0.000000 0.000000 0.000000 0.186109 0.000000 0.149107
#
#
# Mechanical properties :
#
#
# Convention : Reuss Voigt Hill
#
# Bulk Modulus (GPa) = 18.42752 27.43855 22.93304
# Shear Modulus (GPa) = 6.53975 18.86829 12.70402
#
# Velocity S-wave (km/s) = 1.83731 3.12082 2.56079
# Velocity P-wave (km/s) = 3.74339 5.21051 4.53665
#
# Compressibility (1/GPa) = 0.05426666
#
# Stress axis : x y z
#
# Youngs Moduli (GPa) = 52.77987 11.42438 32.97905
#
# Poissons Ratio (x) = 0.21378 -0.19826
# Poissons Ratio (y) = 0.98763 0.94210
# Poissons Ratio (z) = -0.31730 0.32636
#
# Static dielectric constant tensor:
#      x y z
#    x 1.658650 0.000000 0.029760 
#    y 0.000000 1.649200 0.000000 
#    z 0.029760 0.000000 1.711440 
# 
# From -- ./inp_files/89535.got.cif
#   From: 2010.05.17/outbox.cif.g08.bks.cpg/sg10_45_cif.got.tgz:89535.got - 2010.06.03 11:33:40.
