data_PCOD9150917
_publ_section_title
;
Structure prediction by ZEFSAII (Michael W. Deem and Ramdas Pophale) SiO2 
 PCOD9150917
Probable space group: P 2/M
;
_chemical_formula_sum "Si O2"
_cell_formula_units_Z 28
_cell_length_a 9.444048
_cell_length_b 14.209426
_cell_length_c 11.580343
_cell_angle_alpha 90.000000
_cell_angle_beta 63.536530
_cell_angle_gamma 90.000000
_cell_volume 1391.186230
_symmetry_space_group_name_H-M "P 2/M"
_symmetry_group_IT_number 10
_symmetry_cell_setting 'monoclinic'
loop_
_space_group_symop_operation_xyz
x,y,z
-x,y,-z
-x,-y,-z
x,-y,z
loop_
_atom_site_type_symbol
_atom_site_label
_atom_site_fract_x
_atom_site_fract_y
_atom_site_fract_z
Si Si1 0.348199 0.105457 0.474536
Si Si2 0.051397 0.894782 0.748804
Si Si3 0.248823 0.886870 0.901857
Si Si4 0.606180 0.612664 0.344762
Si Si5 0.029327 0.611937 0.852463
Si Si6 0.205140 0.237037 0.147983
Si Si7 0.448671 0.231553 0.253482
O O1 0.500000 0.123882 0.500000
O O2 0.202052 0.103346 0.613258
O O3 0.328914 0.187658 0.389617
O O4 0.364765 0.000000 0.417466
O O5 0.117667 0.866551 0.851304
O O6 0.923060 0.827237 0.741102
O O7 0.986162 0.000000 0.783921
O O8 0.416683 0.848741 0.796782
O O9 0.250712 0.000000 0.918451
O O10 0.226469 0.824480 0.024056
O O11 0.500000 0.632080 0.500000
O O12 0.598072 0.500000 0.330090
O O13 0.795385 0.637979 0.263247
O O14 0.523967 0.673296 0.274649
O O15 0.015576 0.500000 0.842884
O O16 0.886671 0.666871 0.843393
O O17 0.000000 0.632116 0.000000
O O18 0.363716 0.245705 0.162869
#
# Coordination Sequence:
#
# PCOD9150917 Si02
#       7
#     4   4   4   4   4   4   4
#     4  10  20  37  60  84 112 157 212 253 291 353
#     4  10  21  38  60  83 114 160 211 255 293 350
#     4  11  23  41  63  88 124 171 216 255 298 363
#     4  10  23  44  70  95 119 161 219 267 310 375
#     4  10  22  43  69  93 121 162 212 262 313 376
#     4  12  25  37  57  93 129 159 196 249 320 377
#     4  12  24  37  61  91 125 162 197 250 318 377
#
# _framework density 20.126709999999999
#
# number of rings (size 3 to 8) (size 9 to 14) (size 15 to 20)
#    0.000    1.286    1.429    4.714    2.000    5.143 
#    0.000    1.429    0.000    6.857    0.000    0.000 
#    0.000    0.000    0.000    0.000    0.000    0.000 
#
# Total GULP energy -156260.920877 kJ/mol
# GULP energy per Si atom -5580.747174 kJ/mol
# Density = 2.008090 g / cm^3
# Si number density = 20.126710 Si / 1000 Ang^3
#
#
#
# Elastic Constant Matrix: (Units=GPa)
#
#
# Indices 1 2 3 4 5 6 
#
# 1 83.8211 37.6317 18.3946 0.0000 8.3892 0.0000
# 2 37.6317 69.2494 22.2888 0.0000 7.2535 0.0000
# 3 18.3946 22.2888 77.3763 0.0000 -12.5013 0.0000
# 4 0.0000 0.0000 0.0000 8.3007 0.0000 -8.3399
# 5 8.3892 7.2535 -12.5013 0.0000 20.8150 0.0000
# 6 0.0000 0.0000 0.0000 -8.3399 0.0000 7.6722
#
#
#
# Elastic Compliance Matrix: (Units=1/GPa)
#
#
# Indices 1 2 3 4 5 6 
#
# 1 0.016437 -0.007490 -0.002657 0.000000 -0.005610 0.000000
# 2 -0.007490 0.021093 -0.005532 0.000000 -0.007654 0.000000
# 3 -0.002657 -0.005532 0.017313 0.000000 0.013397 0.000000
# 4 0.000000 0.000000 0.000000 -1.307011 0.000000 -1.420761
# 5 -0.005610 -0.007654 0.013397 0.000000 0.061017 0.000000
# 6 0.000000 0.000000 0.000000 -1.420761 0.000000 -1.414071
#
#
# Mechanical properties :
#
#
# Convention : Reuss Voigt Hill
#
# Bulk Modulus (GPa) = 42.57709 43.00858 42.79284
# Shear Modulus (GPa) = -1.94853 17.49969 7.77558
#
# Velocity S-wave (km/s) = -0.98500 2.95189 1.96766
# Velocity P-wave (km/s) = 4.46170 5.74748 5.14491
#
# Compressibility (1/GPa) = 0.02348681
#
# Stress axis : x y z
#
# Youngs Moduli (GPa) = 60.83778 47.40925 57.75865
#
# Poissons Ratio (x) = 0.35508 0.15344
# Poissons Ratio (y) = 0.45565 0.31953
# Poissons Ratio (z) = 0.16162 0.26227
#
# Static dielectric constant tensor:
#      x y z
#    x 1.695790 0.000000 -0.070810 
#    y 0.000000 1.707040 0.000000 
#    z -0.070810 0.000000 1.901920 
# 
# From -- ./inp_files/42885.got.cif
#   From: 2010.05.17/outbox.cif.g08.bks.cpg/sg10_22_cif.got.tgz:42885.got - 2010.06.03 11:33:40.
