data_PCOD9150617
_publ_section_title
;
Structure prediction by ZEFSAII (Michael W. Deem and Ramdas Pophale) SiO2 
 PCOD9150617
Probable space group: P 2/M
;
_chemical_formula_sum "Si O2"
_cell_formula_units_Z 28
_cell_length_a 9.166718
_cell_length_b 8.592940
_cell_length_c 29.475985
_cell_angle_alpha 90.000000
_cell_angle_beta 38.931841
_cell_angle_gamma 90.000000
_cell_volume 1459.005778
_symmetry_space_group_name_H-M "P 2/M"
_symmetry_group_IT_number 10
_symmetry_cell_setting 'monoclinic'
loop_
_space_group_symop_operation_xyz
x,y,z
-x,y,-z
-x,-y,-z
x,-y,z
loop_
_atom_site_type_symbol
_atom_site_label
_atom_site_fract_x
_atom_site_fract_y
_atom_site_fract_z
Si Si1 0.195086 0.185105 0.355025
Si Si2 0.232016 0.311629 0.071716
Si Si3 0.099136 0.813429 0.927015
Si Si4 0.614152 0.312969 0.786023
Si Si5 0.045771 0.310457 0.215254
Si Si6 0.680536 0.311865 0.495675
Si Si7 0.485780 0.688376 0.641465
O O1 0.291766 0.253144 0.284649
O O2 0.353158 0.245424 0.358044
O O3 0.932217 0.241098 0.426225
O O4 0.203856 0.000000 0.351257
O O5 0.220388 0.500000 0.072621
O O6 0.139780 0.261431 0.143397
O O7 0.071178 0.244750 0.071203
O O8 0.500000 0.266078 0.000000
O O9 0.354956 0.746084 0.857460
O O10 0.110623 0.000000 0.923245
O O11 0.000000 0.764239 0.000000
O O12 0.613244 0.500000 0.785554
O O13 0.784499 0.260122 0.785376
O O14 0.046406 0.500000 0.215393
O O15 0.780859 0.261038 0.287513
O O16 0.500000 0.266857 0.500000
O O17 0.701666 0.500000 0.489604
O O18 0.581517 0.267025 0.568850
O O19 0.491385 0.500000 0.642739
#
# Coordination Sequence:
#
# PCOD9150617 Si02
#       7
#     4   4   4   4   4   4   4
#     4  12  25  39  57  86 123 157 192 236 293 355
#     4  10  20  36  60  89 118 152 199 246 288 342
#     4  11  24  40  58  86 124 160 194 236 291 350
#     4  11  22  40  65  88 114 151 198 246 291 343
#     4   9  19  36  60  88 113 143 190 248 298 339
#     4  10  21  39  63  88 114 150 199 248 292 343
#     4  10  20  37  61  86 114 152 198 243 289 345
#
# _framework density 19.191148999999999
#
# number of rings (size 3 to 8) (size 9 to 14) (size 15 to 20)
#    0.000    1.571    0.000    5.143    0.000    8.571 
#    0.000    4.286    0.000    0.000    0.000    0.000 
#    0.000    0.000    0.000    0.000    0.000    0.000 
#
# Total GULP energy -156584.345636 kJ/mol
# GULP energy per Si atom -5592.298058 kJ/mol
# Density = 1.914747 g / cm^3
# Si number density = 19.191149 Si / 1000 Ang^3
#
#
#
# Elastic Constant Matrix: (Units=GPa)
#
#
# Indices 1 2 3 4 5 6 
#
# 1 240.3812 53.0174 146.8880 0.0000 0.5919 0.0000
# 2 53.0174 35.8202 56.8001 0.0000 0.0310 0.0000
# 3 146.8880 56.8001 238.7201 0.0000 -0.8875 0.0000
# 4 0.0000 0.0000 0.0000 19.6126 0.0000 11.1492
# 5 0.5919 0.0310 -0.8875 0.0000 45.1637 0.0000
# 6 0.0000 0.0000 0.0000 11.1492 0.0000 -21.1466
#
#
#
# Elastic Compliance Matrix: (Units=1/GPa)
#
#
# Indices 1 2 3 4 5 6 
#
# 1 0.007389 -0.005983 -0.003123 0.000000 -0.000154 0.000000
# 2 -0.005983 0.049680 -0.008140 0.000000 -0.000116 0.000000
# 3 -0.003123 -0.008140 0.008048 0.000000 0.000205 0.000000
# 4 0.000000 0.000000 0.000000 0.039230 0.000000 0.020683
# 5 -0.000154 -0.000116 0.000205 0.000000 0.022148 0.000000
# 6 0.000000 0.000000 0.000000 0.020683 0.000000 -0.036384
#
#
# Mechanical properties :
#
#
# Convention : Reuss Voigt Hill
#
# Bulk Modulus (GPa) = 32.65327 114.25918 73.45622
# Shear Modulus (GPa) = 37.08913 25.94033 31.51473
#
# Velocity S-wave (km/s) = 4.40092 3.68051 4.05674
# Velocity P-wave (km/s) = 6.54797 8.81636 7.76544
#
# Compressibility (1/GPa) = 0.03062481
#
# Stress axis : x y z
#
# Youngs Moduli (GPa) = 135.34450 20.12888 124.25045
#
# Poissons Ratio (x) = 0.12043 0.38807
# Poissons Ratio (y) = 0.80978 1.01135
# Poissons Ratio (z) = 0.42272 0.16384
#
# Static dielectric constant tensor:
#      x y z
#    x 1.627530 0.000000 0.005670 
#    y 0.000000 1.648470 0.000000 
#    z 0.005670 0.000000 1.637280 
# 
# From -- ./inp_files/34179.got.cif
#   From: 2010.05.17/outbox.cif.g08.bks.cpg/sg10_18_cif.got.tgz:34179.got - 2010.06.03 11:33:40.
