data_PCOD9150992
_publ_section_title
;
Structure prediction by ZEFSAII (Michael W. Deem and Ramdas Pophale) SiO2 
 PCOD9150992
Probable space group: P 2/M
;
_chemical_formula_sum "Si O2"
_cell_formula_units_Z 28
_cell_length_a 10.363792
_cell_length_b 7.911792
_cell_length_c 28.095596
_cell_angle_alpha 90.000000
_cell_angle_beta 145.216597
_cell_angle_gamma 90.000000
_cell_volume 1314.222606
_symmetry_space_group_name_H-M "P 2/M"
_symmetry_group_IT_number 10
_symmetry_cell_setting 'monoclinic'
loop_
_space_group_symop_operation_xyz
x,y,z
-x,y,-z
-x,-y,-z
x,-y,z
loop_
_atom_site_type_symbol
_atom_site_label
_atom_site_fract_x
_atom_site_fract_y
_atom_site_fract_z
Si Si1 0.903950 0.697678 0.855482
Si Si2 0.814432 0.197112 0.721392
Si Si3 0.593720 0.803151 0.977923
Si Si4 0.032025 0.703906 0.563148
Si Si5 0.251524 0.303932 0.797483
Si Si6 0.437814 0.203408 0.533910
Si Si7 0.569862 0.292843 0.249839
O O1 0.934724 0.500000 0.875636
O O2 0.852530 0.715353 0.783622
O O3 0.685190 0.762916 0.817487
O O4 0.137281 0.786946 0.939281
O O5 0.608712 0.265958 0.626857
O O6 0.041895 0.213076 0.759071
O O7 0.772521 0.000000 0.719004
O O8 0.528480 0.000000 0.954547
O O9 0.500000 0.737353 0.000000
O O10 0.468333 0.709840 0.897382
O O11 0.040124 0.500000 0.563748
O O12 0.817153 0.753117 0.529583
O O13 0.000000 0.768863 0.500000
O O14 0.263824 0.761738 0.657553
O O15 0.185565 0.500000 0.772368
O O16 0.323186 0.237159 0.767616
O O17 0.500000 0.266897 0.500000
O O18 0.463090 0.000000 0.540746
O O19 0.565068 0.500000 0.247858
#
# Coordination Sequence:
#
# PCOD9150992 Si02
#       7
#     4   4   4   4   4   4   4
#     4  11  22  39  64  88 115 151 195 237 284 346
#     4  11  22  37  57  85 119 152 193 244 292 338
#     4  11  23  40  61  87 122 152 186 238 291 342
#     4  10  20  37  61  86 117 155 196 241 291 342
#     4  11  22  38  62  87 116 154 196 238 289 348
#     4  10  22  38  56  82 117 155 195 240 290 344
#     4   9  21  39  58  88 122 151 190 245 294 337
#
# _framework density 21.305368999999999
#
# number of rings (size 3 to 8) (size 9 to 14) (size 15 to 20)
#    0.000    1.571    1.429    3.429    0.000    4.000 
#    0.000    7.857    0.000    0.000    0.000    0.000 
#    0.000    0.000    0.000    0.000    0.000    0.000 
#
# Total GULP energy -156574.757370 kJ/mol
# GULP energy per Si atom -5591.955620 kJ/mol
# Density = 2.125688 g / cm^3
# Si number density = 21.305369 Si / 1000 Ang^3
#
#
#
# Elastic Constant Matrix: (Units=GPa)
#
#
# Indices 1 2 3 4 5 6 
#
# 1 64.1109 -11.2414 -18.3349 0.0000 8.8958 0.0000
# 2 -11.2414 24.2807 -9.7829 0.0000 -4.6319 0.0000
# 3 -18.3349 -9.7829 64.1037 0.0000 13.3604 0.0000
# 4 0.0000 0.0000 0.0000 -6.3581 0.0000 17.7393
# 5 8.8958 -4.6319 13.3604 0.0000 37.5081 0.0000
# 6 0.0000 0.0000 0.0000 17.7393 0.0000 1.2575
#
#
#
# Elastic Compliance Matrix: (Units=1/GPa)
#
#
# Indices 1 2 3 4 5 6 
#
# 1 0.021447 0.012426 0.009474 0.000000 -0.006927 0.000000
# 2 0.012426 0.051458 0.011555 0.000000 -0.000708 0.000000
# 3 0.009474 0.011555 0.021867 0.000000 -0.008609 0.000000
# 4 0.000000 0.000000 0.000000 -0.003897 0.000000 0.054975
# 5 -0.006927 -0.000708 -0.008609 0.000000 0.031283 0.000000
# 6 0.000000 0.000000 0.000000 0.054975 0.000000 0.019704
#
#
# Mechanical properties :
#
#
# Convention : Reuss Voigt Hill
#
# Bulk Modulus (GPa) = 6.18499 8.19742 7.19120
# Shear Modulus (GPa) = 38.80548 19.27179 29.03864
#
# Velocity S-wave (km/s) = 4.27241 3.01084 3.69585
# Velocity P-wave (km/s) = 5.21989 3.99284 4.64705
#
# Compressibility (1/GPa) = 0.16168182
#
# Stress axis : x y z
#
# Youngs Moduli (GPa) = 46.62562 19.43332 45.73042
#
# Poissons Ratio (x) = -0.24147 -0.43327
# Poissons Ratio (y) = -0.57935 -0.52840
# Poissons Ratio (z) = -0.44175 -0.22454
#
# Static dielectric constant tensor:
#      x y z
#    x 1.774810 0.000000 -0.001960 
#    y 0.000000 1.757910 0.000000 
#    z -0.001960 0.000000 1.745130 
# 
# From -- ./inp_files/92101.got.cif
#   From: 2010.05.17/outbox.cif.g08.bks.cpg/sg10_47_cif.got.tgz:92101.got - 2010.06.03 11:33:40.
