data_PCOD9150541
_publ_section_title
;
Structure prediction by ZEFSAII (Michael W. Deem and Ramdas Pophale) SiO2 
 PCOD9150541
Probable space group: P 2/M
;
_chemical_formula_sum "Si O2"
_cell_formula_units_Z 30
_cell_length_a 13.855813
_cell_length_b 17.302898
_cell_length_c 18.348061
_cell_angle_alpha 90.000000
_cell_angle_beta 21.394937
_cell_angle_gamma 90.000000
_cell_volume 1604.683286
_symmetry_space_group_name_H-M "P 2/M"
_symmetry_group_IT_number 10
_symmetry_cell_setting 'monoclinic'
loop_
_space_group_symop_operation_xyz
x,y,z
-x,y,-z
-x,-y,-z
x,-y,z
loop_
_atom_site_type_symbol
_atom_site_label
_atom_site_fract_x
_atom_site_fract_y
_atom_site_fract_z
Si Si1 0.987903 0.759320 0.422093
Si Si2 0.240134 0.407522 0.045818
Si Si3 0.500000 0.676380 0.000000
Si Si4 0.756410 0.088356 0.524726
Si Si5 0.616578 0.407283 0.496010
Si Si6 0.213124 0.908993 0.670020
Si Si7 0.441768 0.320136 0.760217
Si Si8 0.179111 0.844778 0.942871
O O1 0.931386 0.848316 0.442290
O O2 0.735929 0.711148 0.570871
O O3 0.000000 0.749695 0.500000
O O4 0.253812 0.728211 0.198604
O O5 0.268335 0.500000 0.021602
O O6 0.929696 0.389537 0.276940
O O7 0.405403 0.374602 0.997766
O O8 0.337599 0.369302 0.901959
O O9 0.790389 0.099636 0.414076
O O10 0.448783 0.106532 0.756537
O O11 0.819277 0.000000 0.499038
O O12 0.500000 0.382651 0.500000
O O13 0.587421 0.500000 0.522377
O O14 0.465420 0.367939 0.669188
O O15 0.500000 0.887091 0.500000
O O16 0.172454 0.000000 0.716150
O O17 0.990984 0.859417 0.865620
O O18 0.262141 0.244305 0.876923
O O19 0.000000 0.868676 0.000000
#
# Coordination Sequence:
#
# PCOD9150541 Si02
#       8
#     4   4   2   4   4   4   4   4
#     4  11  24  43  65  91 124 163 203 266 332 371
#     4  11  24  42  69  96 124 168 219 266 316 376
#     4  12  23  44  67  94 128 160 214 274 323 378
#     4  10  23  41  63  92 125 165 212 256 310 380
#     4  10  23  43  65  93 132 172 209 256 316 382
#     4  10  20  36  59  88 125 165 207 257 310 369
#     4  11  24  41  60  95 128 166 210 261 317 384
#     4  11  23  36  58  92 127 169 208 253 308 365
#
# _framework density 18.695278999999999
#
# number of rings (size 3 to 8) (size 9 to 14) (size 15 to 20)
#    0.000    1.333    4.000    1.000    3.733    0.800 
#    0.000    3.000    0.000    0.000    0.000    0.000 
#    0.000    0.000    0.000    0.000    0.000    0.000 
#
# Total GULP energy -167708.234190 kJ/mol
# GULP energy per Si atom -5590.274473 kJ/mol
# Density = 1.865273 g / cm^3
# Si number density = 18.695279 Si / 1000 Ang^3
#
#
#
# Elastic Constant Matrix: (Units=GPa)
#
#
# Indices 1 2 3 4 5 6 
#
# 1 69.5254 18.2762 18.5260 0.0000 15.5650 0.0000
# 2 18.2762 60.9999 45.8867 0.0000 12.3141 0.0000
# 3 18.5260 45.8867 123.0181 0.0000 17.2365 0.0000
# 4 0.0000 0.0000 0.0000 27.3002 0.0000 10.2580
# 5 15.5650 12.3141 17.2365 0.0000 33.5850 0.0000
# 6 0.0000 0.0000 0.0000 10.2580 0.0000 24.5001
#
#
#
# Elastic Compliance Matrix: (Units=1/GPa)
#
#
# Indices 1 2 3 4 5 6 
#
# 1 0.016812 -0.003505 -0.000337 0.000000 -0.006334 0.000000
# 2 -0.003505 0.024110 -0.008032 0.000000 -0.003093 0.000000
# 3 -0.000337 -0.008032 0.011573 0.000000 -0.002839 0.000000
# 4 0.000000 0.000000 0.000000 0.043468 0.000000 -0.018200
# 5 -0.006334 -0.003093 -0.002839 0.000000 0.035302 0.000000
# 6 0.000000 0.000000 0.000000 -0.018200 0.000000 0.048436
#
#
# Mechanical properties :
#
#
# Convention : Reuss Voigt Hill
#
# Bulk Modulus (GPa) = 34.78543 46.54678 40.66611
# Shear Modulus (GPa) = 23.47058 28.46735 25.96897
#
# Velocity S-wave (km/s) = 3.54705 3.90642 3.73106
# Velocity P-wave (km/s) = 5.95166 6.73041 6.35298
#
# Compressibility (1/GPa) = 0.02874767
#
# Stress axis : x y z
#
# Youngs Moduli (GPa) = 59.48000 41.47646 86.40551
#
# Poissons Ratio (x) = 0.14538 0.02912
# Poissons Ratio (y) = 0.20848 0.69401
# Poissons Ratio (z) = 0.02005 0.33314
#
# Static dielectric constant tensor:
#      x y z
#    x 1.626270 0.000000 -0.006610 
#    y 0.000000 1.633220 0.000000 
#    z -0.006610 0.000000 1.617570 
# 
# From -- ./inp_files/78368.got.cif
#   From: 2010.05.17/outbox.cif.g08.bks.cpg/sg10_40_cif.got.tgz:78368.got - 2010.06.03 11:33:40.
