data_PCOD9150924
_publ_section_title
;
Structure prediction by ZEFSAII (Michael W. Deem and Ramdas Pophale) SiO2 
 PCOD9150924
Probable space group: P 2/M
;
_chemical_formula_sum "Si O2"
_cell_formula_units_Z 32
_cell_length_a 26.119475
_cell_length_b 7.596716
_cell_length_c 24.653882
_cell_angle_alpha 90.000000
_cell_angle_beta 17.762767
_cell_angle_gamma 90.000000
_cell_volume 1492.397171
_symmetry_space_group_name_H-M "P 2/M"
_symmetry_group_IT_number 10
_symmetry_cell_setting 'monoclinic'
loop_
_space_group_symop_operation_xyz
x,y,z
-x,y,-z
-x,-y,-z
x,-y,z
loop_
_atom_site_type_symbol
_atom_site_label
_atom_site_fract_x
_atom_site_fract_y
_atom_site_fract_z
Si Si1 0.194915 0.285384 0.801152
Si Si2 0.677108 0.708923 0.939516
Si Si3 0.299557 0.792232 0.319126
Si Si4 0.024400 0.293943 0.286175
Si Si5 0.987456 0.716012 0.201442
Si Si6 0.328294 0.715121 0.549558
Si Si7 0.697651 0.285087 0.189127
Si Si8 0.808924 0.789085 0.688416
O O1 0.199160 0.500000 0.796463
O O2 0.277030 0.228444 0.662025
O O3 0.283170 0.228956 0.767641
O O4 0.000000 0.233686 0.000000
O O5 0.683620 0.500000 0.936399
O O6 0.711337 0.754016 0.842252
O O7 0.828130 0.781979 0.824457
O O8 0.490365 0.763525 0.144513
O O9 0.153926 0.717065 0.503807
O O10 0.275220 0.723015 0.282078
O O11 0.269493 0.000000 0.348613
O O12 0.064496 0.500000 0.238841
O O13 0.010701 0.220710 0.239390
O O14 0.985243 0.500000 0.203799
O O15 0.813023 0.772698 0.350135
O O16 0.142889 0.770639 0.006889
O O17 0.326166 0.500000 0.551657
O O18 0.518430 0.770725 0.346599
O O19 0.700002 0.500000 0.187036
O O20 0.000000 0.721362 0.500000
O O21 0.817880 0.000000 0.674799
#
# Coordination Sequence:
#
# PCOD9150924 Si02
#       8
#     4   4   4   4   4   4   4   4
#     4   9  13  19  31  49  77 111 154 206 253 298
#     4  11  23  37  57  85 116 146 177 219 271 323
#     4  11  23  39  61  84 109 142 180 222 268 321
#     4  10  22  38  55  77 108 144 183 226 268 315
#     4   9  17  29  42  59  86 124 169 211 252 302
#     4   9  15  22  35  54  78 116 160 206 253 302
#     4   9  15  22  34  53  79 114 159 206 254 304
#     4  10  20  37  60  85 112 143 179 219 267 323
#
# _framework density 21.442012999999999
#
# number of rings (size 3 to 8) (size 9 to 14) (size 15 to 20)
#    0.000    2.250    2.500    1.500    0.000    5.750 
#    0.000    3.750    0.000    0.000    0.000    0.000 
#    0.000    0.000    0.000    2.250    0.000   13.250 
#
# Total GULP energy -178737.627208 kJ/mol
# GULP energy per Si atom -5585.550850 kJ/mol
# Density = 2.139321 g / cm^3
# Si number density = 21.442013 Si / 1000 Ang^3
#
#
#
# Elastic Constant Matrix: (Units=GPa)
#
#
# Indices 1 2 3 4 5 6 
#
# 1 143.9699 2.1548 55.7390 0.0000 -4.7263 0.0000
# 2 2.1548 45.0813 -9.9652 0.0000 -2.2010 0.0000
# 3 55.7390 -9.9652 110.6525 0.0000 -34.0105 0.0000
# 4 0.0000 0.0000 0.0000 17.2321 0.0000 7.3474
# 5 -4.7263 -2.2010 -34.0105 0.0000 17.9648 0.0000
# 6 0.0000 0.0000 0.0000 7.3474 0.0000 2.7818
#
#
#
# Elastic Compliance Matrix: (Units=1/GPa)
#
#
# Indices 1 2 3 4 5 6 
#
# 1 0.011213 -0.004394 -0.012683 0.000000 -0.021599 0.000000
# 2 -0.004394 0.026416 0.012513 0.000000 0.025770 0.000000
# 3 -0.012683 0.012513 0.038264 0.000000 0.070636 0.000000
# 4 0.000000 0.000000 0.000000 -0.459894 0.000000 1.214702
# 5 -0.021599 0.025770 0.070636 0.000000 0.186866 0.000000
# 6 0.000000 0.000000 0.000000 1.214702 0.000000 -2.848869
#
#
# Mechanical properties :
#
#
# Convention : Reuss Voigt Hill
#
# Bulk Modulus (GPa) = 14.97765 43.95122 29.46444
# Shear Modulus (GPa) = -1.65858 24.38074 11.36108
#
# Velocity S-wave (km/s) = -0.88045 3.37568 2.30435
# Velocity P-wave (km/s) = 2.44269 5.97795 4.56632
#
# Compressibility (1/GPa) = 0.06676614
#
# Stress axis : x y z
#
# Youngs Moduli (GPa) = 89.18429 37.85537 26.13437
#
# Poissons Ratio (x) = 0.16633 0.33145
# Poissons Ratio (y) = 0.39187 -0.32702
# Poissons Ratio (z) = 1.13108 -0.47369
#
# Static dielectric constant tensor:
#      x y z
#    x 1.767360 0.000000 -0.026150 
#    y 0.000000 1.820380 0.000000 
#    z -0.026150 0.000000 1.770690 
# 
# From -- ./inp_files/90548.got.cif
#   From: 2010.05.17/outbox.cif.g08.bks.cpg/sg10_46_cif.got.tgz:90548.got - 2010.06.03 11:33:40.
