data_PCOD9150578
_publ_section_title
;
Structure prediction by ZEFSAII (Michael W. Deem and Ramdas Pophale) SiO2 
 PCOD9150578
Probable space group: P 2/M
;
_chemical_formula_sum "Si O2"
_cell_formula_units_Z 20
_cell_length_a 26.535383
_cell_length_b 8.220767
_cell_length_c 9.214308
_cell_angle_alpha 90.000000
_cell_angle_beta 149.947443
_cell_angle_gamma 90.000000
_cell_volume 1006.606441
_symmetry_space_group_name_H-M "P 2/M"
_symmetry_group_IT_number 10
_symmetry_cell_setting 'monoclinic'
loop_
_space_group_symop_operation_xyz
x,y,z
-x,y,-z
-x,-y,-z
x,-y,z
loop_
_atom_site_type_symbol
_atom_site_label
_atom_site_fract_x
_atom_site_fract_y
_atom_site_fract_z
Si Si1 0.698804 0.194795 0.162615
Si Si2 0.700433 0.305345 0.834111
Si Si3 0.498961 0.303399 0.830758
Si Si4 0.900506 0.803653 0.167993
Si Si5 0.898592 0.198929 0.829513
O O1 0.798853 0.253066 0.495983
O O2 0.700770 0.000000 0.167995
O O3 0.698831 0.252252 0.996992
O O4 0.599131 0.251846 0.996799
O O5 0.699683 0.500000 0.827094
O O6 0.600628 0.245318 0.501636
O O7 0.800321 0.244655 0.003190
O O8 0.496214 0.500000 0.825842
O O9 0.500000 0.246029 0.000000
O O10 0.000000 0.744889 0.500000
O O11 0.905189 0.000000 0.176230
O O12 0.898118 0.746649 0.995393
O O13 0.898196 0.000000 0.828840
O O14 0.000000 0.250125 0.000000
#
# Coordination Sequence:
#
# PCOD9150578 Si02
#       5
#     4   4   4   4   4
#     4  11  22  36  58  85 112 145 186 231 276 325
#     4  11  23  38  57  81 112 149 186 226 275 331
#     4  10  22  40  59  80 111 149 185 226 279 333
#     4  10  20  36  60  86 112 144 183 229 278 326
#     4   9  18  34  56  83 113 143 178 223 276 329
#
# _framework density 19.868739000000001
#
# number of rings (size 3 to 8) (size 9 to 14) (size 15 to 20)
#    0.000    1.800    0.000    4.200    0.000    8.000 
#    0.000    1.000    0.000    4.200    0.000    0.000 
#    0.000    0.000    0.000    0.000    0.000    0.000 
#
# Total GULP energy -111806.359214 kJ/mol
# GULP energy per Si atom -5590.317961 kJ/mol
# Density = 1.982352 g / cm^3
# Si number density = 19.868739 Si / 1000 Ang^3
#
#
#
# Elastic Constant Matrix: (Units=GPa)
#
#
# Indices 1 2 3 4 5 6 
#
# 1 253.3318 13.4411 157.2050 0.0000 -2.7174 0.0000
# 2 13.4411 9.9399 20.5695 0.0000 -5.0201 0.0000
# 3 157.2050 20.5695 256.7862 0.0000 -2.1006 0.0000
# 4 0.0000 0.0000 0.0000 36.2815 0.0000 17.4119
# 5 -2.7174 -5.0201 -2.1006 0.0000 46.4206 0.0000
# 6 0.0000 0.0000 0.0000 17.4119 0.0000 44.0249
#
#
#
# Elastic Compliance Matrix: (Units=1/GPa)
#
#
# Indices 1 2 3 4 5 6 
#
# 1 0.006370 -0.000572 -0.003853 0.000000 0.000137 0.000000
# 2 -0.000572 0.128504 -0.009834 0.000000 0.013418 0.000000
# 3 -0.003853 -0.009834 0.007033 0.000000 -0.000971 0.000000
# 4 0.000000 0.000000 0.000000 0.034019 0.000000 -0.013455
# 5 0.000137 0.013418 -0.000971 0.000000 0.022957 0.000000
# 6 0.000000 0.000000 0.000000 -0.013455 0.000000 0.028036
#
#
# Mechanical properties :
#
#
# Convention : Reuss Voigt Hill
#
# Bulk Modulus (GPa) = 8.81912 100.27656 54.54784
# Shear Modulus (GPa) = 17.05129 47.26821 32.15975
#
# Velocity S-wave (km/s) = 2.93268 4.88282 4.02756
# Velocity P-wave (km/s) = 3.98946 9.07570 7.01014
#
# Compressibility (1/GPa) = 0.11339001
#
# Stress axis : x y z
#
# Youngs Moduli (GPa) = 156.98379 7.78186 142.19079
#
# Poissons Ratio (x) = 0.00445 0.54784
# Poissons Ratio (y) = 0.08975 1.39828
# Poissons Ratio (z) = 0.60484 0.07653
#
# Static dielectric constant tensor:
#      x y z
#    x 1.651440 0.000000 -0.017690 
#    y 0.000000 1.704470 0.000000 
#    z -0.017690 0.000000 1.686710 
# 
# From -- ./inp_files/22127.got.cif
#   From: 2010.05.17/outbox.cif.g08.bks.cpg/sg10_12_cif.got.tgz:22127.got - 2010.06.03 11:33:40.
