data_PCOD9150989
_publ_section_title
;
Structure prediction by ZEFSAII (Michael W. Deem and Ramdas Pophale) SiO2 
 PCOD9150989
Probable space group: P 2/M
;
_chemical_formula_sum "Si O2"
_cell_formula_units_Z 32
_cell_length_a 22.055080
_cell_length_b 8.726673
_cell_length_c 28.520850
_cell_angle_alpha 90.000000
_cell_angle_beta 161.184517
_cell_angle_gamma 90.000000
_cell_volume 1770.428817
_symmetry_space_group_name_H-M "P 2/M"
_symmetry_group_IT_number 10
_symmetry_cell_setting 'monoclinic'
loop_
_space_group_symop_operation_xyz
x,y,z
-x,y,-z
-x,-y,-z
x,-y,z
loop_
_atom_site_type_symbol
_atom_site_label
_atom_site_fract_x
_atom_site_fract_y
_atom_site_fract_z
Si Si1 0.500804 0.184006 0.555481
Si Si2 0.100923 0.315655 0.679154
Si Si3 0.779984 0.683977 0.835418
Si Si4 0.573401 0.684459 0.156466
Si Si5 0.677244 0.316044 0.338836
Si Si6 0.801582 0.317224 0.596945
Si Si7 0.520970 0.182492 0.315885
Si Si8 0.824927 0.818536 0.164234
O O1 0.500000 0.223733 0.500000
O O2 0.676900 0.251416 0.713543
O O3 0.315976 0.249408 0.445837
O O4 0.503199 0.000000 0.561846
O O5 0.107164 0.500000 0.691207
O O6 0.259241 0.276203 0.756880
O O7 0.140420 0.234365 0.757050
O O8 0.893715 0.277234 0.508689
O O9 0.759772 0.500000 0.820935
O O10 0.664580 0.753369 0.794587
O O11 0.000000 0.722316 0.000000
O O12 0.548169 0.500000 0.135535
O O13 0.629080 0.724021 0.250307
O O14 0.381096 0.764616 0.001387
O O15 0.657458 0.500000 0.329647
O O16 0.546506 0.234593 0.281279
O O17 0.791942 0.500000 0.590249
O O18 0.693313 0.254886 0.471623
O O19 0.014562 0.261036 0.749622
O O20 0.527207 0.000000 0.324759
O O21 0.844221 0.000000 0.174637
#
# Coordination Sequence:
#
# PCOD9150989 Si02
#       8
#     4   4   4   4   4   4   4   4
#     4  10  21  38  61  90 122 153 186 232 289 345
#     4  10  20  37  63  87 111 149 196 241 286 346
#     4  10  21  38  61  88 117 153 197 239 278 331
#     4  10  22  39  58  85 117 152 194 240 291 344
#     4  10  20  37  61  86 115 151 194 240 285 340
#     4  11  21  37  62  86 112 152 199 242 281 333
#     4  11  21  35  59  88 118 153 191 235 288 343
#     4  12  24  38  57  84 118 154 193 239 294 346
#
# _framework density 18.074715999999999
#
# number of rings (size 3 to 8) (size 9 to 14) (size 15 to 20)
#    0.000    1.500    1.250    6.375    0.000    6.000 
#    2.250    0.000    0.000    2.250    0.000    0.000 
#    0.000    0.000    0.000    0.000    0.000    0.000 
#
# Total GULP energy -178843.978331 kJ/mol
# GULP energy per Si atom -5588.874323 kJ/mol
# Density = 1.803358 g / cm^3
# Si number density = 18.074716 Si / 1000 Ang^3
#
#
#
# Elastic Constant Matrix: (Units=GPa)
#
#
# Indices 1 2 3 4 5 6 
#
# 1 141.8286 63.6107 73.3155 0.0000 0.8952 0.0000
# 2 63.6107 82.8746 58.1599 0.0000 0.8856 0.0000
# 3 73.3155 58.1599 121.9811 0.0000 6.7412 0.0000
# 4 0.0000 0.0000 0.0000 108.2245 0.0000 -69.1990
# 5 0.8952 0.8856 6.7412 0.0000 25.9085 0.0000
# 6 0.0000 0.0000 0.0000 -69.1990 0.0000 42.4853
#
#
#
# Elastic Compliance Matrix: (Units=1/GPa)
#
#
# Indices 1 2 3 4 5 6 
#
# 1 0.012088 -0.006242 -0.004340 0.000000 0.000925 0.000000
# 2 -0.006242 0.021428 -0.006530 0.000000 0.001182 0.000000
# 3 -0.004340 -0.006530 0.014102 0.000000 -0.003296 0.000000
# 4 0.000000 0.000000 0.000000 -0.222955 0.000000 -0.363144
# 5 0.000925 0.001182 -0.003296 0.000000 0.039383 0.000000
# 6 0.000000 0.000000 0.000000 -0.363144 0.000000 -0.567942
#
#
# Mechanical properties :
#
#
# Convention : Reuss Voigt Hill
#
# Bulk Modulus (GPa) = 74.66635 81.87297 78.26966
# Shear Modulus (GPa) = -7.51647 45.43019 18.95686
#
# Velocity S-wave (km/s) = -2.04147 5.01889 3.24204
# Velocity P-wave (km/s) = 5.98688 8.88712 7.57706
#
# Compressibility (1/GPa) = 0.01339291
#
# Stress axis : x y z
#
# Youngs Moduli (GPa) = 82.72467 46.66829 70.90976
#
# Poissons Ratio (x) = 0.29132 0.30777
# Poissons Ratio (y) = 0.51639 0.46305
# Poissons Ratio (z) = 0.35906 0.30475
#
# Static dielectric constant tensor:
#      x y z
#    x 1.606220 0.000000 0.006100 
#    y 0.000000 1.605380 0.000000 
#    z 0.006100 0.000000 1.597300 
# 
# From -- ./inp_files/93698.got.cif
#   From: 2010.05.17/outbox.cif.g08.bks.cpg/sg10_47_cif.got.tgz:93698.got - 2010.06.03 11:33:40.
