data_PCOD9150141
_publ_section_title
;
Structure prediction by ZEFSAII (Michael W. Deem and Ramdas Pophale) SiO2 
 PCOD9150141
Probable space group: P 2/M
;
_chemical_formula_sum "Si O2"
_cell_formula_units_Z 22
_cell_length_a 21.743417
_cell_length_b 10.483867
_cell_length_c 11.224086
_cell_angle_alpha 90.000000
_cell_angle_beta 23.950866
_cell_angle_gamma 90.000000
_cell_volume 1038.666506
_symmetry_space_group_name_H-M "P 2/M"
_symmetry_group_IT_number 10
_symmetry_cell_setting 'monoclinic'
loop_
_space_group_symop_operation_xyz
x,y,z
-x,y,-z
-x,-y,-z
x,-y,z
loop_
_atom_site_type_symbol
_atom_site_label
_atom_site_fract_x
_atom_site_fract_y
_atom_site_fract_z
Si Si1 0.127671 0.702485 0.174143
Si Si2 0.338576 0.641165 0.219844
Si Si3 0.578439 0.642986 0.198309
Si Si4 0.897638 0.500000 0.993997
Si Si5 0.668959 0.141732 0.340472
Si Si6 0.836927 0.245814 0.263257
O O1 0.000000 0.720521 0.500000
O O2 0.274060 0.643233 0.981212
O O3 0.077941 0.611080 0.154084
O O4 0.196104 0.828526 0.991003
O O5 0.264321 0.500000 0.354008
O O6 0.239476 0.733617 0.473744
O O7 0.500000 0.633780 0.000000
O O8 0.368887 0.671464 0.029423
O O9 0.507291 0.500000 0.325541
O O10 0.457367 0.748659 0.448401
O O11 0.857923 0.385063 0.162514
O O12 0.736471 0.163100 0.352444
O O13 0.608236 0.000000 0.432901
O O14 0.000000 0.188984 0.000000
#
# Coordination Sequence:
#
# PCOD9150141 Si02
#       6
#     4   4   4   2   4   4
#     4  11  25  41  69 101 134 175 222 279 337 398
#     4  10  20  35  60  99 136 164 208 270 330 395
#     4  11  24  41  70 102 138 176 222 272 334 399
#     4  10  22  38  60 102 143 164 205 269 342 393
#     4  11  27  48  67  92 135 182 229 280 333 394
#     4  11  23  39  67  96 132 176 219 268 336 401
#
# _framework density 21.181004999999999
#
# number of rings (size 3 to 8) (size 9 to 14) (size 15 to 20)
#    0.000    1.273    3.636    1.091   10.182    2.909 
#    0.000    1.818    0.000    0.000    0.000    0.000 
#    0.000    0.000    0.000    0.000    0.000    0.000 
#
# Total GULP energy -122503.690966 kJ/mol
# GULP energy per Si atom -5568.349589 kJ/mol
# Density = 2.113280 g / cm^3
# Si number density = 21.181005 Si / 1000 Ang^3
#
#
#
# Elastic Constant Matrix: (Units=GPa)
#
#
# Indices 1 2 3 4 5 6 
#
# 1 83.7185 19.5379 26.6904 0.0000 19.3369 0.0000
# 2 19.5379 105.4023 53.8681 0.0000 10.2593 0.0000
# 3 26.6904 53.8681 107.0691 0.0000 22.3914 0.0000
# 4 0.0000 0.0000 0.0000 14.4602 0.0000 -9.5618
# 5 19.3369 10.2593 22.3914 0.0000 46.2282 0.0000
# 6 0.0000 0.0000 0.0000 -9.5618 0.0000 -88.2791
#
#
#
# Elastic Compliance Matrix: (Units=1/GPa)
#
#
# Indices 1 2 3 4 5 6 
#
# 1 0.013893 -0.001143 -0.001920 0.000000 -0.004627 0.000000
# 2 -0.001143 0.012869 -0.006334 0.000000 0.000690 0.000000
# 3 -0.001920 -0.006334 0.013957 0.000000 -0.004551 0.000000
# 4 0.000000 0.000000 0.000000 0.064533 0.000000 -0.006990
# 5 -0.004627 0.000690 -0.004551 0.000000 0.025619 0.000000
# 6 0.000000 0.000000 0.000000 -0.006990 0.000000 -0.010571
#
#
# Mechanical properties :
#
#
# Convention : Reuss Voigt Hill
#
# Bulk Modulus (GPa) = 45.61294 55.15363 50.38329
# Shear Modulus (GPa) = 34.15208 7.55475 20.85342
#
# Velocity S-wave (km/s) = 4.01982 1.89064 3.14113
# Velocity P-wave (km/s) = 6.56710 5.55533 6.08229
#
# Compressibility (1/GPa) = 0.02192360
#
# Stress axis : x y z
#
# Youngs Moduli (GPa) = 71.98071 77.70362 71.64835
#
# Poissons Ratio (x) = 0.08885 0.13758
# Poissons Ratio (y) = 0.08231 0.45383
# Poissons Ratio (z) = 0.13821 0.49218
#
# Static dielectric constant tensor:
#      x y z
#    x 1.786970 0.000000 -0.049160 
#    y 0.000000 1.746640 0.000000 
#    z -0.049160 0.000000 1.596960 
# 
# From -- ./inp_files/56905.got.cif
#   From: 2010.05.17/outbox.cif.g08.bks.cpg/sg10_29_cif.got.tgz:56905.got - 2010.06.03 11:33:40.
