data_PCOD9150988
_publ_section_title
;
Structure prediction by ZEFSAII (Michael W. Deem and Ramdas Pophale) SiO2 
 PCOD9150988
Probable space group: P 2/M
;
_chemical_formula_sum "Si O2"
_cell_formula_units_Z 24
_cell_length_a 15.971064
_cell_length_b 9.653063
_cell_length_c 7.542810
_cell_angle_alpha 90.000000
_cell_angle_beta 95.487817
_cell_angle_gamma 90.000000
_cell_volume 1157.542695
_symmetry_space_group_name_H-M "P 2/M"
_symmetry_group_IT_number 10
_symmetry_cell_setting 'monoclinic'
loop_
_space_group_symop_operation_xyz
x,y,z
-x,y,-z
-x,-y,-z
x,-y,z
loop_
_atom_site_type_symbol
_atom_site_label
_atom_site_fract_x
_atom_site_fract_y
_atom_site_fract_z
Si Si1 0.325691 0.846770 0.752967
Si Si2 0.131772 0.161295 0.601361
Si Si3 0.478260 0.344942 0.702097
Si Si4 0.912013 0.660497 0.086073
Si Si5 0.185466 0.834178 0.223803
Si Si6 0.632574 0.156240 0.825714
O O1 0.229579 0.827324 0.678952
O O2 0.389986 0.732168 0.701369
O O3 0.352091 0.000000 0.693575
O O4 0.333607 0.847256 0.966901
O O5 0.082941 0.261918 0.724072
O O6 0.133397 0.194193 0.392669
O O7 0.106072 0.000000 0.619457
O O8 0.500000 0.351883 0.500000
O O9 0.474291 0.500000 0.774589
O O10 0.553562 0.256589 0.801793
O O11 0.886132 0.500000 0.103469
O O12 0.848984 0.745529 0.946158
O O13 0.000000 0.663181 0.000000
O O14 0.284995 0.804335 0.271353
O O15 0.179667 0.000000 0.186003
O O16 0.606067 0.000000 0.771139
#
# Coordination Sequence:
#
# PCOD9150988 Si02
#       6
#     4   4   4   4   4   4
#     4  10  20  37  61  86 114 152 199 249 300 353
#     4  10  21  40  67  95 122 157 204 256 306 358
#     4  11  24  37  50  78 120 161 202 246 293 349
#     4  11  25  43  63  90 127 166 199 241 302 371
#     4  10  21  40  67  95 122 157 204 256 306 358
#     4  10  20  37  61  86 114 152 199 249 300 353
#
# _framework density 20.733578000000001
#
# number of rings (size 3 to 8) (size 9 to 14) (size 15 to 20)
#    0.000    1.667    1.667    2.500    0.000    9.333 
#    0.000    3.333    0.000    0.000    0.000    0.000 
#    0.000    0.000    0.000    0.000    0.000    0.000 
#
# Total GULP energy -134143.785740 kJ/mol
# GULP energy per Si atom -5589.324406 kJ/mol
# Density = 2.068639 g / cm^3
# Si number density = 20.733578 Si / 1000 Ang^3
#
#
#
# Elastic Constant Matrix: (Units=GPa)
#
#
# Indices 1 2 3 4 5 6 
#
# 1 55.1558 44.6255 -4.3875 0.0000 -7.2600 0.0000
# 2 44.6255 105.9974 26.5186 0.0000 -20.2499 0.0000
# 3 -4.3875 26.5186 64.8748 0.0000 -22.8476 0.0000
# 4 0.0000 0.0000 0.0000 36.7751 0.0000 -19.8397
# 5 -7.2600 -20.2499 -22.8476 0.0000 35.0458 0.0000
# 6 0.0000 0.0000 0.0000 -19.8397 0.0000 40.4038
#
#
#
# Elastic Compliance Matrix: (Units=1/GPa)
#
#
# Indices 1 2 3 4 5 6 
#
# 1 0.031502 -0.014878 0.009713 0.000000 0.004261 0.000000
# 2 -0.014878 0.018047 -0.007524 0.000000 0.002440 0.000000
# 3 0.009713 -0.007524 0.023785 0.000000 0.013171 0.000000
# 4 0.000000 0.000000 0.000000 0.036992 0.000000 0.018164
# 5 0.004261 0.002440 0.013171 0.000000 0.039414 0.000000
# 6 0.000000 0.000000 0.000000 0.018164 0.000000 0.033669
#
#
# Mechanical properties :
#
#
# Convention : Reuss Voigt Hill
#
# Bulk Modulus (GPa) = 20.85264 39.94904 30.40084
# Shear Modulus (GPa) = 22.24479 33.06304 27.65392
#
# Velocity S-wave (km/s) = 3.27905 3.99765 3.65605
# Velocity P-wave (km/s) = 4.94120 6.37322 5.70234
#
# Compressibility (1/GPa) = 0.04795557
#
# Stress axis : x y z
#
# Youngs Moduli (GPa) = 31.74420 55.41220 42.04289
#
# Poissons Ratio (x) = 0.82444 -0.40836
# Poissons Ratio (y) = 0.47230 0.31631
# Poissons Ratio (z) = -0.30833 0.41690
#
# Static dielectric constant tensor:
#      x y z
#    x 1.741220 0.000000 -0.021770 
#    y 0.000000 1.722980 0.000000 
#    z -0.021770 0.000000 1.770190 
# 
# From -- ./inp_files/31230.got.cif
#   From: 2010.05.17/outbox.cif.g08.bks.cpg/sg10_16_cif.got.tgz:31230.got - 2010.06.03 11:33:40.
