data_PCOD9150981
_publ_section_title
;
Structure prediction by ZEFSAII (Michael W. Deem and Ramdas Pophale) SiO2 
 PCOD9150981
Probable space group: P 2/M
;
_chemical_formula_sum "Si O2"
_cell_formula_units_Z 32
_cell_length_a 27.407572
_cell_length_b 8.137326
_cell_length_c 21.454721
_cell_angle_alpha 90.000000
_cell_angle_beta 161.129135
_cell_angle_gamma 90.000000
_cell_volume 1547.618446
_symmetry_space_group_name_H-M "P 2/M"
_symmetry_group_IT_number 10
_symmetry_cell_setting 'monoclinic'
loop_
_space_group_symop_operation_xyz
x,y,z
-x,y,-z
-x,-y,-z
x,-y,z
loop_
_atom_site_type_symbol
_atom_site_label
_atom_site_fract_x
_atom_site_fract_y
_atom_site_fract_z
Si Si1 0.937515 0.311528 0.516142
Si Si2 0.861517 0.302107 0.788057
Si Si3 0.539046 0.200917 0.243100
Si Si4 0.034788 0.698913 0.875357
Si Si5 0.535482 0.192826 0.382530
Si Si6 0.833887 0.194973 0.523675
Si Si7 0.368516 0.307242 0.297111
Si Si8 0.772505 0.191693 0.196009
O O1 0.984952 0.500000 0.573500
O O2 0.859426 0.269036 0.486652
O O3 0.825816 0.280951 0.323150
O O4 0.089000 0.209159 0.684999
O O5 0.841571 0.500000 0.768044
O O6 0.703896 0.218917 0.612356
O O7 0.913114 0.256920 0.780871
O O8 0.000000 0.258178 0.000000
O O9 0.538113 0.253296 0.314240
O O10 0.685368 0.256828 0.381126
O O11 0.543316 0.000000 0.249452
O O12 0.383962 0.251473 0.022301
O O13 0.040566 0.500000 0.878810
O O14 0.977275 0.766250 0.740467
O O15 0.199128 0.760048 0.095479
O O16 0.423574 0.287497 0.292821
O O17 0.496667 0.000000 0.336225
O O18 0.818486 0.000000 0.498074
O O19 0.500000 0.234621 0.500000
O O20 0.356360 0.500000 0.299421
O O21 0.754464 0.000000 0.189792
#
# Coordination Sequence:
#
# PCOD9150981 Si02
#       8
#     4   4   4   4   4   4   4   4
#     4  11  23  40  60  92 127 154 193 244 291 341
#     4  10  20  37  61  85 114 156 198 239 294 357
#     4   9  21  39  60  87 120 154 195 243 288 347
#     4  10  21  37  58  87 117 150 198 248 292 346
#     4  11  22  38  58  88 121 152 196 248 295 344
#     4  11  22  40  62  85 118 160 197 239 295 352
#     4  10  22  41  61  83 116 157 198 244 299 358
#     4  10  20  40  66  91 118 159 202 235 286 349
#
# _framework density 20.676931
#
# number of rings (size 3 to 8) (size 9 to 14) (size 15 to 20)
#    0.000    1.750    1.250    3.750    1.750    3.500 
#    0.000    8.125    0.000    0.000    0.000    0.000 
#    0.000    0.000    0.000    0.000    0.000    0.000 
#
# Total GULP energy -178798.972799 kJ/mol
# GULP energy per Si atom -5587.467900 kJ/mol
# Density = 2.062987 g / cm^3
# Si number density = 20.676931 Si / 1000 Ang^3
#
#
#
# Elastic Constant Matrix: (Units=GPa)
#
#
# Indices 1 2 3 4 5 6 
#
# 1 76.7157 -9.7041 8.6002 0.0000 -7.9455 0.0000
# 2 -9.7041 15.1580 -6.4656 0.0000 -3.0722 0.0000
# 3 8.6002 -6.4656 99.9776 0.0000 0.1841 0.0000
# 4 0.0000 0.0000 0.0000 20.5879 0.0000 -0.4579
# 5 -7.9455 -3.0722 0.1841 0.0000 25.1719 0.0000
# 6 0.0000 0.0000 0.0000 -0.4579 0.0000 30.1162
#
#
#
# Elastic Compliance Matrix: (Units=1/GPa)
#
#
# Indices 1 2 3 4 5 6 
#
# 1 0.015075 0.010614 -0.000622 0.000000 0.006058 0.000000
# 2 0.010614 0.077073 0.004048 0.000000 0.012727 0.000000
# 3 -0.000622 0.004048 0.010317 0.000000 0.000222 0.000000
# 4 0.000000 0.000000 0.000000 0.048589 0.000000 0.000739
# 5 0.006058 0.012727 0.000222 0.000000 0.043191 0.000000
# 6 0.000000 0.000000 0.000000 0.000739 0.000000 0.033216
#
#
# Mechanical properties :
#
#
# Convention : Reuss Voigt Hill
#
# Bulk Modulus (GPa) = 7.66021 19.63471 13.64746
# Shear Modulus (GPa) = 20.58502 28.46991 24.52747
#
# Velocity S-wave (km/s) = 3.15866 3.71468 3.44790
# Velocity P-wave (km/s) = 4.12500 5.28346 4.73976
#
# Compressibility (1/GPa) = 0.13054467
#
# Stress axis : x y z
#
# Youngs Moduli (GPa) = 66.33567 12.97475 96.92670
#
# Poissons Ratio (x) = -0.13771 0.06024
# Poissons Ratio (y) = -0.70406 -0.39235
# Poissons Ratio (z) = 0.04123 -0.05252
#
# Static dielectric constant tensor:
#      x y z
#    x 1.726690 0.000000 -0.002720 
#    y 0.000000 1.737000 0.000000 
#    z -0.002720 0.000000 1.731150 
# 
# From -- ./inp_files/87021.got.cif
#   From: 2010.05.17/outbox.cif.g08.bks.cpg/sg10_44_cif.got.tgz:87021.got - 2010.06.03 11:33:40.
