data_PCOD9150222
_publ_section_title
;
Structure prediction by ZEFSAII (Michael W. Deem and Ramdas Pophale) SiO2 
 PCOD9150222
Probable space group: P 2/M
;
_chemical_formula_sum "Si O2"
_cell_formula_units_Z 20
_cell_length_a 5.237989
_cell_length_b 10.732364
_cell_length_c 19.844694
_cell_angle_alpha 90.000000
_cell_angle_beta 61.596130
_cell_angle_gamma 90.000000
_cell_volume 981.290790
_symmetry_space_group_name_H-M "P 2/M"
_symmetry_group_IT_number 10
_symmetry_cell_setting 'monoclinic'
loop_
_space_group_symop_operation_xyz
x,y,z
-x,y,-z
-x,-y,-z
x,-y,z
loop_
_atom_site_type_symbol
_atom_site_label
_atom_site_fract_x
_atom_site_fract_y
_atom_site_fract_z
Si Si1 0.342200 0.133054 0.946356
Si Si2 0.154335 0.858206 0.553096
Si Si3 0.345017 0.638898 0.092040
Si Si4 0.085586 0.350372 0.316172
Si Si5 0.250698 0.353505 0.783196
O O1 0.474916 0.253481 0.894706
O O2 0.399544 0.000000 0.905133
O O3 0.500000 0.127960 0.000000
O O4 0.000000 0.144571 0.000000
O O5 0.500000 0.848509 0.500000
O O6 0.000000 0.848903 0.500000
O O7 0.046023 0.744652 0.612945
O O8 0.093617 0.000000 0.587193
O O9 0.356142 0.500000 0.121094
O O10 0.012254 0.683225 0.133292
O O11 0.500000 0.627177 0.000000
O O12 0.079444 0.500000 0.335219
O O13 0.419605 0.309055 0.262397
O O14 0.901353 0.337157 0.270688
O O15 0.282675 0.500000 0.792477
#
# Coordination Sequence:
#
# PCOD9150222 Si02
#       5
#     4   4   4   4   4
#     4   9  18  32  48  67  94 125 159 208 266 315
#     4  10  21  37  58  85 115 142 171 215 264 309
#     4   9  18  33  54  78 103 137 184 231 274 321
#     4  10  20  36  56  78 109 146 180 215 260 318
#     4   9  19  34  52  77 109 142 178 226 274 310
#
# _framework density 20.381319999999999
#
# number of rings (size 3 to 8) (size 9 to 14) (size 15 to 20)
#    0.000    2.600    0.000    1.200    0.000    4.400 
#    0.000    8.000    0.000    0.000    0.000    0.000 
#    0.000    0.000    0.000    0.000    0.000    0.000 
#
# Total GULP energy -111402.723486 kJ/mol
# GULP energy per Si atom -5570.136174 kJ/mol
# Density = 2.033493 g / cm^3
# Si number density = 20.381320 Si / 1000 Ang^3
#
#
#
# Elastic Constant Matrix: (Units=GPa)
#
#
# Indices 1 2 3 4 5 6 
#
# 1 139.7611 30.2260 51.3944 0.0000 -29.9421 0.0000
# 2 30.2260 145.7138 57.4374 0.0000 -14.4100 0.0000
# 3 51.3944 57.4374 113.1588 0.0000 -14.7393 0.0000
# 4 0.0000 0.0000 0.0000 10.2908 0.0000 -6.2720
# 5 -29.9421 -14.4100 -14.7393 0.0000 33.0629 0.0000
# 6 0.0000 0.0000 0.0000 -6.2720 0.0000 4.7642
#
#
#
# Elastic Compliance Matrix: (Units=1/GPa)
#
#
# Indices 1 2 3 4 5 6 
#
# 1 0.010095 0.000091 -0.003647 0.000000 0.007556 0.000000
# 2 0.000091 0.008695 -0.004194 0.000000 0.002002 0.000000
# 3 -0.003647 -0.004194 0.012691 0.000000 0.000527 0.000000
# 4 0.000000 0.000000 0.000000 0.491696 0.000000 0.647313
# 5 0.007556 0.002002 0.000527 0.000000 0.038196 0.000000
# 6 0.000000 0.000000 0.000000 0.647313 0.000000 1.062079
#
#
# Mechanical properties :
#
#
# Convention : Reuss Voigt Hill
#
# Bulk Modulus (GPa) = 62.57387 75.19437 68.88412
# Shear Modulus (GPa) = 3.04084 26.92864 14.98474
#
# Velocity S-wave (km/s) = 1.22279 3.63883 2.71443
# Velocity P-wave (km/s) = 5.72380 7.39112 6.61024
#
# Compressibility (1/GPa) = 0.01598111
#
# Stress axis : x y z
#
# Youngs Moduli (GPa) = 99.05547 115.00736 78.79678
#
# Poissons Ratio (x) = -0.01043 0.28736
# Poissons Ratio (y) = -0.00898 0.33046
# Poissons Ratio (z) = 0.36125 0.48233
#
# Static dielectric constant tensor:
#      x y z
#    x 1.799010 0.000000 0.030600 
#    y 0.000000 1.803190 0.000000 
#    z 0.030600 0.000000 1.780670 
# 
# From -- ./inp_files/8964.got.cif
#   From: 2010.05.17/outbox.cif.g08.bks.cpg/sg10_5_cif.got.tgz:8964.got - 2010.06.03 11:33:40.
