data_PCOD9150868
_publ_section_title
;
Structure prediction by ZEFSAII (Michael W. Deem and Ramdas Pophale) SiO2 
 PCOD9150868
Probable space group: P 2/M
;
_chemical_formula_sum "Si O2"
_cell_formula_units_Z 32
_cell_length_a 8.673148
_cell_length_b 28.137137
_cell_length_c 14.142461
_cell_angle_alpha 90.000000
_cell_angle_beta 29.597544
_cell_angle_gamma 90.000000
_cell_volume 1704.608771
_symmetry_space_group_name_H-M "P 2/M"
_symmetry_group_IT_number 10
_symmetry_cell_setting 'monoclinic'
loop_
_space_group_symop_operation_xyz
x,y,z
-x,y,-z
-x,-y,-z
x,-y,z
loop_
_atom_site_type_symbol
_atom_site_label
_atom_site_fract_x
_atom_site_fract_y
_atom_site_fract_z
Si Si1 0.299766 0.187479 0.908305
Si Si2 0.366945 0.627490 0.298258
Si Si3 0.772750 0.945402 0.212509
Si Si4 0.326994 0.555231 0.991685
Si Si5 0.774080 0.871478 0.538616
Si Si6 0.755380 0.371566 0.285504
Si Si7 0.183826 0.706112 0.002520
Si Si8 0.165400 0.112662 0.146192
O O1 0.594533 0.172786 0.685128
O O2 0.298164 0.240259 0.953141
O O3 0.249988 0.150956 0.020287
O O4 0.000000 0.183776 0.000000
O O5 0.564259 0.627509 0.289695
O O6 0.523559 0.670669 0.156965
O O7 0.000000 0.634638 0.500000
O O8 0.439740 0.577880 0.208715
O O9 0.488911 0.909809 0.345821
O O10 0.955652 0.926792 0.206929
O O11 0.674870 0.000000 0.275184
O O12 0.000000 0.942153 0.000000
O O13 0.257718 0.500000 0.012006
O O14 0.017947 0.587647 0.149462
O O15 0.500000 0.559936 0.000000
O O16 0.000000 0.890620 0.500000
O O17 0.977022 0.864408 0.335073
O O18 0.500000 0.379147 0.500000
O O19 0.934072 0.320894 0.201976
O O20 0.000000 0.706204 0.000000
O O21 0.500000 0.092852 0.000000
#
# Coordination Sequence:
#
# PCOD9150868 Si02
#       8
#     4   4   4   4   4   4   4   4
#     4  11  21  42  62  90 123 159 201 257 304 364
#     4  10  20  37  59  84 117 158 194 247 296 355
#     4  11  23  43  67  93 125 162 203 251 305 364
#     4  10  21  37  59  86 117 156 200 250 303 354
#     4  12  23  40  66  88 124 165 198 252 305 358
#     4  10  20  38  59  86 119 157 199 246 298 357
#     4   8  19  38  59  82 118 153 197 246 300 353
#     4  12  23  41  63  91 124 160 204 248 305 360
#
# _framework density 18.772635999999999
#
# number of rings (size 3 to 8) (size 9 to 14) (size 15 to 20)
#    0.000    1.500    3.750    2.250    0.000    3.500 
#    6.750    2.500    0.000    0.000    0.000    0.000 
#    0.000    0.000    0.000    0.000    0.000    0.000 
#
# Total GULP energy -178491.938314 kJ/mol
# GULP energy per Si atom -5577.873072 kJ/mol
# Density = 1.872991 g / cm^3
# Si number density = 18.772636 Si / 1000 Ang^3
#
#
#
# Elastic Constant Matrix: (Units=GPa)
#
#
# Indices 1 2 3 4 5 6 
#
# 1 77.6828 22.6240 21.1675 0.0000 -14.3300 0.0000
# 2 22.6240 90.3376 15.4339 0.0000 -15.2545 0.0000
# 3 21.1675 15.4339 96.9352 0.0000 -13.8870 0.0000
# 4 0.0000 0.0000 0.0000 6.5535 0.0000 8.7375
# 5 -14.3300 -15.2545 -13.8870 0.0000 38.9845 0.0000
# 6 0.0000 0.0000 0.0000 8.7375 0.0000 7.6436
#
#
#
# Elastic Compliance Matrix: (Units=1/GPa)
#
#
# Indices 1 2 3 4 5 6 
#
# 1 0.014968 -0.002744 -0.002315 0.000000 0.003603 0.000000
# 2 -0.002744 0.012511 -0.000881 0.000000 0.003573 0.000000
# 3 -0.002315 -0.000881 0.011371 0.000000 0.002855 0.000000
# 4 0.000000 0.000000 0.000000 -0.291164 0.000000 0.332835
# 5 0.003603 0.003573 0.002855 0.000000 0.029391 0.000000
# 6 0.000000 0.000000 0.000000 0.332835 0.000000 -0.249641
#
#
# Mechanical properties :
#
#
# Convention : Reuss Voigt Hill
#
# Bulk Modulus (GPa) = 37.08062 42.60071 39.84066
# Shear Modulus (GPa) = -11.06943 24.35165 6.64111
#
# Velocity S-wave (km/s) = -2.43092 3.60556 1.88291
# Velocity P-wave (km/s) = 3.45198 6.33053 5.09862
#
# Compressibility (1/GPa) = 0.02696827
#
# Stress axis : x y z
#
# Youngs Moduli (GPa) = 66.81042 79.93151 87.94313
#
# Poissons Ratio (x) = 0.21937 0.20361
# Poissons Ratio (y) = 0.18336 0.07746
# Poissons Ratio (z) = 0.15469 0.07040
#
# Static dielectric constant tensor:
#      x y z
#    x 1.606020 0.000000 0.023860 
#    y 0.000000 1.648840 0.000000 
#    z 0.023860 0.000000 1.654160 
# 
# From -- ./inp_files/62736.got.cif
#   From: 2010.05.17/outbox.cif.g08.bks.cpg/sg10_32_cif.got.tgz:62736.got - 2010.06.03 11:33:40.
