data_PCOD9150475
_publ_section_title
;
Structure prediction by ZEFSAII (Michael W. Deem and Ramdas Pophale) SiO2 
 PCOD9150475
Probable space group: P 2/M
;
_chemical_formula_sum "Si O2"
_cell_formula_units_Z 20
_cell_length_a 26.589350
_cell_length_b 8.288489
_cell_length_c 9.210601
_cell_angle_alpha 90.000000
_cell_angle_beta 150.002852
_cell_angle_gamma 90.000000
_cell_volume 1014.854109
_symmetry_space_group_name_H-M "P 2/M"
_symmetry_group_IT_number 10
_symmetry_cell_setting 'monoclinic'
loop_
_space_group_symop_operation_xyz
x,y,z
-x,y,-z
-x,-y,-z
x,-y,z
loop_
_atom_site_type_symbol
_atom_site_label
_atom_site_fract_x
_atom_site_fract_y
_atom_site_fract_z
Si Si1 0.700170 0.691558 0.332741
Si Si2 0.301413 0.195167 0.339466
Si Si3 0.101063 0.197240 0.670017
Si Si4 0.499051 0.195124 0.330675
Si Si5 0.899494 0.804841 0.665999
O O1 0.699635 0.500000 0.330934
O O2 0.699071 0.751882 0.495413
O O3 0.799947 0.752336 0.501174
O O4 0.601628 0.753230 0.002714
O O5 0.401780 0.251085 0.507380
O O6 0.301528 0.000000 0.336999
O O7 0.201030 0.249759 0.004763
O O8 0.101649 0.249860 0.504122
O O9 0.000000 0.248756 0.500000
O O10 0.101209 0.000000 0.670219
O O11 0.500000 0.251026 0.500000
O O12 0.501391 0.000000 0.338463
O O13 0.901329 0.000000 0.669286
O O14 0.000000 0.749128 0.000000
#
# Coordination Sequence:
#
# PCOD9150475 Si02
#       5
#     4   4   4   4   4
#     4  12  25  38  55  82 119 156 189 230 282 343
#     4  10  20  36  59  84 112 148 191 237 282 333
#     4   9  17  32  58  90 115 138 179 235 289 337
#     4  10  21  39  63  87 111 144 191 243 288 335
#     4  10  20  37  63  89 113 146 190 238 285 336
#
# _framework density 19.707266000000001
#
# number of rings (size 3 to 8) (size 9 to 14) (size 15 to 20)
#    0.000    1.800    0.000    4.800    0.000   10.400 
#    0.000    3.000    0.000    2.400    0.000    0.000 
#    0.000    0.000    0.000    0.000    0.000    0.000 
#
# Total GULP energy -111801.589235 kJ/mol
# GULP energy per Si atom -5590.079462 kJ/mol
# Density = 1.966241 g / cm^3
# Si number density = 19.707266 Si / 1000 Ang^3
#
#
#
# Elastic Constant Matrix: (Units=GPa)
#
#
# Indices 1 2 3 4 5 6 
#
# 1 248.5589 19.9767 155.0383 0.0000 -0.4732 0.0000
# 2 19.9767 8.6043 18.2885 0.0000 -1.0067 0.0000
# 3 155.0383 18.2885 246.0666 0.0000 -0.0952 0.0000
# 4 0.0000 0.0000 0.0000 -12.4138 0.0000 6.1050
# 5 -0.4732 -1.0067 -0.0952 0.0000 46.5234 0.0000
# 6 0.0000 0.0000 0.0000 6.1050 0.0000 -9.4937
#
#
#
# Elastic Compliance Matrix: (Units=1/GPa)
#
#
# Indices 1 2 3 4 5 6 
#
# 1 0.007092 -0.008291 -0.003852 0.000000 -0.000115 0.000000
# 2 -0.008291 0.148129 -0.005784 0.000000 0.003109 0.000000
# 3 -0.003852 -0.005784 0.006921 0.000000 -0.000150 0.000000
# 4 0.000000 0.000000 0.000000 -0.117814 0.000000 -0.075761
# 5 -0.000115 0.003109 -0.000150 0.000000 0.021560 0.000000
# 6 0.000000 0.000000 0.000000 -0.075761 0.000000 -0.154052
#
#
# Mechanical properties :
#
#
# Convention : Reuss Voigt Hill
#
# Bulk Modulus (GPa) = 7.91850 98.87074 53.39462
# Shear Modulus (GPa) = -489.62051 25.58493 -232.01779
#
# Velocity S-wave (km/s) = -15.77929 3.60703 -10.86221
# Velocity P-wave (km/s) = 18.10952 8.22351 11.40895
#
# Compressibility (1/GPa) = 0.12628657
#
# Stress axis : x y z
#
# Youngs Moduli (GPa) = 140.99832 6.75087 144.48656
#
# Poissons Ratio (x) = 0.05597 0.55662
# Poissons Ratio (y) = 1.16906 0.83574
# Poissons Ratio (z) = 0.54318 0.03905
#
# Static dielectric constant tensor:
#      x y z
#    x 1.660970 0.000000 0.000270 
#    y 0.000000 1.672080 0.000000 
#    z 0.000270 0.000000 1.660040 
# 
# From -- ./inp_files/22109.got.cif
#   From: 2010.05.17/outbox.cif.g08.bks.cpg/sg10_12_cif.got.tgz:22109.got - 2010.06.03 11:33:40.
