data_PCOD9150433
_publ_section_title
;
Structure prediction by ZEFSAII (Michael W. Deem and Ramdas Pophale) SiO2 
 PCOD9150433
Probable space group: P 2/M
;
_chemical_formula_sum "Si O2"
_cell_formula_units_Z 24
_cell_length_a 8.291405
_cell_length_b 16.462308
_cell_length_c 14.195621
_cell_angle_alpha 90.000000
_cell_angle_beta 37.595883
_cell_angle_gamma 90.000000
_cell_volume 1182.131788
_symmetry_space_group_name_H-M "P 2/M"
_symmetry_group_IT_number 10
_symmetry_cell_setting 'monoclinic'
loop_
_space_group_symop_operation_xyz
x,y,z
-x,y,-z
-x,-y,-z
x,-y,z
loop_
_atom_site_type_symbol
_atom_site_label
_atom_site_fract_x
_atom_site_fract_y
_atom_site_fract_z
Si Si1 0.650132 0.905783 0.829803
Si Si2 0.958258 0.780945 0.407351
Si Si3 0.526854 0.678878 0.338738
Si Si4 0.975322 0.500000 0.231538
Si Si5 0.077364 0.674697 0.188772
Si Si6 0.264633 0.778209 0.927409
Si Si7 0.418368 0.500000 0.405512
O O1 0.473907 0.849723 0.843245
O O2 0.937690 0.863196 0.689596
O O3 0.663852 0.000000 0.796985
O O4 0.500000 0.901129 0.000000
O O5 0.659078 0.750856 0.537969
O O6 0.111607 0.711501 0.276653
O O7 0.000000 0.783117 0.500000
O O8 0.767296 0.670141 0.301086
O O9 0.640456 0.708765 0.187409
O O10 0.377688 0.593137 0.390527
O O11 0.150152 0.580675 0.148465
O O12 0.742739 0.500000 0.260438
O O13 0.777858 0.500000 0.413369
O O14 0.207170 0.735280 0.053722
O O15 0.000000 0.811157 0.000000
#
# Coordination Sequence:
#
# PCOD9150433 Si02
#       7
#     4   4   4   2   4   4   2
#     4  11  24  43  64  83 112 151 188 232 293 357
#     4  12  22  36  61  86 116 152 191 234 286 340
#     4  10  20  36  58  89 115 158 195 234 280 328
#     4   9  16  29  53  85 111 160 195 231 276 321
#     4  10  20  36  60  83 120 156 198 234 274 334
#     4  10  21  39  63  86 114 150 190 240 288 337
#     4   9  16  29  53  82 121 149 198 234 270 329
#
# _framework density 20.302306000000002
#
# number of rings (size 3 to 8) (size 9 to 14) (size 15 to 20)
#    0.000    1.667    5.000    0.500    0.000    1.333 
#    0.000    5.000    0.000    3.000    0.000    0.000 
#    0.000    0.000    0.000    0.000    0.000    0.000 
#
# Total GULP energy -133657.564672 kJ/mol
# GULP energy per Si atom -5569.065195 kJ/mol
# Density = 2.025610 g / cm^3
# Si number density = 20.302306 Si / 1000 Ang^3
#
#
#
# Elastic Constant Matrix: (Units=GPa)
#
#
# Indices 1 2 3 4 5 6 
#
# 1 30.7014 28.5595 20.3445 0.0000 10.5099 0.0000
# 2 28.5595 144.3080 25.0607 0.0000 -5.3481 0.0000
# 3 20.3445 25.0607 62.5481 0.0000 3.9025 0.0000
# 4 0.0000 0.0000 0.0000 29.4923 0.0000 -7.2451
# 5 10.5099 -5.3481 3.9025 0.0000 33.8368 0.0000
# 6 0.0000 0.0000 0.0000 -7.2451 0.0000 26.0182
#
#
#
# Elastic Compliance Matrix: (Units=1/GPa)
#
#
# Indices 1 2 3 4 5 6 
#
# 1 0.056193 -0.009437 -0.013411 0.000000 -0.017399 0.000000
# 2 -0.009437 0.009112 -0.000860 0.000000 0.004471 0.000000
# 3 -0.013411 -0.000860 0.020591 0.000000 0.001655 0.000000
# 4 0.000000 0.000000 0.000000 0.036397 0.000000 0.010135
# 5 -0.017399 0.004471 0.001655 0.000000 0.035474 0.000000
# 6 0.000000 0.000000 0.000000 0.010135 0.000000 0.041257
#
#
# Mechanical properties :
#
#
# Convention : Reuss Voigt Hill
#
# Bulk Modulus (GPa) = 25.98730 42.83186 34.40958
# Shear Modulus (GPa) = 19.28508 28.77565 24.03037
#
# Velocity S-wave (km/s) = 3.08538 3.76887 3.44412
# Velocity P-wave (km/s) = 5.05181 6.33103 5.72725
#
# Compressibility (1/GPa) = 0.03848034
#
# Stress axis : x y z
#
# Youngs Moduli (GPa) = 17.79573 109.74123 48.56423
#
# Poissons Ratio (x) = 1.03561 0.65129
# Poissons Ratio (y) = 0.16794 0.04179
# Poissons Ratio (z) = 0.23866 0.09443
#
# Static dielectric constant tensor:
#      x y z
#    x 1.777580 0.000000 -0.028610 
#    y 0.000000 1.720930 0.000000 
#    z -0.028610 0.000000 1.768180 
# 
# From -- ./inp_files/61693.got.cif
#   From: 2010.05.17/outbox.cif.g08.bks.cpg/sg10_31_cif.got.tgz:61693.got - 2010.06.03 11:33:40.
