data_PCOD9150338
_publ_section_title
;
Structure prediction by ZEFSAII (Michael W. Deem and Ramdas Pophale) SiO2 
 PCOD9150338
Probable space group: P 2/M
;
_chemical_formula_sum "Si O2"
_cell_formula_units_Z 32
_cell_length_a 21.875937
_cell_length_b 9.066269
_cell_length_c 19.354465
_cell_angle_alpha 90.000000
_cell_angle_beta 158.374332
_cell_angle_gamma 90.000000
_cell_volume 1414.693315
_symmetry_space_group_name_H-M "P 2/M"
_symmetry_group_IT_number 10
_symmetry_cell_setting 'monoclinic'
loop_
_space_group_symop_operation_xyz
x,y,z
-x,y,-z
-x,-y,-z
x,-y,z
loop_
_atom_site_type_symbol
_atom_site_label
_atom_site_fract_x
_atom_site_fract_y
_atom_site_fract_z
Si Si1 0.953532 0.670099 0.792317
Si Si2 0.281740 0.677429 0.566806
Si Si3 0.647011 0.674942 0.101657
Si Si4 0.596163 0.321195 0.807527
Si Si5 0.626964 0.329390 0.549073
Si Si6 0.836748 0.168535 0.878962
Si Si7 0.111937 0.326437 0.523710
Si Si8 0.791254 0.174696 0.125254
O O1 0.004001 0.500000 0.836000
O O2 0.879351 0.734485 0.643792
O O3 0.789467 0.672157 0.669379
O O4 0.099547 0.751139 0.985549
O O5 0.279193 0.500000 0.554191
O O6 0.445286 0.727099 0.699777
O O7 0.260867 0.701408 0.625536
O O8 0.631465 0.500000 0.068277
O O9 0.814146 0.695564 0.322823
O O10 0.662459 0.766892 0.048332
O O11 0.500000 0.712701 0.000000
O O12 0.608532 0.500000 0.820268
O O13 0.527385 0.275493 0.659764
O O14 0.752016 0.252533 0.010679
O O15 0.597382 0.500000 0.534872
O O16 0.688418 0.244282 0.680999
O O17 0.796188 0.000000 0.850526
O O18 0.000000 0.172303 0.000000
O O19 0.064544 0.500000 0.467711
O O20 0.963716 0.228181 0.339903
O O21 0.784040 0.000000 0.110201
#
# Coordination Sequence:
#
# PCOD9150338 Si02
#       8
#     4   4   4   4   4   4   4   4
#     4   8  13  23  40  63  92 123 158 203 254 302
#     4   8  15  30  54  79  98 124 169 222 264 299
#     4  10  21  39  64  87 104 129 169 214 255 297
#     4   9  17  33  55  76  99 130 174 221 261 304
#     4   8  14  24  41  64  90 123 162 208 257 299
#     4   9  15  21  32  56  93 132 165 198 241 298
#     4  10  20  36  58  80 103 134 172 211 252 298
#     4  12  25  37  51  76 111 144 171 203 248 303
#
# _framework density 22.619745000000002
#
# number of rings (size 3 to 8) (size 9 to 14) (size 15 to 20)
#    0.000    2.750    0.000    4.125    0.000    6.250 
#    0.000    4.375    0.000    0.000    0.000    0.875 
#    0.000    7.000    0.000    0.000    0.000    0.000 
#
# Total GULP energy -178762.723849 kJ/mol
# GULP energy per Si atom -5586.335120 kJ/mol
# Density = 2.256826 g / cm^3
# Si number density = 22.619745 Si / 1000 Ang^3
#
#
#
# Elastic Constant Matrix: (Units=GPa)
#
#
# Indices 1 2 3 4 5 6 
#
# 1 68.9326 5.8261 25.4386 0.0000 -10.3011 0.0000
# 2 5.8261 62.3312 51.8524 0.0000 -24.0477 0.0000
# 3 25.4386 51.8524 142.2939 0.0000 -21.0266 0.0000
# 4 0.0000 0.0000 0.0000 -13.9547 0.0000 8.3842
# 5 -10.3011 -24.0477 -21.0266 0.0000 50.3502 0.0000
# 6 0.0000 0.0000 0.0000 8.3842 0.0000 -8.0592
#
#
#
# Elastic Compliance Matrix: (Units=1/GPa)
#
#
# Indices 1 2 3 4 5 6 
#
# 1 0.015971 0.002417 -0.003285 0.000000 0.003050 0.000000
# 2 0.002417 0.026854 -0.008792 0.000000 0.009648 0.000000
# 3 -0.003285 -0.008792 0.010763 0.000000 -0.000376 0.000000
# 4 0.000000 0.000000 0.000000 -0.191122 0.000000 -0.198830
# 5 0.003050 0.009648 -0.000376 0.000000 0.024936 0.000000
# 6 0.000000 0.000000 0.000000 -0.198830 0.000000 -0.330932
#
#
# Mechanical properties :
#
#
# Convention : Reuss Voigt Hill
#
# Bulk Modulus (GPa) = 29.18260 48.86576 39.02418
# Shear Modulus (GPa) = -12.11278 18.36331 3.12526
#
# Velocity S-wave (km/s) = -2.31659 2.85235 1.17671
# Velocity P-wave (km/s) = 2.40290 5.70069 4.37446
#
# Compressibility (1/GPa) = 0.03426700
#
# Stress axis : x y z
#
# Youngs Moduli (GPa) = 62.61438 37.23879 92.90916
#
# Poissons Ratio (x) = -0.09000 0.30522
# Poissons Ratio (y) = -0.15132 0.81685
# Poissons Ratio (z) = 0.20570 0.32740
#
# Static dielectric constant tensor:
#      x y z
#    x 1.888070 0.000000 0.052880 
#    y 0.000000 1.747930 0.000000 
#    z 0.052880 0.000000 1.882960 
# 
# From -- ./inp_files/87065.got.cif
#   From: 2010.05.17/outbox.cif.g08.bks.cpg/sg10_44_cif.got.tgz:87065.got - 2010.06.03 11:33:40.
