data_PCOD9150613
_publ_section_title
;
Structure prediction by ZEFSAII (Michael W. Deem and Ramdas Pophale) SiO2 
 PCOD9150613
Probable space group: P 2/M
;
_chemical_formula_sum "Si O2"
_cell_formula_units_Z 28
_cell_length_a 14.939881
_cell_length_b 8.847573
_cell_length_c 12.827735
_cell_angle_alpha 90.000000
_cell_angle_beta 58.332847
_cell_angle_gamma 90.000000
_cell_volume 1443.138778
_symmetry_space_group_name_H-M "P 2/M"
_symmetry_group_IT_number 10
_symmetry_cell_setting 'monoclinic'
loop_
_space_group_symop_operation_xyz
x,y,z
-x,y,-z
-x,-y,-z
x,-y,z
loop_
_atom_site_type_symbol
_atom_site_label
_atom_site_fract_x
_atom_site_fract_y
_atom_site_fract_z
Si Si1 0.726122 0.319779 0.003086
Si Si2 0.571651 0.323105 0.557511
Si Si3 0.292756 0.318486 0.222007
Si Si4 0.811533 0.319752 0.341478
Si Si5 0.106669 0.315708 0.490341
Si Si6 0.121955 0.819340 0.917102
Si Si7 0.498813 0.178457 0.186632
O O1 0.725952 0.500000 0.016776
O O2 0.808704 0.249149 0.032466
O O3 0.609633 0.257422 0.096378
O O4 0.750049 0.286154 0.867303
O O5 0.500000 0.300826 0.500000
O O6 0.562590 0.500000 0.595549
O O7 0.691758 0.296485 0.451670
O O8 0.535227 0.220985 0.675043
O O9 0.306743 0.500000 0.222263
O O10 0.208651 0.270097 0.360852
O O11 0.404830 0.241474 0.172316
O O12 0.825900 0.500000 0.316634
O O13 0.882605 0.269543 0.395956
O O14 0.834864 0.236397 0.220280
O O15 0.106843 0.500000 0.490004
O O16 0.000000 0.265037 0.500000
O O17 0.127803 0.000000 0.919166
O O18 0.000000 0.772673 0.000000
O O19 0.509289 0.000000 0.167076
#
# Coordination Sequence:
#
# PCOD9150613 Si02
#       7
#     4   4   4   4   4   4   4
#     4  11  24  41  66  93 121 162 215 263 303 359
#     4  10  20  36  60  88 120 158 203 254 305 357
#     4  10  21  40  64  92 124 161 207 259 310 363
#     4  10  20  37  64  92 121 157 204 259 303 358
#     4   9  18  34  61  94 123 152 196 257 314 355
#     4  11  26  45  63  88 129 170 204 251 310 370
#     4  12  24  38  60  91 129 166 201 247 311 382
#
# _framework density 19.402155
#
# number of rings (size 3 to 8) (size 9 to 14) (size 15 to 20)
#    0.000    1.571    1.429    3.429    2.000    6.000 
#    0.000    0.000    0.000    0.857    0.000    0.000 
#    0.000    0.000    0.000    0.000    0.000    0.000 
#
# Total GULP energy -156537.396154 kJ/mol
# GULP energy per Si atom -5590.621291 kJ/mol
# Density = 1.935799 g / cm^3
# Si number density = 19.402155 Si / 1000 Ang^3
#
#
#
# Elastic Constant Matrix: (Units=GPa)
#
#
# Indices 1 2 3 4 5 6 
#
# 1 137.8256 30.8889 34.6854 0.0000 20.1112 0.0000
# 2 30.8889 35.6537 33.8002 0.0000 7.4806 0.0000
# 3 34.6854 33.8002 80.0326 0.0000 22.1057 0.0000
# 4 0.0000 0.0000 0.0000 -10.1506 0.0000 -20.0325
# 5 20.1112 7.4806 22.1057 0.0000 29.8480 0.0000
# 6 0.0000 0.0000 0.0000 -20.0325 0.0000 7.4653
#
#
#
# Elastic Compliance Matrix: (Units=1/GPa)
#
#
# Indices 1 2 3 4 5 6 
#
# 1 0.009578 -0.007696 0.000439 0.000000 -0.004850 0.000000
# 2 -0.007696 0.053279 -0.021259 0.000000 0.007577 0.000000
# 3 0.000439 -0.021259 0.025009 0.000000 -0.013490 0.000000
# 4 0.000000 0.000000 0.000000 -0.015648 0.000000 -0.041990
# 5 -0.004850 0.007577 -0.013490 0.000000 0.044862 0.000000
# 6 0.000000 0.000000 0.000000 -0.041990 0.000000 0.021277
#
#
# Mechanical properties :
#
#
# Convention : Reuss Voigt Hill
#
# Bulk Modulus (GPa) = 32.43235 50.25121 41.34178
# Shear Modulus (GPa) = 24.31131 15.70838 20.00985
#
# Velocity S-wave (km/s) = 3.54364 2.84847 3.21490
# Velocity P-wave (km/s) = 5.78752 6.06419 5.92747
#
# Compressibility (1/GPa) = 0.03083342
#
# Stress axis : x y z
#
# Youngs Moduli (GPa) = 104.41087 18.76913 39.98605
#
# Poissons Ratio (x) = 0.14445 -0.01756
# Poissons Ratio (y) = 0.80358 0.85005
# Poissons Ratio (z) = -0.04584 0.39901
#
# Static dielectric constant tensor:
#      x y z
#    x 1.665510 0.000000 0.010860 
#    y 0.000000 1.655430 0.000000 
#    z 0.010860 0.000000 1.657550 
# 
# From -- ./inp_files/49648.got.cif
#   From: 2010.05.17/outbox.cif.g08.bks.cpg/sg10_25_cif.got.tgz:49648.got - 2010.06.03 11:33:40.
