data_PCOD9150163
_publ_section_title
;
Structure prediction by ZEFSAII (Michael W. Deem and Ramdas Pophale) SiO2 
 PCOD9150163
Probable space group: P 2/M
;
_chemical_formula_sum "Si O2"
_cell_formula_units_Z 32
_cell_length_a 5.201695
_cell_length_b 18.442317
_cell_length_c 18.100769
_cell_angle_alpha 90.000000
_cell_angle_beta 57.839852
_cell_angle_gamma 90.000000
_cell_volume 1469.998816
_symmetry_space_group_name_H-M "P 2/M"
_symmetry_group_IT_number 10
_symmetry_cell_setting 'monoclinic'
loop_
_space_group_symop_operation_xyz
x,y,z
-x,y,-z
-x,-y,-z
x,-y,z
loop_
_atom_site_type_symbol
_atom_site_label
_atom_site_fract_x
_atom_site_fract_y
_atom_site_fract_z
Si Si1 0.277715 0.914758 0.246926
Si Si2 0.504035 0.337333 0.910049
Si Si3 0.906545 0.580873 0.141262
Si Si4 0.187376 0.665351 0.586927
Si Si5 0.332029 0.789213 0.754431
Si Si6 0.324913 0.816675 0.102529
Si Si7 0.523939 0.638904 0.685695
Si Si8 0.753078 0.829127 0.403142
O O1 0.547762 0.864557 0.233203
O O2 0.262126 0.885349 0.165040
O O3 0.004287 0.888369 0.342556
O O4 0.317684 0.000000 0.244344
O O5 0.236364 0.377908 0.907672
O O6 0.488129 0.251558 0.893345
O O7 0.827404 0.378648 0.852986
O O8 0.500000 0.338436 0.000000
O O9 0.010575 0.500000 0.105844
O O10 0.616970 0.579872 0.239712
O O11 0.500000 0.643893 0.500000
O O12 0.284958 0.650722 0.656264
O O13 0.138628 0.751943 0.579625
O O14 0.874431 0.627777 0.611691
O O15 0.519581 0.715029 0.732467
O O16 0.343898 0.804185 0.664177
O O17 0.008271 0.780073 0.843560
O O18 0.500000 0.835771 0.000000
O O19 0.500000 0.855833 0.500000
#
# Coordination Sequence:
#
# PCOD9150163 Si02
#       8
#     4   4   4   4   4   4   4   4
#     4  11  23  39  60  87 125 164 206 262 329 383
#     4  11  24  42  66  93 126 168 214 264 318 378
#     4  12  25  40  63  96 134 171 207 254 320 389
#     4  10  20  35  62  94 121 158 214 270 313 363
#     4  10  20  37  61  86 119 162 206 268 307 382
#     4  10  23  42  65  89 117 163 219 269 316 375
#     4  11  20  37  62  87 125 165 210 259 307 380
#     4   9  20  36  57  87 120 158 204 257 317 384
#
# _framework density 21.768723999999999
#
# number of rings (size 3 to 8) (size 9 to 14) (size 15 to 20)
#    0.000    1.500    2.500    2.625    1.750    5.000 
#    0.000    1.250    0.000    2.250    0.000    0.000 
#    0.000    0.000    0.000    0.000    0.000    0.000 
#
# Total GULP energy -178162.335237 kJ/mol
# GULP energy per Si atom -5567.572976 kJ/mol
# Density = 2.171918 g / cm^3
# Si number density = 21.768724 Si / 1000 Ang^3
#
#
#
# Elastic Constant Matrix: (Units=GPa)
#
#
# Indices 1 2 3 4 5 6 
#
# 1 51.2991 13.8742 8.5536 0.0000 -0.8424 0.0000
# 2 13.8742 73.2750 16.2590 0.0000 -4.0498 0.0000
# 3 8.5536 16.2590 148.7046 0.0000 -16.6448 0.0000
# 4 0.0000 0.0000 0.0000 9.1343 0.0000 8.8910
# 5 -0.8424 -4.0498 -16.6448 0.0000 26.0761 0.0000
# 6 0.0000 0.0000 0.0000 8.8910 0.0000 10.4796
#
#
#
# Elastic Compliance Matrix: (Units=1/GPa)
#
#
# Indices 1 2 3 4 5 6 
#
# 1 0.020638 -0.003749 -0.000827 0.000000 -0.000443 0.000000
# 2 -0.003749 0.014708 -0.001239 0.000000 0.001372 0.000000
# 3 -0.000827 -0.001239 0.007413 0.000000 0.004513 0.000000
# 4 0.000000 0.000000 0.000000 0.628474 0.000000 -0.533202
# 5 -0.000443 0.001372 0.004513 0.000000 0.041429 0.000000
# 6 0.000000 0.000000 0.000000 -0.533202 0.000000 0.547796
#
#
# Mechanical properties :
#
#
# Convention : Reuss Voigt Hill
#
# Bulk Modulus (GPa) = 32.12362 38.96135 35.54248
# Shear Modulus (GPa) = 3.89875 24.77745 14.33810
#
# Velocity S-wave (km/s) = 1.33973 3.37740 2.56921
# Velocity P-wave (km/s) = 4.14511 5.75724 5.01636
#
# Compressibility (1/GPa) = 0.03112975
#
# Stress axis : x y z
#
# Youngs Moduli (GPa) = 48.45437 67.99132 134.90056
#
# Poissons Ratio (x) = 0.25488 0.11154
# Poissons Ratio (y) = 0.18164 0.16712
# Poissons Ratio (z) = 0.04006 0.08423
#
# Static dielectric constant tensor:
#      x y z
#    x 1.910060 0.000000 0.044920 
#    y 0.000000 1.761750 0.000000 
#    z 0.044920 0.000000 1.969550 
# 
# From -- ./inp_files/9813.got.cif
#   From: 2010.05.17/outbox.cif.g08.bks.cpg/sg10_5_cif.got.tgz:9813.got - 2010.06.03 11:33:40.
