data_PCOD9150090
_publ_section_title
;
Structure prediction by ZEFSAII (Michael W. Deem and Ramdas Pophale) SiO2 
 PCOD9150090
Probable space group: P 2/M
;
_chemical_formula_sum "Si O2"
_cell_formula_units_Z 30
_cell_length_a 11.590286
_cell_length_b 13.859004
_cell_length_c 9.721707
_cell_angle_alpha 90.000000
_cell_angle_beta 94.639576
_cell_angle_gamma 90.000000
_cell_volume 1556.479078
_symmetry_space_group_name_H-M "P 2/M"
_symmetry_group_IT_number 10
_symmetry_cell_setting 'monoclinic'
loop_
_space_group_symop_operation_xyz
x,y,z
-x,y,-z
-x,-y,-z
x,-y,z
loop_
_atom_site_type_symbol
_atom_site_label
_atom_site_fract_x
_atom_site_fract_y
_atom_site_fract_z
Si Si1 0.393915 0.259447 0.386202
Si Si2 0.000000 0.262946 0.500000
Si Si3 0.221772 0.393466 0.797806
Si Si4 0.494970 0.611094 0.837424
Si Si5 0.220169 0.887331 0.237502
Si Si6 0.048211 0.106760 0.699379
Si Si7 0.809704 0.389773 0.524277
Si Si8 0.129480 0.215193 0.962418
O O1 0.500000 0.238278 0.500000
O O2 0.441025 0.313434 0.254182
O O3 0.316257 0.167283 0.337150
O O4 0.307324 0.335823 0.448979
O O5 0.078365 0.190387 0.596053
O O6 0.081402 0.328332 0.412463
O O7 0.194632 0.500000 0.853313
O O8 0.359459 0.388324 0.789271
O O9 0.171949 0.388592 0.638859
O O10 0.182545 0.307655 0.892177
O O11 0.538036 0.500000 0.822424
O O12 0.500000 0.633877 0.000000
O O13 0.090685 0.887026 0.290760
O O14 0.248899 0.000000 0.216223
O O15 0.203502 0.826787 0.095115
O O16 0.109746 0.131026 0.848243
O O17 0.077526 0.000000 0.653074
O O18 0.809293 0.500000 0.571040
O O19 0.000000 0.240303 0.000000
#
# Coordination Sequence:
#
# PCOD9150090 Si02
#       8
#     4   2   4   4   4   4   4   4
#     4  12  23  39  65  91 120 166 211 254 303 369
#     4  12  20  38  58  88 124 158 196 250 316 366
#     4  10  20  36  57  84 121 158 197 249 301 355
#     4  10  21  37  59  88 119 156 202 252 301 354
#     4  10  22  40  60  85 118 155 204 263 314 362
#     4  10  20  35  59  86 115 153 206 259 307 364
#     4  11  23  38  59  89 124 163 201 245 304 369
#     4  10  20  37  61  87 120 163 206 249 309 374
#
# _framework density 19.274272
#
# number of rings (size 3 to 8) (size 9 to 14) (size 15 to 20)
#    0.000    1.467    4.000    2.000    0.000    2.667 
#    0.000    0.667    0.000    4.400    0.000    0.000 
#    0.000    0.000    0.000    0.000    0.000    0.000 
#
# Total GULP energy -167459.157352 kJ/mol
# GULP energy per Si atom -5581.971912 kJ/mol
# Density = 1.923040 g / cm^3
# Si number density = 19.274272 Si / 1000 Ang^3
#
#
#
# Elastic Constant Matrix: (Units=GPa)
#
#
# Indices 1 2 3 4 5 6 
#
# 1 65.1609 48.9219 17.9324 0.0000 11.6245 0.0000
# 2 48.9219 161.5559 37.8306 0.0000 -1.8441 0.0000
# 3 17.9324 37.8306 64.5304 0.0000 6.4080 0.0000
# 4 0.0000 0.0000 0.0000 1857.3350 0.0000 92.8595
# 5 11.6245 -1.8441 6.4080 0.0000 22.2377 0.0000
# 6 0.0000 0.0000 0.0000 92.8595 0.0000 27.5266
#
#
#
# Elastic Compliance Matrix: (Units=1/GPa)
#
#
# Indices 1 2 3 4 5 6 
#
# 1 0.022974 -0.006823 -0.001169 0.000000 -0.012238 0.000000
# 2 -0.006823 0.009277 -0.004090 0.000000 0.005514 0.000000
# 3 -0.001169 -0.004090 0.018728 0.000000 -0.005125 0.000000
# 4 0.000000 0.000000 0.000000 0.000648 0.000000 -0.002185
# 5 -0.012238 0.005514 -0.005125 0.000000 0.053300 0.000000
# 6 0.000000 0.000000 0.000000 -0.002185 0.000000 0.043699
#
#
# Mechanical properties :
#
#
# Convention : Reuss Voigt Hill
#
# Bulk Modulus (GPa) = 37.29268 55.62409 46.45838
# Shear Modulus (GPa) = 27.51373 393.85735 210.68554
#
# Velocity S-wave (km/s) = 3.78231 14.31039 10.46645
# Velocity P-wave (km/s) = 6.20201 17.37733 13.04677
#
# Compressibility (1/GPa) = 0.02681492
#
# Stress axis : x y z
#
# Youngs Moduli (GPa) = 43.52709 107.79876 53.39598
#
# Poissons Ratio (x) = 0.73550 0.06243
# Poissons Ratio (y) = 0.29698 0.21838
# Poissons Ratio (z) = 0.05089 0.44088
#
# Static dielectric constant tensor:
#      x y z
#    x 1.687480 0.000000 0.047130 
#    y 0.000000 1.676770 0.000000 
#    z 0.047130 0.000000 1.737850 
# 
# From -- ./inp_files/24997.got.cif
#   From: 2010.05.17/outbox.cif.g08.bks.cpg/sg10_13_cif.got.tgz:24997.got - 2010.06.03 11:33:40.
