data_PCOD9150320
_publ_section_title
;
Structure prediction by ZEFSAII (Michael W. Deem and Ramdas Pophale) SiO2 
 PCOD9150320
Probable space group: P 2/M
;
_chemical_formula_sum "Si O2"
_cell_formula_units_Z 28
_cell_length_a 14.336122
_cell_length_b 8.868158
_cell_length_c 17.719265
_cell_angle_alpha 90.000000
_cell_angle_beta 42.420668
_cell_angle_gamma 90.000000
_cell_volume 1519.627045
_symmetry_space_group_name_H-M "P 2/M"
_symmetry_group_IT_number 10
_symmetry_cell_setting 'monoclinic'
loop_
_space_group_symop_operation_xyz
x,y,z
-x,y,-z
-x,-y,-z
x,-y,z
loop_
_atom_site_type_symbol
_atom_site_label
_atom_site_fract_x
_atom_site_fract_y
_atom_site_fract_z
Si Si1 0.745613 0.681104 0.943608
Si Si2 0.379258 0.820361 0.837174
Si Si3 0.768084 0.322133 0.759294
Si Si4 0.948969 0.820578 0.224509
Si Si5 0.094064 0.677313 0.593142
Si Si6 0.694374 0.177713 0.648110
Si Si7 0.854406 0.320140 0.129169
O O1 0.748372 0.500000 0.949270
O O2 0.713293 0.717179 0.875590
O O3 0.899137 0.744148 0.868723
O O4 0.645420 0.752546 0.064889
O O5 0.536562 0.791527 0.718720
O O6 0.268842 0.744576 0.847743
O O7 0.356710 0.000000 0.852963
O O8 0.740882 0.500000 0.762382
O O9 0.709928 0.225981 0.725780
O O10 0.934375 0.301441 0.663679
O O11 0.885371 0.770338 0.342350
O O12 0.863545 0.758147 0.204929
O O13 0.962974 0.000000 0.212003
O O14 0.111425 0.500000 0.598516
O O15 0.196974 0.731083 0.466933
O O16 0.721676 0.000000 0.623929
O O17 0.840955 0.500000 0.145271
O O18 0.000000 0.289627 0.000000
#
# Coordination Sequence:
#
# PCOD9150320 Si02
#       7
#     4   4   4   4   4   4   4
#     4  10  20  36  57  85 117 150 193 239 282 339
#     4  11  24  39  56  83 119 155 191 235 290 346
#     4   9  20  37  59  85 113 149 194 240 286 337
#     4  11  21  35  60  90 119 148 184 236 292 338
#     4  10  21  39  62  86 115 151 196 240 281 336
#     4  11  24  39  56  83 118 154 194 239 288 341
#     4  11  22  37  61  89 116 148 191 236 280 340
#
# _framework density 18.425573
#
# number of rings (size 3 to 8) (size 9 to 14) (size 15 to 20)
#    0.000    1.571    1.429    4.714    0.000    8.571 
#    0.000    3.571    0.000    4.286    0.000    0.000 
#    0.000    0.000    0.000    0.000    0.000    0.000 
#
# Total GULP energy -156499.020679 kJ/mol
# GULP energy per Si atom -5589.250739 kJ/mol
# Density = 1.838364 g / cm^3
# Si number density = 18.425573 Si / 1000 Ang^3
#
#
#
# Elastic Constant Matrix: (Units=GPa)
#
#
# Indices 1 2 3 4 5 6 
#
# 1 59.9664 33.9334 5.1611 0.0000 10.9532 0.0000
# 2 33.9334 59.2125 4.5869 0.0000 -2.2842 0.0000
# 3 5.1611 4.5869 12.1354 0.0000 6.2784 0.0000
# 4 0.0000 0.0000 0.0000 40.6334 0.0000 2.5066
# 5 10.9532 -2.2842 6.2784 0.0000 16.9646 0.0000
# 6 0.0000 0.0000 0.0000 2.5066 0.0000 26.0400
#
#
#
# Elastic Compliance Matrix: (Units=1/GPa)
#
#
# Indices 1 2 3 4 5 6 
#
# 1 0.032144 -0.020009 0.007450 0.000000 -0.026205 0.000000
# 2 -0.020009 0.030345 -0.014542 0.000000 0.022387 0.000000
# 3 0.007450 -0.014542 0.109128 0.000000 -0.047155 0.000000
# 4 0.000000 0.000000 0.000000 0.024757 0.000000 -0.002383
# 5 -0.026205 0.022387 -0.047155 0.000000 0.096332 0.000000
# 6 0.000000 0.000000 0.000000 -0.002383 0.000000 0.038632
#
#
# Mechanical properties :
#
#
# Convention : Reuss Voigt Hill
#
# Bulk Modulus (GPa) = 8.51680 24.29744 16.40712
# Shear Modulus (GPa) = 11.77361 22.56981 17.17171
#
# Velocity S-wave (km/s) = 2.53055 3.50368 3.05610
# Velocity P-wave (km/s) = 3.62913 5.43904 4.62351
#
# Compressibility (1/GPa) = 0.11741503
#
# Stress axis : x y z
#
# Youngs Moduli (GPa) = 31.11017 32.95419 9.16352
#
# Poissons Ratio (x) = 0.65938 -0.06827
# Poissons Ratio (y) = 0.62248 0.13326
# Poissons Ratio (z) = -0.23177 0.47923
#
# Static dielectric constant tensor:
#      x y z
#    x 1.617910 0.000000 0.006190 
#    y 0.000000 1.608650 0.000000 
#    z 0.006190 0.000000 1.626820 
# 
# From -- ./inp_files/77731.got.cif
#   From: 2010.05.17/outbox.cif.g08.bks.cpg/sg10_39_cif.got.tgz:77731.got - 2010.06.03 11:33:40.
