data_PCOD9150834
_publ_section_title
;
Structure prediction by ZEFSAII (Michael W. Deem and Ramdas Pophale) SiO2 
 PCOD9150834
Probable space group: P 2/M
;
_chemical_formula_sum "Si O2"
_cell_formula_units_Z 16
_cell_length_a 13.726297
_cell_length_b 11.012264
_cell_length_c 9.676303
_cell_angle_alpha 90.000000
_cell_angle_beta 29.472767
_cell_angle_gamma 90.000000
_cell_volume 719.636588
_symmetry_space_group_name_H-M "P 2/M"
_symmetry_group_IT_number 10
_symmetry_cell_setting 'monoclinic'
loop_
_space_group_symop_operation_xyz
x,y,z
-x,y,-z
-x,-y,-z
x,-y,z
loop_
_atom_site_type_symbol
_atom_site_label
_atom_site_fract_x
_atom_site_fract_y
_atom_site_fract_z
Si Si1 0.168377 0.368853 0.174577
Si Si2 0.702200 0.134910 0.836985
Si Si3 0.945286 0.208717 0.274988
Si Si4 0.310883 0.861701 0.649866
O O1 0.271186 0.500000 0.040595
O O2 0.289577 0.248673 0.069002
O O3 0.000000 0.377795 0.500000
O O4 0.047064 0.336357 0.186553
O O5 0.871033 0.152803 0.511090
O O6 0.720349 0.000000 0.876863
O O7 0.500000 0.139650 0.000000
O O8 0.764687 0.210539 0.390644
O O9 0.121654 0.135882 0.984650
O O10 0.500000 0.814346 0.500000
O O11 0.355577 0.000000 0.549664
#
# Coordination Sequence:
#
# PCOD9150834 Si02
#       4
#     4   4   4   4
#     4   9  20  38  59  83 116 157 196 237 290 350
#     4  10  21  34  57  93 124 152 190 239 294 351
#     4  10  20  37  58  82 121 151 195 238 291 339
#     4  10  21  35  57  85 117 156 195 239 293 346
#
# _framework density 22.233445
#
# number of rings (size 3 to 8) (size 9 to 14) (size 15 to 20)
#    0.000    2.250    0.000    3.000    3.500    7.000 
#    0.000    2.500    0.000    1.500    0.000    0.000 
#    0.000    0.000    0.000    0.000    0.000    0.000 
#
# Total GULP energy -89293.717901 kJ/mol
# GULP energy per Si atom -5580.857369 kJ/mol
# Density = 2.218284 g / cm^3
# Si number density = 22.233445 Si / 1000 Ang^3
#
#
#
# Elastic Constant Matrix: (Units=GPa)
#
#
# Indices 1 2 3 4 5 6 
#
# 1 150.8893 72.8439 22.7236 0.0000 -26.1732 0.0000
# 2 72.8439 177.0082 8.7506 0.0000 -17.0061 0.0000
# 3 22.7236 8.7506 76.6809 0.0000 -6.3890 0.0000
# 4 0.0000 0.0000 0.0000 -3.1404 0.0000 -7.3630
# 5 -26.1732 -17.0061 -6.3890 0.0000 42.0785 0.0000
# 6 0.0000 0.0000 0.0000 -7.3630 0.0000 11.6771
#
#
#
# Elastic Compliance Matrix: (Units=1/GPa)
#
#
# Indices 1 2 3 4 5 6 
#
# 1 0.009241 -0.003309 -0.002019 0.000000 0.004104 0.000000
# 2 -0.003309 0.007080 0.000243 0.000000 0.000840 0.000000
# 3 -0.002019 0.000243 0.013688 0.000000 0.000921 0.000000
# 4 0.000000 0.000000 0.000000 -0.128482 0.000000 -0.081015
# 5 0.004104 0.000840 0.000921 0.000000 0.026797 0.000000
# 6 0.000000 0.000000 0.000000 -0.081015 0.000000 0.034554
#
#
# Mechanical properties :
#
#
# Convention : Reuss Voigt Hill
#
# Bulk Modulus (GPa) = 50.40616 68.13495 59.27055
# Shear Modulus (GPa) = -245.83349 30.14038 -107.84655
#
# Velocity S-wave (km/s) = -10.52660 3.68589 -6.97221
# Velocity P-wave (km/s) = 11.18146 6.98757 6.17248
#
# Compressibility (1/GPa) = 0.01983885
#
# Stress axis : x y z
#
# Youngs Moduli (GPa) = 108.21815 141.24711 73.05489
#
# Poissons Ratio (x) = 0.46734 0.14749
# Poissons Ratio (y) = 0.35806 -0.01772
# Poissons Ratio (z) = 0.21847 -0.03426
#
# Static dielectric constant tensor:
#      x y z
#    x 1.862360 0.000000 -0.003420 
#    y 0.000000 1.844100 0.000000 
#    z -0.003420 0.000000 1.848930 
# 
# From -- ./inp_files/50216.got.cif
#   From: 2010.05.17/outbox.cif.g08.bks.cpg/sg10_26_cif.got.tgz:50216.got - 2010.06.03 11:33:40.
