data_PCOD9150833
_publ_section_title
;
Structure prediction by ZEFSAII (Michael W. Deem and Ramdas Pophale) SiO2 
 PCOD9150833
Probable space group: P 2/M
;
_chemical_formula_sum "Si O2"
_cell_formula_units_Z 26
_cell_length_a 7.334117
_cell_length_b 17.961959
_cell_length_c 15.492700
_cell_angle_alpha 90.000000
_cell_angle_beta 138.779627
_cell_angle_gamma 90.000000
_cell_volume 1344.886688
_symmetry_space_group_name_H-M "P 2/M"
_symmetry_group_IT_number 10
_symmetry_cell_setting 'monoclinic'
loop_
_space_group_symop_operation_xyz
x,y,z
-x,y,-z
-x,-y,-z
x,-y,z
loop_
_atom_site_type_symbol
_atom_site_label
_atom_site_fract_x
_atom_site_fract_y
_atom_site_fract_z
Si Si1 0.449090 0.414293 0.882896
Si Si2 0.185144 0.791478 0.382925
Si Si3 0.116308 0.084433 0.637109
Si Si4 0.841223 0.319349 0.366375
Si Si5 0.229527 0.917683 0.157388
Si Si6 0.738035 0.749431 0.773532
Si Si7 0.000000 0.640227 0.000000
O O1 0.355964 0.500000 0.855186
O O2 0.250371 0.366734 0.749607
O O3 0.500000 0.387718 0.000000
O O4 0.741306 0.408214 0.937251
O O5 0.500000 0.818223 0.500000
O O6 0.192568 0.740060 0.301504
O O7 0.994310 0.863431 0.326223
O O8 0.068144 0.740058 0.416727
O O9 0.448970 0.084186 0.757021
O O10 0.000000 0.107560 0.500000
O O11 0.017057 0.000000 0.613477
O O12 0.567567 0.275732 0.303459
O O13 0.000000 0.362308 0.500000
O O14 0.205888 0.837816 0.195119
O O15 0.194892 0.000000 0.188613
O O16 0.000000 0.916228 0.000000
O O17 0.931508 0.696486 0.898113
#
# Coordination Sequence:
#
# PCOD9150833 Si02
#       7
#     4   4   4   4   4   4   2
#     4  10  22  41  66  92 123 160 199 245 299 369
#     4  12  22  34  60  88 118 156 204 255 305 358
#     4  10  21  38  58  82 118 161 208 260 311 367
#     4  11  22  40  60  90 129 156 199 255 308 365
#     4  10  20  37  58  82 119 161 204 260 317 364
#     4  11  21  36  60  86 117 162 203 247 308 363
#     4  10  21  38  61  90 118 154 200 242 293 362
#
# _framework density 19.332483
#
# number of rings (size 3 to 8) (size 9 to 14) (size 15 to 20)
#    0.000    1.385    3.846    2.538    0.000    1.231 
#    0.000    2.308    0.000    3.231    0.000    0.000 
#    0.000    0.000    0.000    0.000    0.000    0.000 
#
# Total GULP energy -144748.494952 kJ/mol
# GULP energy per Si atom -5567.249806 kJ/mol
# Density = 1.928848 g / cm^3
# Si number density = 19.332483 Si / 1000 Ang^3
#
#
#
# Elastic Constant Matrix: (Units=GPa)
#
#
# Indices 1 2 3 4 5 6 
#
# 1 57.7616 12.5328 15.9362 0.0000 -4.0490 0.0000
# 2 12.5328 69.5039 24.2771 0.0000 -6.5905 0.0000
# 3 15.9362 24.2771 91.7688 0.0000 -2.8941 0.0000
# 4 0.0000 0.0000 0.0000 10.9182 0.0000 -10.0897
# 5 -4.0490 -6.5905 -2.8941 0.0000 32.0431 0.0000
# 6 0.0000 0.0000 0.0000 -10.0897 0.0000 22.9812
#
#
#
# Elastic Compliance Matrix: (Units=1/GPa)
#
#
# Indices 1 2 3 4 5 6 
#
# 1 0.018639 -0.002305 -0.002575 0.000000 0.001649 0.000000
# 2 -0.002305 0.016409 -0.003854 0.000000 0.002736 0.000000
# 3 -0.002575 -0.003854 0.012364 0.000000 -0.000001 0.000000
# 4 0.000000 0.000000 0.000000 0.154120 0.000000 0.067665
# 5 0.001649 0.002736 -0.000001 0.000000 0.031979 0.000000
# 6 0.000000 0.000000 0.000000 0.067665 0.000000 0.073221
#
#
# Mechanical properties :
#
#
# Convention : Reuss Voigt Hill
#
# Bulk Modulus (GPa) = 33.39735 36.05852 34.72794
# Shear Modulus (GPa) = 14.96195 24.27440 19.61817
#
# Velocity S-wave (km/s) = 2.78497 3.54733 3.18901
# Velocity P-wave (km/s) = 5.25873 5.95570 5.61803
#
# Compressibility (1/GPa) = 0.02994249
#
# Stress axis : x y z
#
# Youngs Moduli (GPa) = 53.65193 60.94204 80.88189
#
# Poissons Ratio (x) = 0.14048 0.20826
# Poissons Ratio (y) = 0.12368 0.31175
# Poissons Ratio (z) = 0.13815 0.23489
#
# Static dielectric constant tensor:
#      x y z
#    x 1.660430 0.000000 -0.011520 
#    y 0.000000 1.684510 0.000000 
#    z -0.011520 0.000000 1.640700 
# 
# From -- ./inp_files/59652.got.cif
#   From: 2010.05.17/outbox.cif.g08.bks.cpg/sg10_30_cif.got.tgz:59652.got - 2010.06.03 11:33:40.
