data_PCOD9150161
_publ_section_title
;
Structure prediction by ZEFSAII (Michael W. Deem and Ramdas Pophale) SiO2 
 PCOD9150161
Probable space group: P 2/M
;
_chemical_formula_sum "Si O2"
_cell_formula_units_Z 29
_cell_length_a 15.556097
_cell_length_b 7.611556
_cell_length_c 12.359210
_cell_angle_alpha 90.000000
_cell_angle_beta 116.426800
_cell_angle_gamma 90.000000
_cell_volume 1310.485374
_symmetry_space_group_name_H-M "P 2/M"
_symmetry_group_IT_number 10
_symmetry_cell_setting 'monoclinic'
loop_
_space_group_symop_operation_xyz
x,y,z
-x,y,-z
-x,-y,-z
x,-y,z
loop_
_atom_site_type_symbol
_atom_site_label
_atom_site_fract_x
_atom_site_fract_y
_atom_site_fract_z
Si Si1 0.348863 0.785417 0.097414
Si Si2 0.261154 0.212603 0.276806
Si Si3 0.744772 0.213946 0.177157
Si Si4 0.563203 0.797753 0.210133
Si Si5 0.039914 0.307115 0.679851
Si Si6 0.040132 0.786993 0.138071
Si Si7 0.417410 0.294925 0.534002
Si Si8 0.000000 0.000000 0.500000
O O1 0.313115 0.727547 0.195181
O O2 0.456902 0.721748 0.133647
O O3 0.352204 0.000000 0.102554
O O4 0.278339 0.739304 0.960009
O O5 0.150696 0.266900 0.213682
O O6 0.319089 0.276114 0.413387
O O7 0.264118 0.000000 0.279098
O O8 0.654153 0.276221 0.197292
O O9 0.845942 0.285706 0.273794
O O10 0.752252 0.000000 0.188938
O O11 0.582269 0.793194 0.349102
O O12 0.557176 0.000000 0.169348
O O13 0.006707 0.500000 0.629859
O O14 0.021145 0.280953 0.796390
O O15 0.988478 0.153920 0.585961
O O16 0.036308 0.000000 0.137895
O O17 0.000000 0.729443 0.000000
O O18 0.500000 0.223527 0.500000
O O19 0.438359 0.500000 0.565041
#
# Coordination Sequence:
#
# PCOD9150161 Si02
#       8
#     4   4   4   4   4   4   4   1
#     4   9  17  33  61  96 129 168 216 258 312 389
#     4  10  20  35  63  94 122 165 214 259 318 388
#     4  10  20  39  64  95 132 169 208 268 333 387
#     4  10  20  35  62  92 123 168 217 261 310 382
#     4  12  26  46  74 102 132 178 230 283 345 409
#     4  10  21  42  71 103 139 177 217 277 351 410
#     4  11  23  38  55  79 123 171 209 259 326 379
#     4  12  26  52  74  94 134 178 222 296 346 406
#
# _framework density 22.129206
#
# number of rings (size 3 to 8) (size 9 to 14) (size 15 to 20)
#    0.000    1.655    2.759    1.862    0.000    6.897 
#    0.000    2.759    0.000    1.655    0.000    0.000 
#    0.000    0.000    0.000    0.000    0.000    0.000 
#
# Total GULP energy -161922.015677 kJ/mol
# GULP energy per Si atom -5583.517782 kJ/mol
# Density = 2.207884 g / cm^3
# Si number density = 22.129206 Si / 1000 Ang^3
#
#
#
# Elastic Constant Matrix: (Units=GPa)
#
#
# Indices 1 2 3 4 5 6 
#
# 1 74.4892 6.7915 -5.1978 0.0000 4.9306 0.0000
# 2 6.7915 93.3188 11.5468 0.0000 -4.4300 0.0000
# 3 -5.1978 11.5468 64.2064 0.0000 -8.8193 0.0000
# 4 0.0000 0.0000 0.0000 86.8870 0.0000 37.7138
# 5 4.9306 -4.4300 -8.8193 0.0000 35.4613 0.0000
# 6 0.0000 0.0000 0.0000 37.7138 0.0000 6.0427
#
#
#
# Elastic Compliance Matrix: (Units=1/GPa)
#
#
# Indices 1 2 3 4 5 6 
#
# 1 0.013730 -0.001218 0.001085 0.000000 -0.001792 0.000000
# 2 -0.001218 0.011096 -0.001947 0.000000 0.001071 0.000000
# 3 0.001085 -0.001947 0.016523 0.000000 0.003715 0.000000
# 4 0.000000 0.000000 0.000000 -0.006734 0.000000 0.042030
# 5 -0.001792 0.001071 0.003715 0.000000 0.029507 0.000000
# 6 0.000000 0.000000 0.000000 0.042030 0.000000 -0.096832
#
#
# Mechanical properties :
#
#
# Convention : Reuss Voigt Hill
#
# Bulk Modulus (GPa) = 26.89065 28.69948 27.79506
# Shear Modulus (GPa) = -309.55243 40.26980 -134.64131
#
# Velocity S-wave (km/s) = -11.84009 4.27049 -7.80867
# Velocity P-wave (km/s) = 13.21889 6.10846 8.28932
#
# Compressibility (1/GPa) = 0.03718765
#
# Stress axis : x y z
#
# Youngs Moduli (GPa) = 72.83259 90.11921 60.52159
#
# Poissons Ratio (x) = 0.10981 -0.06564
# Poissons Ratio (y) = 0.08875 0.11784
# Poissons Ratio (z) = -0.07899 0.17546
#
# Static dielectric constant tensor:
#      x y z
#    x 1.872220 0.000000 -0.075150 
#    y 0.000000 1.832510 0.000000 
#    z -0.075150 0.000000 1.863720 
# 
# From -- ./inp_files/50161.got.cif
#   From: 2010.05.17/outbox.cif.g08.bks.cpg/sg10_26_cif.got.tgz:50161.got - 2010.06.03 11:33:40.
