data_PCOD9150631
_publ_section_title
;
Structure prediction by ZEFSAII (Michael W. Deem and Ramdas Pophale) SiO2 
 PCOD9150631
Probable space group: P 2/M
;
_chemical_formula_sum "Si O2"
_cell_formula_units_Z 28
_cell_length_a 9.409535
_cell_length_b 7.718157
_cell_length_c 27.724260
_cell_angle_alpha 90.000000
_cell_angle_beta 143.127972
_cell_angle_gamma 90.000000
_cell_volume 1208.132350
_symmetry_space_group_name_H-M "P 2/M"
_symmetry_group_IT_number 10
_symmetry_cell_setting 'monoclinic'
loop_
_space_group_symop_operation_xyz
x,y,z
-x,y,-z
-x,-y,-z
x,-y,z
loop_
_atom_site_type_symbol
_atom_site_label
_atom_site_fract_x
_atom_site_fract_y
_atom_site_fract_z
Si Si1 0.833228 0.799632 0.996655
Si Si2 0.053887 0.801927 0.248926
Si Si3 0.761441 0.301930 0.079790
Si Si4 0.713792 0.712031 0.523048
Si Si5 0.397985 0.701253 0.817994
Si Si6 0.252194 0.287763 0.677597
Si Si7 0.585661 0.300092 0.382866
O O1 0.569216 0.789818 0.903122
O O2 0.892756 0.000000 0.022027
O O3 0.868217 0.700072 0.055615
O O4 0.000000 0.730731 0.000000
O O5 0.920069 0.793695 0.161377
O O6 0.871121 0.719093 0.236790
O O7 0.302812 0.707387 0.311285
O O8 0.098843 0.000000 0.274834
O O9 0.731652 0.500000 0.089445
O O10 0.500000 0.225548 0.000000
O O11 0.500000 0.769366 0.500000
O O12 0.702994 0.500000 0.519431
O O13 0.683155 0.774268 0.459501
O O14 0.977693 0.760275 0.610812
O O15 0.464615 0.500000 0.836113
O O16 0.404979 0.770533 0.765230
O O17 0.264499 0.500000 0.681404
O O18 0.338037 0.226214 0.648300
O O19 0.666943 0.500000 0.403784
#
# Coordination Sequence:
#
# PCOD9150631 Si02
#       7
#     4   4   4   4   4   4   4
#     4  11  25  42  61  89 125 162 199 242 301 362
#     4  12  25  40  60  86 120 159 199 248 307 365
#     4  11  23  41  66  92 116 153 204 254 300 351
#     4   9  16  30  57  91 124 156 194 243 297 351
#     4  11  22  39  61  87 117 156 206 254 299 354
#     4   9  19  34  57  91 123 154 195 248 301 349
#     4  10  20  36  60  90 122 157 198 246 296 355
#
# _framework density 23.176266999999999
#
# number of rings (size 3 to 8) (size 9 to 14) (size 15 to 20)
#    0.000    1.571    1.429    3.857    2.000    5.714 
#    0.000    0.714    0.000    6.429    0.000    0.000 
#    0.000    0.000    0.000    0.000    0.000    0.000 
#
# Total GULP energy -156554.150154 kJ/mol
# GULP energy per Si atom -5591.219648 kJ/mol
# Density = 2.312352 g / cm^3
# Si number density = 23.176267 Si / 1000 Ang^3
#
#
#
# Elastic Constant Matrix: (Units=GPa)
#
#
# Indices 1 2 3 4 5 6 
#
# 1 89.0740 -9.2865 5.8500 0.0000 -18.0625 0.0000
# 2 -9.2865 50.4206 -6.8199 0.0000 -6.5758 0.0000
# 3 5.8500 -6.8199 72.1842 0.0000 -23.5211 0.0000
# 4 0.0000 0.0000 0.0000 12.4044 0.0000 4.0854
# 5 -18.0625 -6.5758 -23.5211 0.0000 44.6541 0.0000
# 6 0.0000 0.0000 0.0000 4.0854 0.0000 4.4342
#
#
#
# Elastic Compliance Matrix: (Units=1/GPa)
#
#
# Indices 1 2 3 4 5 6 
#
# 1 0.012783 0.003372 0.001363 0.000000 0.006385 0.000000
# 2 0.003372 0.021861 0.003966 0.000000 0.006672 0.000000
# 3 0.001363 0.003966 0.017490 0.000000 0.010348 0.000000
# 4 0.000000 0.000000 0.000000 0.115737 0.000000 -0.106633
# 5 0.006385 0.006672 0.010348 0.000000 0.031410 0.000000
# 6 0.000000 0.000000 0.000000 -0.106633 0.000000 0.323766
#
#
# Mechanical properties :
#
#
# Convention : Reuss Voigt Hill
#
# Bulk Modulus (GPa) = 14.38099 21.24065 17.81082
# Shear Modulus (GPa) = 9.45496 27.09422 18.27459
#
# Velocity S-wave (km/s) = 2.02199 3.42285 2.81108
# Velocity P-wave (km/s) = 3.41611 4.98055 4.27058
#
# Compressibility (1/GPa) = 0.06953622
#
# Stress axis : x y z
#
# Youngs Moduli (GPa) = 78.22615 45.74390 57.17696
#
# Poissons Ratio (x) = -0.15423 -0.07795
# Poissons Ratio (y) = -0.26375 -0.22678
# Poissons Ratio (z) = -0.10664 -0.18143
#
# Static dielectric constant tensor:
#      x y z
#    x 1.884250 0.000000 -0.003730 
#    y 0.000000 1.853970 0.000000 
#    z -0.003730 0.000000 1.844340 
# 
# From -- ./inp_files/36779.got.cif
#   From: 2010.05.17/outbox.cif.g08.bks.cpg/sg10_19_cif.got.tgz:36779.got - 2010.06.03 11:33:40.
