data_PCOD9150743
_publ_section_title
;
Structure prediction by ZEFSAII (Michael W. Deem and Ramdas Pophale) SiO2 
 PCOD9150743
Probable space group: P 2/M
;
_chemical_formula_sum "Si O2"
_cell_formula_units_Z 28
_cell_length_a 15.636381
_cell_length_b 8.469384
_cell_length_c 21.124992
_cell_angle_alpha 90.000000
_cell_angle_beta 28.904019
_cell_angle_gamma 90.000000
_cell_volume 1352.199483
_symmetry_space_group_name_H-M "P 2/M"
_symmetry_group_IT_number 10
_symmetry_cell_setting 'monoclinic'
loop_
_space_group_symop_operation_xyz
x,y,z
-x,y,-z
-x,-y,-z
x,-y,z
loop_
_atom_site_type_symbol
_atom_site_label
_atom_site_fract_x
_atom_site_fract_y
_atom_site_fract_z
Si Si1 0.801219 0.814755 0.932451
Si Si2 0.165203 0.174574 0.942652
Si Si3 0.703943 0.823311 0.386775
Si Si4 0.452753 0.312883 0.102332
Si Si5 0.781127 0.500000 0.140001
Si Si6 0.922884 0.811676 0.354080
Si Si7 0.309030 0.500000 0.658397
Si Si8 0.071845 0.809591 0.386743
O O1 0.936252 0.757816 0.790428
O O2 0.766896 0.000000 0.942475
O O3 0.873486 0.806932 0.957383
O O4 0.617924 0.725303 0.040432
O O5 0.269241 0.334032 0.858877
O O6 0.250640 0.000000 0.880044
O O7 0.000000 0.171840 0.000000
O O8 0.500000 0.833511 0.500000
O O9 0.735410 0.791419 0.440793
O O10 0.775696 0.666852 0.306442
O O11 0.781192 0.000000 0.322811
O O12 0.423051 0.500000 0.118863
O O13 0.274925 0.231878 0.241911
O O14 0.500000 0.258392 0.000000
O O15 0.695037 0.500000 0.264282
O O16 0.000000 0.500000 0.000000
O O17 0.961061 0.745803 0.398220
O O18 0.946843 0.000000 0.344159
O O19 0.500000 0.500000 0.500000
O O20 0.000000 0.747982 0.500000
O O21 0.055978 0.000000 0.398786
#
# Coordination Sequence:
#
# PCOD9150743 Si02
#       8
#     4   4   4   4   2   4   2   4
#     4  10  20  36  63  93 121 162 211 261 314 372
#     4   9  20  37  57  88 125 160 203 254 311 371
#     4   9  19  37  61  89 123 163 210 263 309 364
#     4  11  23  39  60  93 128 162 209 262 321 384
#     4  10  22  36  56  86 116 157 200 249 311 355
#     4   9  18  34  61  93 118 155 209 257 313 375
#     4  10  22  40  58  86 120 160 210 249 306 373
#     4  10  21  40  66  92 124 162 207 263 319 382
#
# _framework density 20.707006
#
# number of rings (size 3 to 8) (size 9 to 14) (size 15 to 20)
#    0.000    2.286    1.429    0.429    5.000    1.429 
#    2.571    2.857    0.000    6.857    0.000    0.000 
#    0.000    0.000    0.000    0.000    0.000    0.000 
#
# Total GULP energy -155937.879592 kJ/mol
# GULP energy per Si atom -5569.209985 kJ/mol
# Density = 2.065988 g / cm^3
# Si number density = 20.707006 Si / 1000 Ang^3
#
#
#
# Elastic Constant Matrix: (Units=GPa)
#
#
# Indices 1 2 3 4 5 6 
#
# 1 165.8777 21.3825 60.8494 0.0000 15.4103 0.0000
# 2 21.3825 120.6271 14.3858 0.0000 21.1806 0.0000
# 3 60.8494 14.3858 81.4147 0.0000 16.5137 0.0000
# 4 0.0000 0.0000 0.0000 3.2820 0.0000 24.7319
# 5 15.4103 21.1806 16.5137 0.0000 36.7787 0.0000
# 6 0.0000 0.0000 0.0000 24.7319 0.0000 -25.4343
#
#
#
# Elastic Compliance Matrix: (Units=1/GPa)
#
#
# Indices 1 2 3 4 5 6 
#
# 1 0.008377 -0.000694 -0.006059 0.000000 -0.000390 0.000000
# 2 -0.000694 0.009307 -0.000108 0.000000 -0.005021 0.000000
# 3 -0.006059 -0.000108 0.017937 0.000000 -0.005453 0.000000
# 4 0.000000 0.000000 0.000000 0.036589 0.000000 0.035578
# 5 -0.000390 -0.005021 -0.005453 0.000000 0.032693 0.000000
# 6 0.000000 0.000000 0.000000 0.035578 0.000000 -0.004721
#
#
# Mechanical properties :
#
#
# Convention : Reuss Voigt Hill
#
# Bulk Modulus (GPa) = 45.66311 62.35055 54.00683
# Shear Modulus (GPa) = 41.25335 21.01205 31.13270
#
# Velocity S-wave (km/s) = 4.46830 3.18894 3.88169
# Velocity P-wave (km/s) = 6.98003 6.61327 6.79912
#
# Compressibility (1/GPa) = 0.02189952
#
# Stress axis : x y z
#
# Youngs Moduli (GPa) = 119.37551 107.44056 55.75221
#
# Poissons Ratio (x) = 0.07455 0.33782
# Poissons Ratio (y) = 0.08283 0.00600
# Poissons Ratio (z) = 0.72333 0.01156
#
# Static dielectric constant tensor:
#      x y z
#    x 1.729400 0.000000 -0.053410 
#    y 0.000000 1.783330 0.000000 
#    z -0.053410 0.000000 1.690610 
# 
# From -- ./inp_files/84924.got.cif
#   From: 2010.05.17/outbox.cif.g08.bks.cpg/sg10_43_cif.got.tgz:84924.got - 2010.06.03 11:33:40.
