data_PCOD9150377
_publ_section_title
;
Structure prediction by ZEFSAII (Michael W. Deem and Ramdas Pophale) SiO2 
 PCOD9150377
Probable space group: P 2/M
;
_chemical_formula_sum "Si O2"
_cell_formula_units_Z 32
_cell_length_a 14.375127
_cell_length_b 8.141934
_cell_length_c 25.087089
_cell_angle_alpha 90.000000
_cell_angle_beta 29.824969
_cell_angle_gamma 90.000000
_cell_volume 1460.338300
_symmetry_space_group_name_H-M "P 2/M"
_symmetry_group_IT_number 10
_symmetry_cell_setting 'monoclinic'
loop_
_space_group_symop_operation_xyz
x,y,z
-x,y,-z
-x,-y,-z
x,-y,z
loop_
_atom_site_type_symbol
_atom_site_label
_atom_site_fract_x
_atom_site_fract_y
_atom_site_fract_z
Si Si1 0.598207 0.689316 0.578675
Si Si2 0.082607 0.199179 0.650087
Si Si3 0.952836 0.804843 0.829857
Si Si4 0.366020 0.694719 0.945813
Si Si5 0.316196 0.306018 0.854623
Si Si6 0.785127 0.801238 0.709336
Si Si7 0.805566 0.191209 0.192744
Si Si8 0.725030 0.810166 0.623728
O O1 0.543223 0.500000 0.604785
O O2 0.715619 0.739109 0.468810
O O3 0.410246 0.792399 0.680945
O O4 0.729442 0.719087 0.565345
O O5 0.016484 0.258477 0.740852
O O6 0.934818 0.252554 0.678464
O O7 0.085300 0.000000 0.648478
O O8 0.072903 0.736117 0.819541
O O9 0.986586 0.000000 0.811882
O O10 0.738671 0.775202 0.952582
O O11 0.355252 0.500000 0.957609
O O12 0.262089 0.740578 0.941595
O O13 0.580358 0.744743 0.830170
O O14 0.364876 0.500000 0.831199
O O15 0.183195 0.276069 0.870569
O O16 0.504929 0.204469 0.748739
O O17 0.821975 0.746961 0.629729
O O18 0.784264 0.000000 0.707601
O O19 0.851574 0.000000 0.162320
O O20 0.776792 0.000000 0.588778
#
# Coordination Sequence:
#
# PCOD9150377 Si02
#       8
#     4   4   4   4   4   4   4   4
#     4  11  22  36  56  83 113 145 176 219 276 331
#     4  10  22  41  59  78 106 144 189 232 267 314
#     4  10  23  40  58  79 106 143 190 232 268 315
#     4  10  21  36  57  83 115 147 176 219 275 327
#     4   9  17  31  52  81 112 143 175 213 268 330
#     4   9  19  36  60  84 109 143 183 224 268 317
#     4  10  20  36  58  83 109 142 181 226 272 319
#     4   9  16  30  54  83 110 139 176 219 265 321
#
# _framework density 21.912731000000001
#
# number of rings (size 3 to 8) (size 9 to 14) (size 15 to 20)
#    0.000    2.250    0.000    4.125    0.000    6.000 
#    0.000   10.000    0.000    0.000    0.000    0.000 
#    0.000    0.000    0.000    0.000    0.000    0.000 
#
# Total GULP energy -178713.497173 kJ/mol
# GULP energy per Si atom -5584.796787 kJ/mol
# Density = 2.186286 g / cm^3
# Si number density = 21.912731 Si / 1000 Ang^3
#
#
#
# Elastic Constant Matrix: (Units=GPa)
#
#
# Indices 1 2 3 4 5 6 
#
# 1 55.0367 4.1501 21.5649 0.0000 6.5895 0.0000
# 2 4.1501 27.2209 -7.2056 0.0000 7.4582 0.0000
# 3 21.5649 -7.2056 106.6057 0.0000 28.7372 0.0000
# 4 0.0000 0.0000 0.0000 40.0406 0.0000 37.8336
# 5 6.5895 7.4582 28.7372 0.0000 33.2941 0.0000
# 6 0.0000 0.0000 0.0000 37.8336 0.0000 14.7136
#
#
#
# Elastic Compliance Matrix: (Units=1/GPa)
#
#
# Indices 1 2 3 4 5 6 
#
# 1 0.020229 -0.004626 -0.004698 0.000000 0.001087 0.000000
# 2 -0.004626 0.044023 0.008240 0.000000 -0.016058 0.000000
# 3 -0.004698 0.008240 0.014511 0.000000 -0.013441 0.000000
# 4 0.000000 0.000000 0.000000 -0.017470 0.000000 0.044920
# 5 0.001087 -0.016058 -0.013441 0.000000 0.045018 0.000000
# 6 0.000000 0.000000 0.000000 0.044920 0.000000 -0.047541
#
#
# Mechanical properties :
#
#
# Convention : Reuss Voigt Hill
#
# Bulk Modulus (GPa) = 13.05559 25.09803 19.07681
# Shear Modulus (GPa) = 57.82377 28.96658 43.39517
#
# Velocity S-wave (km/s) = 5.14252 3.63975 4.45496
# Velocity P-wave (km/s) = 6.42118 5.39835 5.93185
#
# Compressibility (1/GPa) = 0.07659555
#
# Stress axis : x y z
#
# Youngs Moduli (GPa) = 49.43387 22.71557 68.91433
#
# Poissons Ratio (x) = 0.10507 0.32375
# Poissons Ratio (y) = 0.22866 -0.56785
# Poissons Ratio (z) = 0.23223 -0.18718
#
# Static dielectric constant tensor:
#      x y z
#    x 1.845770 0.000000 -0.010800 
#    y 0.000000 1.754800 0.000000 
#    z -0.010800 0.000000 1.804970 
# 
# From -- ./inp_files/89548.got.cif
#   From: 2010.05.17/outbox.cif.g08.bks.cpg/sg10_45_cif.got.tgz:89548.got - 2010.06.03 11:33:40.
