data_PCOD9150268
_publ_section_title
;
Structure prediction by ZEFSAII (Michael W. Deem and Ramdas Pophale) SiO2 
 PCOD9150268
Probable space group: P 2/M
;
_chemical_formula_sum "Si O2"
_cell_formula_units_Z 32
_cell_length_a 21.487081
_cell_length_b 8.324030
_cell_length_c 26.950506
_cell_angle_alpha 90.000000
_cell_angle_beta 20.822806
_cell_angle_gamma 90.000000
_cell_volume 1713.531018
_symmetry_space_group_name_H-M "P 2/M"
_symmetry_group_IT_number 10
_symmetry_cell_setting 'monoclinic'
loop_
_space_group_symop_operation_xyz
x,y,z
-x,y,-z
-x,-y,-z
x,-y,z
loop_
_atom_site_type_symbol
_atom_site_label
_atom_site_fract_x
_atom_site_fract_y
_atom_site_fract_z
Si Si1 0.291351 0.690267 0.155587
Si Si2 0.199423 0.194522 0.857639
Si Si3 0.526447 0.192531 0.152069
Si Si4 0.529437 0.309124 0.262933
Si Si5 0.240947 0.805315 0.553970
Si Si6 0.512116 0.195737 0.434949
Si Si7 0.808611 0.305526 0.660308
Si Si8 0.154886 0.190972 0.153719
O O1 0.251837 0.500000 0.180341
O O2 0.222759 0.748497 0.259797
O O3 0.213901 0.777863 0.165886
O O4 0.500000 0.708631 0.000000
O O5 0.305001 0.251139 0.827524
O O6 0.315200 0.245075 0.723915
O O7 0.198720 0.000000 0.859771
O O8 0.000000 0.249729 0.000000
O O9 0.533744 0.244873 0.203769
O O10 0.349414 0.250003 0.256991
O O11 0.528290 0.000000 0.148731
O O12 0.695307 0.254730 0.995111
O O13 0.529526 0.500000 0.261626
O O14 0.355114 0.251781 0.422013
O O15 0.348586 0.756622 0.522694
O O16 0.042376 0.745077 0.704608
O O17 0.239416 0.000000 0.553087
O O18 0.500000 0.254742 0.500000
O O19 0.513523 0.000000 0.435404
O O20 0.805321 0.500000 0.662820
O O21 0.000000 0.252453 0.500000
O O22 0.145534 0.000000 0.151896
#
# Coordination Sequence:
#
# PCOD9150268 Si02
#       8
#     4   4   4   4   4   4   4   4
#     4  10  20  36  57  79 108 145 181 225 275 333
#     4   9  18  34  57  83 111 146 187 229 275 327
#     4  11  23  39  58  83 114 147 187 235 284 334
#     4  11  23  38  57  81 114 154 191 231 278 330
#     4   9  19  37  57  82 113 144 185 231 277 331
#     4   8  14  27  51  80 107 137 174 218 265 316
#     4  10  22  39  57  81 112 146 187 229 275 335
#     4  10  22  37  57  83 111 144 182 233 285 334
#
# _framework density 18.674887999999999
#
# number of rings (size 3 to 8) (size 9 to 14) (size 15 to 20)
#    0.000    2.250    1.250    2.250    1.750    3.250 
#    0.000    3.750    0.000    6.000    0.000    0.000 
#    0.000    0.000    0.000    0.000    0.000    0.000 
#
# Total GULP energy -178571.674636 kJ/mol
# GULP energy per Si atom -5580.364832 kJ/mol
# Density = 1.863238 g / cm^3
# Si number density = 18.674888 Si / 1000 Ang^3
#
#
#
# Elastic Constant Matrix: (Units=GPa)
#
#
# Indices 1 2 3 4 5 6 
#
# 1 159.2719 11.0106 107.6217 0.0000 20.5932 0.0000
# 2 11.0106 16.0783 26.2826 0.0000 -0.5038 0.0000
# 3 107.6217 26.2826 168.7949 0.0000 -1.6245 0.0000
# 4 0.0000 0.0000 0.0000 -1.1056 0.0000 -66.5350
# 5 20.5932 -0.5038 -1.6245 0.0000 30.6362 0.0000
# 6 0.0000 0.0000 0.0000 -66.5350 0.0000 -533.9813
#
#
#
# Elastic Compliance Matrix: (Units=1/GPa)
#
#
# Indices 1 2 3 4 5 6 
#
# 1 0.013739 0.006385 -0.009847 0.000000 -0.009652 0.000000
# 2 0.006385 0.086414 -0.017563 0.000000 -0.003802 0.000000
# 3 -0.009847 -0.017563 0.015006 0.000000 0.007126 0.000000
# 4 0.000000 0.000000 0.000000 0.139184 0.000000 -0.017343
# 5 -0.009652 -0.003802 0.007126 0.000000 0.039444 0.000000
# 6 0.000000 0.000000 0.000000 -0.017343 0.000000 0.000288
#
#
# Mechanical properties :
#
#
# Convention : Reuss Voigt Hill
#
# Bulk Modulus (GPa) = 13.67819 70.44168 42.05993
# Shear Modulus (GPa) = 13.86990 -87.60813 -36.86912
#
# Velocity S-wave (km/s) = 2.72821 -6.85668 -4.44809
# Velocity P-wave (km/s) = 4.15505 4.98835 1.95181
#
# Compressibility (1/GPa) = 0.07310910
#
# Stress axis : x y z
#
# Youngs Moduli (GPa) = 72.78718 11.57225 66.64091
#
# Poissons Ratio (x) = -0.07389 0.65620
# Poissons Ratio (y) = -0.46477 1.17042
# Poissons Ratio (z) = 0.71672 0.20324
#
# Static dielectric constant tensor:
#      x y z
#    x 1.620340 0.000000 0.006850 
#    y 0.000000 1.651440 0.000000 
#    z 0.006850 0.000000 1.650690 
# 
# From -- ./inp_files/93656.got.cif
#   From: 2010.05.17/outbox.cif.g08.bks.cpg/sg10_47_cif.got.tgz:93656.got - 2010.06.03 11:33:40.
