data_PCOD9150304
_publ_section_title
;
Structure prediction by ZEFSAII (Michael W. Deem and Ramdas Pophale) SiO2 
 PCOD9150304
Probable space group: P 2/M
;
_chemical_formula_sum "Si O2"
_cell_formula_units_Z 28
_cell_length_a 18.276036
_cell_length_b 7.456652
_cell_length_c 22.401027
_cell_angle_alpha 90.000000
_cell_angle_beta 28.137721
_cell_angle_gamma 90.000000
_cell_volume 1439.662621
_symmetry_space_group_name_H-M "P 2/M"
_symmetry_group_IT_number 10
_symmetry_cell_setting 'monoclinic'
loop_
_space_group_symop_operation_xyz
x,y,z
-x,y,-z
-x,-y,-z
x,-y,z
loop_
_atom_site_type_symbol
_atom_site_label
_atom_site_fract_x
_atom_site_fract_y
_atom_site_fract_z
Si Si1 0.073065 0.000000 0.381562
Si Si2 0.255632 0.214880 0.664627
Si Si3 0.535186 0.215656 0.380058
Si Si4 0.444467 0.000000 0.108208
Si Si5 0.397862 0.718878 0.920379
Si Si6 0.441306 0.289090 0.317300
Si Si7 0.086350 0.718866 0.588259
Si Si8 0.955705 0.288100 0.810472
O O1 0.012045 0.175328 0.390055
O O2 0.000000 0.000000 0.500000
O O3 0.258958 0.000000 0.247846
O O4 0.376400 0.279512 0.526692
O O5 0.323861 0.277742 0.679002
O O6 0.081638 0.258058 0.771485
O O7 0.266989 0.000000 0.656801
O O8 0.534598 0.264708 0.311532
O O9 0.533421 0.000000 0.383433
O O10 0.513028 0.824651 0.091997
O O11 0.500000 0.000000 0.000000
O O12 0.408086 0.500000 0.918952
O O13 0.472980 0.776950 0.803336
O O14 0.217456 0.775590 0.052151
O O15 0.424468 0.500000 0.320157
O O16 0.265815 0.222660 0.452414
O O17 0.075671 0.500000 0.590774
O O18 0.025299 0.776493 0.697499
O O19 0.941721 0.500000 0.813417
#
# Coordination Sequence:
#
# PCOD9150304 Si02
#       8
#     2   4   4   2   4   4   4   4
#     4  12  26  40  62  92 115 146 184 230 297 350
#     4   9  18  31  51  84 120 153 194 246 292 327
#     4   9  18  31  51  84 120 155 193 242 294 331
#     4  12  26  44  66  92 111 152 200 220 293 368
#     4  10  24  42  60  87 122 152 189 240 288 344
#     4  10  20  36  57  83 116 158 195 232 290 343
#     4  10  22  38  60  89 114 146 193 236 282 341
#     4  10  20  36  57  83 112 152 195 238 287 328
#
# _framework density 19.449000999999999
#
# number of rings (size 3 to 8) (size 9 to 14) (size 15 to 20)
#    0.000    2.000    1.429    2.571    4.000    1.714 
#    0.000    2.143    0.000    4.286    0.000    0.000 
#    0.000    0.000    0.000    0.000    0.000    0.000 
#
# Total GULP energy -156272.740144 kJ/mol
# GULP energy per Si atom -5581.169291 kJ/mol
# Density = 1.940473 g / cm^3
# Si number density = 19.449001 Si / 1000 Ang^3
#
#
#
# Elastic Constant Matrix: (Units=GPa)
#
#
# Indices 1 2 3 4 5 6 
#
# 1 163.4493 24.6821 109.2070 0.0000 -4.1152 0.0000
# 2 24.6821 68.6783 31.5359 0.0000 0.3385 0.0000
# 3 109.2070 31.5359 178.1653 0.0000 -1.6377 0.0000
# 4 0.0000 0.0000 0.0000 -3.8468 0.0000 -10.1451
# 5 -4.1152 0.3385 -1.6377 0.0000 31.5047 0.0000
# 6 0.0000 0.0000 0.0000 -10.1451 0.0000 44.8840
#
#
#
# Elastic Compliance Matrix: (Units=1/GPa)
#
#
# Indices 1 2 3 4 5 6 
#
# 1 0.010445 -0.000896 -0.006234 0.000000 0.001050 0.000000
# 2 -0.000896 0.015929 -0.002274 0.000000 -0.000406 0.000000
# 3 -0.006234 -0.002274 0.009834 0.000000 -0.000279 0.000000
# 4 0.000000 0.000000 0.000000 -0.162868 0.000000 -0.036813
# 5 0.001050 -0.000406 -0.000279 0.000000 0.031868 0.000000
# 6 0.000000 0.000000 0.000000 -0.036813 0.000000 0.013959
#
#
# Mechanical properties :
#
#
# Convention : Reuss Voigt Hill
#
# Bulk Modulus (GPa) = 57.47325 82.34923 69.91124
# Shear Modulus (GPa) = -88.92807 30.83290 -29.04759
#
# Velocity S-wave (km/s) = -6.76927 3.98593 -3.86881
# Velocity P-wave (km/s) = 5.61092 7.97600 4.00837
#
# Compressibility (1/GPa) = 0.01739940
#
# Stress axis : x y z
#
# Youngs Moduli (GPa) = 95.73844 62.77904 101.68968
#
# Poissons Ratio (x) = 0.05628 0.63394
# Poissons Ratio (y) = 0.08583 0.23121
# Poissons Ratio (z) = 0.59684 0.14274
#
# Static dielectric constant tensor:
#      x y z
#    x 1.671270 0.000000 -0.002000 
#    y 0.000000 1.710630 0.000000 
#    z -0.002000 0.000000 1.679630 
# 
# From -- ./inp_files/84943.got.cif
#   From: 2010.05.17/outbox.cif.g08.bks.cpg/sg10_43_cif.got.tgz:84943.got - 2010.06.03 11:33:40.
