data_PCOD9150093
_publ_section_title
;
Structure prediction by ZEFSAII (Michael W. Deem and Ramdas Pophale) SiO2 
 PCOD9150093
Probable space group: P 2/M
;
_chemical_formula_sum "Si O2"
_cell_formula_units_Z 25
_cell_length_a 15.044997
_cell_length_b 9.383895
_cell_length_c 19.364213
_cell_angle_alpha 90.000000
_cell_angle_beta 156.962077
_cell_angle_gamma 90.000000
_cell_volume 1069.866720
_symmetry_space_group_name_H-M "P 2/M"
_symmetry_group_IT_number 10
_symmetry_cell_setting 'monoclinic'
loop_
_space_group_symop_operation_xyz
x,y,z
-x,y,-z
-x,-y,-z
x,-y,z
loop_
_atom_site_type_symbol
_atom_site_label
_atom_site_fract_x
_atom_site_fract_y
_atom_site_fract_z
Si Si1 0.319161 0.665371 0.537773
Si Si2 0.760353 0.161731 0.319792
Si Si3 0.278376 0.837212 0.011833
Si Si4 0.848862 0.663888 0.741465
Si Si5 0.500000 0.500000 0.000000
Si Si6 0.735847 0.832214 0.790507
Si Si7 0.832012 0.768162 0.220264
O O1 0.347260 0.500000 0.578364
O O2 0.246567 0.666683 0.404515
O O3 0.552062 0.754057 0.707427
O O4 0.101867 0.736567 0.419242
O O5 0.534755 0.221941 0.192565
O O6 0.740115 0.155577 0.222762
O O7 0.000000 0.239713 0.500000
O O8 0.777979 0.000000 0.359886
O O9 0.267083 0.000000 0.032032
O O10 0.208220 0.844994 0.880899
O O11 0.100156 0.730606 0.917463
O O12 0.847039 0.500000 0.763885
O O13 0.717923 0.760712 0.702442
O O14 0.310592 0.622944 0.883701
O O15 0.687701 0.000000 0.753949
O O16 0.000000 0.812557 0.000000
#
# Coordination Sequence:
#
# PCOD9150093 Si02
#       7
#     4   4   4   4   1   4   4
#     4  10  22  39  62  92 120 151 197 250 299 352
#     4  10  21  36  54  81 118 156 195 245 298 351
#     4  10  20  35  59  87 116 154 203 248 294 354
#     4  10  22  39  64  91 118 151 193 247 300 355
#     4  12  20  36  64  88 120 164 194 256 286 354
#     4  11  25  43  62  86 121 161 200 244 297 357
#     4  11  21  36  63  86 121 156 203 243 299 348
#
# _framework density 23.367395999999999
#
# number of rings (size 3 to 8) (size 9 to 14) (size 15 to 20)
#    0.000    1.600    2.400    1.920    1.120    9.600 
#    0.000    3.600    0.000    0.000    0.000    0.000 
#    0.000    0.000    0.000    0.000    0.000    0.000 
#
# Total GULP energy -139496.485471 kJ/mol
# GULP energy per Si atom -5579.859419 kJ/mol
# Density = 2.331421 g / cm^3
# Si number density = 23.367396 Si / 1000 Ang^3
#
#
#
# Elastic Constant Matrix: (Units=GPa)
#
#
# Indices 1 2 3 4 5 6 
#
# 1 81.5817 9.9396 18.5008 0.0000 21.4405 0.0000
# 2 9.9396 113.6699 43.6369 0.0000 20.0508 0.0000
# 3 18.5008 43.6369 123.3975 0.0000 45.2804 0.0000
# 4 0.0000 0.0000 0.0000 29.8093 0.0000 14.6930
# 5 21.4405 20.0508 45.2804 0.0000 51.4736 0.0000
# 6 0.0000 0.0000 0.0000 14.6930 0.0000 0.4188
#
#
#
# Elastic Compliance Matrix: (Units=1/GPa)
#
#
# Indices 1 2 3 4 5 6 
#
# 1 0.013770 -0.000239 0.000134 0.000000 -0.005760 0.000000
# 2 -0.000239 0.010232 -0.003184 0.000000 -0.001085 0.000000
# 3 0.000134 -0.003184 0.012958 0.000000 -0.010214 0.000000
# 4 0.000000 0.000000 0.000000 -0.002059 0.000000 0.072237
# 5 -0.005760 -0.001085 -0.010214 0.000000 0.031235 0.000000
# 6 0.000000 0.000000 0.000000 0.072237 0.000000 -0.146556
#
#
# Mechanical properties :
#
#
# Convention : Reuss Voigt Hill
#
# Bulk Modulus (GPa) = 32.91588 51.42262 42.16925
# Shear Modulus (GPa) = -78.47726 32.77847 -22.84939
#
# Velocity S-wave (km/s) = -5.80146 3.74939 -3.13042
# Velocity P-wave (km/s) = 5.54609 6.38731 2.24038
#
# Compressibility (1/GPa) = 0.03038047
#
# Stress axis : x y z
#
# Youngs Moduli (GPa) = 72.61992 97.73103 77.17225
#
# Poissons Ratio (x) = 0.02340 -0.01033
# Poissons Ratio (y) = 0.01739 0.24575
# Poissons Ratio (z) = -0.00972 0.31122
#
# Static dielectric constant tensor:
#      x y z
#    x 1.909530 0.000000 -0.035970 
#    y 0.000000 1.823730 0.000000 
#    z -0.035970 0.000000 1.963160 
# 
# From -- ./inp_files/90073.got.cif
#   From: 2010.05.17/outbox.cif.g08.bks.cpg/sg10_46_cif.got.tgz:90073.got - 2010.06.03 11:33:40.
