data_PCOD9150114
_publ_section_title
;
Structure prediction by ZEFSAII (Michael W. Deem and Ramdas Pophale) SiO2 
 PCOD9150114
Probable space group: P 2/M
;
_chemical_formula_sum "Si O2"
_cell_formula_units_Z 24
_cell_length_a 14.438630
_cell_length_b 14.674188
_cell_length_c 11.234433
_cell_angle_alpha 90.000000
_cell_angle_beta 31.703629
_cell_angle_gamma 90.000000
_cell_volume 1250.907081
_symmetry_space_group_name_H-M "P 2/M"
_symmetry_group_IT_number 10
_symmetry_cell_setting 'monoclinic'
loop_
_space_group_symop_operation_xyz
x,y,z
-x,y,-z
-x,-y,-z
x,-y,z
loop_
_atom_site_type_symbol
_atom_site_label
_atom_site_fract_x
_atom_site_fract_y
_atom_site_fract_z
Si Si1 0.780277 0.393905 0.452375
Si Si2 0.014680 0.896258 0.625456
Si Si3 0.568555 0.900909 0.788996
Si Si4 0.288923 0.394187 0.744256
Si Si5 0.547174 0.704926 0.087162
Si Si6 0.882459 0.288729 0.852655
O O1 0.805825 0.500000 0.449158
O O2 0.794349 0.380123 0.294881
O O3 0.585839 0.362969 0.702763
O O4 0.926455 0.334988 0.359690
O O5 0.220387 0.892872 0.435356
O O6 0.000000 0.876404 0.500000
O O7 0.912913 0.819154 0.808620
O O8 0.951023 0.000000 0.712457
O O9 0.490715 0.807573 0.823141
O O10 0.522879 0.000000 0.784912
O O11 0.500000 0.903903 0.000000
O O12 0.500000 0.384113 0.500000
O O13 0.254745 0.500000 0.817687
O O14 0.210779 0.325669 0.926234
O O15 0.500000 0.703877 0.000000
O O16 0.749389 0.683527 0.892849
#
# Coordination Sequence:
#
# PCOD9150114 Si02
#       6
#     4   4   4   4   4   4
#     4  11  24  42  63  89 119 158 210 258 305 365
#     4  10  20  35  59  92 127 163 204 246 297 370
#     4   9  17  33  56  83 118 158 200 245 290 350
#     4  10  21  42  68  90 113 155 215 265 307 361
#     4  11  23  38  59  89 127 163 200 246 306 372
#     4  12  23  37  66  91 122 160 206 258 312 355
#
# _framework density 19.186077000000001
#
# number of rings (size 3 to 8) (size 9 to 14) (size 15 to 20)
#    0.000    1.500    3.333    3.000    0.000    4.333 
#    0.000    0.833    0.000    3.500    0.000    0.000 
#    0.000    0.000    0.000    0.000    0.000    0.000 
#
# Total GULP energy -134022.279509 kJ/mol
# GULP energy per Si atom -5584.261646 kJ/mol
# Density = 1.914241 g / cm^3
# Si number density = 19.186077 Si / 1000 Ang^3
#
#
#
# Elastic Constant Matrix: (Units=GPa)
#
#
# Indices 1 2 3 4 5 6 
#
# 1 71.0971 39.3149 18.6759 0.0000 -18.4641 0.0000
# 2 39.3149 113.1705 39.1592 0.0000 12.7629 0.0000
# 3 18.6759 39.1592 68.7173 0.0000 -5.7733 0.0000
# 4 0.0000 0.0000 0.0000 65.1206 0.0000 -29.3584
# 5 -18.4641 12.7629 -5.7733 0.0000 34.1311 0.0000
# 6 0.0000 0.0000 0.0000 -29.3584 0.0000 142.1275
#
#
#
# Elastic Compliance Matrix: (Units=1/GPa)
#
#
# Indices 1 2 3 4 5 6 
#
# 1 0.024202 -0.010686 0.000961 0.000000 0.017251 0.000000
# 2 -0.010686 0.016738 -0.007756 0.000000 -0.013351 0.000000
# 3 0.000961 -0.007756 0.019272 0.000000 0.006680 0.000000
# 4 0.000000 0.000000 0.000000 0.016933 0.000000 0.003498
# 5 0.017251 -0.013351 0.006680 0.000000 0.044754 0.000000
# 6 0.000000 0.000000 0.000000 0.003498 0.000000 0.007758
#
#
# Mechanical properties :
#
#
# Convention : Reuss Voigt Hill
#
# Bulk Modulus (GPa) = 39.60228 49.69831 44.65029
# Shear Modulus (GPa) = 28.89598 58.66482 43.78040
#
# Velocity S-wave (km/s) = 3.88505 5.53563 4.78209
# Velocity P-wave (km/s) = 6.38833 8.17417 7.33580
#
# Compressibility (1/GPa) = 0.02525107
#
# Stress axis : x y z
#
# Youngs Moduli (GPa) = 41.31914 59.74525 51.88858
#
# Poissons Ratio (x) = 0.63842 -0.04987
# Poissons Ratio (y) = 0.44152 0.40243
# Poissons Ratio (z) = -0.03971 0.46337
#
# Static dielectric constant tensor:
#      x y z
#    x 1.683990 0.000000 -0.035040 
#    y 0.000000 1.689800 0.000000 
#    z -0.035040 0.000000 1.670120 
# 
# From -- ./inp_files/51491.got.cif
#   From: 2010.05.17/outbox.cif.g08.bks.cpg/sg10_26_cif.got.tgz:51491.got - 2010.06.03 11:33:40.
