data_PCOD9150223
_publ_section_title
;
Structure prediction by ZEFSAII (Michael W. Deem and Ramdas Pophale) SiO2 
 PCOD9150223
Probable space group: P 2/M
;
_chemical_formula_sum "Si O2"
_cell_formula_units_Z 28
_cell_length_a 13.986419
_cell_length_b 12.958626
_cell_length_c 9.042937
_cell_angle_alpha 90.000000
_cell_angle_beta 117.661793
_cell_angle_gamma 90.000000
_cell_volume 1451.654648
_symmetry_space_group_name_H-M "P 2/M"
_symmetry_group_IT_number 10
_symmetry_cell_setting 'monoclinic'
loop_
_space_group_symop_operation_xyz
x,y,z
-x,y,-z
-x,-y,-z
x,-y,z
loop_
_atom_site_type_symbol
_atom_site_label
_atom_site_fract_x
_atom_site_fract_y
_atom_site_fract_z
Si Si1 0.750133 0.805868 0.545488
Si Si2 0.923541 0.000000 0.173873
Si Si3 0.837004 0.619277 0.782433
Si Si4 0.838877 0.194670 0.291602
Si Si5 0.080931 0.619343 0.834621
Si Si6 0.617088 0.877991 0.008973
Si Si7 0.165243 0.000000 0.216552
Si Si8 0.478703 0.881871 0.656826
O O1 0.764755 0.700405 0.644446
O O2 0.830124 0.812943 0.462128
O O3 0.775163 0.900028 0.674829
O O4 0.629378 0.818071 0.396225
O O5 0.900495 0.899933 0.257184
O O6 0.044823 0.000000 0.198797
O O7 0.848665 0.000000 0.971264
O O8 0.802845 0.500000 0.744185
O O9 0.956529 0.627920 0.796260
O O10 0.851672 0.643219 0.967075
O O11 0.890094 0.300697 0.271660
O O12 0.716417 0.184858 0.142793
O O13 0.100613 0.500000 0.807731
O O14 0.587089 0.851242 0.819261
O O15 0.643715 0.000000 0.043305
O O16 0.500000 0.861243 0.000000
O O17 0.500000 0.881736 0.500000
O O18 0.455247 0.000000 0.688550
#
# Coordination Sequence:
#
# PCOD9150223 Si02
#       8
#     4   2   4   4   4   4   2   4
#     4  12  23  36  58  88 120 149 185 242 293 341
#     4  11  25  39  53  81 115 161 192 223 286 351
#     4   9  20  40  63  84 112 152 197 242 283 337
#     4  12  23  35  59  88 117 153 188 233 297 344
#     4   9  20  40  63  85 111 151 200 239 281 344
#     4  10  20  36  56  78 115 154 189 232 277 342
#     4  11  25  39  53  79 121 154 192 234 276 345
#     4  10  22  36  56  84 113 150 196 237 277 333
#
# _framework density 19.288333000000002
#
# number of rings (size 3 to 8) (size 9 to 14) (size 15 to 20)
#    0.000    1.571    2.857    3.000    4.000    5.714 
#    0.000    1.429    0.000    1.714    0.000    0.000 
#    0.000    0.000    0.000    0.000    0.000    0.000 
#
# Total GULP energy -156459.335510 kJ/mol
# GULP energy per Si atom -5587.833411 kJ/mol
# Density = 1.924443 g / cm^3
# Si number density = 19.288333 Si / 1000 Ang^3
#
#
#
# Elastic Constant Matrix: (Units=GPa)
#
#
# Indices 1 2 3 4 5 6 
#
# 1 49.2059 14.9758 -4.8473 0.0000 -6.5050 0.0000
# 2 14.9758 77.2369 24.6869 0.0000 -6.3348 0.0000
# 3 -4.8473 24.6869 57.7527 0.0000 -4.1724 0.0000
# 4 0.0000 0.0000 0.0000 4.8383 0.0000 9.2170
# 5 -6.5050 -6.3348 -4.1724 0.0000 34.4586 0.0000
# 6 0.0000 0.0000 0.0000 9.2170 0.0000 4.7176
#
#
#
# Elastic Compliance Matrix: (Units=1/GPa)
#
#
# Indices 1 2 3 4 5 6 
#
# 1 0.022997 -0.005615 0.004610 0.000000 0.003867 0.000000
# 2 -0.005615 0.016505 -0.007449 0.000000 0.001072 0.000000
# 3 0.004610 -0.007449 0.021034 0.000000 0.002048 0.000000
# 4 0.000000 0.000000 0.000000 -0.075935 0.000000 0.148357
# 5 0.003867 0.001072 0.002048 0.000000 0.030195 0.000000
# 6 0.000000 0.000000 0.000000 0.148357 0.000000 -0.077878
#
#
# Mechanical properties :
#
#
# Convention : Reuss Voigt Hill
#
# Bulk Modulus (GPa) = 22.92135 28.20290 25.56212
# Shear Modulus (GPa) = -158.07730 18.76158 -69.65786
#
# Velocity S-wave (km/s) = -9.06271 3.12218 -6.01601
# Velocity P-wave (km/s) = 9.87933 5.25841 5.91398
#
# Compressibility (1/GPa) = 0.04362745
#
# Stress axis : x y z
#
# Youngs Moduli (GPa) = 43.48374 60.58861 47.54164
#
# Poissons Ratio (x) = 0.34022 -0.21916
# Poissons Ratio (y) = 0.24417 0.35413
# Poissons Ratio (z) = -0.20046 0.45132
#
# Static dielectric constant tensor:
#      x y z
#    x 1.698320 0.000000 -0.014210 
#    y 0.000000 1.634100 0.000000 
#    z -0.014210 0.000000 1.734700 
# 
# From -- ./inp_files/28370.got.cif
#   From: 2010.05.17/outbox.cif.g08.bks.cpg/sg10_15_cif.got.tgz:28370.got - 2010.06.03 11:33:40.
