data_PCOD9150802
_publ_section_title
;
Structure prediction by ZEFSAII (Michael W. Deem and Ramdas Pophale) SiO2 
 PCOD9150802
Probable space group: P 2/M
;
_chemical_formula_sum "Si O2"
_cell_formula_units_Z 30
_cell_length_a 12.047144
_cell_length_b 18.125073
_cell_length_c 14.960915
_cell_angle_alpha 90.000000
_cell_angle_beta 29.322704
_cell_angle_gamma 90.000000
_cell_volume 1599.841426
_symmetry_space_group_name_H-M "P 2/M"
_symmetry_group_IT_number 10
_symmetry_cell_setting 'monoclinic'
loop_
_space_group_symop_operation_xyz
x,y,z
-x,y,-z
-x,-y,-z
x,-y,z
loop_
_atom_site_type_symbol
_atom_site_label
_atom_site_fract_x
_atom_site_fract_y
_atom_site_fract_z
Si Si1 0.109229 0.321498 0.181705
Si Si2 0.397043 0.295495 0.458821
Si Si3 0.268312 0.416406 0.799978
Si Si4 0.239014 0.722307 0.286293
Si Si5 0.610396 0.217583 0.134807
Si Si6 0.522870 0.581674 0.147214
Si Si7 0.500000 0.164035 0.500000
Si Si8 0.267632 0.915904 0.829041
O O1 0.199615 0.284707 0.209006
O O2 0.843521 0.335385 0.378677
O O3 0.183706 0.267285 0.048049
O O4 0.252376 0.395413 0.065033
O O5 0.599537 0.351437 0.343754
O O6 0.488999 0.260441 0.301956
O O7 0.347349 0.223768 0.554664
O O8 0.285501 0.500000 0.750246
O O9 0.394469 0.417523 0.807759
O O10 0.000000 0.400550 0.000000
O O11 0.423203 0.782128 0.188192
O O12 0.341749 0.644483 0.250083
O O13 0.000000 0.736820 0.500000
O O14 0.679806 0.139502 0.126536
O O15 0.441935 0.500000 0.182082
O O16 0.618146 0.115661 0.341380
O O17 0.340953 0.000000 0.794272
O O18 0.000000 0.915085 0.000000
#
# Coordination Sequence:
#
# PCOD9150802 Si02
#       8
#     4   4   4   4   4   4   2   4
#     4  11  21  35  59  82 112 147 192 243 292 335
#     4  11  21  36  57  86 110 147 198 236 282 346
#     4  10  21  37  54  74 113 157 193 244 294 339
#     4  11  20  37  57  83 113 146 194 241 291 341
#     4  10  20  37  57  87 113 147 184 232 280 333
#     4  10  21  36  53  78 109 147 196 246 295 339
#     4  10  23  34  59  92 118 144 184 236 275 328
#     4  10  21  39  62  89 123 152 180 220 281 345
#
# _framework density 18.751859
#
# number of rings (size 3 to 8) (size 9 to 14) (size 15 to 20)
#    0.000    1.600    4.000    2.600    1.867    4.000 
#    0.000    0.333    0.000    2.000    0.000    0.000 
#    0.000    0.000    0.000    0.000    0.000    0.000 
#
# Total GULP energy -167301.973380 kJ/mol
# GULP energy per Si atom -5576.732446 kJ/mol
# Density = 1.870918 g / cm^3
# Si number density = 18.751859 Si / 1000 Ang^3
#
#
#
# Elastic Constant Matrix: (Units=GPa)
#
#
# Indices 1 2 3 4 5 6 
#
# 1 47.6125 23.1673 16.1022 0.0000 4.6244 0.0000
# 2 23.1673 103.9697 27.3759 0.0000 -5.2691 0.0000
# 3 16.1022 27.3759 82.9587 0.0000 -10.4888 0.0000
# 4 0.0000 0.0000 0.0000 8.9346 0.0000 -4.9665
# 5 4.6244 -5.2691 -10.4888 0.0000 34.6105 0.0000
# 6 0.0000 0.0000 0.0000 -4.9665 0.0000 -22.7727
#
#
#
# Elastic Compliance Matrix: (Units=1/GPa)
#
#
# Indices 1 2 3 4 5 6 
#
# 1 0.025217 -0.004843 -0.003968 0.000000 -0.005309 0.000000
# 2 -0.004843 0.011475 -0.002645 0.000000 0.001592 0.000000
# 3 -0.003968 -0.002645 0.014260 0.000000 0.004449 0.000000
# 4 0.000000 0.000000 0.000000 0.099823 0.000000 -0.021771
# 5 -0.005309 0.001592 0.004449 0.000000 0.031193 0.000000
# 6 0.000000 0.000000 0.000000 -0.021771 0.000000 -0.039164
#
#
# Mechanical properties :
#
#
# Convention : Reuss Voigt Hill
#
# Bulk Modulus (GPa) = 35.66444 40.87020 38.26732
# Shear Modulus (GPa) = 28.56135 15.34751 21.95443
#
# Velocity S-wave (km/s) = 3.90695 2.86396 3.42539
# Velocity P-wave (km/s) = 6.27796 5.72529 6.00799
#
# Compressibility (1/GPa) = 0.02803913
#
# Stress axis : x y z
#
# Youngs Moduli (GPa) = 39.65568 87.14885 70.12795
#
# Poissons Ratio (x) = 0.42210 0.27824
# Poissons Ratio (y) = 0.19207 0.18550
# Poissons Ratio (z) = 0.15734 0.23052
#
# Static dielectric constant tensor:
#      x y z
#    x 1.738120 0.000000 0.034210 
#    y 0.000000 1.643020 0.000000 
#    z 0.034210 0.000000 1.671650 
# 
# From -- ./inp_files/65331.got.cif
#   From: 2010.05.17/outbox.cif.g08.bks.cpg/sg10_33_cif.got.tgz:65331.got - 2010.06.03 11:33:40.
