data_PCOD9150575
_publ_section_title
;
Structure prediction by ZEFSAII (Michael W. Deem and Ramdas Pophale) SiO2 
 PCOD9150575
Probable space group: P 2/M
;
_chemical_formula_sum "Si O2"
_cell_formula_units_Z 28
_cell_length_a 30.755048
_cell_length_b 9.596482
_cell_length_c 5.263292
_cell_angle_alpha 90.000000
_cell_angle_beta 51.261372
_cell_angle_gamma 90.000000
_cell_volume 1211.672842
_symmetry_space_group_name_H-M "P 2/M"
_symmetry_group_IT_number 10
_symmetry_cell_setting 'monoclinic'
loop_
_space_group_symop_operation_xyz
x,y,z
-x,y,-z
-x,-y,-z
x,-y,z
loop_
_atom_site_type_symbol
_atom_site_label
_atom_site_fract_x
_atom_site_fract_y
_atom_site_fract_z
Si Si1 0.378347 0.846364 0.934623
Si Si2 0.681180 0.347099 0.177624
Si Si3 0.066214 0.164273 0.209202
Si Si4 0.793222 0.647915 0.479555
Si Si5 0.537345 0.661609 0.109786
Si Si6 0.261136 0.849233 0.633224
Si Si7 0.896764 0.665151 0.428594
O O1 0.371899 0.735558 0.732267
O O2 0.413318 0.771284 0.025403
O O3 0.400525 0.000000 0.787563
O O4 0.314412 0.866095 0.253804
O O5 0.666234 0.500000 0.325919
O O6 0.714636 0.257584 0.255629
O O7 0.728469 0.365051 0.789138
O O8 0.091109 0.252607 0.355925
O O9 0.000000 0.161397 0.500000
O O10 0.084447 0.000000 0.129541
O O11 0.077067 0.249660 0.907104
O O12 0.810467 0.500000 0.291972
O O13 0.792043 0.784074 0.311744
O O14 0.831604 0.663938 0.584963
O O15 0.500000 0.674915 0.500000
O O16 0.556340 0.500000 0.029710
O O17 0.500000 0.689638 0.000000
O O18 0.248638 0.000000 0.793081
O O19 0.913975 0.500000 0.377307
#
# Coordination Sequence:
#
# PCOD9150575 Si02
#       7
#     4   4   4   4   4   4   4
#     4  10  22  39  58  85 119 155 200 249 304 364
#     4  10  20  36  60  85 117 160 202 247 301 364
#     4  11  25  45  67  95 132 173 219 271 331 396
#     4   9  21  39  57  85 121 160 204 252 308 370
#     4  10  23  42  63  90 121 156 202 253 305 367
#     4  10  21  36  57  87 121 157 199 249 300 363
#     4  11  24  42  68  99 132 170 219 275 327 386
#
# _framework density 23.108549
#
# number of rings (size 3 to 8) (size 9 to 14) (size 15 to 20)
#    0.000    1.857    0.000    2.571    4.000    6.857 
#    0.000    0.000    0.000    0.000    0.000    0.000 
#    0.000    0.000    0.000    0.000    0.000    0.000 
#
# Total GULP energy -156275.102874 kJ/mol
# GULP energy per Si atom -5581.253674 kJ/mol
# Density = 2.305595 g / cm^3
# Si number density = 23.108549 Si / 1000 Ang^3
#
#
#
# Elastic Constant Matrix: (Units=GPa)
#
#
# Indices 1 2 3 4 5 6 
#
# 1 109.3227 84.4580 13.6548 0.0000 11.8528 0.0000
# 2 84.4580 225.1770 23.7024 0.0000 22.1077 0.0000
# 3 13.6548 23.7024 73.3190 0.0000 6.0468 0.0000
# 4 0.0000 0.0000 0.0000 17.1271 0.0000 2.4081
# 5 11.8528 22.1077 6.0468 0.0000 34.8512 0.0000
# 6 0.0000 0.0000 0.0000 2.4081 0.0000 41.6222
#
#
#
# Elastic Compliance Matrix: (Units=1/GPa)
#
#
# Indices 1 2 3 4 5 6 
#
# 1 0.012989 -0.004657 -0.000804 0.000000 -0.001324 0.000000
# 2 -0.004657 0.006532 -0.001048 0.000000 -0.002377 0.000000
# 3 -0.000804 -0.001048 0.014254 0.000000 -0.001535 0.000000
# 4 0.000000 0.000000 0.000000 0.058866 0.000000 -0.003406
# 5 -0.001324 -0.002377 -0.001535 0.000000 0.030918 0.000000
# 6 0.000000 0.000000 0.000000 -0.003406 0.000000 0.024223
#
#
# Mechanical properties :
#
#
# Convention : Reuss Voigt Hill
#
# Bulk Modulus (GPa) = 48.17967 72.38323 60.28145
# Shear Modulus (GPa) = 29.81168 37.78700 33.79934
#
# Velocity S-wave (km/s) = 3.59565 4.04814 3.82859
# Velocity P-wave (km/s) = 6.17518 7.29665 6.75921
#
# Compressibility (1/GPa) = 0.02075564
#
# Stress axis : x y z
#
# Youngs Moduli (GPa) = 76.98675 153.10362 70.15465
#
# Poissons Ratio (x) = 0.71305 0.05643
# Poissons Ratio (y) = 0.35855 0.07353
# Poissons Ratio (z) = 0.06192 0.16046
#
# Static dielectric constant tensor:
#      x y z
#    x 1.819480 0.000000 -0.013620 
#    y 0.000000 2.008180 0.000000 
#    z -0.013620 0.000000 1.972620 
# 
# From -- ./inp_files/13593.got.cif
#   From: 2010.05.17/outbox.cif.g08.bks.cpg/sg10_7_cif.got.tgz:13593.got - 2010.06.03 11:33:40.
