data_PCOD9150555
_publ_section_title
;
Structure prediction by ZEFSAII (Michael W. Deem and Ramdas Pophale) SiO2 
 PCOD9150555
Probable space group: P 2/M
;
_chemical_formula_sum "Si O2"
_cell_formula_units_Z 26
_cell_length_a 8.352244
_cell_length_b 10.182440
_cell_length_c 18.808422
_cell_angle_alpha 90.000000
_cell_angle_beta 122.455715
_cell_angle_gamma 90.000000
_cell_volume 1349.740412
_symmetry_space_group_name_H-M "P 2/M"
_symmetry_group_IT_number 10
_symmetry_cell_setting 'monoclinic'
loop_
_space_group_symop_operation_xyz
x,y,z
-x,y,-z
-x,-y,-z
x,-y,z
loop_
_atom_site_type_symbol
_atom_site_label
_atom_site_fract_x
_atom_site_fract_y
_atom_site_fract_z
Si Si1 0.610153 0.850401 0.452265
Si Si2 0.714264 0.843830 0.048089
Si Si3 0.258774 0.355642 0.188461
Si Si4 0.036604 0.848485 0.228972
Si Si5 0.000000 0.276764 0.000000
Si Si6 0.647878 0.654652 0.338147
Si Si7 0.017399 0.149083 0.617982
O O1 0.500000 0.833853 0.500000
O O2 0.568298 0.734379 0.387406
O O3 0.833550 0.844040 0.524264
O O4 0.566704 0.000000 0.416152
O O5 0.826894 0.817838 0.148292
O O6 0.697754 0.000000 0.036016
O O7 0.500000 0.788632 0.000000
O O8 0.854317 0.798389 0.018105
O O9 0.229212 0.500000 0.213775
O O10 0.142458 0.349820 0.087625
O O11 0.484969 0.336914 0.238974
O O12 0.175070 0.245658 0.219655
O O13 0.047656 0.836131 0.315882
O O14 0.077249 0.000000 0.220088
O O15 0.684629 0.500000 0.360694
O O16 0.832721 0.737634 0.361941
O O17 0.097946 0.000000 0.630104
#
# Coordination Sequence:
#
# PCOD9150555 Si02
#       7
#     4   4   4   4   2   4   4
#     4  10  21  39  62  86 112 146 189 235 281 336
#     4   9  18  32  53  85 120 147 187 244 298 352
#     4  10  22  39  58  81 114 151 193 240 288 342
#     4   9  19  36  58  84 111 145 189 234 287 342
#     4  10  20  36  60  80 111 158 203 240 297 350
#     4  11  24  38  55  84 117 151 189 231 285 344
#     4  10  21  37  59  86 116 149 188 233 281 337
#
# _framework density 19.262962999999999
#
# number of rings (size 3 to 8) (size 9 to 14) (size 15 to 20)
#    0.000    2.154    0.000    2.308    2.154    6.462 
#    0.000    0.000    0.000    2.308    0.000    0.000 
#    0.000    0.000    0.000    0.000    0.000    0.000 
#
# Total GULP energy -144956.580139 kJ/mol
# GULP energy per Si atom -5575.253082 kJ/mol
# Density = 1.921912 g / cm^3
# Si number density = 19.262963 Si / 1000 Ang^3
#
#
#
# Elastic Constant Matrix: (Units=GPa)
#
#
# Indices 1 2 3 4 5 6 
#
# 1 59.2743 26.5397 21.3640 0.0000 12.6403 0.0000
# 2 26.5397 92.7702 43.7340 0.0000 10.9576 0.0000
# 3 21.3640 43.7340 92.0489 0.0000 12.1674 0.0000
# 4 0.0000 0.0000 0.0000 -43.1140 0.0000 322.8332
# 5 12.6403 10.9576 12.1674 0.0000 32.2030 0.0000
# 6 0.0000 0.0000 0.0000 322.8332 0.0000-1547.4153
#
#
#
# Elastic Compliance Matrix: (Units=1/GPa)
#
#
# Indices 1 2 3 4 5 6 
#
# 1 0.020783 -0.004304 -0.001993 0.000000 -0.005940 0.000000
# 2 -0.004304 0.014953 -0.005954 0.000000 -0.001149 0.000000
# 3 -0.001993 -0.005954 0.014509 0.000000 -0.002674 0.000000
# 4 0.000000 0.000000 0.000000 0.041258 0.000000 0.008608
# 5 -0.005940 -0.001149 -0.002674 0.000000 0.034786 0.000000
# 6 0.000000 0.000000 0.000000 0.008608 0.000000 0.001150
#
#
# Mechanical properties :
#
#
# Convention : Reuss Voigt Hill
#
# Bulk Modulus (GPa) = 38.84687 47.48544 43.16616
# Shear Modulus (GPa) = 31.14858 -301.50154 -135.17648
#
# Velocity S-wave (km/s) = 4.02558 -12.52432 -8.38610
# Velocity P-wave (km/s) = 6.46664 13.58087 8.44460
#
# Compressibility (1/GPa) = 0.02574210
#
# Stress axis : x y z
#
# Youngs Moduli (GPa) = 48.11601 66.87594 68.92505
#
# Poissons Ratio (x) = 0.28785 0.13740
# Poissons Ratio (y) = 0.20711 0.41035
# Poissons Ratio (z) = 0.09592 0.39815
#
# Static dielectric constant tensor:
#      x y z
#    x 1.677490 0.000000 0.025670 
#    y 0.000000 1.647680 0.000000 
#    z 0.025670 0.000000 1.710430 
# 
# From -- ./inp_files/34276.got.cif
#   From: 2010.05.17/outbox.cif.g08.bks.cpg/sg10_18_cif.got.tgz:34276.got - 2010.06.03 11:33:40.
