data_PCOD9150226
_publ_section_title
;
Structure prediction by ZEFSAII (Michael W. Deem and Ramdas Pophale) SiO2 
 PCOD9150226
Probable space group: P 2/M
;
_chemical_formula_sum "Si O2"
_cell_formula_units_Z 32
_cell_length_a 22.030075
_cell_length_b 8.812473
_cell_length_c 17.173422
_cell_angle_alpha 90.000000
_cell_angle_beta 27.116513
_cell_angle_gamma 90.000000
_cell_volume 1519.659616
_symmetry_space_group_name_H-M "P 2/M"
_symmetry_group_IT_number 10
_symmetry_cell_setting 'monoclinic'
loop_
_space_group_symop_operation_xyz
x,y,z
-x,y,-z
-x,-y,-z
x,-y,z
loop_
_atom_site_type_symbol
_atom_site_label
_atom_site_fract_x
_atom_site_fract_y
_atom_site_fract_z
Si Si1 0.699717 0.682502 0.655272
Si Si2 0.605817 0.674611 0.153002
Si Si3 0.581112 0.821244 0.013035
Si Si4 0.175679 0.181942 0.986181
Si Si5 0.139792 0.318580 0.304925
Si Si6 0.003054 0.680881 0.689154
Si Si7 0.849909 0.182277 0.160804
Si Si8 0.303925 0.327087 0.522645
O O1 0.681408 0.500000 0.681863
O O2 0.565058 0.756454 0.843281
O O3 0.849682 0.720607 0.511407
O O4 0.708845 0.723896 0.552645
O O5 0.635793 0.500000 0.094565
O O6 0.591865 0.776768 0.092207
O O7 0.461515 0.672752 0.357268
O O8 0.711156 0.738908 0.092462
O O9 0.581893 0.000000 0.999449
O O10 0.721452 0.750501 0.823840
O O11 0.038682 0.234479 0.184352
O O12 0.184312 0.000000 0.981116
O O13 0.191619 0.230199 0.878496
O O14 0.146862 0.500000 0.309972
O O15 0.000000 0.262961 0.500000
O O16 0.109740 0.290577 0.247514
O O17 0.005725 0.500000 0.700392
O O18 0.766057 0.235167 0.330008
O O19 0.850075 0.000000 0.160280
O O20 0.000000 0.237311 0.000000
O O21 0.253496 0.500000 0.582193
#
# Coordination Sequence:
#
# PCOD9150226 Si02
#       8
#     4   4   4   4   4   4   4   4
#     4   9  19  36  58  84 113 149 193 237 281 334
#     4  10  20  36  56  79 108 143 184 232 281 334
#     4  11  21  35  58  87 116 150 188 229 283 339
#     4  11  22  34  53  81 110 144 187 234 283 334
#     4  10  21  38  61  88 118 152 188 230 280 335
#     4  10  20  36  60  86 112 147 191 237 282 332
#     4  10  22  37  50  70 106 147 182 224 283 342
#     4   9  19  34  53  76 103 138 185 235 278 325
#
# _framework density 21.057345999999999
#
# number of rings (size 3 to 8) (size 9 to 14) (size 15 to 20)
#    0.000    2.000    1.250    3.375    0.000    5.000 
#    0.000    3.125    0.000    3.750    0.000    0.000 
#    0.000    0.000    0.000    0.000    0.000    0.000 
#
# Total GULP energy -178641.529356 kJ/mol
# GULP energy per Si atom -5582.547792 kJ/mol
# Density = 2.100942 g / cm^3
# Si number density = 21.057346 Si / 1000 Ang^3
#
#
#
# Elastic Constant Matrix: (Units=GPa)
#
#
# Indices 1 2 3 4 5 6 
#
# 1 65.1695 14.1764 30.6717 0.0000 -15.0049 0.0000
# 2 14.1764 44.6322 31.7731 0.0000 -8.5022 0.0000
# 3 30.6717 31.7731 133.6478 0.0000 -15.5968 0.0000
# 4 0.0000 0.0000 0.0000 76.7452 0.0000 -1.7318
# 5 -15.0049 -8.5022 -15.5968 0.0000 42.5336 0.0000
# 6 0.0000 0.0000 0.0000 -1.7318 0.0000 12.5178
#
#
#
# Elastic Compliance Matrix: (Units=1/GPa)
#
#
# Indices 1 2 3 4 5 6 
#
# 1 0.018490 -0.002805 -0.003010 0.000000 0.004859 0.000000
# 2 -0.002805 0.027812 -0.005678 0.000000 0.002488 0.000000
# 3 -0.003010 -0.005678 0.009681 0.000000 0.001353 0.000000
# 4 0.000000 0.000000 0.000000 0.013071 0.000000 0.001808
# 5 0.004859 0.002488 0.001353 0.000000 0.026218 0.000000
# 6 0.000000 0.000000 0.000000 0.001808 0.000000 0.080136
#
#
# Mechanical properties :
#
#
# Convention : Reuss Voigt Hill
#
# Bulk Modulus (GPa) = 30.30474 44.07686 37.19080
# Shear Modulus (GPa) = 23.87860 37.48123 30.67991
#
# Velocity S-wave (km/s) = 3.37111 4.22353 3.82117
# Velocity P-wave (km/s) = 5.43832 6.69041 6.09659
#
# Compressibility (1/GPa) = 0.03299814
#
# Stress axis : x y z
#
# Youngs Moduli (GPa) = 54.08385 35.95534 103.29705
#
# Poissons Ratio (x) = 0.10085 0.31088
# Poissons Ratio (y) = 0.15170 0.58652
# Poissons Ratio (z) = 0.16277 0.20415
#
# Static dielectric constant tensor:
#      x y z
#    x 1.781060 0.000000 0.003280 
#    y 0.000000 1.712240 0.000000 
#    z 0.003280 0.000000 1.798490 
# 
# From -- ./inp_files/86889.got.cif
#   From: 2010.05.17/outbox.cif.g08.bks.cpg/sg10_44_cif.got.tgz:86889.got - 2010.06.03 11:33:40.
