data_PCOD9150714
_publ_section_title
;
Structure prediction by ZEFSAII (Michael W. Deem and Ramdas Pophale) SiO2 
 PCOD9150714
Probable space group: P 2/M
;
_chemical_formula_sum "Si O2"
_cell_formula_units_Z 24
_cell_length_a 17.385857
_cell_length_b 9.476023
_cell_length_c 14.213947
_cell_angle_alpha 90.000000
_cell_angle_beta 144.727426
_cell_angle_gamma 90.000000
_cell_volume 1352.271804
_symmetry_space_group_name_H-M "P 2/M"
_symmetry_group_IT_number 10
_symmetry_cell_setting 'monoclinic'
loop_
_space_group_symop_operation_xyz
x,y,z
-x,y,-z
-x,-y,-z
x,-y,z
loop_
_atom_site_type_symbol
_atom_site_label
_atom_site_fract_x
_atom_site_fract_y
_atom_site_fract_z
Si Si1 0.787064 0.668499 0.546943
Si Si2 0.527864 0.333759 0.786728
Si Si3 0.631446 0.837373 0.066731
Si Si4 0.640710 0.661984 0.693675
Si Si5 0.137273 0.832345 0.192546
Si Si6 0.144472 0.666817 0.598603
O O1 0.799471 0.500000 0.576584
O O2 0.628451 0.701159 0.384517
O O3 0.853789 0.754099 0.698131
O O4 0.848148 0.700231 0.505272
O O5 0.532377 0.500000 0.816630
O O6 0.607795 0.314425 0.769830
O O7 0.592701 0.241699 0.932638
O O8 0.747609 0.757073 0.237726
O O9 0.667682 0.000000 0.085588
O O10 0.500000 0.834112 0.000000
O O11 0.500000 0.672878 0.500000
O O12 0.688536 0.500000 0.728705
O O13 0.744484 0.768605 0.752535
O O14 0.152722 0.000000 0.220914
O O15 0.000000 0.806164 0.000000
O O16 0.177257 0.500000 0.639904
O O17 0.000000 0.689260 0.500000
#
# Coordination Sequence:
#
# PCOD9150714 Si02
#       6
#     4   4   4   4   4   4
#     4  10  20  38  63  87 115 155 199 247 298 345
#     4  10  20  36  62  90 117 153 198 249 297 343
#     4  11  23  37  57  88 122 157 198 239 290 354
#     4  10  20  38  62  89 115 145 198 250 291 345
#     4  11  25  41  58  86 124 161 196 236 292 360
#     4  10  22  40  63  90 119 154 201 249 296 349
#
# _framework density 17.747911999999999
#
# number of rings (size 3 to 8) (size 9 to 14) (size 15 to 20)
#    0.000    1.667    3.333    1.000    0.000    6.000 
#    0.000    5.000    0.000    0.000    0.000    0.000 
#    0.000    0.000    0.000    0.000    0.000    0.000 
#
# Total GULP energy -134058.822210 kJ/mol
# GULP energy per Si atom -5585.784259 kJ/mol
# Density = 1.770752 g / cm^3
# Si number density = 17.747912 Si / 1000 Ang^3
#
#
#
# Elastic Constant Matrix: (Units=GPa)
#
#
# Indices 1 2 3 4 5 6 
#
# 1 111.1035 79.5873 77.4506 0.0000 -17.2330 0.0000
# 2 79.5873 106.6968 103.1710 0.0000 -19.7173 0.0000
# 3 77.4506 103.1710 130.4567 0.0000 -24.4361 0.0000
# 4 0.0000 0.0000 0.0000 -43.3044 0.0000 63.8047
# 5 -17.2330 -19.7173 -24.4361 0.0000 29.1618 0.0000
# 6 0.0000 0.0000 0.0000 63.8047 0.0000 -45.8480
#
#
#
# Elastic Compliance Matrix: (Units=1/GPa)
#
#
# Indices 1 2 3 4 5 6 
#
# 1 0.019422 -0.014155 0.000025 0.000000 0.001927 0.000000
# 2 -0.014155 0.050161 -0.031409 0.000000 -0.000769 0.000000
# 3 0.000025 -0.031409 0.033824 0.000000 0.007121 0.000000
# 4 0.000000 0.000000 0.000000 0.021983 0.000000 0.030593
# 5 0.001927 -0.000769 0.007121 0.000000 0.040877 0.000000
# 6 0.000000 0.000000 0.000000 0.030593 0.000000 0.020763
#
#
# Mechanical properties :
#
#
# Convention : Reuss Voigt Hill
#
# Bulk Modulus (GPa) = 81.11971 96.51945 88.81958
# Shear Modulus (GPa) = 17.71676 -6.12825 5.79426
#
# Velocity S-wave (km/s) = 3.16293 -1.86022 1.80882
# Velocity P-wave (km/s) = 7.69056 7.06312 7.38351
#
# Compressibility (1/GPa) = 0.01232746
#
# Stress axis : x y z
#
# Youngs Moduli (GPa) = 51.48771 19.93600 29.56466
#
# Poissons Ratio (x) = 0.28220 -0.00074
# Poissons Ratio (y) = 0.72883 0.92861
# Poissons Ratio (z) = -0.00129 0.62618
#
# Static dielectric constant tensor:
#      x y z
#    x 1.607980 0.000000 -0.006240 
#    y 0.000000 1.592770 0.000000 
#    z -0.006240 0.000000 1.572410 
# 
# From -- ./inp_files/60266.got.cif
#   From: 2010.05.17/outbox.cif.g08.bks.cpg/sg10_31_cif.got.tgz:60266.got - 2010.06.03 11:33:40.
