data_PCOD9150689
_publ_section_title
;
Structure prediction by ZEFSAII (Michael W. Deem and Ramdas Pophale) SiO2 
 PCOD9150689
Probable space group: P 2/M
;
_chemical_formula_sum "Si O2"
_cell_formula_units_Z 28
_cell_length_a 12.781169
_cell_length_b 8.957878
_cell_length_c 14.644445
_cell_angle_alpha 90.000000
_cell_angle_beta 58.036635
_cell_angle_gamma 90.000000
_cell_volume 1422.468039
_symmetry_space_group_name_H-M "P 2/M"
_symmetry_group_IT_number 10
_symmetry_cell_setting 'monoclinic'
loop_
_space_group_symop_operation_xyz
x,y,z
-x,y,-z
-x,-y,-z
x,-y,z
loop_
_atom_site_type_symbol
_atom_site_label
_atom_site_fract_x
_atom_site_fract_y
_atom_site_fract_z
Si Si1 0.960556 0.175538 0.914517
Si Si2 0.990851 0.823017 0.612051
Si Si3 0.269318 0.322542 0.223592
Si Si4 0.855636 0.677507 0.310702
Si Si5 0.321021 0.823687 0.011266
Si Si6 0.582704 0.321396 0.372828
Si Si7 0.520940 0.178259 0.762771
O O1 0.815452 0.200090 0.966855
O O2 0.040636 0.274527 0.809630
O O3 0.985224 0.000000 0.883557
O O4 0.000000 0.204914 0.000000
O O5 0.867404 0.745684 0.706818
O O6 0.000000 0.795415 0.500000
O O7 0.107061 0.757821 0.612790
O O8 0.981984 0.000000 0.631920
O O9 0.264110 0.500000 0.230309
O O10 0.328596 0.268707 0.100716
O O11 0.352430 0.256473 0.266329
O O12 0.855712 0.500000 0.324483
O O13 0.722764 0.721823 0.332503
O O14 0.333574 0.000000 0.028185
O O15 0.421723 0.787020 0.888377
O O16 0.500000 0.291969 0.500000
O O17 0.580002 0.500000 0.356499
O O18 0.530887 0.237468 0.308782
O O19 0.537305 0.000000 0.752257
#
# Coordination Sequence:
#
# PCOD9150689 Si02
#       7
#     4   4   4   4   4   4   4
#     4  10  20  36  61  90 124 168 211 256 312 369
#     4  11  25  44  67  95 127 165 213 265 316 375
#     4  12  25  41  65  96 131 169 210 259 321 381
#     4  11  23  40  64  95 128 165 209 259 316 376
#     4  10  21  39  62  91 129 169 211 261 312 375
#     4  10  24  45  65  91 128 170 212 260 319 378
#     4  11  24  42  66  95 127 169 219 263 313 373
#
# _framework density 19.684097000000001
#
# number of rings (size 3 to 8) (size 9 to 14) (size 15 to 20)
#    0.000    1.286    1.429    3.857    2.000    6.857 
#    0.000    0.000    0.000    0.000    0.000    0.000 
#    0.000    0.000    0.000    0.000    0.000    0.000 
#
# Total GULP energy -156659.355279 kJ/mol
# GULP energy per Si atom -5594.976974 kJ/mol
# Density = 1.963930 g / cm^3
# Si number density = 19.684097 Si / 1000 Ang^3
#
#
#
# Elastic Constant Matrix: (Units=GPa)
#
#
# Indices 1 2 3 4 5 6 
#
# 1 127.0716 42.7221 20.4868 0.0000 24.1246 0.0000
# 2 42.7221 55.6008 30.5788 0.0000 17.6269 0.0000
# 3 20.4868 30.5788 51.6861 0.0000 16.2785 0.0000
# 4 0.0000 0.0000 0.0000 0.9743 0.0000 22.7811
# 5 24.1246 17.6269 16.2785 0.0000 36.5755 0.0000
# 6 0.0000 0.0000 0.0000 22.7811 0.0000 24.6004
#
#
#
# Elastic Compliance Matrix: (Units=1/GPa)
#
#
# Indices 1 2 3 4 5 6 
#
# 1 0.011135 -0.008195 0.001749 0.000000 -0.004174 0.000000
# 2 -0.008195 0.034218 -0.015706 0.000000 -0.004095 0.000000
# 3 0.001749 -0.015706 0.030153 0.000000 -0.007004 0.000000
# 4 0.000000 0.000000 0.000000 -0.049697 0.000000 0.046021
# 5 -0.004174 -0.004095 -0.007004 0.000000 0.035185 0.000000
# 6 0.000000 0.000000 0.000000 0.046021 0.000000 -0.001968
#
#
# Mechanical properties :
#
#
# Convention : Reuss Voigt Hill
#
# Bulk Modulus (GPa) = 32.04935 46.88154 39.46545
# Shear Modulus (GPa) = 43.96374 21.80143 32.88259
#
# Velocity S-wave (km/s) = 4.73108 3.33162 4.09163
# Velocity P-wave (km/s) = 6.79422 6.21838 6.51267
#
# Compressibility (1/GPa) = 0.03120188
#
# Stress axis : x y z
#
# Youngs Moduli (GPa) = 89.80662 29.22414 33.16469
#
# Poissons Ratio (x) = 0.23948 -0.05801
# Poissons Ratio (y) = 0.73593 0.52090
# Poissons Ratio (z) = -0.15708 0.45901
#
# Static dielectric constant tensor:
#      x y z
#    x 1.680550 0.000000 0.000480 
#    y 0.000000 1.659320 0.000000 
#    z 0.000480 0.000000 1.667750 
# 
# From -- ./inp_files/63656.got.cif
#   From: 2010.05.17/outbox.cif.g08.bks.cpg/sg10_32_cif.got.tgz:63656.got - 2010.06.03 11:33:40.
