data_PCOD9150481
_publ_section_title
;
Structure prediction by ZEFSAII (Michael W. Deem and Ramdas Pophale) SiO2 
 PCOD9150481
Probable space group: P 2/M
;
_chemical_formula_sum "Si O2"
_cell_formula_units_Z 28
_cell_length_a 12.422408
_cell_length_b 7.872167
_cell_length_c 12.446422
_cell_angle_alpha 90.000000
_cell_angle_beta 110.512694
_cell_angle_gamma 90.000000
_cell_volume 1139.977418
_symmetry_space_group_name_H-M "P 2/M"
_symmetry_group_IT_number 10
_symmetry_cell_setting 'monoclinic'
loop_
_space_group_symop_operation_xyz
x,y,z
-x,y,-z
-x,-y,-z
x,-y,z
loop_
_atom_site_type_symbol
_atom_site_label
_atom_site_fract_x
_atom_site_fract_y
_atom_site_fract_z
Si Si1 0.313076 0.201030 0.779218
Si Si2 0.661346 0.708643 0.735590
Si Si3 0.325065 0.691896 0.021152
Si Si4 0.193794 0.296278 0.407331
Si Si5 0.949226 0.694191 0.091975
Si Si6 0.945780 0.191153 0.326254
Si Si7 0.416692 0.696487 0.605283
O O1 0.351559 0.224579 0.915976
O O2 0.395568 0.293021 0.725337
O O3 0.182236 0.270742 0.711925
O O4 0.313643 0.000000 0.757889
O O5 0.662213 0.500000 0.742427
O O6 0.771604 0.756948 0.702559
O O7 0.545261 0.762874 0.632982
O O8 0.652452 0.772661 0.854539
O O9 0.372099 0.500000 0.035704
O O10 0.186650 0.681854 0.971079
O O11 0.197152 0.500000 0.409075
O O12 0.068676 0.254853 0.411183
O O13 0.300917 0.227618 0.514250
O O14 0.994631 0.500000 0.123939
O O15 0.968550 0.798392 0.205934
O O16 0.000000 0.763826 0.000000
O O17 0.932916 0.000000 0.358743
O O18 0.419169 0.500000 0.572127
#
# Coordination Sequence:
#
# PCOD9150481 Si02
#       7
#     4   4   4   4   4   4   4
#     4  10  22  39  55  76 111 149 184 223 270 320
#     4   9  18  35  59  86 112 139 175 222 276 326
#     4   9  17  31  54  80 107 140 178 220 266 322
#     4  10  20  36  59  85 111 140 178 225 275 325
#     4   9  16  28  49  77 107 139 176 220 270 322
#     4  10  21  35  52  76 108 146 183 222 269 321
#     4  10  21  37  59  83 108 142 184 227 268 320
#
# _framework density 24.561890999999999
#
# number of rings (size 3 to 8) (size 9 to 14) (size 15 to 20)
#    0.000    2.429    0.000    2.143    0.000    7.714 
#    0.000   10.714    0.000    1.714    0.000    0.000 
#    0.000    0.000    0.000    0.000    0.000    0.000 
#
# Total GULP energy -156264.901595 kJ/mol
# GULP energy per Si atom -5580.889343 kJ/mol
# Density = 2.450599 g / cm^3
# Si number density = 24.561891 Si / 1000 Ang^3
#
#
#
# Elastic Constant Matrix: (Units=GPa)
#
#
# Indices 1 2 3 4 5 6 
#
# 1 117.5709 1.5228 13.1262 0.0000 5.1945 0.0000
# 2 1.5228 35.3829 1.0093 0.0000 2.0878 0.0000
# 3 13.1262 1.0093 76.1528 0.0000 3.8082 0.0000
# 4 0.0000 0.0000 0.0000 49.3163 0.0000 -26.9595
# 5 5.1945 2.0878 3.8082 0.0000 45.8055 0.0000
# 6 0.0000 0.0000 0.0000 -26.9595 0.0000 -7.1829
#
#
#
# Elastic Compliance Matrix: (Units=1/GPa)
#
#
# Indices 1 2 3 4 5 6 
#
# 1 0.008709 -0.000283 -0.001455 0.000000 -0.000854 0.000000
# 2 -0.000283 0.028355 -0.000265 0.000000 -0.001238 0.000000
# 3 -0.001455 -0.000265 0.013433 0.000000 -0.000940 0.000000
# 4 0.000000 0.000000 0.000000 0.006644 0.000000 -0.024938
# 5 -0.000854 -0.001238 -0.000940 0.000000 0.022063 0.000000
# 6 0.000000 0.000000 0.000000 -0.024938 0.000000 -0.045619
#
#
# Mechanical properties :
#
#
# Convention : Reuss Voigt Hill
#
# Bulk Modulus (GPa) = 21.50932 28.93593 25.22262
# Shear Modulus (GPa) = 94.18300 31.81767 63.00034
#
# Velocity S-wave (km/s) = 6.19907 3.60308 5.07004
# Velocity P-wave (km/s) = 7.74688 5.39592 6.67571
#
# Compressibility (1/GPa) = 0.04649148
#
# Stress axis : x y z
#
# Youngs Moduli (GPa) = 114.81965 35.26706 74.44488
#
# Poissons Ratio (x) = 0.00998 0.10830
# Poissons Ratio (y) = 0.03249 0.01974
# Poissons Ratio (z) = 0.16703 0.00935
#
# Static dielectric constant tensor:
#      x y z
#    x 1.960620 0.000000 0.035160 
#    y 0.000000 1.936190 0.000000 
#    z 0.035160 0.000000 2.033500 
# 
# From -- ./inp_files/49394.got.cif
#   From: 2010.05.17/outbox.cif.g08.bks.cpg/sg10_25_cif.got.tgz:49394.got - 2010.06.03 11:33:40.
