data_PCOD9150651
_publ_section_title
;
Structure prediction by ZEFSAII (Michael W. Deem and Ramdas Pophale) SiO2 
 PCOD9150651
Probable space group: P 2/M
;
_chemical_formula_sum "Si O2"
_cell_formula_units_Z 24
_cell_length_a 15.410932
_cell_length_b 8.928336
_cell_length_c 15.123204
_cell_angle_alpha 90.000000
_cell_angle_beta 140.012132
_cell_angle_gamma 90.000000
_cell_volume 1337.214635
_symmetry_space_group_name_H-M "P 2/M"
_symmetry_group_IT_number 10
_symmetry_cell_setting 'monoclinic'
loop_
_space_group_symop_operation_xyz
x,y,z
-x,y,-z
-x,-y,-z
x,-y,z
loop_
_atom_site_type_symbol
_atom_site_label
_atom_site_fract_x
_atom_site_fract_y
_atom_site_fract_z
Si Si1 0.337422 0.320738 0.654904
Si Si2 0.351308 0.179924 0.347087
Si Si3 0.162578 0.679262 0.345096
Si Si4 0.625804 0.180467 0.840009
Si Si5 0.874196 0.180467 0.159991
Si Si6 0.851308 0.820076 0.347087
O O1 0.343038 0.500000 0.662635
O O2 0.250000 0.276620 0.500000
O O3 0.486484 0.254370 0.761367
O O4 0.260607 0.257836 0.680326
O O5 0.500000 0.219300 0.500000
O O6 0.239393 0.257836 0.319674
O O7 0.344609 0.220948 0.238764
O O8 0.336225 0.000000 0.342905
O O9 0.156962 0.500000 0.337365
O O10 0.013516 0.745630 0.238633
O O11 0.610045 0.000000 0.831232
O O12 0.750000 0.222447 1.000000
O O13 0.844609 0.220948 0.238764
O O14 0.889955 0.000000 0.168768
O O15 0.000000 0.780700 0.500000
O O16 0.836225 0.000000 0.342905
#
# Coordination Sequence:
#
# PCOD9150651 Si02
#       6
#     4   4   4   4   4   4
#     4  11  23  37  58  87 118 153 190 233 285 341
#     4  10  20  36  61  87 111 148 195 238 279 331
#     4  11  23  37  58  87 118 153 190 233 285 341
#     4  10  22  40  61  86 116 149 189 239 288 334
#     4  10  22  40  61  86 116 149 189 239 288 334
#     4  10  20  36  61  87 111 148 195 238 279 331
#
# _framework density 17.947755000000001
#
# number of rings (size 3 to 8) (size 9 to 14) (size 15 to 20)
#    0.000    1.667    3.333    1.000    0.000    5.333 
#    0.000    6.667    0.000    0.000    0.000    0.000 
#    0.000    0.000    0.000    0.000    0.000    0.000 
#
# Total GULP energy -134104.663001 kJ/mol
# GULP energy per Si atom -5587.694292 kJ/mol
# Density = 1.790691 g / cm^3
# Si number density = 17.947755 Si / 1000 Ang^3
#
#
#
# Elastic Constant Matrix: (Units=GPa)
#
#
# Indices 1 2 3 4 5 6 
#
# 1 213.7579 64.0510 119.4035 0.0000 6.2910 0.0000
# 2 64.0510 28.4204 54.6246 0.0000 5.2769 0.0000
# 3 119.4035 54.6246 186.1622 0.0000 0.6088 0.0000
# 4 0.0000 0.0000 0.0000 11.7496 0.0000 -27.3162
# 5 6.2910 5.2769 0.6088 0.0000 33.3325 0.0000
# 6 0.0000 0.0000 0.0000 -27.3162 0.0000 -122.4256
#
#
#
# Elastic Compliance Matrix: (Units=1/GPa)
#
#
# Indices 1 2 3 4 5 6 
#
# 1 0.014691 -0.035565 0.001004 0.000000 0.002839 0.000000
# 2 -0.035565 0.172216 -0.027656 0.000000 -0.020046 0.000000
# 3 0.001004 -0.027656 0.012830 0.000000 0.003954 0.000000
# 4 0.000000 0.000000 0.000000 0.056040 0.000000 -0.012504
# 5 0.002839 -0.020046 0.003954 0.000000 0.032566 0.000000
# 6 0.000000 0.000000 0.000000 -0.012504 0.000000 -0.005378
#
#
# Mechanical properties :
#
#
# Convention : Reuss Voigt Hill
#
# Bulk Modulus (GPa) = 13.27976 100.49988 56.88982
# Shear Modulus (GPa) = 11.56075 -2.78462 4.38806
#
# Velocity S-wave (km/s) = 2.54073 -1.24695 1.56532
# Velocity P-wave (km/s) = 4.00278 7.35147 5.91889
#
# Compressibility (1/GPa) = 0.07530258
#
# Stress axis : x y z
#
# Youngs Moduli (GPa) = 68.07023 5.80667 77.94413
#
# Poissons Ratio (x) = 0.20651 -0.07824
# Poissons Ratio (y) = 2.42092 2.15559
# Poissons Ratio (z) = -0.06833 0.16059
#
# Static dielectric constant tensor:
#      x y z
#    x 1.572290 0.000000 -0.018030 
#    y 0.000000 1.597400 0.000000 
#    z -0.018030 0.000000 1.599060 
# 
# From -- ./inp_files/20275.got.cif
#   From: 2010.05.17/outbox.cif.g08.bks.cpg/sg10_11_cif.got.tgz:20275.got - 2010.06.03 11:33:40.
