data_PCOD9150583
_publ_section_title
;
Structure prediction by ZEFSAII (Michael W. Deem and Ramdas Pophale) SiO2 
 PCOD9150583
Probable space group: P 2/M
;
_chemical_formula_sum "Si O2"
_cell_formula_units_Z 28
_cell_length_a 9.175953
_cell_length_b 7.688958
_cell_length_c 29.483398
_cell_angle_alpha 90.000000
_cell_angle_beta 141.072552
_cell_angle_gamma 90.000000
_cell_volume 1307.037401
_symmetry_space_group_name_H-M "P 2/M"
_symmetry_group_IT_number 10
_symmetry_cell_setting 'monoclinic'
loop_
_space_group_symop_operation_xyz
x,y,z
-x,y,-z
-x,-y,-z
x,-y,z
loop_
_atom_site_type_symbol
_atom_site_label
_atom_site_fract_x
_atom_site_fract_y
_atom_site_fract_z
Si Si1 0.591394 0.793382 0.210599
Si Si2 0.237001 0.286992 0.925155
Si Si3 0.931381 0.296759 0.934762
Si Si4 0.312929 0.797210 0.489590
Si Si5 0.788614 0.788700 0.355163
Si Si6 0.050541 0.290152 0.782458
Si Si7 0.469025 0.295085 0.363104
O O1 0.342517 0.714732 0.138740
O O2 0.685563 0.731231 0.281988
O O3 0.776662 0.756355 0.216239
O O4 0.559009 0.000000 0.205874
O O5 0.232925 0.500000 0.922999
O O6 0.148533 0.227738 0.854544
O O7 0.068365 0.225201 0.924553
O O8 0.500000 0.235442 0.000000
O O9 0.000099 0.500000 0.953153
O O10 0.000000 0.218585 0.000000
O O11 0.500000 0.719152 0.500000
O O12 0.413477 0.787261 0.564409
O O13 0.052990 0.724415 0.424364
O O14 0.287087 0.000000 0.470338
O O15 0.628576 0.730330 0.357817
O O16 0.789345 0.000000 0.356220
O O17 0.039350 0.500000 0.782351
O O18 0.790039 0.226852 0.709310
O O19 0.450978 0.500000 0.368359
#
# Coordination Sequence:
#
# PCOD9150583 Si02
#       7
#     4   4   4   4   4   4   4
#     4  11  23  38  58  84 113 146 188 236 280 327
#     4   9  17  32  56  83 108 140 186 229 265 320
#     4  10  20  36  60  86 114 151 189 227 278 337
#     4  10  21  39  61  82 110 151 194 232 276 337
#     4  10  22  39  58  81 111 150 190 228 278 339
#     4  10  21  37  56  80 112 147 183 227 281 338
#     4  11  23  37  57  86 116 146 184 235 288 335
#
# _framework density 21.422495000000001
#
# number of rings (size 3 to 8) (size 9 to 14) (size 15 to 20)
#    0.000    1.857    0.000    3.857    0.000    9.714 
#    0.000    0.714    0.000    1.714    0.000    0.000 
#    0.000    0.000    0.000    0.000    0.000    0.000 
#
# Total GULP energy -156535.997964 kJ/mol
# GULP energy per Si atom -5590.571356 kJ/mol
# Density = 2.137374 g / cm^3
# Si number density = 21.422495 Si / 1000 Ang^3
#
#
#
# Elastic Constant Matrix: (Units=GPa)
#
#
# Indices 1 2 3 4 5 6 
#
# 1 180.1927 -23.5581 71.1115 0.0000 -2.9454 0.0000
# 2 -23.5581 31.6113 -21.6811 0.0000 -0.2391 0.0000
# 3 71.1115 -21.6811 147.6300 0.0000 -5.0725 0.0000
# 4 0.0000 0.0000 0.0000 -0.7643 0.0000 -10.5840
# 5 -2.9454 -0.2391 -5.0725 0.0000 41.8860 0.0000
# 6 0.0000 0.0000 0.0000 -10.5840 0.0000 16.9898
#
#
#
# Elastic Compliance Matrix: (Units=1/GPa)
#
#
# Indices 1 2 3 4 5 6 
#
# 1 0.007150 0.003304 -0.002953 0.000000 0.000164 0.000000
# 2 0.003304 0.036733 0.003834 0.000000 0.000906 0.000000
# 3 -0.002953 0.003834 0.008789 0.000000 0.000879 0.000000
# 4 0.000000 0.000000 0.000000 -0.135914 0.000000 -0.084668
# 5 0.000164 0.000906 0.000879 0.000000 0.023997 0.000000
# 6 0.000000 0.000000 0.000000 -0.084668 0.000000 0.006114
#
#
# Mechanical properties :
#
#
# Convention : Reuss Voigt Hill
#
# Bulk Modulus (GPa) = 16.38185 45.68650 31.03418
# Shear Modulus (GPa) = -121.49821 33.85976 -43.81923
#
# Velocity S-wave (km/s) = -7.53912 3.97995 -4.52760
# Velocity P-wave (km/s) = 8.25354 6.51865 3.57967
#
# Compressibility (1/GPa) = 0.06104316
#
# Stress axis : x y z
#
# Youngs Moduli (GPa) = 139.86694 27.22323 113.77307
#
# Poissons Ratio (x) = -0.08995 0.33597
# Poissons Ratio (y) = -0.46213 -0.43624
# Poissons Ratio (z) = 0.41303 -0.10438
#
# Static dielectric constant tensor:
#      x y z
#    x 1.729190 0.000000 0.002560 
#    y 0.000000 1.816180 0.000000 
#    z 0.002560 0.000000 1.738210 
# 
# From -- ./inp_files/34284.got.cif
#   From: 2010.05.17/outbox.cif.g08.bks.cpg/sg10_18_cif.got.tgz:34284.got - 2010.06.03 11:33:40.
