data_PCOD9150241
_publ_section_title
;
Structure prediction by ZEFSAII (Michael W. Deem and Ramdas Pophale) SiO2 
 PCOD9150241
Probable space group: P 2/M
;
_chemical_formula_sum "Si O2"
_cell_formula_units_Z 32
_cell_length_a 23.064460
_cell_length_b 8.746066
_cell_length_c 15.085588
_cell_angle_alpha 90.000000
_cell_angle_beta 31.774594
_cell_angle_gamma 90.000000
_cell_volume 1602.439808
_symmetry_space_group_name_H-M "P 2/M"
_symmetry_group_IT_number 10
_symmetry_cell_setting 'monoclinic'
loop_
_space_group_symop_operation_xyz
x,y,z
-x,y,-z
-x,-y,-z
x,-y,z
loop_
_atom_site_type_symbol
_atom_site_label
_atom_site_fract_x
_atom_site_fract_y
_atom_site_fract_z
Si Si1 0.465622 0.326325 0.648739
Si Si2 0.244103 0.815753 0.501036
Si Si3 0.891723 0.318003 0.786033
Si Si4 0.721829 0.182469 0.866450
Si Si5 0.306755 0.816279 0.609564
Si Si6 0.758296 0.181698 0.108721
Si Si7 0.859014 0.682425 0.532093
Si Si8 0.487013 0.185831 0.119170
O O1 0.500000 0.329472 0.500000
O O2 0.443665 0.500000 0.705862
O O3 0.571755 0.255071 0.557508
O O4 0.355042 0.227431 0.793968
O O5 0.234931 0.778883 0.616907
O O6 0.162889 0.730401 0.540478
O O7 0.368597 0.770835 0.310843
O O8 0.233017 0.000000 0.504433
O O9 0.886714 0.500000 0.789122
O O10 0.803349 0.252038 0.832574
O O11 0.016969 0.272655 0.602199
O O12 0.856393 0.261036 0.928915
O O13 0.771629 0.230252 0.706746
O O14 0.722860 0.000000 0.874037
O O15 0.594859 0.236545 0.033422
O O16 0.256107 0.769533 0.770053
O O17 0.320817 0.000000 0.593783
O O18 0.771536 0.000000 0.088729
O O19 0.846864 0.500000 0.559349
O O20 0.489240 0.000000 0.116499
O O21 0.500000 0.235228 0.000000
#
# Coordination Sequence:
#
# PCOD9150241 Si02
#       8
#     4   4   4   4   4   4   4   4
#     4   9  17  30  50  77 112 152 188 229 285 345
#     4  10  20  37  61  86 118 156 195 239 290 346
#     4  11  25  42  59  83 116 154 197 247 300 347
#     4  11  22  38  64  92 117 151 194 236 290 355
#     4   9  19  34  56  85 116 153 195 243 294 344
#     4  10  20  36  56  82 114 150 198 247 293 346
#     4  11  24  42  60  82 117 156 195 243 295 350
#     4   9  17  33  57  88 120 148 181 231 286 340
#
# _framework density 19.969550000000002
#
# number of rings (size 3 to 8) (size 9 to 14) (size 15 to 20)
#    0.000    2.000    1.250    2.250    1.750    6.000 
#    0.000    2.500    0.000    3.750    0.000    0.000 
#    0.000    0.000    0.000    0.000    0.000    0.000 
#
# Total GULP energy -178738.680968 kJ/mol
# GULP energy per Si atom -5585.583780 kJ/mol
# Density = 1.992410 g / cm^3
# Si number density = 19.969550 Si / 1000 Ang^3
#
#
#
# Elastic Constant Matrix: (Units=GPa)
#
#
# Indices 1 2 3 4 5 6 
#
# 1 92.2616 10.8124 7.3361 0.0000 -2.7759 0.0000
# 2 10.8124 22.9111 5.9927 0.0000 -5.4392 0.0000
# 3 7.3361 5.9927 34.4816 0.0000 -8.0652 0.0000
# 4 0.0000 0.0000 0.0000 23.0219 0.0000 -3.8399
# 5 -2.7759 -5.4392 -8.0652 0.0000 29.6077 0.0000
# 6 0.0000 0.0000 0.0000 -3.8399 0.0000 27.5687
#
#
#
# Elastic Compliance Matrix: (Units=1/GPa)
#
#
# Indices 1 2 3 4 5 6 
#
# 1 0.011558 -0.005096 -0.001644 0.000000 -0.000300 0.000000
# 2 -0.005096 0.049236 -0.005841 0.000000 0.006976 0.000000
# 3 -0.001644 -0.005841 0.032126 0.000000 0.007524 0.000000
# 4 0.000000 0.000000 0.000000 0.044470 0.000000 0.006194
# 5 -0.000300 0.006976 0.007524 0.000000 0.037078 0.000000
# 6 0.000000 0.000000 0.000000 0.006194 0.000000 0.037136
#
#
# Mechanical properties :
#
#
# Convention : Reuss Voigt Hill
#
# Bulk Modulus (GPa) = 14.75832 21.99297 18.37565
# Shear Modulus (GPa) = 19.27900 24.40720 21.84310
#
# Velocity S-wave (km/s) = 3.11049 3.49982 3.31088
# Velocity P-wave (km/s) = 4.50629 5.23152 4.88239
#
# Compressibility (1/GPa) = 0.06775838
#
# Stress axis : x y z
#
# Youngs Moduli (GPa) = 86.52332 20.31040 31.12785
#
# Poissons Ratio (x) = 0.10350 0.05116
# Poissons Ratio (y) = 0.44090 0.18182
# Poissons Ratio (z) = 0.14220 0.11863
#
# Static dielectric constant tensor:
#      x y z
#    x 1.724910 0.000000 0.026800 
#    y 0.000000 1.673200 0.000000 
#    z 0.026800 0.000000 1.715390 
# 
# From -- ./inp_files/58074.got.cif
#   From: 2010.05.17/outbox.cif.g08.bks.cpg/sg10_30_cif.got.tgz:58074.got - 2010.06.03 11:33:40.
