data_PCOD9150813
_publ_section_title
;
Structure prediction by ZEFSAII (Michael W. Deem and Ramdas Pophale) SiO2 
 PCOD9150813
Probable space group: P 2/M
;
_chemical_formula_sum "Si O2"
_cell_formula_units_Z 32
_cell_length_a 12.988004
_cell_length_b 19.633694
_cell_length_c 20.589922
_cell_angle_alpha 90.000000
_cell_angle_beta 159.284735
_cell_angle_gamma 90.000000
_cell_volume 1857.221617
_symmetry_space_group_name_H-M "P 2/M"
_symmetry_group_IT_number 10
_symmetry_cell_setting 'monoclinic'
loop_
_space_group_symop_operation_xyz
x,y,z
-x,y,-z
-x,-y,-z
x,-y,z
loop_
_atom_site_type_symbol
_atom_site_label
_atom_site_fract_x
_atom_site_fract_y
_atom_site_fract_z
Si Si1 0.665775 0.654945 0.029661
Si Si2 0.192068 0.924533 0.049688
Si Si3 0.331039 0.422579 0.218169
Si Si4 0.204194 0.422197 0.285744
Si Si5 0.155491 0.079042 0.288453
Si Si6 0.659241 0.819868 0.291425
Si Si7 0.340826 0.659540 0.701124
Si Si8 0.318565 0.184326 0.956092
O O1 0.747408 0.734971 0.082966
O O2 0.956460 0.614232 0.181776
O O3 0.500000 0.636848 0.000000
O O4 0.465935 0.645644 0.847281
O O5 0.445508 0.869309 0.204082
O O6 0.322858 0.000000 0.118017
O O7 0.000000 0.923208 0.000000
O O8 0.968608 0.914416 0.858062
O O9 0.452616 0.500000 0.295229
O O10 0.295200 0.391660 0.269339
O O11 0.502773 0.380934 0.264679
O O12 0.000000 0.427272 0.000000
O O13 0.500000 0.424413 0.500000
O O14 0.103089 0.500000 0.212795
O O15 0.500000 0.090563 0.500000
O O16 0.963402 0.136406 0.209967
O O17 0.099456 0.000000 0.275693
O O18 0.624141 0.740653 0.289599
O O19 0.000000 0.836759 0.500000
O O20 0.530153 0.827479 0.142566
O O21 0.000000 0.643396 0.500000
O O22 0.500000 0.167943 0.000000
#
# Coordination Sequence:
#
# PCOD9150813 Si02
#       8
#     4   4   4   4   4   4   4   4
#     4  10  21  37  55  77 109 143 176 218 266 317
#     4   9  18  33  51  74 104 136 170 211 258 307
#     4  10  20  37  58  79 107 140 176 222 266 310
#     4  10  22  39  57  80 110 141 176 218 265 318
#     4   9  18  33  52  75 104 134 170 215 258 304
#     4   9  19  35  51  74 104 135 172 214 257 304
#     4  10  21  36  55  80 107 139 179 221 265 314
#     4   9  19  35  52  73 104 137 171 212 257 307
#
# _framework density 17.230039000000001
#
# number of rings (size 3 to 8) (size 9 to 14) (size 15 to 20)
#    0.000    2.500    1.250    0.000    1.750    3.000 
#    2.250    0.000    0.000    0.000    0.000    0.000 
#    0.000    0.000    0.000    0.000    0.000    0.000 
#
# Total GULP energy -178145.697130 kJ/mol
# GULP energy per Si atom -5567.053035 kJ/mol
# Density = 1.719082 g / cm^3
# Si number density = 17.230039 Si / 1000 Ang^3
#
#
#
# Elastic Constant Matrix: (Units=GPa)
#
#
# Indices 1 2 3 4 5 6 
#
# 1 122.2874 59.7559 45.1860 0.0000 25.9553 0.0000
# 2 59.7559 66.8102 64.7205 0.0000 23.9279 0.0000
# 3 45.1860 64.7205 114.5452 0.0000 22.0756 0.0000
# 4 0.0000 0.0000 0.0000-6262.1725 0.0000-2123.4471
# 5 25.9553 23.9279 22.0756 0.0000 22.1648 0.0000
# 6 0.0000 0.0000 0.0000-2123.4471 0.0000 -694.3062
#
#
#
# Elastic Compliance Matrix: (Units=1/GPa)
#
#
# Indices 1 2 3 4 5 6 
#
# 1 0.015533 -0.015722 0.003701 0.000000 -0.004903 0.000000
# 2 -0.015722 0.059552 -0.023023 0.000000 -0.022947 0.000000
# 3 0.003701 -0.023023 0.020202 0.000000 0.000401 0.000000
# 4 0.000000 0.000000 0.000000 0.004308 0.000000 -0.013176
# 5 -0.004903 -0.022947 0.000401 0.000000 0.075231 0.000000
# 6 0.000000 0.000000 0.000000 -0.013176 0.000000 0.038856
#
#
# Mechanical properties :
#
#
# Convention : Reuss Voigt Hill
#
# Bulk Modulus (GPa) = 39.68746 71.44082 55.56414
# Shear Modulus (GPa) = 17.11326 -1377.93074 -680.40874
#
# Velocity S-wave (km/s) = 3.15496 -28.31010 -19.89357
# Velocity P-wave (km/s) = 6.02956 32.04782 22.25654
#
# Compressibility (1/GPa) = 0.02519687
#
# Stress axis : x y z
#
# Youngs Moduli (GPa) = 64.37781 16.79213 49.50056
#
# Poissons Ratio (x) = 0.26401 -0.18318
# Poissons Ratio (y) = 1.01216 1.13967
# Poissons Ratio (z) = -0.23824 0.38661
#
# Static dielectric constant tensor:
#      x y z
#    x 1.611470 0.000000 -0.027400 
#    y 0.000000 1.607780 0.000000 
#    z -0.027400 0.000000 1.553800 
# 
# From -- ./inp_files/26043.got.cif
#   From: 2010.05.17/outbox.cif.g08.bks.cpg/sg10_14_cif.got.tgz:26043.got - 2010.06.03 11:33:40.
