data_PCOD9150938
_publ_section_title
;
Structure prediction by ZEFSAII (Michael W. Deem and Ramdas Pophale) SiO2 
 PCOD9150938
Probable space group: P 2/M
;
_chemical_formula_sum "Si O2"
_cell_formula_units_Z 28
_cell_length_a 19.603966
_cell_length_b 9.839686
_cell_length_c 23.001089
_cell_angle_alpha 90.000000
_cell_angle_beta 18.771438
_cell_angle_gamma 90.000000
_cell_volume 1427.746759
_symmetry_space_group_name_H-M "P 2/M"
_symmetry_group_IT_number 10
_symmetry_cell_setting 'monoclinic'
loop_
_space_group_symop_operation_xyz
x,y,z
-x,y,-z
-x,-y,-z
x,-y,z
loop_
_atom_site_type_symbol
_atom_site_label
_atom_site_fract_x
_atom_site_fract_y
_atom_site_fract_z
Si Si1 0.982867 0.843590 0.116322
Si Si2 0.455571 0.145800 0.683587
Si Si3 0.350353 0.347725 0.676244
Si Si4 0.987322 0.842629 0.444269
Si Si5 0.926749 0.650377 0.723417
Si Si6 0.838689 0.659548 0.927781
Si Si7 0.370872 0.253520 0.341768
O O1 0.832641 0.755380 0.196119
O O2 0.022495 0.759399 0.143790
O O3 0.910584 0.000000 0.183336
O O4 0.211605 0.851235 0.901039
O O5 0.480326 0.274639 0.622394
O O6 0.587229 0.160238 0.636222
O O7 0.498817 0.000000 0.619925
O O8 0.500000 0.358932 0.500000
O O9 0.277153 0.500000 0.751524
O O10 0.121801 0.755858 0.289045
O O11 0.745461 0.826288 0.616388
O O12 0.000000 0.791388 0.500000
O O13 0.048867 0.000000 0.393514
O O14 0.840011 0.500000 0.782381
O O15 0.183572 0.646294 0.512738
O O16 0.864833 0.692094 0.838499
O O17 0.895346 0.500000 0.890992
O O18 0.593121 0.681603 0.144122
#
# Coordination Sequence:
#
# PCOD9150938 Si02
#       7
#     4   4   4   4   4   4   4
#     4  10  22  39  58  82 110 143 186 234 284 337
#     4  10  21  38  59  81 107 142 186 234 283 338
#     4  11  25  39  53  79 112 147 187 232 281 335
#     4   9  19  37  60  85 117 155 193 234 283 338
#     4   9  20  35  57  86 115 147 189 234 279 339
#     4  10  20  37  60  87 117 150 191 236 285 339
#     4   9  20  36  61  84 115 149 188 232 283 338
#
# _framework density 19.611319999999999
#
# number of rings (size 3 to 8) (size 9 to 14) (size 15 to 20)
#    0.857    1.429    0.000    2.143    2.000    7.714 
#    0.000    0.714    0.000    3.429    0.000    0.000 
#    0.000    0.000    0.000    0.000    0.000    0.000 
#
# Total GULP energy -155985.785374 kJ/mol
# GULP energy per Si atom -5570.920906 kJ/mol
# Density = 1.956668 g / cm^3
# Si number density = 19.611320 Si / 1000 Ang^3
#
#
#
# Elastic Constant Matrix: (Units=GPa)
#
#
# Indices 1 2 3 4 5 6 
#
# 1 124.4678 55.2063 8.7078 0.0000 19.3225 0.0000
# 2 55.2063 124.2466 3.9955 0.0000 22.3664 0.0000
# 3 8.7078 3.9955 28.6887 0.0000 14.4840 0.0000
# 4 0.0000 0.0000 0.0000 12.0066 0.0000 3.4365
# 5 19.3225 22.3664 14.4840 0.0000 26.7881 0.0000
# 6 0.0000 0.0000 0.0000 3.4365 0.0000 49.7970
#
#
#
# Elastic Compliance Matrix: (Units=1/GPa)
#
#
# Indices 1 2 3 4 5 6 
#
# 1 0.010418 -0.003905 -0.000647 0.000000 -0.003904 0.000000
# 2 -0.003905 0.011227 0.004033 0.000000 -0.008737 0.000000
# 3 -0.000647 0.004033 0.049456 0.000000 -0.029641 0.000000
# 4 0.000000 0.000000 0.000000 0.084966 0.000000 -0.005864
# 5 -0.003904 -0.008737 -0.029641 0.000000 0.063467 0.000000
# 6 0.000000 0.000000 0.000000 -0.005864 0.000000 0.020486
#
#
# Mechanical properties :
#
#
# Convention : Reuss Voigt Hill
#
# Bulk Modulus (GPa) = 14.27315 45.91359 30.09337
# Shear Modulus (GPa) = 18.90982 31.68459 25.29720
#
# Velocity S-wave (km/s) = 3.10857 4.02385 3.59545
# Velocity P-wave (km/s) = 4.49201 6.71201 5.71092
#
# Compressibility (1/GPa) = 0.07006160
#
# Stress axis : x y z
#
# Youngs Moduli (GPa) = 95.99077 89.07142 20.21989
#
# Poissons Ratio (x) = 0.34785 0.01309
# Poissons Ratio (y) = 0.37488 -0.08155
# Poissons Ratio (z) = 0.06214 -0.35923
#
# Static dielectric constant tensor:
#      x y z
#    x 1.696540 0.000000 -0.001700 
#    y 0.000000 1.714220 0.000000 
#    z -0.001700 0.000000 1.688030 
# 
# From -- ./inp_files/90342.got.cif
#   From: 2010.05.17/outbox.cif.g08.bks.cpg/sg10_46_cif.got.tgz:90342.got - 2010.06.03 11:33:40.
