data_PCOD9150199
_publ_section_title
;
Structure prediction by ZEFSAII (Michael W. Deem and Ramdas Pophale) SiO2 
 PCOD9150199
Probable space group: P 2/M
;
_chemical_formula_sum "Si O2"
_cell_formula_units_Z 28
_cell_length_a 15.523253
_cell_length_b 12.599869
_cell_length_c 9.547941
_cell_angle_alpha 90.000000
_cell_angle_beta 116.116296
_cell_angle_gamma 90.000000
_cell_volume 1676.824577
_symmetry_space_group_name_H-M "P 2/M"
_symmetry_group_IT_number 10
_symmetry_cell_setting 'monoclinic'
loop_
_space_group_symop_operation_xyz
x,y,z
-x,y,-z
-x,-y,-z
x,-y,z
loop_
_atom_site_type_symbol
_atom_site_label
_atom_site_fract_x
_atom_site_fract_y
_atom_site_fract_z
Si Si1 0.402177 0.371986 0.347018
Si Si2 0.881710 0.500000 0.306794
Si Si3 0.919203 0.125807 0.329421
Si Si4 0.210912 0.300934 0.370203
Si Si5 0.079629 0.500000 0.330703
Si Si6 0.401680 0.622904 0.015700
Si Si7 0.057211 0.874969 0.185089
Si Si8 0.763443 0.708457 0.277988
O O1 0.500000 0.341055 0.500000
O O2 0.393406 0.500000 0.355631
O O3 0.305840 0.322267 0.345622
O O4 0.410741 0.348879 0.186592
O O5 0.909217 0.500000 0.492200
O O6 0.823624 0.609174 0.259801
O O7 0.964237 0.500000 0.247169
O O8 0.822484 0.186471 0.288502
O O9 0.000000 0.153591 0.500000
O O10 0.973197 0.159786 0.229436
O O11 0.904288 0.000000 0.319589
O O12 0.134342 0.397900 0.309130
O O13 0.150588 0.197426 0.278558
O O14 0.243110 0.298797 0.557547
O O15 0.365820 0.500000 0.985880
O O16 0.500000 0.622479 0.000000
O O17 0.333644 0.699470 0.878053
O O18 0.080546 0.000000 0.228084
O O19 0.000000 0.867553 0.000000
#
# Coordination Sequence:
#
# PCOD9150199 Si02
#       8
#     4   2   4   4   2   4   4   4
#     4  10  21  37  56  78 111 146 182 223 272 329
#     4   9  18  28  46  74 112 142 176 210 264 319
#     4  10  20  36  55  79 109 146 192 228 262 314
#     4  11  20  34  54  80 110 146 181 223 274 325
#     4   9  18  30  45  75 109 145 175 211 261 323
#     4  10  21  37  56  81 109 142 184 227 270 326
#     4  10  22  38  55  78 110 150 190 227 266 318
#     4  11  20  32  55  81 109 144 182 227 271 321
#
# _framework density 16.698228
#
# number of rings (size 3 to 8) (size 9 to 14) (size 15 to 20)
#    0.000    1.857    2.857    1.714    4.000    1.143 
#    0.000    0.357    0.000    0.857    0.000    0.000 
#    0.000    0.000    0.000    0.000    0.000    0.000 
#
# Total GULP energy -155920.623025 kJ/mol
# GULP energy per Si atom -5568.593679 kJ/mol
# Density = 1.666022 g / cm^3
# Si number density = 16.698228 Si / 1000 Ang^3
#
#
#
# Elastic Constant Matrix: (Units=GPa)
#
#
# Indices 1 2 3 4 5 6 
#
# 1 117.7524 37.9396 50.3752 0.0000 -12.4437 0.0000
# 2 37.9396 50.3894 27.7852 0.0000 6.3224 0.0000
# 3 50.3752 27.7852 113.5469 0.0000 -4.8803 0.0000
# 4 0.0000 0.0000 0.0000 -122.4145 0.0000 -128.2824
# 5 -12.4437 6.3224 -4.8803 0.0000 29.3112 0.0000
# 6 0.0000 0.0000 0.0000 -128.2824 0.0000 -94.8645
#
#
#
# Elastic Compliance Matrix: (Units=1/GPa)
#
#
# Indices 1 2 3 4 5 6 
#
# 1 0.013776 -0.009350 -0.003511 0.000000 0.007281 0.000000
# 2 -0.009350 0.030356 -0.003759 0.000000 -0.011143 0.000000
# 3 -0.003511 -0.003759 0.011336 0.000000 0.001208 0.000000
# 4 0.000000 0.000000 0.000000 0.019586 0.000000 -0.026485
# 5 0.007281 -0.011143 0.001208 0.000000 0.039812 0.000000
# 6 0.000000 0.000000 0.000000 -0.026485 0.000000 0.025273
#
#
# Mechanical properties :
#
#
# Convention : Reuss Voigt Hill
#
# Bulk Modulus (GPa) = 44.98675 57.09876 51.04275
# Shear Modulus (GPa) = 27.65631 -26.55431 0.55100
#
# Velocity S-wave (km/s) = 4.07411 -3.99212 0.57506
# Velocity P-wave (km/s) = 7.00933 3.60824 5.57450
#
# Compressibility (1/GPa) = 0.02222877
#
# Stress axis : x y z
#
# Youngs Moduli (GPa) = 72.58748 32.94201 88.21197
#
# Poissons Ratio (x) = 0.30802 0.30971
# Poissons Ratio (y) = 0.67871 0.33159
# Poissons Ratio (z) = 0.25485 0.12383
#
# Static dielectric constant tensor:
#      x y z
#    x 1.565780 0.000000 0.023120 
#    y 0.000000 1.559770 0.000000 
#    z 0.023120 0.000000 1.607080 
# 
# From -- ./inp_files/28364.got.cif
#   From: 2010.05.17/outbox.cif.g08.bks.cpg/sg10_15_cif.got.tgz:28364.got - 2010.06.03 11:33:40.
