data_PCOD9150024
_publ_section_title
;
Structure prediction by ZEFSAII (Michael W. Deem and Ramdas Pophale) SiO2 
 PCOD9150024
Probable space group: P 2/M
;
_chemical_formula_sum "Si O2"
_cell_formula_units_Z 32
_cell_length_a 12.511619
_cell_length_b 7.609768
_cell_length_c 22.379849
_cell_angle_alpha 90.000000
_cell_angle_beta 44.412039
_cell_angle_gamma 90.000000
_cell_volume 1491.160410
_symmetry_space_group_name_H-M "P 2/M"
_symmetry_group_IT_number 10
_symmetry_cell_setting 'monoclinic'
loop_
_space_group_symop_operation_xyz
x,y,z
-x,y,-z
-x,-y,-z
x,-y,z
loop_
_atom_site_type_symbol
_atom_site_label
_atom_site_fract_x
_atom_site_fract_y
_atom_site_fract_z
Si Si1 0.112199 0.299544 0.145212
Si Si2 0.357306 0.287093 0.952776
Si Si3 0.291582 0.197682 0.183408
Si Si4 0.170957 0.285902 0.912453
Si Si5 0.510195 0.284704 0.564653
Si Si6 0.806053 0.285596 0.518508
Si Si7 0.151736 0.287746 0.363884
Si Si8 0.217909 0.284977 0.757321
O O1 0.094056 0.500000 0.130527
O O2 0.183552 0.305031 0.182319
O O3 0.942126 0.225603 0.208142
O O4 0.238371 0.221426 0.050208
O O5 0.359978 0.500000 0.952706
O O6 0.529641 0.231715 0.896397
O O7 0.292108 0.231275 0.914409
O O8 0.249059 0.226527 0.269154
O O9 0.257075 0.000000 0.180003
O O10 0.169121 0.500000 0.913065
O O11 0.213142 0.230613 0.828655
O O12 0.000000 0.230400 0.000000
O O13 0.500000 0.229233 0.500000
O O14 0.510739 0.500000 0.564628
O O15 0.667151 0.226921 0.533088
O O16 0.364959 0.226286 0.661535
O O17 0.806332 0.500000 0.518096
O O18 0.789499 0.231497 0.594371
O O19 0.974637 0.231208 0.429820
O O20 0.153940 0.500000 0.362490
O O21 0.224768 0.500000 0.753611
#
# Coordination Sequence:
#
# PCOD9150024 Si02
#       8
#     4   4   4   4   4   4   4   4
#     4  10  20  36  57  81 108 142 184 226 273 326
#     4  10  20  35  58  84 110 141 180 227 276 325
#     4  12  26  38  52  77 109 147 190 230 275 325
#     4   9  15  28  51  83 114 136 170 222 276 328
#     4   9  17  26  42  77 120 147 163 202 269 334
#     4   8  16  31  52  82 114 139 172 220 276 324
#     4   9  18  35  58  81 105 139 182 230 274 318
#     4   9  17  28  48  82 116 142 170 216 275 329
#
# _framework density 21.459797999999999
#
# number of rings (size 3 to 8) (size 9 to 14) (size 15 to 20)
#    0.000    2.500    1.250    2.250    3.500    2.000 
#    0.000    1.250    0.000    1.125    0.000    0.875 
#    0.000    0.000    0.000    0.000    0.000    0.000 
#
# Total GULP energy -178699.569270 kJ/mol
# GULP energy per Si atom -5584.361540 kJ/mol
# Density = 2.141095 g / cm^3
# Si number density = 21.459798 Si / 1000 Ang^3
#
#
#
# Elastic Constant Matrix: (Units=GPa)
#
#
# Indices 1 2 3 4 5 6 
#
# 1 130.4937 2.5828 44.4483 0.0000 -2.5174 0.0000
# 2 2.5828 45.2575 6.7761 0.0000 -2.1184 0.0000
# 3 44.4483 6.7761 106.7890 0.0000 2.8279 0.0000
# 4 0.0000 0.0000 0.0000 981.7770 0.0000 -420.0816
# 5 -2.5174 -2.1184 2.8279 0.0000 22.9032 0.0000
# 6 0.0000 0.0000 0.0000 -420.0816 0.0000 144.7796
#
#
#
# Elastic Compliance Matrix: (Units=1/GPa)
#
#
# Indices 1 2 3 4 5 6 
#
# 1 0.008978 0.000123 -0.003783 0.000000 0.001465 0.000000
# 2 0.000123 0.022425 -0.001534 0.000000 0.002277 0.000000
# 3 -0.003783 -0.001534 0.011087 0.000000 -0.001927 0.000000
# 4 0.000000 0.000000 0.000000 -0.004218 0.000000 -0.012238
# 5 0.001465 0.002277 -0.001927 0.000000 0.044272 0.000000
# 6 0.000000 0.000000 0.000000 -0.012238 0.000000 -0.028601
#
#
# Mechanical properties :
#
#
# Convention : Reuss Voigt Hill
#
# Bulk Modulus (GPa) = 31.15239 43.35052 37.25146
# Shear Modulus (GPa) = 66.63682 245.14083 155.88883
#
# Velocity S-wave (km/s) = 5.57847 10.69956 8.53229
# Velocity P-wave (km/s) = 7.48603 13.14859 10.69874
#
# Compressibility (1/GPa) = 0.03210027
#
# Stress axis : x y z
#
# Youngs Moduli (GPa) = 111.38698 44.59287 90.19281
#
# Poissons Ratio (x) = -0.00547 0.34123
# Poissons Ratio (y) = -0.01367 0.13838
# Poissons Ratio (z) = 0.42141 0.06842
#
# Static dielectric constant tensor:
#      x y z
#    x 1.743760 0.000000 0.001980 
#    y 0.000000 1.800900 0.000000 
#    z 0.001980 0.000000 1.736880 
# 
# From -- ./inp_files/83586.got.cif
#   From: 2010.05.17/outbox.cif.g08.bks.cpg/sg10_42_cif.got.tgz:83586.got - 2010.06.03 11:33:40.
