data_PCOD9150314
_publ_section_title
;
Structure prediction by ZEFSAII (Michael W. Deem and Ramdas Pophale) SiO2 
 PCOD9150314
Probable space group: P 2/M
;
_chemical_formula_sum "Si O2"
_cell_formula_units_Z 32
_cell_length_a 33.373798
_cell_length_b 8.909845
_cell_length_c 12.622171
_cell_angle_alpha 90.000000
_cell_angle_beta 156.041080
_cell_angle_gamma 90.000000
_cell_volume 1524.133794
_symmetry_space_group_name_H-M "P 2/M"
_symmetry_group_IT_number 10
_symmetry_cell_setting 'monoclinic'
loop_
_space_group_symop_operation_xyz
x,y,z
-x,y,-z
-x,-y,-z
x,-y,z
loop_
_atom_site_type_symbol
_atom_site_label
_atom_site_fract_x
_atom_site_fract_y
_atom_site_fract_z
Si Si1 0.071277 0.823291 0.925259
Si Si2 0.111372 0.320959 0.235237
Si Si3 0.841201 0.329743 0.062030
Si Si4 0.339479 0.178135 0.102204
Si Si5 0.299355 0.179993 0.775522
Si Si6 0.390677 0.326415 0.438614
Si Si7 0.475451 0.180781 0.058960
Si Si8 0.127066 0.676841 0.622364
O O1 0.127111 0.784368 0.951477
O O2 0.966455 0.738686 0.665587
O O3 0.056823 0.000000 0.901730
O O4 0.128903 0.757384 0.164709
O O5 0.116757 0.500000 0.239460
O O6 0.195078 0.262315 0.516633
O O7 0.000000 0.280163 0.000000
O O8 0.862787 0.500000 0.076623
O O9 0.893824 0.308304 0.302276
O O10 0.725162 0.319543 0.808818
O O11 0.397457 0.256854 0.337430
O O12 0.350173 0.000000 0.140735
O O13 0.359429 0.217888 0.027958
O O14 0.225288 0.228301 0.838898
O O15 0.283291 0.000000 0.738031
O O16 0.366398 0.220772 0.836932
O O17 0.420060 0.500000 0.506107
O O18 0.450369 0.242155 0.673581
O O19 0.481707 0.000000 0.074227
O O20 0.500000 0.234736 0.000000
O O21 0.144612 0.500000 0.643232
#
# Coordination Sequence:
#
# PCOD9150314 Si02
#       8
#     4   4   4   4   4   4   4   4
#     4  12  24  35  55  84 117 158 204 254 306 368
#     4  11  25  43  63  88 120 162 207 253 309 370
#     4   9  20  37  56  82 118 158 199 251 307 362
#     4  10  20  37  63  91 124 161 202 253 311 373
#     4  10  23  42  64  94 126 162 208 260 316 368
#     4  10  22  40  63  92 125 161 205 255 308 366
#     4  10  23  43  66  92 126 165 208 258 313 374
#     4  10  20  36  57  84 121 160 202 253 308 364
#
# _framework density 20.995532000000001
#
# number of rings (size 3 to 8) (size 9 to 14) (size 15 to 20)
#    0.000    1.750    0.000    4.500    1.750    9.750 
#    0.000    2.500    0.000    0.000    0.000    0.000 
#    0.000    0.000    0.000    0.000    0.000    0.000 
#
# Total GULP energy -178925.815396 kJ/mol
# GULP energy per Si atom -5591.431731 kJ/mol
# Density = 2.094774 g / cm^3
# Si number density = 20.995532 Si / 1000 Ang^3
#
#
#
# Elastic Constant Matrix: (Units=GPa)
#
#
# Indices 1 2 3 4 5 6 
#
# 1 107.4167 33.5703 30.3406 0.0000 -13.9592 0.0000
# 2 33.5703 31.6599 18.3210 0.0000 -6.7490 0.0000
# 3 30.3406 18.3210 91.5093 0.0000 -20.4826 0.0000
# 4 0.0000 0.0000 0.0000 24.8797 0.0000 -0.2478
# 5 -13.9592 -6.7490 -20.4826 0.0000 28.4667 0.0000
# 6 0.0000 0.0000 0.0000 -0.2478 0.0000 5.8688
#
#
#
# Elastic Compliance Matrix: (Units=1/GPa)
#
#
# Indices 1 2 3 4 5 6 
#
# 1 0.014396 -0.013877 -0.001372 0.000000 0.002782 0.000000
# 2 -0.013877 0.049481 -0.005010 0.000000 0.001322 0.000000
# 3 -0.001372 -0.005010 0.014267 0.000000 0.008405 0.000000
# 4 0.000000 0.000000 0.000000 0.040210 0.000000 0.001698
# 5 0.002782 0.001322 0.008405 0.000000 0.042854 0.000000
# 6 0.000000 0.000000 0.000000 0.001698 0.000000 0.170463
#
#
# Mechanical properties :
#
#
# Convention : Reuss Voigt Hill
#
# Bulk Modulus (GPa) = 26.57738 43.89442 35.23590
# Shear Modulus (GPa) = 12.99610 21.73331 17.36471
#
# Velocity S-wave (km/s) = 2.49066 3.22085 2.87900
# Velocity P-wave (km/s) = 4.57791 5.89778 5.27925
#
# Compressibility (1/GPa) = 0.03762598
#
# Stress axis : x y z
#
# Youngs Moduli (GPa) = 69.46590 20.20976 70.09181
#
# Poissons Ratio (x) = 0.28046 0.09616
# Poissons Ratio (y) = 0.96400 0.35113
# Poissons Ratio (z) = 0.09530 0.10124
#
# Static dielectric constant tensor:
#      x y z
#    x 1.788550 0.000000 0.013750 
#    y 0.000000 1.695410 0.000000 
#    z 0.013750 0.000000 1.735660 
# 
# From -- ./inp_files/58265.got.cif
#   From: 2010.05.17/outbox.cif.g08.bks.cpg/sg10_30_cif.got.tgz:58265.got - 2010.06.03 11:33:40.
