data_PCOD9150030
_publ_section_title
;
Structure prediction by ZEFSAII (Michael W. Deem and Ramdas Pophale) SiO2 
 PCOD9150030
Probable space group: P 2/M
;
_chemical_formula_sum "Si O2"
_cell_formula_units_Z 28
_cell_length_a 26.129386
_cell_length_b 9.117380
_cell_length_c 9.712708
_cell_angle_alpha 90.000000
_cell_angle_beta 142.253050
_cell_angle_gamma 90.000000
_cell_volume 1416.495884
_symmetry_space_group_name_H-M "P 2/M"
_symmetry_group_IT_number 10
_symmetry_cell_setting 'monoclinic'
loop_
_space_group_symop_operation_xyz
x,y,z
-x,y,-z
-x,-y,-z
x,-y,z
loop_
_atom_site_type_symbol
_atom_site_label
_atom_site_fract_x
_atom_site_fract_y
_atom_site_fract_z
Si Si1 0.383705 0.324547 0.991527
Si Si2 0.458873 0.166465 0.564790
Si Si3 0.078654 0.324098 0.262915
Si Si4 0.194219 0.174289 0.088988
Si Si5 0.748796 0.676050 0.521341
Si Si6 0.002836 0.824833 0.664712
Si Si7 0.697414 0.674168 0.886450
O O1 0.399764 0.500000 0.029103
O O2 0.470389 0.238067 0.189359
O O3 0.328130 0.291602 0.010235
O O4 0.330239 0.289359 0.742782
O O5 0.500000 0.159427 0.500000
O O6 0.378887 0.268282 0.370722
O O7 0.436726 0.000000 0.558349
O O8 0.077106 0.500000 0.272033
O O9 0.166728 0.283695 0.382180
O O10 0.062764 0.253595 0.376918
O O11 0.000000 0.279641 0.000000
O O12 0.247675 0.242291 0.326465
O O13 0.222558 0.244457 0.005016
O O14 0.203795 0.000000 0.101986
O O15 0.097365 0.208315 0.913688
O O16 0.750368 0.500000 0.547064
O O17 0.000000 0.779473 0.500000
O O18 0.990096 0.000000 0.644051
O O19 0.706903 0.500000 0.895087
#
# Coordination Sequence:
#
# PCOD9150030 Si02
#       7
#     4   4   4   4   4   4   4
#     4   9  19  35  57  84 112 143 183 226 272 328
#     4   9  17  32  55  83 114 145 180 222 270 323
#     4  10  20  36  59  83 108 143 187 230 272 322
#     4  11  23  38  55  79 112 148 186 227 275 328
#     4  10  21  38  57  81 113 146 183 229 277 327
#     4  10  23  40  56  79 112 148 185 228 277 328
#     4  10  20  35  58  84 112 146 182 224 276 327
#
# _framework density 19.76709
#
# number of rings (size 3 to 8) (size 9 to 14) (size 15 to 20)
#    0.000    2.143    1.429    1.286    2.000    4.571 
#    0.000    0.714    0.000    4.286    0.000    0.000 
#    0.000    0.000    0.000    0.000    0.000    0.000 
#
# Total GULP energy -156358.378521 kJ/mol
# GULP energy per Si atom -5584.227804 kJ/mol
# Density = 1.972210 g / cm^3
# Si number density = 19.767090 Si / 1000 Ang^3
#
#
#
# Elastic Constant Matrix: (Units=GPa)
#
#
# Indices 1 2 3 4 5 6 
#
# 1 39.6626 5.8470 -14.2590 0.0000 -10.3123 0.0000
# 2 5.8470 21.7955 15.2424 0.0000 -4.8760 0.0000
# 3 -14.2590 15.2424 71.5353 0.0000 -16.4152 0.0000
# 4 0.0000 0.0000 0.0000 21.7749 0.0000 -6.4179
# 5 -10.3123 -4.8760 -16.4152 0.0000 22.7903 0.0000
# 6 0.0000 0.0000 0.0000 -6.4179 0.0000 20.0745
#
#
#
# Elastic Compliance Matrix: (Units=1/GPa)
#
#
# Indices 1 2 3 4 5 6 
#
# 1 0.042130 -0.018044 0.018846 0.000000 0.028776 0.000000
# 2 -0.018044 0.061935 -0.018720 0.000000 -0.008397 0.000000
# 3 0.018846 -0.018720 0.027269 0.000000 0.024163 0.000000
# 4 0.000000 0.000000 0.000000 0.050702 0.000000 0.016210
# 5 0.028776 -0.008397 0.024163 0.000000 0.072507 0.000000
# 6 0.000000 0.000000 0.000000 0.016210 0.000000 0.054997
#
#
# Mechanical properties :
#
#
# Convention : Reuss Voigt Hill
#
# Bulk Modulus (GPa) = 10.47154 16.29491 13.38323
# Shear Modulus (GPa) = 13.25530 21.33882 17.29706
#
# Velocity S-wave (km/s) = 2.59235 3.28916 2.96132
# Velocity P-wave (km/s) = 3.77748 4.76299 4.29857
#
# Compressibility (1/GPa) = 0.09549692
#
# Stress axis : x y z
#
# Youngs Moduli (GPa) = 23.73625 16.14602 36.67160
#
# Poissons Ratio (x) = 0.29133 -0.69110
# Poissons Ratio (y) = 0.42829 0.68650
# Poissons Ratio (z) = -0.44732 0.30226
#
# Static dielectric constant tensor:
#      x y z
#    x 1.688990 0.000000 0.008650 
#    y 0.000000 1.660290 0.000000 
#    z 0.008650 0.000000 1.699620 
# 
# From -- ./inp_files/36918.got.cif
#   From: 2010.05.17/outbox.cif.g08.bks.cpg/sg10_19_cif.got.tgz:36918.got - 2010.06.03 11:33:40.
