data_PCOD9150165
_publ_section_title
;
Structure prediction by ZEFSAII (Michael W. Deem and Ramdas Pophale) SiO2 
 PCOD9150165
Probable space group: P 2/M
;
_chemical_formula_sum "Si O2"
_cell_formula_units_Z 26
_cell_length_a 9.048850
_cell_length_b 14.381458
_cell_length_c 15.532837
_cell_angle_alpha 90.000000
_cell_angle_beta 141.253657
_cell_angle_gamma 90.000000
_cell_volume 1265.126023
_symmetry_space_group_name_H-M "P 2/M"
_symmetry_group_IT_number 10
_symmetry_cell_setting 'monoclinic'
loop_
_space_group_symop_operation_xyz
x,y,z
-x,y,-z
-x,-y,-z
x,-y,z
loop_
_atom_site_type_symbol
_atom_site_label
_atom_site_fract_x
_atom_site_fract_y
_atom_site_fract_z
Si Si1 0.218190 0.301587 0.861507
Si Si2 0.041937 0.900063 0.749997
Si Si3 0.743264 0.102124 0.339637
Si Si4 0.046184 0.390753 0.417712
Si Si5 0.500000 0.137092 0.500000
Si Si6 0.100727 0.397491 0.141280
Si Si7 0.475287 0.739763 0.648921
O O1 0.113802 0.197123 0.825563
O O2 0.142456 0.344908 0.733807
O O3 0.090727 0.362820 0.876761
O O4 0.500000 0.301391 0.000000
O O5 0.761547 0.903738 0.599129
O O6 0.198600 0.896432 0.734491
O O7 0.092848 0.000000 0.817391
O O8 0.607754 0.192134 0.312501
O O9 0.000000 0.106397 0.500000
O O10 0.637130 0.000000 0.313667
O O11 0.079873 0.500000 0.410773
O O12 0.270465 0.323221 0.513859
O O13 0.000000 0.388054 0.500000
O O14 0.441224 0.193920 0.388658
O O15 0.183996 0.500000 0.206056
O O16 0.317738 0.328322 0.232976
O O17 0.000000 0.402714 0.000000
#
# Coordination Sequence:
#
# PCOD9150165 Si02
#       7
#     4   4   4   4   2   4   4
#     4  12  26  46  71  98 138 187 224 277 342 410
#     4  11  23  41  64  98 134 173 223 276 335 401
#     4  10  20  35  62  97 135 174 216 267 331 403
#     4  11  24  41  68 104 133 172 229 286 339 399
#     4  12  21  36  65  98 130 170 219 276 337 392
#     4  11  27  47  68  98 135 181 230 282 345 407
#     4  12  21  41  67  95 134 174 220 284 340 396
#
# _framework density 20.551313
#
# number of rings (size 3 to 8) (size 9 to 14) (size 15 to 20)
#    0.000    0.769    4.615    2.538    4.308    2.154 
#    0.000    2.308    0.000    0.923    0.000    0.000 
#    0.000    0.000    0.000    0.000    0.000    0.000 
#
# Total GULP energy -145038.939246 kJ/mol
# GULP energy per Si atom -5578.420740 kJ/mol
# Density = 2.050454 g / cm^3
# Si number density = 20.551313 Si / 1000 Ang^3
#
#
#
# Elastic Constant Matrix: (Units=GPa)
#
#
# Indices 1 2 3 4 5 6 
#
# 1 91.0283 65.1144 41.7315 0.0000 8.0448 0.0000
# 2 65.1144 176.3190 46.7310 0.0000 18.3437 0.0000
# 3 41.7315 46.7310 93.5876 0.0000 18.0649 0.0000
# 4 0.0000 0.0000 0.0000 6.1140 0.0000 58.8235
# 5 8.0448 18.3437 18.0649 0.0000 34.0796 0.0000
# 6 0.0000 0.0000 0.0000 58.8235 0.0000 -103.5734
#
#
#
# Elastic Compliance Matrix: (Units=1/GPa)
#
#
# Indices 1 2 3 4 5 6 
#
# 1 0.016846 -0.004968 -0.005324 0.000000 0.001520 0.000000
# 2 -0.004968 0.008126 -0.001364 0.000000 -0.002478 0.000000
# 3 -0.005324 -0.001364 0.014878 0.000000 -0.005896 0.000000
# 4 0.000000 0.000000 0.000000 0.025302 0.000000 0.014370
# 5 0.001520 -0.002478 -0.005896 0.000000 0.033443 0.000000
# 6 0.000000 0.000000 0.000000 0.014370 0.000000 -0.001494
#
#
# Mechanical properties :
#
#
# Convention : Reuss Voigt Hill
#
# Bulk Modulus (GPa) = 60.46887 74.23210 67.35049
# Shear Modulus (GPa) = 39.70560 1.14791 20.42675
#
# Velocity S-wave (km/s) = 4.40025 0.74818 3.15610
# Velocity P-wave (km/s) = 7.43663 6.07825 6.79149
#
# Compressibility (1/GPa) = 0.01653744
#
# Stress axis : x y z
#
# Youngs Moduli (GPa) = 59.36096 123.06930 67.21187
#
# Poissons Ratio (x) = 0.61143 0.35786
# Poissons Ratio (y) = 0.29492 0.09165
# Poissons Ratio (z) = 0.31606 0.16782
#
# Static dielectric constant tensor:
#      x y z
#    x 2.015200 0.000000 0.257530 
#    y 0.000000 1.788420 0.000000 
#    z 0.257530 0.000000 1.963700 
# 
# From -- ./inp_files/62085.got.cif
#   From: 2010.05.17/outbox.cif.g08.bks.cpg/sg10_32_cif.got.tgz:62085.got - 2010.06.03 11:33:40.
