data_PCOD9150876
_publ_section_title
;
Structure prediction by ZEFSAII (Michael W. Deem and Ramdas Pophale) SiO2 
 PCOD9150876
Probable space group: P 2/M
;
_chemical_formula_sum "Si O2"
_cell_formula_units_Z 32
_cell_length_a 12.382705
_cell_length_b 7.852318
_cell_length_c 15.764967
_cell_angle_alpha 90.000000
_cell_angle_beta 90.920203
_cell_angle_gamma 90.000000
_cell_volume 1532.676357
_symmetry_space_group_name_H-M "P 2/M"
_symmetry_group_IT_number 10
_symmetry_cell_setting 'monoclinic'
loop_
_space_group_symop_operation_xyz
x,y,z
-x,y,-z
-x,-y,-z
x,-y,z
loop_
_atom_site_type_symbol
_atom_site_label
_atom_site_fract_x
_atom_site_fract_y
_atom_site_fract_z
Si Si1 0.490626 0.695081 0.594450
Si Si2 0.951299 0.791523 0.589201
Si Si3 0.348997 0.200804 0.753329
Si Si4 0.740309 0.706687 0.830360
Si Si5 0.967795 0.705611 0.907180
Si Si6 0.896182 0.202936 0.255768
Si Si7 0.276703 0.196741 0.358244
Si Si8 0.513463 0.296312 0.904072
O O1 0.500000 0.773489 0.500000
O O2 0.454753 0.500000 0.583468
O O3 0.413259 0.770884 0.665786
O O4 0.612562 0.703381 0.630091
O O5 0.827150 0.734950 0.593727
O O6 0.000000 0.742882 0.500000
O O7 0.026427 0.730867 0.667737
O O8 0.947500 0.000000 0.593604
O O9 0.226683 0.271622 0.746598
O O10 0.418750 0.265138 0.834524
O O11 0.340435 0.000000 0.766217
O O12 0.476662 0.500000 0.088772
O O13 0.756271 0.791188 0.739868
O O14 0.626798 0.765553 0.867141
O O15 0.843697 0.749898 0.887589
O O16 0.975585 0.500000 0.906944
O O17 0.044390 0.767743 0.832593
O O18 0.000000 0.769229 0.000000
O O19 0.887848 0.000000 0.270004
O O20 0.297402 0.000000 0.382156
O O21 0.737293 0.500000 0.819970
O O22 0.500000 0.229533 0.000000
#
# Coordination Sequence:
#
# PCOD9150876 Si02
#       8
#     4   4   4   4   4   4   4   4
#     4  11  25  43  62  86 121 160 197 243 299 357
#     4   9  19  36  59  86 117 154 191 232 288 347
#     4  11  24  40  61  89 121 156 199 251 298 350
#     4  10  20  37  59  85 119 154 195 247 296 345
#     4  10  22  38  60  88 118 156 201 245 289 348
#     4  10  22  40  59  85 121 155 193 242 294 348
#     4  11  21  36  64  91 115 152 198 245 293 349
#     4  10  22  39  62  87 117 161 201 240 296 357
#
# _framework density 20.878509000000001
#
# number of rings (size 3 to 8) (size 9 to 14) (size 15 to 20)
#    0.000    1.750    2.500    1.125    3.500    2.500 
#    0.000    0.000    0.000    1.875    0.000    0.000 
#    0.000    0.000    0.000    0.000    0.000    0.000 
#
# Total GULP energy -178685.116694 kJ/mol
# GULP energy per Si atom -5583.909897 kJ/mol
# Density = 2.083099 g / cm^3
# Si number density = 20.878509 Si / 1000 Ang^3
#
#
#
# Elastic Constant Matrix: (Units=GPa)
#
#
# Indices 1 2 3 4 5 6 
#
# 1 110.2885 -0.6577 9.4764 0.0000 -7.3983 0.0000
# 2 -0.6577 17.3681 -9.0978 0.0000 -1.3477 0.0000
# 3 9.4764 -9.0978 84.2075 0.0000 -2.5201 0.0000
# 4 0.0000 0.0000 0.0000 27.4205 0.0000 17.7108
# 5 -7.3983 -1.3477 -2.5201 0.0000 37.6476 0.0000
# 6 0.0000 0.0000 0.0000 17.7108 0.0000 22.4750
#
#
#
# Elastic Compliance Matrix: (Units=1/GPa)
#
#
# Indices 1 2 3 4 5 6 
#
# 1 0.009270 -0.000034 -0.000994 0.000000 0.001754 0.000000
# 2 -0.000034 0.061292 0.006705 0.000000 0.002636 0.000000
# 3 -0.000994 0.006705 0.012739 0.000000 0.000897 0.000000
# 4 0.000000 0.000000 0.000000 0.074272 0.000000 -0.058528
# 5 0.001754 0.002636 0.000897 0.000000 0.027061 0.000000
# 6 0.000000 0.000000 0.000000 -0.058528 0.000000 0.090615
#
#
# Mechanical properties :
#
#
# Convention : Reuss Voigt Hill
#
# Bulk Modulus (GPa) = 10.56482 23.47845 17.02163
# Shear Modulus (GPa) = 16.92348 31.65153 24.28750
#
# Velocity S-wave (km/s) = 2.85014 3.89779 3.41439
# Velocity P-wave (km/s) = 3.98775 5.61486 4.86975
#
# Compressibility (1/GPa) = 0.09465378
#
# Stress axis : x y z
#
# Youngs Moduli (GPa) = 107.87460 16.31534 78.50186
#
# Poissons Ratio (x) = 0.00055 0.07806
# Poissons Ratio (y) = 0.00364 -0.52633
# Poissons Ratio (z) = 0.10727 -0.10939
#
# Static dielectric constant tensor:
#      x y z
#    x 1.835310 0.000000 0.041590 
#    y 0.000000 1.764240 0.000000 
#    z 0.041590 0.000000 1.754980 
# 
# From -- ./inp_files/58375.got.cif
#   From: 2010.05.17/outbox.cif.g08.bks.cpg/sg10_30_cif.got.tgz:58375.got - 2010.06.03 11:33:40.
