data_PCOD9150665
_publ_section_title
;
Structure prediction by ZEFSAII (Michael W. Deem and Ramdas Pophale) SiO2 
 PCOD9150665
Probable space group: P 2/M
;
_chemical_formula_sum "Si O2"
_cell_formula_units_Z 22
_cell_length_a 11.288450
_cell_length_b 7.459402
_cell_length_c 11.403533
_cell_angle_alpha 90.000000
_cell_angle_beta 68.989866
_cell_angle_gamma 90.000000
_cell_volume 896.396173
_symmetry_space_group_name_H-M "P 2/M"
_symmetry_group_IT_number 10
_symmetry_cell_setting 'monoclinic'
loop_
_space_group_symop_operation_xyz
x,y,z
-x,y,-z
-x,-y,-z
x,-y,z
loop_
_atom_site_type_symbol
_atom_site_label
_atom_site_fract_x
_atom_site_fract_y
_atom_site_fract_z
Si Si1 0.780351 0.000000 0.070477
Si Si2 0.438340 0.292453 0.893689
Si Si3 0.303559 0.716213 0.318231
Si Si4 0.969608 0.207053 0.641515
Si Si5 0.355503 0.717634 0.554884
Si Si6 0.860943 0.295068 0.198192
O O1 0.678185 0.158357 0.067061
O O2 0.874192 0.156779 0.090585
O O3 0.406393 0.500000 0.872212
O O4 0.555864 0.230048 0.770572
O O5 0.500000 0.298011 0.000000
O O6 0.301191 0.500000 0.312631
O O7 0.182491 0.782304 0.289831
O O8 0.288008 0.772828 0.458798
O O9 0.000000 0.284222 0.500000
O O10 0.041065 0.288303 0.727472
O O11 0.008441 0.000000 0.625475
O O12 0.500000 0.779573 0.500000
O O13 0.357507 0.500000 0.555430
O O14 0.272967 0.770268 0.694942
O O15 0.854085 0.500000 0.162403
#
# Coordination Sequence:
#
# PCOD9150665 Si02
#       6
#     2   4   4   4   4   4
#     4  12  23  40  62  93 125 163 199 252 312 377
#     4  10  23  44  69  95 121 154 203 262 318 370
#     4  10  20  36  61  88 118 162 209 252 305 364
#     4  11  22  37  56  87 129 170 215 255 293 354
#     4   9  17  31  51  81 121 161 199 237 291 362
#     4  11  22  37  58  86 126 171 205 244 296 365
#
# _framework density 24.542719000000002
#
# number of rings (size 3 to 8) (size 9 to 14) (size 15 to 20)
#    0.000    1.636    2.727    2.455    1.273    3.636 
#    0.000    1.364    0.000    2.182    0.000    5.091 
#    0.000    0.000    0.000    0.000    0.000    0.000 
#
# Total GULP energy -122603.619630 kJ/mol
# GULP energy per Si atom -5572.891801 kJ/mol
# Density = 2.448686 g / cm^3
# Si number density = 24.542719 Si / 1000 Ang^3
#
#
#
# Elastic Constant Matrix: (Units=GPa)
#
#
# Indices 1 2 3 4 5 6 
#
# 1 162.2184 43.2444 31.0739 0.0000 14.6224 0.0000
# 2 43.2444 149.1401 15.2539 0.0000 4.9553 0.0000
# 3 31.0739 15.2539 25.4075 0.0000 -6.8883 0.0000
# 4 0.0000 0.0000 0.0000 -5.7289 0.0000 0.1485
# 5 14.6224 4.9553 -6.8883 0.0000 29.5388 0.0000
# 6 0.0000 0.0000 0.0000 0.1485 0.0000 11.4424
#
#
#
# Elastic Compliance Matrix: (Units=1/GPa)
#
#
# Indices 1 2 3 4 5 6 
#
# 1 0.009718 -0.001207 -0.013247 0.000000 -0.007697 0.000000
# 2 -0.001207 0.007449 -0.003387 0.000000 -0.001442 0.000000
# 3 -0.013247 -0.003387 0.063542 0.000000 0.021943 0.000000
# 4 0.000000 0.000000 0.000000 -0.174495 0.000000 0.002265
# 5 -0.007697 -0.001442 0.021943 0.000000 0.043023 0.000000
# 6 0.000000 0.000000 0.000000 0.002265 0.000000 0.087365
#
#
# Mechanical properties :
#
#
# Convention : Reuss Voigt Hill
#
# Bulk Modulus (GPa) = 22.20880 57.32335 39.76608
# Shear Modulus (GPa) = 57.27809 23.53006 40.40408
#
# Velocity S-wave (km/s) = 4.83620 3.09971 4.06183
# Velocity P-wave (km/s) = 6.34458 6.01816 6.18352
#
# Compressibility (1/GPa) = 0.04502719
#
# Stress axis : x y z
#
# Youngs Moduli (GPa) = 102.90540 134.23814 15.73755
#
# Poissons Ratio (x) = 0.16204 0.20847
# Poissons Ratio (y) = 0.12422 0.05330
# Poissons Ratio (z) = 1.36318 0.45467
#
# Static dielectric constant tensor:
#      x y z
#    x 1.946540 0.000000 -0.040200 
#    y 0.000000 1.894860 0.000000 
#    z -0.040200 0.000000 2.101470 
# 
# From -- ./inp_files/45038.got.cif
#   From: 2010.05.17/outbox.cif.g08.bks.cpg/sg10_23_cif.got.tgz:45038.got - 2010.06.03 11:33:40.
