data_PCOD9150531
_publ_section_title
;
Structure prediction by ZEFSAII (Michael W. Deem and Ramdas Pophale) SiO2 
 PCOD9150531
Probable space group: P 2/M
;
_chemical_formula_sum "Si O2"
_cell_formula_units_Z 28
_cell_length_a 9.026923
_cell_length_b 13.708138
_cell_length_c 14.680072
_cell_angle_alpha 90.000000
_cell_angle_beta 126.977377
_cell_angle_gamma 90.000000
_cell_volume 1451.189655
_symmetry_space_group_name_H-M "P 2/M"
_symmetry_group_IT_number 10
_symmetry_cell_setting 'monoclinic'
loop_
_space_group_symop_operation_xyz
x,y,z
-x,y,-z
-x,-y,-z
x,-y,z
loop_
_atom_site_type_symbol
_atom_site_label
_atom_site_fract_x
_atom_site_fract_y
_atom_site_fract_z
Si Si1 0.835347 0.116403 0.013954
Si Si2 0.895400 0.387043 0.873124
Si Si3 0.500019 0.387699 0.662543
Si Si4 0.495116 0.113743 0.237790
Si Si5 0.182462 0.269959 0.630360
Si Si6 0.367631 0.189418 0.376822
Si Si7 0.031901 0.755942 0.770807
O O1 0.866484 0.172518 0.120310
O O2 0.833315 0.000000 0.029311
O O3 0.639774 0.144453 0.894723
O O4 0.000000 0.133241 0.000000
O O5 0.943824 0.500000 0.881769
O O6 0.672979 0.380318 0.796876
O O7 0.962717 0.331579 0.809172
O O8 0.000000 0.348039 0.000000
O O9 0.499178 0.500000 0.627769
O O10 0.306588 0.358314 0.636617
O O11 0.552244 0.299019 0.613746
O O12 0.679173 0.177144 0.319602
O O13 0.375909 0.133115 0.284791
O O14 0.537369 0.000000 0.243381
O O15 0.133691 0.280633 0.718653
O O16 0.000000 0.258435 0.500000
O O17 0.500000 0.142760 0.500000
O O18 0.158310 0.193918 0.332833
#
# Coordination Sequence:
#
# PCOD9150531 Si02
#       7
#     4   4   4   4   4   4   4
#     4  10  20  37  62  91 117 143 190 245 293 350
#     4   9  19  36  60  89 119 149 188 238 291 351
#     4   9  20  39  60  82 115 157 194 234 288 340
#     4  10  22  41  61  82 116 158 192 237 295 346
#     4  11  25  42  56  83 122 158 197 241 284 345
#     4  10  20  36  59  88 116 148 199 247 282 340
#     4  11  21  34  61  87 116 155 190 239 299 337
#
# _framework density 19.294515000000001
#
# number of rings (size 3 to 8) (size 9 to 14) (size 15 to 20)
#    0.000    2.000    1.429    2.143    4.000    2.857 
#    0.000    5.714    0.000    2.571    0.000    0.000 
#    0.000    0.000    0.000    0.000    0.000    0.000 
#
# Total GULP energy -156139.128386 kJ/mol
# GULP energy per Si atom -5576.397442 kJ/mol
# Density = 1.925060 g / cm^3
# Si number density = 19.294515 Si / 1000 Ang^3
#
#
#
# Elastic Constant Matrix: (Units=GPa)
#
#
# Indices 1 2 3 4 5 6 
#
# 1 50.3941 7.0299 16.7929 0.0000 7.1917 0.0000
# 2 7.0299 65.6492 30.2447 0.0000 9.4662 0.0000
# 3 16.7929 30.2447 110.0294 0.0000 6.2562 0.0000
# 4 0.0000 0.0000 0.0000 3.5872 0.0000 13.7033
# 5 7.1917 9.4662 6.2562 0.0000 27.7490 0.0000
# 6 0.0000 0.0000 0.0000 13.7033 0.0000 6.7390
#
#
#
# Elastic Compliance Matrix: (Units=1/GPa)
#
#
# Indices 1 2 3 4 5 6 
#
# 1 0.021550 -0.000254 -0.002944 0.000000 -0.004835 0.000000
# 2 -0.000254 0.018137 -0.004658 0.000000 -0.005071 0.000000
# 3 -0.002944 -0.004658 0.010823 0.000000 -0.000088 0.000000
# 4 0.000000 0.000000 0.000000 -0.041191 0.000000 0.083758
# 5 -0.004835 -0.005071 -0.000088 0.000000 0.039040 0.000000
# 6 0.000000 0.000000 0.000000 0.083758 0.000000 -0.021926
#
#
# Mechanical properties :
#
#
# Convention : Reuss Voigt Hill
#
# Bulk Modulus (GPa) = 28.73808 37.13420 32.93614
# Shear Modulus (GPa) = 93.02920 19.08207 56.05564
#
# Velocity S-wave (km/s) = 6.95126 3.14823 5.39590
# Velocity P-wave (km/s) = 8.90806 5.70113 7.47852
#
# Compressibility (1/GPa) = 0.03479703
#
# Stress axis : x y z
#
# Youngs Moduli (GPa) = 46.40343 55.13587 92.39304
#
# Poissons Ratio (x) = 0.01401 0.27203
# Poissons Ratio (y) = 0.01179 0.43040
# Poissons Ratio (z) = 0.13663 0.25684
#
# Static dielectric constant tensor:
#      x y z
#    x 1.690530 0.000000 0.018520 
#    y 0.000000 1.686810 0.000000 
#    z 0.018520 0.000000 1.688520 
# 
# From -- ./inp_files/61908.got.cif
#   From: 2010.05.17/outbox.cif.g08.bks.cpg/sg10_31_cif.got.tgz:61908.got - 2010.06.03 11:33:40.
