data_PCOD9150203
_publ_section_title
;
Structure prediction by ZEFSAII (Michael W. Deem and Ramdas Pophale) SiO2 
 PCOD9150203
Probable space group: P 2/M
;
_chemical_formula_sum "Si O2"
_cell_formula_units_Z 32
_cell_length_a 12.268959
_cell_length_b 8.567005
_cell_length_c 29.865937
_cell_angle_alpha 90.000000
_cell_angle_beta 30.584677
_cell_angle_gamma 90.000000
_cell_volume 1597.237675
_symmetry_space_group_name_H-M "P 2/M"
_symmetry_group_IT_number 10
_symmetry_cell_setting 'monoclinic'
loop_
_space_group_symop_operation_xyz
x,y,z
-x,y,-z
-x,-y,-z
x,-y,z
loop_
_atom_site_type_symbol
_atom_site_label
_atom_site_fract_x
_atom_site_fract_y
_atom_site_fract_z
Si Si1 0.897362 0.687666 0.582563
Si Si2 0.713873 0.815579 0.320802
Si Si3 0.368980 0.190541 0.002415
Si Si4 0.544866 0.313451 0.217282
Si Si5 0.874776 0.188001 0.168395
Si Si6 0.286245 0.314679 0.512736
Si Si7 0.959170 0.315135 0.314707
Si Si8 0.424834 0.185490 0.164334
O O1 0.873489 0.500000 0.585223
O O2 0.665537 0.746740 0.680760
O O3 0.000000 0.749458 0.500000
O O4 0.071287 0.711263 0.560006
O O5 0.740685 0.766785 0.259962
O O6 0.480866 0.776559 0.422141
O O7 0.883970 0.728792 0.291980
O O8 0.756566 0.000000 0.308501
O O9 0.120100 0.237178 0.089602
O O10 0.374162 0.000000 0.001521
O O11 0.500000 0.243525 0.000000
O O12 0.475841 0.241068 0.917925
O O13 0.536466 0.500000 0.220750
O O14 0.757812 0.256859 0.166738
O O15 0.527217 0.257864 0.172502
O O16 0.873163 0.000000 0.165138
O O17 0.337913 0.500000 0.492869
O O18 0.228782 0.272249 0.583900
O O19 0.994421 0.500000 0.306944
O O20 0.175012 0.228256 0.251499
O O21 0.451964 0.000000 0.156921
#
# Coordination Sequence:
#
# PCOD9150203 Si02
#       8
#     4   4   4   4   4   4   4   4
#     4   9  17  32  55  79 108 153 203 241 279 343
#     4  11  23  37  57  87 120 154 197 254 307 349
#     4   9  19  39  66  91 117 156 201 242 295 364
#     4  11  22  39  61  87 122 160 200 245 297 359
#     4  10  22  41  62  87 120 155 199 249 298 355
#     4  10  20  36  55  80 115 158 203 240 290 361
#     4  11  22  38  59  84 119 161 201 243 296 363
#     4  11  22  38  64  92 119 155 200 253 304 352
#
# _framework density 20.034589
#
# number of rings (size 3 to 8) (size 9 to 14) (size 15 to 20)
#    0.000    1.750    1.250    3.375    0.000    7.000 
#    0.000    3.750    0.000    5.250    0.000    0.000 
#    0.000    0.000    0.000    0.000    0.000    0.000 
#
# Total GULP energy -178801.003625 kJ/mol
# GULP energy per Si atom -5587.531363 kJ/mol
# Density = 1.998899 g / cm^3
# Si number density = 20.034589 Si / 1000 Ang^3
#
#
#
# Elastic Constant Matrix: (Units=GPa)
#
#
# Indices 1 2 3 4 5 6 
#
# 1 140.4152 23.0806 67.9136 0.0000 7.4994 0.0000
# 2 23.0806 19.9928 20.9514 0.0000 2.6805 0.0000
# 3 67.9136 20.9514 93.9800 0.0000 6.7486 0.0000
# 4 0.0000 0.0000 0.0000 -101.8509 0.0000 55.9755
# 5 7.4994 2.6805 6.7486 0.0000 29.8226 0.0000
# 6 0.0000 0.0000 0.0000 55.9755 0.0000 -2.9556
#
#
#
# Elastic Compliance Matrix: (Units=1/GPa)
#
#
# Indices 1 2 3 4 5 6 
#
# 1 0.011483 -0.005890 -0.006928 0.000000 -0.000790 0.000000
# 2 -0.005890 0.068488 -0.010853 0.000000 -0.002219 0.000000
# 3 -0.006928 -0.010853 0.018167 0.000000 -0.001393 0.000000
# 4 0.000000 0.000000 0.000000 0.001044 0.000000 0.019764
# 5 -0.000790 -0.002219 -0.001393 0.000000 0.034245 0.000000
# 6 0.000000 0.000000 0.000000 0.019764 0.000000 0.035961
#
#
# Mechanical properties :
#
#
# Convention : Reuss Voigt Hill
#
# Bulk Modulus (GPa) = 19.68663 53.14214 36.41438
# Shear Modulus (GPa) = 21.39844 -5.50063 7.94890
#
# Velocity S-wave (km/s) = 3.27169 -1.65877 1.99404
# Velocity P-wave (km/s) = 4.91117 4.78686 4.84941
#
# Compressibility (1/GPa) = 0.05079589
#
# Stress axis : x y z
#
# Youngs Moduli (GPa) = 87.08469 14.60107 55.04594
#
# Poissons Ratio (x) = 0.08600 0.38137
# Poissons Ratio (y) = 0.51294 0.59739
# Poissons Ratio (z) = 0.60334 0.15846
#
# Static dielectric constant tensor:
#      x y z
#    x 1.691100 0.000000 0.014920 
#    y 0.000000 1.687420 0.000000 
#    z 0.014920 0.000000 1.712580 
# 
# From -- ./inp_files/94939.got.cif
#   From: 2010.05.17/outbox.cif.g08.bks.cpg/sg10_48_cif.got.tgz:94939.got - 2010.06.03 11:33:40.
