data_PCOD9150422
_publ_section_title
;
Structure prediction by ZEFSAII (Michael W. Deem and Ramdas Pophale) SiO2 
 PCOD9150422
Probable space group: P 2/M
;
_chemical_formula_sum "Si O2"
_cell_formula_units_Z 20
_cell_length_a 6.377074
_cell_length_b 13.593717
_cell_length_c 12.422849
_cell_angle_alpha 90.000000
_cell_angle_beta 105.159680
_cell_angle_gamma 90.000000
_cell_volume 1039.437889
_symmetry_space_group_name_H-M "P 2/M"
_symmetry_group_IT_number 10
_symmetry_cell_setting 'monoclinic'
loop_
_space_group_symop_operation_xyz
x,y,z
-x,y,-z
-x,-y,-z
x,-y,z
loop_
_atom_site_type_symbol
_atom_site_label
_atom_site_fract_x
_atom_site_fract_y
_atom_site_fract_z
Si Si1 0.722340 0.890949 0.148579
Si Si2 0.000000 0.195874 0.000000
Si Si3 0.848686 0.889083 0.650412
Si Si4 0.000000 0.738657 0.500000
Si Si5 0.405745 0.383945 0.608816
Si Si6 0.366899 0.760945 0.202628
O O1 0.843233 0.870275 0.052647
O O2 0.555967 0.804702 0.153469
O O3 0.912158 0.889941 0.263681
O O4 0.621803 0.000000 0.135143
O O5 0.846410 0.255933 0.898225
O O6 0.689640 0.847994 0.720468
O O7 0.861475 0.810917 0.556993
O O8 0.793893 0.000000 0.609214
O O9 0.172300 0.669629 0.583341
O O10 0.500000 0.370983 0.500000
O O11 0.386580 0.500000 0.625608
O O12 0.558109 0.330955 0.716504
#
# Coordination Sequence:
#
# PCOD9150422 Si02
#       6
#     4   2   4   2   4   4
#     4  10  20  36  58  86 124 164 201 241 293 354
#     4  10  23  36  59  88 122 160 203 244 295 354
#     4  10  21  34  56  90 126 161 196 233 292 366
#     4  12  20  40  60  90 120 156 196 252 300 356
#     4  11  24  42  65  90 116 154 205 257 307 355
#     4  11  21  40  59  87 122 160 201 249 295 352
#
# _framework density 19.241167999999998
#
# number of rings (size 3 to 8) (size 9 to 14) (size 15 to 20)
#    0.000    1.400    4.000    2.100    0.000    3.200 
#    0.000    1.500    0.000    2.400    0.000    0.000 
#    0.000    0.000    0.000    0.000    0.000    0.000 
#
# Total GULP energy -111715.300220 kJ/mol
# GULP energy per Si atom -5585.765011 kJ/mol
# Density = 1.919737 g / cm^3
# Si number density = 19.241168 Si / 1000 Ang^3
#
#
#
# Elastic Constant Matrix: (Units=GPa)
#
#
# Indices 1 2 3 4 5 6 
#
# 1 54.7434 41.8520 21.0467 0.0000 -14.2103 0.0000
# 2 41.8520 143.9735 63.1125 0.0000 10.7233 0.0000
# 3 21.0467 63.1125 82.2694 0.0000 3.9377 0.0000
# 4 0.0000 0.0000 0.0000 14.3566 0.0000 -0.9176
# 5 -14.2103 10.7233 3.9377 0.0000 34.8894 0.0000
# 6 0.0000 0.0000 0.0000 -0.9176 0.0000 19.2535
#
#
#
# Elastic Compliance Matrix: (Units=1/GPa)
#
#
# Indices 1 2 3 4 5 6 
#
# 1 0.029698 -0.009204 -0.001258 0.000000 0.015067 0.000000
# 2 -0.009204 0.013508 -0.007671 0.000000 -0.007034 0.000000
# 3 -0.001258 -0.007671 0.018373 0.000000 -0.000228 0.000000
# 4 0.000000 0.000000 0.000000 0.069867 0.000000 0.003330
# 5 0.015067 -0.007034 -0.000228 0.000000 0.036986 0.000000
# 6 0.000000 0.000000 0.000000 0.003330 0.000000 0.052097
#
#
# Mechanical properties :
#
#
# Convention : Reuss Voigt Hill
#
# Bulk Modulus (GPa) = 39.50583 59.22318 49.36451
# Shear Modulus (GPa) = 18.85131 24.03157 21.44144
#
# Velocity S-wave (km/s) = 3.13347 3.53791 3.34181
# Velocity P-wave (km/s) = 5.80242 6.89458 6.37194
#
# Compressibility (1/GPa) = 0.02531272
#
# Stress axis : x y z
#
# Youngs Moduli (GPa) = 33.67229 74.03104 54.42785
#
# Poissons Ratio (x) = 0.68135 0.06848
# Poissons Ratio (y) = 0.30991 0.41753
# Poissons Ratio (z) = 0.04237 0.56791
#
# Static dielectric constant tensor:
#      x y z
#    x 1.687440 0.000000 0.008780 
#    y 0.000000 1.632700 0.000000 
#    z 0.008780 0.000000 1.695080 
# 
# From -- ./inp_files/8985.got.cif
#   From: 2010.05.17/outbox.cif.g08.bks.cpg/sg10_5_cif.got.tgz:8985.got - 2010.06.03 11:33:40.
