data_PCOD9150573
_publ_section_title
;
Structure prediction by ZEFSAII (Michael W. Deem and Ramdas Pophale) SiO2 
 PCOD9150573
Probable space group: P 2/M
;
_chemical_formula_sum "Si O2"
_cell_formula_units_Z 30
_cell_length_a 6.417879
_cell_length_b 13.786032
_cell_length_c 18.293986
_cell_angle_alpha 90.000000
_cell_angle_beta 66.100525
_cell_angle_gamma 90.000000
_cell_volume 1479.816143
_symmetry_space_group_name_H-M "P 2/M"
_symmetry_group_IT_number 10
_symmetry_cell_setting 'monoclinic'
loop_
_space_group_symop_operation_xyz
x,y,z
-x,y,-z
-x,-y,-z
x,-y,z
loop_
_atom_site_type_symbol
_atom_site_label
_atom_site_fract_x
_atom_site_fract_y
_atom_site_fract_z
Si Si1 0.152542 0.227244 0.361894
Si Si2 0.465951 0.109273 0.632544
Si Si3 0.309935 0.299271 0.578049
Si Si4 0.543116 0.607579 0.131695
Si Si5 0.543016 0.612248 0.300694
Si Si6 0.000000 0.330582 0.000000
Si Si7 0.990711 0.112615 0.761412
Si Si8 0.282230 0.775577 0.081156
O O1 0.279838 0.136380 0.379906
O O2 0.336513 0.312581 0.336140
O O3 0.083562 0.185901 0.292313
O O4 0.927214 0.275987 0.426199
O O5 0.400491 0.192609 0.585897
O O6 0.269152 0.119751 0.723852
O O7 0.448871 0.000000 0.607630
O O8 0.500000 0.347292 0.500000
O O9 0.287657 0.357065 0.657797
O O10 0.436697 0.500000 0.141418
O O11 0.613567 0.623809 0.206182
O O12 0.382318 0.690517 0.120073
O O13 0.778209 0.610188 0.054173
O O14 0.480085 0.500000 0.319884
O O15 0.090447 0.266457 0.054385
O O16 0.844649 0.144240 0.852091
O O17 0.942261 0.000000 0.750141
O O18 0.500000 0.806581 0.000000
#
# Coordination Sequence:
#
# PCOD9150573 Si02
#       8
#     4   4   4   4   4   2   4   4
#     4  10  20  38  63  83 116 152 195 241 295 348
#     4   9  20  36  59  89 115 151 199 243 294 353
#     4  10  23  40  59  88 125 157 190 240 299 354
#     4  10  21  38  59  86 117 156 202 243 291 347
#     4  10  22  38  61  90 118 156 204 244 287 348
#     4  10  23  34  57  82 124 160 189 242 301 344
#     4  10  20  36  60  85 115 154 196 244 293 348
#     4  10  22  37  55  85 120 156 196 245 295 349
#
# _framework density 20.272787999999998
#
# number of rings (size 3 to 8) (size 9 to 14) (size 15 to 20)
#    0.000    2.133    1.333    0.600    5.600    6.933 
#    0.000    4.333    0.000    0.000    0.000    0.000 
#    0.000    0.000    0.000    0.000    0.000    0.000 
#
# Total GULP energy -167139.661377 kJ/mol
# GULP energy per Si atom -5571.322046 kJ/mol
# Density = 2.022665 g / cm^3
# Si number density = 20.272788 Si / 1000 Ang^3
#
#
#
# Elastic Constant Matrix: (Units=GPa)
#
#
# Indices 1 2 3 4 5 6 
#
# 1 71.6963 13.9367 10.4107 0.0000 2.5549 0.0000
# 2 13.9367 83.3354 18.2442 0.0000 5.3466 0.0000
# 3 10.4107 18.2442 62.1261 0.0000 1.5727 0.0000
# 4 0.0000 0.0000 0.0000 8.3678 0.0000 -0.7623
# 5 2.5549 5.3466 1.5727 0.0000 24.2633 0.0000
# 6 0.0000 0.0000 0.0000 -0.7623 0.0000 12.0290
#
#
#
# Elastic Compliance Matrix: (Units=1/GPa)
#
#
# Indices 1 2 3 4 5 6 
#
# 1 0.014636 -0.001980 -0.001846 0.000000 -0.000985 0.000000
# 2 -0.001980 0.013256 -0.003498 0.000000 -0.002486 0.000000
# 3 -0.001846 -0.003498 0.017437 0.000000 -0.000165 0.000000
# 4 0.000000 0.000000 0.000000 0.120200 0.000000 0.007618
# 5 -0.000985 -0.002486 -0.000165 0.000000 0.041877 0.000000
# 6 0.000000 0.000000 0.000000 0.007618 0.000000 0.083615
#
#
# Mechanical properties :
#
#
# Convention : Reuss Voigt Hill
#
# Bulk Modulus (GPa) = 32.59434 33.59342 33.09388
# Shear Modulus (GPa) = 15.82795 20.56975 18.19885
#
# Velocity S-wave (km/s) = 2.79722 3.18881 2.99941
# Velocity P-wave (km/s) = 5.15222 5.49224 5.32494
#
# Compressibility (1/GPa) = 0.03068017
#
# Stress axis : x y z
#
# Youngs Moduli (GPa) = 68.32549 75.43646 57.34895
#
# Poissons Ratio (x) = 0.14938 0.10587
# Poissons Ratio (y) = 0.13530 0.20061
# Poissons Ratio (z) = 0.12614 0.26388
#
# Static dielectric constant tensor:
#      x y z
#    x 1.762200 0.000000 -0.008320 
#    y 0.000000 1.710420 0.000000 
#    z -0.008320 0.000000 1.776930 
# 
# From -- ./inp_files/73515.got.cif
#   From: 2010.05.17/outbox.cif.g08.bks.cpg/sg10_37_cif.got.tgz:73515.got - 2010.06.03 11:33:40.
