data_PCOD9150449
_publ_section_title
;
Structure prediction by ZEFSAII (Michael W. Deem and Ramdas Pophale) SiO2 
 PCOD9150449
Probable space group: P 2/M
;
_chemical_formula_sum "Si O2"
_cell_formula_units_Z 24
_cell_length_a 15.556633
_cell_length_b 7.686063
_cell_length_c 13.898515
_cell_angle_alpha 90.000000
_cell_angle_beta 139.084972
_cell_angle_gamma 90.000000
_cell_volume 1088.400736
_symmetry_space_group_name_H-M "P 2/M"
_symmetry_group_IT_number 10
_symmetry_cell_setting 'monoclinic'
loop_
_space_group_symop_operation_xyz
x,y,z
-x,y,-z
-x,-y,-z
x,-y,z
loop_
_atom_site_type_symbol
_atom_site_label
_atom_site_fract_x
_atom_site_fract_y
_atom_site_fract_z
Si Si1 0.362107 0.210299 0.426599
Si Si2 0.024361 0.800233 0.625755
Si Si3 0.516551 0.789619 0.124071
Si Si4 0.143668 0.787185 0.090661
Si Si5 0.233998 0.786658 0.956646
Si Si6 0.250981 0.301051 0.539696
O O1 0.500000 0.272469 0.500000
O O2 0.248267 0.269083 0.258375
O O3 0.327612 0.260750 0.506050
O O4 0.365488 0.000000 0.428246
O O5 0.884657 0.801594 0.561821
O O6 0.000000 0.718933 0.500000
O O7 0.137570 0.725447 0.789867
O O8 0.066812 0.000000 0.643333
O O9 0.648189 0.729589 0.287771
O O10 0.521015 0.000000 0.128294
O O11 0.500000 0.732515 0.000000
O O12 0.384420 0.734865 0.067482
O O13 0.144364 0.000000 0.090493
O O14 0.182195 0.730289 0.016520
O O15 0.000000 0.730006 0.000000
O O16 0.230979 0.000000 0.953378
O O17 0.209824 0.500000 0.503642
#
# Coordination Sequence:
#
# PCOD9150449 Si02
#       6
#     4   4   4   4   4   4
#     4  10  20  36  59  82 106 143 194 247 290 331
#     4  10  20  37  62  88 113 146 192 242 287 335
#     4  10  20  37  61  85 109 142 190 242 284 329
#     4   9  16  27  48  78 106 132 169 225 286 332
#     4   9  17  31  55  85 110 135 179 240 294 332
#     4  12  25  38  55  83 122 161 190 225 283 354
#
# _framework density 22.050702000000001
#
# number of rings (size 3 to 8) (size 9 to 14) (size 15 to 20)
#    0.000    2.000    0.000    4.500    0.000    9.000 
#    0.000    0.833    0.000    4.500    0.000    0.000 
#    0.000    0.000    0.000    0.000    0.000    0.000 
#
# Total GULP energy -134170.925732 kJ/mol
# GULP energy per Si atom -5590.455239 kJ/mol
# Density = 2.200051 g / cm^3
# Si number density = 22.050702 Si / 1000 Ang^3
#
#
#
# Elastic Constant Matrix: (Units=GPa)
#
#
# Indices 1 2 3 4 5 6 
#
# 1 62.4181 -3.4055 -20.3992 0.0000 -1.0519 0.0000
# 2 -3.4055 43.4109 -0.4566 0.0000 -3.0192 0.0000
# 3 -20.3992 -0.4566 86.5620 0.0000 0.7826 0.0000
# 4 0.0000 0.0000 0.0000 -193.7764 0.0000 -138.5214
# 5 -1.0519 -3.0192 0.7826 0.0000 44.0876 0.0000
# 6 0.0000 0.0000 0.0000 -138.5214 0.0000 -64.9100
#
#
#
# Elastic Compliance Matrix: (Units=1/GPa)
#
#
# Indices 1 2 3 4 5 6 
#
# 1 0.017453 0.001443 0.004116 0.000000 0.000442 0.000000
# 2 0.001443 0.023266 0.000448 0.000000 0.001620 0.000000
# 3 0.004116 0.000448 0.012526 0.000000 -0.000093 0.000000
# 4 0.000000 0.000000 0.000000 0.009820 0.000000 -0.020956
# 5 0.000442 0.001620 -0.000093 0.000000 0.022805 0.000000
# 6 0.000000 0.000000 0.000000 -0.020956 0.000000 0.029315
#
#
# Mechanical properties :
#
#
# Convention : Reuss Voigt Hill
#
# Bulk Modulus (GPa) = 15.32329 15.98537 15.65433
# Shear Modulus (GPa) = 40.02490 -28.47627 5.77432
#
# Velocity S-wave (km/s) = 4.26506 -3.59750 1.61998
# Velocity P-wave (km/s) = 5.58735 3.16084 3.25788
#
# Compressibility (1/GPa) = 0.06526015
#
# Stress axis : x y z
#
# Youngs Moduli (GPa) = 57.29832 42.98062 79.83581
#
# Poissons Ratio (x) = -0.06203 -0.32864
# Poissons Ratio (y) = -0.08269 -0.03578
# Poissons Ratio (z) = -0.23587 -0.01926
#
# Static dielectric constant tensor:
#      x y z
#    x 1.787490 0.000000 -0.002730 
#    y 0.000000 1.871860 0.000000 
#    z -0.002730 0.000000 1.758370 
# 
# From -- ./inp_files/60198.got.cif
#   From: 2010.05.17/outbox.cif.g08.bks.cpg/sg10_31_cif.got.tgz:60198.got - 2010.06.03 11:33:40.
