data_PCOD9150696
_publ_section_title
;
Structure prediction by ZEFSAII (Michael W. Deem and Ramdas Pophale) SiO2 
 PCOD9150696
Probable space group: P 2/M
;
_chemical_formula_sum "Si O2"
_cell_formula_units_Z 24
_cell_length_a 14.730180
_cell_length_b 13.980982
_cell_length_c 11.568102
_cell_angle_alpha 90.000000
_cell_angle_beta 29.310691
_cell_angle_gamma 90.000000
_cell_volume 1166.274032
_symmetry_space_group_name_H-M "P 2/M"
_symmetry_group_IT_number 10
_symmetry_cell_setting 'monoclinic'
loop_
_space_group_symop_operation_xyz
x,y,z
-x,y,-z
-x,-y,-z
x,-y,z
loop_
_atom_site_type_symbol
_atom_site_label
_atom_site_fract_x
_atom_site_fract_y
_atom_site_fract_z
Si Si1 0.067551 0.110052 0.107515
Si Si2 0.721166 0.723956 0.250626
Si Si3 0.407457 0.702942 0.992110
Si Si4 0.883598 0.612645 0.854033
Si Si5 0.796848 0.105982 0.781680
Si Si6 0.781358 0.732150 0.443984
O O1 0.173173 0.114824 0.113475
O O2 0.869842 0.161917 0.345073
O O3 0.050675 0.000000 0.092166
O O4 0.182748 0.175858 0.891664
O O5 0.500000 0.733515 0.500000
O O6 0.783914 0.650369 0.081859
O O7 0.787558 0.696361 0.304762
O O8 0.247727 0.644496 0.105282
O O9 0.573639 0.725749 0.719278
O O10 0.500000 0.653824 0.000000
O O11 0.320044 0.803838 0.128913
O O12 0.909666 0.500000 0.827142
O O13 0.078737 0.668464 0.635422
O O14 0.000000 0.110601 0.500000
O O15 0.719674 0.000000 0.842069
#
# Coordination Sequence:
#
# PCOD9150696 Si02
#       6
#     4   4   4   4   4   4
#     4  10  20  36  61  93 132 173 210 254 313 377
#     4  11  21  41  66  95 132 164 211 266 318 379
#     4  12  25  42  69  94 129 172 211 262 321 375
#     4  11  25  45  67  95 126 164 215 266 325 380
#     4  10  20  38  65  95 130 171 216 258 304 370
#     4  11  23  42  66  95 129 169 212 263 317 379
#
# _framework density 20.578354000000001
#
# number of rings (size 3 to 8) (size 9 to 14) (size 15 to 20)
#    0.000    1.167    5.000    3.000    0.000    5.333 
#    0.000    0.833    0.000    0.000    0.000    0.000 
#    0.000    0.000    0.000    0.000    0.000    0.000 
#
# Total GULP energy -134189.838099 kJ/mol
# GULP energy per Si atom -5591.243254 kJ/mol
# Density = 2.053152 g / cm^3
# Si number density = 20.578354 Si / 1000 Ang^3
#
#
#
# Elastic Constant Matrix: (Units=GPa)
#
#
# Indices 1 2 3 4 5 6 
#
# 1 108.0244 17.5364 -6.8186 0.0000 -10.7575 0.0000
# 2 17.5364 116.1424 21.7482 0.0000 -15.4977 0.0000
# 3 -6.8186 21.7482 60.9350 0.0000 -15.7148 0.0000
# 4 0.0000 0.0000 0.0000 3.7858 0.0000 1.9254
# 5 -10.7575 -15.4977 -15.7148 0.0000 30.3201 0.0000
# 6 0.0000 0.0000 0.0000 1.9254 0.0000 5.2241
#
#
#
# Elastic Compliance Matrix: (Units=1/GPa)
#
#
# Indices 1 2 3 4 5 6 
#
# 1 0.010094 -0.001472 0.002752 0.000000 0.004255 0.000000
# 2 -0.001472 0.009770 -0.002884 0.000000 0.002977 0.000000
# 3 0.002752 -0.002884 0.020338 0.000000 0.010044 0.000000
# 4 0.000000 0.000000 0.000000 0.325079 0.000000 -0.119813
# 5 0.004255 0.002977 0.010044 0.000000 0.041218 0.000000
# 6 0.000000 0.000000 0.000000 -0.119813 0.000000 0.235579
#
#
# Mechanical properties :
#
#
# Convention : Reuss Voigt Hill
#
# Bulk Modulus (GPa) = 27.03068 38.89265 32.96167
# Shear Modulus (GPa) = 7.60322 24.70839 16.15581
#
# Velocity S-wave (km/s) = 1.92426 3.46887 2.80498
# Velocity P-wave (km/s) = 4.25453 5.91480 5.15199
#
# Compressibility (1/GPa) = 0.03699500
#
# Stress axis : x y z
#
# Youngs Moduli (GPa) = 99.07328 102.35905 49.16816
#
# Poissons Ratio (x) = 0.15063 -0.13532
# Poissons Ratio (y) = 0.14579 0.14179
# Poissons Ratio (z) = -0.27266 0.29518
#
# Static dielectric constant tensor:
#      x y z
#    x 1.779880 0.000000 0.017940 
#    y 0.000000 1.698020 0.000000 
#    z 0.017940 0.000000 1.713500 
# 
# From -- ./inp_files/51549.got.cif
#   From: 2010.05.17/outbox.cif.g08.bks.cpg/sg10_26_cif.got.tgz:51549.got - 2010.06.03 11:33:40.
