data_PCOD9150753
_publ_section_title
;
Structure prediction by ZEFSAII (Michael W. Deem and Ramdas Pophale) SiO2 
 PCOD9150753
Probable space group: P 2/M
;
_chemical_formula_sum "Si O2"
_cell_formula_units_Z 16
_cell_length_a 7.923479
_cell_length_b 11.077080
_cell_length_c 8.451972
_cell_angle_alpha 90.000000
_cell_angle_beta 57.005216
_cell_angle_gamma 90.000000
_cell_volume 622.180403
_symmetry_space_group_name_H-M "P 2/M"
_symmetry_group_IT_number 10
_symmetry_cell_setting 'monoclinic'
loop_
_space_group_symop_operation_xyz
x,y,z
-x,y,-z
-x,-y,-z
x,-y,z
loop_
_atom_site_type_symbol
_atom_site_label
_atom_site_fract_x
_atom_site_fract_y
_atom_site_fract_z
Si Si1 0.322977 0.000000 0.462696
Si Si2 0.257381 0.637833 0.772485
Si Si3 0.740648 0.260733 0.894455
Si Si4 0.914450 0.000000 0.866460
Si Si5 0.708232 0.270370 0.575876
O O1 0.500000 0.000000 0.500000
O O2 0.341144 0.871406 0.369457
O O3 0.102872 0.000000 0.651930
O O4 0.213093 0.500000 0.757110
O O5 0.200859 0.718564 0.647831
O O6 0.499225 0.657566 0.667040
O O7 0.185607 0.671143 0.985685
O O8 0.815439 0.306133 0.684390
O O9 0.790767 0.121285 0.901189
O O10 0.500000 0.276109 0.000000
O O11 0.000000 0.000000 0.000000
#
# Coordination Sequence:
#
# PCOD9150753 Si02
#       5
#     2   4   4   2   4
#     4  12  23  40  67  98 130 167 217 271 333 403
#     4  10  20  36  63  99 130 174 225 268 321 389
#     4  10  23  40  63  98 136 173 218 271 326 396
#     4  12  26  40  68 100 137 177 218 266 341 403
#     4  10  20  36  64  89 134 167 216 262 332 382
#
# _framework density 25.716014000000001
#
# number of rings (size 3 to 8) (size 9 to 14) (size 15 to 20)
#    0.000    1.500    2.500    4.125    3.500    7.500 
#    0.000    0.000    0.000    8.250    0.000   29.750 
#    0.000    0.000    0.000    0.000    0.000    0.000 
#
# Total GULP energy -89556.855242 kJ/mol
# GULP energy per Si atom -5597.303453 kJ/mol
# Density = 2.565748 g / cm^3
# Si number density = 25.716014 Si / 1000 Ang^3
#
#
#
# Elastic Constant Matrix: (Units=GPa)
#
#
# Indices 1 2 3 4 5 6 
#
# 1 140.9338 9.4465 49.0423 0.0000 53.5698 0.0000
# 2 9.4465 122.5084 17.1758 0.0000 23.0242 0.0000
# 3 49.0423 17.1758 167.2098 0.0000 50.5389 0.0000
# 4 0.0000 0.0000 0.0000 0.7404 0.0000 -21.7634
# 5 53.5698 23.0242 50.5389 0.0000 74.1485 0.0000
# 6 0.0000 0.0000 0.0000 -21.7634 0.0000 4.5430
#
#
#
# Elastic Compliance Matrix: (Units=1/GPa)
#
#
# Indices 1 2 3 4 5 6 
#
# 1 0.009942 0.000632 -0.000945 0.000000 -0.006735 0.000000
# 2 0.000632 0.008710 -0.000157 0.000000 -0.003054 0.000000
# 3 -0.000945 -0.000157 0.007623 0.000000 -0.004464 0.000000
# 4 0.000000 0.000000 0.000000 -0.009660 0.000000 -0.046277
# 5 -0.006735 -0.003054 -0.004464 0.000000 0.022343 0.000000
# 6 0.000000 0.000000 0.000000 -0.046277 0.000000 -0.001574
#
#
# Mechanical properties :
#
#
# Convention : Reuss Voigt Hill
#
# Bulk Modulus (GPa) = 39.47277 64.66459 52.06868
# Shear Modulus (GPa) = 106.90745 39.55220 73.22983
#
# Velocity S-wave (km/s) = 6.45466 3.92604 5.34211
# Velocity P-wave (km/s) = 8.42217 6.76402 7.63822
#
# Compressibility (1/GPa) = 0.02533392
#
# Stress axis : x y z
#
# Youngs Moduli (GPa) = 100.58348 114.81110 131.17859
#
# Poissons Ratio (x) = -0.07252 0.12401
# Poissons Ratio (y) = -0.06353 0.02058
# Poissons Ratio (z) = 0.09509 0.01801
#
# Static dielectric constant tensor:
#      x y z
#    x 1.974700 0.000000 -0.029670 
#    y 0.000000 1.913510 0.000000 
#    z -0.029670 0.000000 2.185200 
# 
# From -- ./inp_files/17669.got.cif
#   From: 2010.05.17/outbox.cif.g08.bks.cpg/sg10_9_cif.got.tgz:17669.got - 2010.06.03 11:33:40.
