data_PCOD9150260
_publ_section_title
;
Structure prediction by ZEFSAII (Michael W. Deem and Ramdas Pophale) SiO2 
 PCOD9150260
Probable space group: P 2/M
;
_chemical_formula_sum "Si O2"
_cell_formula_units_Z 32
_cell_length_a 30.904150
_cell_length_b 9.449540
_cell_length_c 12.255773
_cell_angle_alpha 90.000000
_cell_angle_beta 151.654820
_cell_angle_gamma 90.000000
_cell_volume 1699.271399
_symmetry_space_group_name_H-M "P 2/M"
_symmetry_group_IT_number 10
_symmetry_cell_setting 'monoclinic'
loop_
_space_group_symop_operation_xyz
x,y,z
-x,y,-z
-x,-y,-z
x,-y,z
loop_
_atom_site_type_symbol
_atom_site_label
_atom_site_fract_x
_atom_site_fract_y
_atom_site_fract_z
Si Si1 0.907557 0.166757 0.985376
Si Si2 0.899817 0.163289 0.223153
Si Si3 0.443643 0.827063 0.981974
Si Si4 0.355120 0.835717 0.157859
Si Si5 0.084037 0.333412 0.329619
Si Si6 0.468108 0.834959 0.603793
Si Si7 0.230773 0.168156 0.509055
Si Si8 0.186055 0.335705 0.777289
O O1 0.900021 0.204884 0.096461
O O2 0.986650 0.257334 0.103325
O O3 0.933265 0.000000 0.037891
O O4 0.813954 0.182961 0.710546
O O5 0.840399 0.261329 0.168885
O O6 0.000000 0.167967 0.500000
O O7 0.868231 0.000000 0.158445
O O8 0.336787 0.786392 0.747092
O O9 0.442450 0.000000 0.984285
O O10 0.500000 0.786850 0.000000
O O11 0.500743 0.772857 0.212683
O O12 0.387891 0.778407 0.348725
O O13 0.441928 0.833363 0.271704
O O14 0.327135 0.000000 0.105591
O O15 0.275395 0.742976 0.933182
O O16 0.080124 0.500000 0.293422
O O17 0.163619 0.255391 0.438850
O O18 0.109991 0.320233 0.515383
O O19 0.444072 0.000000 0.568949
O O20 0.226850 0.000000 0.528890
O O21 0.203009 0.500000 0.831430
#
# Coordination Sequence:
#
# PCOD9150260 Si02
#       8
#     4   4   4   4   4   4   4   4
#     4  10  21  37  57  83 112 142 183 230 273 318
#     4  10  20  36  57  78 104 142 181 218 266 320
#     4   9  17  30  51  79 109 138 169 214 274 327
#     4   9  17  31  53  78 103 135 177 223 268 317
#     4  11  23  37  55  79 111 150 187 224 270 324
#     4   8  15  29  50  76 103 133 173 219 267 320
#     4  10  21  36  57  85 112 140 180 230 274 319
#     4  11  23  35  51  79 112 145 183 224 269 319
#
# _framework density 18.831600999999999
#
# number of rings (size 3 to 8) (size 9 to 14) (size 15 to 20)
#    0.000    2.250    1.250    2.625    0.000    6.250 
#    0.000    5.000    0.000    1.125    0.000    0.000 
#    0.000    0.000    0.000    0.000    0.000    0.000 
#
# Total GULP energy -178428.345362 kJ/mol
# GULP energy per Si atom -5575.885793 kJ/mol
# Density = 1.878874 g / cm^3
# Si number density = 18.831601 Si / 1000 Ang^3
#
#
#
# Elastic Constant Matrix: (Units=GPa)
#
#
# Indices 1 2 3 4 5 6 
#
# 1 64.9613 14.9553 0.1113 0.0000 -21.7393 0.0000
# 2 14.9553 35.8461 11.1910 0.0000 -2.0637 0.0000
# 3 0.1113 11.1910 48.7247 0.0000 -12.7890 0.0000
# 4 0.0000 0.0000 0.0000 5.8775 0.0000 -16.8721
# 5 -21.7393 -2.0637 -12.7890 0.0000 30.5001 0.0000
# 6 0.0000 0.0000 0.0000 -16.8721 0.0000 -24.6847
#
#
#
# Elastic Compliance Matrix: (Units=1/GPa)
#
#
# Indices 1 2 3 4 5 6 
#
# 1 0.024845 -0.011679 0.007940 0.000000 0.020247 0.000000
# 2 -0.011679 0.035567 -0.010894 0.000000 -0.010486 0.000000
# 3 0.007940 -0.010894 0.027305 0.000000 0.016371 0.000000
# 4 0.000000 0.000000 0.000000 0.057439 0.000000 -0.039260
# 5 0.020247 -0.010486 0.016371 0.000000 0.053373 0.000000
# 6 0.000000 0.000000 0.000000 -0.039260 0.000000 -0.013676
#
#
# Mechanical properties :
#
#
# Convention : Reuss Voigt Hill
#
# Bulk Modulus (GPa) = 17.10864 22.44969 19.77916
# Shear Modulus (GPa) = 21.40395 10.55688 15.98042
#
# Velocity S-wave (km/s) = 3.37500 2.37026 2.91623
# Velocity P-wave (km/s) = 4.92872 4.40885 4.67602
#
# Compressibility (1/GPa) = 0.05844999
#
# Stress axis : x y z
#
# Youngs Moduli (GPa) = 40.25033 28.11596 36.62391
#
# Poissons Ratio (x) = 0.32835 -0.29079
# Poissons Ratio (y) = 0.47006 0.39900
# Poissons Ratio (z) = -0.31959 0.30631
#
# Static dielectric constant tensor:
#      x y z
#    x 1.662560 0.000000 -0.031970 
#    y 0.000000 1.627860 0.000000 
#    z -0.031970 0.000000 1.694810 
# 
# From -- ./inp_files/58124.got.cif
#   From: 2010.05.17/outbox.cif.g08.bks.cpg/sg10_30_cif.got.tgz:58124.got - 2010.06.03 11:33:40.
