data_PCOD9150341
_publ_section_title
;
Structure prediction by ZEFSAII (Michael W. Deem and Ramdas Pophale) SiO2 
 PCOD9150341
Probable space group: P 2/M
;
_chemical_formula_sum "Si O2"
_cell_formula_units_Z 32
_cell_length_a 22.470569
_cell_length_b 8.991602
_cell_length_c 14.573846
_cell_angle_alpha 90.000000
_cell_angle_beta 142.801697
_cell_angle_gamma 90.000000
_cell_volume 1780.229040
_symmetry_space_group_name_H-M "P 2/M"
_symmetry_group_IT_number 10
_symmetry_cell_setting 'monoclinic'
loop_
_space_group_symop_operation_xyz
x,y,z
-x,y,-z
-x,-y,-z
x,-y,z
loop_
_atom_site_type_symbol
_atom_site_label
_atom_site_fract_x
_atom_site_fract_y
_atom_site_fract_z
Si Si1 0.255863 0.324385 0.027892
Si Si2 0.073699 0.675537 0.939489
Si Si3 0.612251 0.821678 0.656641
Si Si4 0.726599 0.676349 0.328250
Si Si5 0.464681 0.168863 0.850200
Si Si6 0.209238 0.823209 0.255005
Si Si7 0.679976 0.821549 0.075542
Si Si8 0.866501 0.822961 0.640544
O O1 0.269560 0.500000 0.030341
O O2 0.153581 0.302149 0.956547
O O3 0.260873 0.239281 0.938132
O O4 0.340018 0.260205 0.198158
O O5 0.053326 0.500000 0.922959
O O6 0.975046 0.764310 0.796580
O O7 0.127201 0.735390 0.096531
O O8 0.500000 0.778425 0.500000
O O9 0.684835 0.790438 0.659972
O O10 0.614659 0.000000 0.675941
O O11 0.730867 0.500000 0.325746
O O12 0.629348 0.726374 0.265588
O O13 0.715314 0.748872 0.213862
O O14 0.819556 0.741254 0.496183
O O15 0.436590 0.000000 0.788919
O O16 0.500000 0.163357 0.000000
O O17 0.563530 0.215700 0.919159
O O18 0.199040 0.790277 0.349556
O O19 0.191030 0.000000 0.220471
O O20 0.685472 0.000000 0.090079
O O21 0.867059 0.000000 0.626625
#
# Coordination Sequence:
#
# PCOD9150341 Si02
#       8
#     4   4   4   4   4   4   4   4
#     4  10  21  36  55  80 109 141 178 223 273 323
#     4  10  21  37  56  79 107 137 174 223 275 325
#     4   9  18  34  55  80 111 146 182 218 259 313
#     4  11  22  35  53  80 113 143 176 222 271 317
#     4   8  16  32  52  74 102 137 175 213 254 304
#     4   9  19  35  55  79 106 139 179 219 262 317
#     4  10  20  36  58  80 106 144 185 221 260 315
#     4  11  22  36  55  78 107 142 180 224 271 319
#
# _framework density 17.975216
#
# number of rings (size 3 to 8) (size 9 to 14) (size 15 to 20)
#    0.000    2.250    0.000    3.750    0.000    8.000 
#    0.000    3.125    0.000    3.750    0.000    0.000 
#    0.000    0.000    0.000    0.000    0.000    0.000 
#
# Total GULP energy -178620.837063 kJ/mol
# GULP energy per Si atom -5581.901158 kJ/mol
# Density = 1.793430 g / cm^3
# Si number density = 17.975216 Si / 1000 Ang^3
#
#
#
# Elastic Constant Matrix: (Units=GPa)
#
#
# Indices 1 2 3 4 5 6 
#
# 1 65.9295 46.5156 38.0092 0.0000 -13.0904 0.0000
# 2 46.5156 77.5690 50.9574 0.0000 -4.0632 0.0000
# 3 38.0092 50.9574 92.7243 0.0000 5.1796 0.0000
# 4 0.0000 0.0000 0.0000 67.3219 0.0000 22.1329
# 5 -13.0904 -4.0632 5.1796 0.0000 18.3348 0.0000
# 6 0.0000 0.0000 0.0000 22.1329 0.0000 36.5768
#
#
#
# Elastic Compliance Matrix: (Units=1/GPa)
#
#
# Indices 1 2 3 4 5 6 
#
# 1 0.034287 -0.014471 -0.007408 0.000000 0.023366 0.000000
# 2 -0.014471 0.027421 -0.009042 0.000000 -0.001701 0.000000
# 3 -0.007408 -0.009042 0.019506 0.000000 -0.012803 0.000000
# 4 0.000000 0.000000 0.000000 0.018543 0.000000 -0.011220
# 5 0.023366 -0.001701 -0.012803 0.000000 0.074464 0.000000
# 6 0.000000 0.000000 0.000000 -0.011220 0.000000 0.034129
#
#
# Mechanical properties :
#
#
# Convention : Reuss Voigt Hill
#
# Bulk Modulus (GPa) = 51.62104 56.35415 53.98759
# Shear Modulus (GPa) = 18.07351 31.16274 24.61813
#
# Velocity S-wave (km/s) = 3.17435 4.16823 3.70477
# Velocity P-wave (km/s) = 6.49735 7.38814 6.95702
#
# Compressibility (1/GPa) = 0.01937195
#
# Stress axis : x y z
#
# Youngs Moduli (GPa) = 29.16535 36.46903 51.26719
#
# Poissons Ratio (x) = 0.52773 0.37977
# Poissons Ratio (y) = 0.42204 0.46358
# Poissons Ratio (z) = 0.21605 0.32977
#
# Static dielectric constant tensor:
#      x y z
#    x 1.627040 0.000000 0.012820 
#    y 0.000000 1.596750 0.000000 
#    z 0.012820 0.000000 1.589340 
# 
# From -- ./inp_files/71571.got.cif
#   From: 2010.05.17/outbox.cif.g08.bks.cpg/sg10_36_cif.got.tgz:71571.got - 2010.06.03 11:33:40.
