data_PCOD9150580
_publ_section_title
;
Structure prediction by ZEFSAII (Michael W. Deem and Ramdas Pophale) SiO2 
 PCOD9150580
Probable space group: P 2/M
;
_chemical_formula_sum "Si O2"
_cell_formula_units_Z 28
_cell_length_a 9.708679
_cell_length_b 8.027716
_cell_length_c 25.218866
_cell_angle_alpha 90.000000
_cell_angle_beta 143.966316
_cell_angle_gamma 90.000000
_cell_volume 1156.238916
_symmetry_space_group_name_H-M "P 2/M"
_symmetry_group_IT_number 10
_symmetry_cell_setting 'monoclinic'
loop_
_space_group_symop_operation_xyz
x,y,z
-x,y,-z
-x,-y,-z
x,-y,z
loop_
_atom_site_type_symbol
_atom_site_label
_atom_site_fract_x
_atom_site_fract_y
_atom_site_fract_z
Si Si1 0.378261 0.807635 0.012648
Si Si2 0.028895 0.311082 0.174421
Si Si3 0.731198 0.796526 0.909867
Si Si4 0.990471 0.798110 0.396820
Si Si5 0.992868 0.812203 0.719296
Si Si6 0.500194 0.315364 0.436242
Si Si7 0.512116 0.201181 0.729333
O O1 0.106207 0.803227 0.910037
O O2 0.455843 0.000000 0.039148
O O3 0.500000 0.724430 0.000000
O O4 0.401521 0.737346 0.078553
O O5 0.986074 0.500000 0.145777
O O6 0.933341 0.277870 0.203828
O O7 0.304724 0.273888 0.255182
O O8 0.610605 0.747379 0.817825
O O9 0.730254 0.000000 0.910736
O O10 0.000000 0.742646 0.000000
O O11 0.759238 0.748226 0.356890
O O12 0.962522 0.743135 0.326000
O O13 0.236810 0.735573 0.496286
O O14 0.001620 0.000000 0.398529
O O15 0.710721 0.811025 0.638382
O O16 0.084789 0.000000 0.748731
O O17 0.500000 0.326350 0.500000
O O18 0.438839 0.500000 0.396742
O O19 0.519729 0.000000 0.728031
#
# Coordination Sequence:
#
# PCOD9150580 Si02
#       7
#     4   4   4   4   4   4   4
#     4  10  21  37  61  85 109 143 189 237 281 329
#     4  12  25  39  54  79 119 156 187 226 284 341
#     4   9  16  31  57  83 106 138 183 232 276 320
#     4   9  19  34  59  89 113 141 187 240 281 327
#     4  10  20  36  60  86 113 146 191 237 280 328
#     4   9  17  32  55  83 118 152 182 220 279 343
#     4  10  20  37  59  83 112 146 190 237 279 329
#
# _framework density 24.216449000000001
#
# number of rings (size 3 to 8) (size 9 to 14) (size 15 to 20)
#    0.000    2.143    1.429    2.143    2.000    3.143 
#    0.000    2.143    0.000    4.286    0.000    0.000 
#    0.000    0.000    0.000    0.000    0.000    0.000 
#
# Total GULP energy -156427.039027 kJ/mol
# GULP energy per Si atom -5586.679965 kJ/mol
# Density = 2.416133 g / cm^3
# Si number density = 24.216449 Si / 1000 Ang^3
#
#
#
# Elastic Constant Matrix: (Units=GPa)
#
#
# Indices 1 2 3 4 5 6 
#
# 1 109.2721 1.5207 -2.7067 0.0000 7.2850 0.0000
# 2 1.5207 45.0215 2.6687 0.0000 -0.6471 0.0000
# 3 -2.7067 2.6687 45.6556 0.0000 18.1879 0.0000
# 4 0.0000 0.0000 0.0000 6.6254 0.0000 -4.0577
# 5 7.2850 -0.6471 18.1879 0.0000 44.6346 0.0000
# 6 0.0000 0.0000 0.0000 -4.0577 0.0000 8.0682
#
#
#
# Elastic Compliance Matrix: (Units=1/GPa)
#
#
# Indices 1 2 3 4 5 6 
#
# 1 0.009333 -0.000430 0.001418 0.000000 -0.002107 0.000000
# 2 -0.000430 0.022348 -0.001777 0.000000 0.001118 0.000000
# 3 0.001418 -0.001777 0.026494 0.000000 -0.011053 0.000000
# 4 0.000000 0.000000 0.000000 0.218120 0.000000 0.109699
# 5 -0.002107 0.001118 -0.011053 0.000000 0.027268 0.000000
# 6 0.000000 0.000000 0.000000 0.109699 0.000000 0.179114
#
#
# Mechanical properties :
#
#
# Convention : Reuss Voigt Hill
#
# Bulk Modulus (GPa) = 17.66871 22.54605 20.10738
# Shear Modulus (GPa) = 9.93797 25.09674 17.51735
#
# Velocity S-wave (km/s) = 2.02798 3.22273 2.69246
# Velocity P-wave (km/s) = 3.57710 4.81440 4.24111
#
# Compressibility (1/GPa) = 0.05659722
#
# Stress axis : x y z
#
# Youngs Moduli (GPa) = 107.14604 44.74761 37.74388
#
# Poissons Ratio (x) = 0.01922 -0.05352
# Poissons Ratio (y) = 0.04603 0.06708
# Poissons Ratio (z) = -0.15192 0.07953
#
# Static dielectric constant tensor:
#      x y z
#    x 1.955480 0.000000 0.026330 
#    y 0.000000 1.901080 0.000000 
#    z 0.026330 0.000000 1.975700 
# 
# From -- ./inp_files/92098.got.cif
#   From: 2010.05.17/outbox.cif.g08.bks.cpg/sg10_47_cif.got.tgz:92098.got - 2010.06.03 11:33:40.
