data_PCOD9150279
_publ_section_title
;
Structure prediction by ZEFSAII (Michael W. Deem and Ramdas Pophale) SiO2 
 PCOD9150279
Probable space group: P 2/M
;
_chemical_formula_sum "Si O2"
_cell_formula_units_Z 32
_cell_length_a 12.256780
_cell_length_b 7.723833
_cell_length_c 22.451042
_cell_angle_alpha 90.000000
_cell_angle_beta 133.909516
_cell_angle_gamma 90.000000
_cell_volume 1531.232496
_symmetry_space_group_name_H-M "P 2/M"
_symmetry_group_IT_number 10
_symmetry_cell_setting 'monoclinic'
loop_
_space_group_symop_operation_xyz
x,y,z
-x,y,-z
-x,-y,-z
x,-y,z
loop_
_atom_site_type_symbol
_atom_site_label
_atom_site_fract_x
_atom_site_fract_y
_atom_site_fract_z
Si Si1 0.974284 0.211641 0.394473
Si Si2 0.443959 0.700576 0.134458
Si Si3 0.055288 0.208261 0.751768
Si Si4 0.118780 0.706916 0.202087
Si Si5 0.569737 0.294381 0.736507
Si Si6 0.893680 0.797371 0.013502
Si Si7 0.623822 0.198902 0.090849
Si Si8 0.759160 0.791457 0.418204
O O1 0.128172 0.265314 0.486503
O O2 0.962535 0.272592 0.322380
O O3 0.835852 0.266232 0.384851
O O4 0.973457 0.000000 0.393585
O O5 0.492871 0.500000 0.153420
O O6 0.447607 0.774287 0.202761
O O7 0.549862 0.798233 0.128143
O O8 0.269537 0.709751 0.047490
O O9 0.209930 0.277700 0.840210
O O10 0.918423 0.247074 0.744220
O O11 0.071529 0.000000 0.754000
O O12 0.116010 0.500000 0.195492
O O13 0.280566 0.773177 0.239519
O O14 0.987454 0.778200 0.109475
O O15 0.592483 0.500000 0.751987
O O16 0.413348 0.265498 0.643182
O O17 0.865311 0.000000 0.991247
O O18 0.000000 0.729621 0.000000
O O19 0.644727 0.000000 0.077741
O O20 0.500000 0.281209 0.000000
O O21 0.761119 0.000000 0.418756
#
# Coordination Sequence:
#
# PCOD9150279 Si02
#       8
#     4   4   4   4   4   4   4   4
#     4   8  16  33  57  86 113 139 176 226 278 326
#     4  11  22  36  56  80 110 145 181 223 274 331
#     4  10  20  36  57  80 112 149 185 228 277 326
#     4  11  23  39  56  76 111 151 186 225 271 327
#     4  10  22  37  52  78 113 143 174 223 279 322
#     4  11  22  36  56  81 107 140 186 231 270 319
#     4  10  21  36  54  80 113 143 178 228 276 321
#     4   9  17  33  60  86 108 138 179 224 275 332
#
# _framework density 20.898199000000002
#
# number of rings (size 3 to 8) (size 9 to 14) (size 15 to 20)
#    0.000    2.000    1.250    3.375    0.000    5.250 
#    0.000    3.125    0.000    3.750    0.000    0.000 
#    0.000    0.000    0.000    0.000    0.000    0.000 
#
# Total GULP energy -178791.202166 kJ/mol
# GULP energy per Si atom -5587.225068 kJ/mol
# Density = 2.085063 g / cm^3
# Si number density = 20.898199 Si / 1000 Ang^3
#
#
#
# Elastic Constant Matrix: (Units=GPa)
#
#
# Indices 1 2 3 4 5 6 
#
# 1 93.9455 -8.4051 43.3575 0.0000 -0.8037 0.0000
# 2 -8.4051 34.7672 -1.5950 0.0000 -4.3199 0.0000
# 3 43.3575 -1.5950 94.3226 0.0000 -0.0128 0.0000
# 4 0.0000 0.0000 0.0000 4.7198 0.0000 -14.8611
# 5 -0.8037 -4.3199 -0.0128 0.0000 34.2310 0.0000
# 6 0.0000 0.0000 0.0000 -14.8611 0.0000 -16.2969
#
#
#
# Elastic Compliance Matrix: (Units=1/GPa)
#
#
# Indices 1 2 3 4 5 6 
#
# 1 0.013845 0.003147 -0.006311 0.000000 0.000720 0.000000
# 2 0.003147 0.029959 -0.000939 0.000000 0.003854 0.000000
# 3 -0.006311 -0.000939 0.013487 0.000000 -0.000262 0.000000
# 4 0.000000 0.000000 0.000000 0.054730 0.000000 -0.049908
# 5 0.000720 0.003854 -0.000262 0.000000 0.029717 0.000000
# 6 0.000000 0.000000 0.000000 -0.049908 0.000000 -0.015851
#
#
# Mechanical properties :
#
#
# Convention : Reuss Voigt Hill
#
# Bulk Modulus (GPa) = 20.37302 32.19446 26.28374
# Shear Modulus (GPa) = 33.23259 17.17597 25.20428
#
# Velocity S-wave (km/s) = 3.99207 2.86997 3.47659
# Velocity P-wave (km/s) = 5.56945 5.14015 5.35910
#
# Compressibility (1/GPa) = 0.04908453
#
# Stress axis : x y z
#
# Youngs Moduli (GPa) = 72.22986 33.37852 74.14627
#
# Poissons Ratio (x) = -0.10504 0.46792
# Poissons Ratio (y) = -0.22730 0.06966
# Poissons Ratio (z) = 0.45582 0.03136
#
# Static dielectric constant tensor:
#      x y z
#    x 1.738620 0.000000 -0.004120 
#    y 0.000000 1.793230 0.000000 
#    z -0.004120 0.000000 1.743620 
# 
# From -- ./inp_files/83611.got.cif
#   From: 2010.05.17/outbox.cif.g08.bks.cpg/sg10_42_cif.got.tgz:83611.got - 2010.06.03 11:33:40.
