data_PCOD9150619
_publ_section_title
;
Structure prediction by ZEFSAII (Michael W. Deem and Ramdas Pophale) SiO2 
 PCOD9150619
Probable space group: P 2/M
;
_chemical_formula_sum "Si O2"
_cell_formula_units_Z 28
_cell_length_a 9.853582
_cell_length_b 8.930249
_cell_length_c 28.355490
_cell_angle_alpha 90.000000
_cell_angle_beta 37.795550
_cell_angle_gamma 90.000000
_cell_volume 1529.135571
_symmetry_space_group_name_H-M "P 2/M"
_symmetry_group_IT_number 10
_symmetry_cell_setting 'monoclinic'
loop_
_space_group_symop_operation_xyz
x,y,z
-x,y,-z
-x,-y,-z
x,-y,z
loop_
_atom_site_type_symbol
_atom_site_label
_atom_site_fract_x
_atom_site_fract_y
_atom_site_fract_z
Si Si1 0.442387 0.822256 0.308108
Si Si2 0.459816 0.179854 0.866665
Si Si3 0.751325 0.827323 0.447953
Si Si4 0.749085 0.326565 0.549793
Si Si5 0.831280 0.321467 0.701155
Si Si6 0.342943 0.320858 0.998993
Si Si7 0.131680 0.177372 0.871709
O O1 0.404614 0.757230 0.370197
O O2 0.276969 0.737282 0.317983
O O3 0.686386 0.800009 0.219237
O O4 0.396297 0.000000 0.319597
O O5 0.679701 0.250067 0.783358
O O6 0.419185 0.243161 0.929600
O O7 0.257500 0.217381 0.886170
O O8 0.477303 0.000000 0.862297
O O9 0.500000 0.822744 0.500000
O O10 0.753145 0.754044 0.498767
O O11 0.918867 0.738040 0.368337
O O12 0.825390 0.000000 0.429905
O O13 0.683244 0.500000 0.563205
O O14 0.000000 0.322091 0.500000
O O15 0.823062 0.500000 0.705226
O O16 0.352770 0.500000 0.990890
O O17 0.500000 0.279010 0.000000
O O18 0.090351 0.268781 0.075887
O O19 0.078823 0.000000 0.888650
#
# Coordination Sequence:
#
# PCOD9150619 Si02
#       7
#     4   4   4   4   4   4   4
#     4  10  20  36  60  89 119 152 195 246 291 342
#     4  10  21  39  64  90 115 150 195 241 287 344
#     4  11  24  41  60  84 116 158 203 243 290 350
#     4  11  22  36  59  90 119 154 197 243 296 348
#     4  11  21  36  60  89 120 152 192 242 296 348
#     4  11  24  40  58  86 122 156 191 234 289 348
#     4   9  20  38  61  89 116 148 194 241 286 343
#
# _framework density 18.310997
#
# number of rings (size 3 to 8) (size 9 to 14) (size 15 to 20)
#    0.000    1.571    1.429    4.714    0.000    8.000 
#    2.571    0.000    0.000    0.000    0.000    0.000 
#    0.000    0.000    0.000    0.000    0.000    0.000 
#
# Total GULP energy -156455.174985 kJ/mol
# GULP energy per Si atom -5587.684821 kJ/mol
# Density = 1.826932 g / cm^3
# Si number density = 18.310997 Si / 1000 Ang^3
#
#
#
# Elastic Constant Matrix: (Units=GPa)
#
#
# Indices 1 2 3 4 5 6 
#
# 1 74.7502 55.3744 56.7292 0.0000 -3.0486 0.0000
# 2 55.3744 122.5048 65.4622 0.0000 -4.1942 0.0000
# 3 56.7292 65.4622 112.8455 0.0000 -2.8821 0.0000
# 4 0.0000 0.0000 0.0000 67.6463 0.0000 -2.4057
# 5 -3.0486 -4.1942 -2.8821 0.0000 21.9773 0.0000
# 6 0.0000 0.0000 0.0000 -2.4057 0.0000 13.3643
#
#
#
# Elastic Compliance Matrix: (Units=1/GPa)
#
#
# Indices 1 2 3 4 5 6 
#
# 1 0.024862 -0.006576 -0.008657 0.000000 0.001059 0.000000
# 2 -0.006576 0.013610 -0.004562 0.000000 0.001087 0.000000
# 3 -0.008657 -0.004562 0.015860 0.000000 0.000008 0.000000
# 4 0.000000 0.000000 0.000000 0.014878 0.000000 0.002678
# 5 0.001059 0.001087 0.000008 0.000000 0.045857 0.000000
# 6 0.000000 0.000000 0.000000 0.002678 0.000000 0.075309
#
#
# Mechanical properties :
#
#
# Convention : Reuss Voigt Hill
#
# Bulk Modulus (GPa) = 67.82673 73.91466 70.87069
# Shear Modulus (GPa) = 21.28744 29.43321 25.36032
#
# Velocity S-wave (km/s) = 3.41332 4.01360 3.72557
# Velocity P-wave (km/s) = 7.25646 7.86972 7.56930
#
# Compressibility (1/GPa) = 0.01474345
#
# Stress axis : x y z
#
# Youngs Moduli (GPa) = 40.22132 73.47376 63.05122
#
# Poissons Ratio (x) = 0.48317 0.54583
# Poissons Ratio (y) = 0.26450 0.28762
# Poissons Ratio (z) = 0.34819 0.33517
#
# Static dielectric constant tensor:
#      x y z
#    x 1.609340 0.000000 -0.008870 
#    y 0.000000 1.614290 0.000000 
#    z -0.008870 0.000000 1.628030 
# 
# From -- ./inp_files/91975.got.cif
#   From: 2010.05.17/outbox.cif.g08.bks.cpg/sg10_46_cif.got.tgz:91975.got - 2010.06.03 11:33:40.
