data_PCOD9150809
_publ_section_title
;
Structure prediction by ZEFSAII (Michael W. Deem and Ramdas Pophale) SiO2 
 PCOD9150809
Probable space group: P 2/M
;
_chemical_formula_sum "Si O2"
_cell_formula_units_Z 32
_cell_length_a 21.469076
_cell_length_b 8.814998
_cell_length_c 27.231036
_cell_angle_alpha 90.000000
_cell_angle_beta 160.911107
_cell_angle_gamma 90.000000
_cell_volume 1685.363508
_symmetry_space_group_name_H-M "P 2/M"
_symmetry_group_IT_number 10
_symmetry_cell_setting 'monoclinic'
loop_
_space_group_symop_operation_xyz
x,y,z
-x,y,-z
-x,-y,-z
x,-y,z
loop_
_atom_site_type_symbol
_atom_site_label
_atom_site_fract_x
_atom_site_fract_y
_atom_site_fract_z
Si Si1 0.949747 0.681452 0.715273
Si Si2 0.628650 0.182806 0.141283
Si Si3 0.628678 0.682891 0.967597
Si Si4 0.431113 0.318982 0.722226
Si Si5 0.235464 0.319827 0.323223
Si Si6 0.043062 0.818119 0.474685
Si Si7 0.569970 0.818559 0.384790
Si Si8 0.616021 0.818641 0.655811
O O1 0.933758 0.500000 0.695419
O O2 0.926000 0.706647 0.756377
O O3 0.775363 0.758864 0.557042
O O4 0.161339 0.733389 0.859071
O O5 0.533939 0.248450 0.119495
O O6 0.849715 0.225663 0.302248
O O7 0.622803 0.000000 0.139764
O O8 0.500000 0.233585 0.000000
O O9 0.623089 0.500000 0.966695
O O10 0.582688 0.724226 0.877176
O O11 0.430654 0.500000 0.716958
O O12 0.468766 0.246305 0.697599
O O13 0.226300 0.264969 0.590054
O O14 0.267092 0.500000 0.343529
O O15 0.222807 0.253473 0.258961
O O16 0.418886 0.240918 0.484939
O O17 0.000000 0.785779 0.500000
O O18 0.072631 0.000000 0.492535
O O19 0.410975 0.775601 0.307310
O O20 0.578237 0.000000 0.389368
O O21 0.625889 0.000000 0.659414
#
# Coordination Sequence:
#
# PCOD9150809 Si02
#       8
#     4   4   4   4   4   4   4   4
#     4   9  19  35  53  78 110 140 175 218 264 313
#     4  10  22  38  56  80 107 136 172 214 260 311
#     4  10  22  39  56  77 107 142 177 215 261 313
#     4  11  23  37  56  79 106 141 179 219 262 312
#     4   9  15  25  46  73 102 136 170 209 258 309
#     4  10  20  37  58  78 104 137 174 216 258 308
#     4  10  21  35  53  79 108 140 177 219 265 312
#     4   9  16  27  45  71 104 135 169 213 258 306
#
# _framework density 18.987002
#
# number of rings (size 3 to 8) (size 9 to 14) (size 15 to 20)
#    0.000    2.250    1.250    2.250    1.750    4.000 
#    0.000    0.000    0.000    0.750    0.000    5.250 
#    0.000    0.000    0.000    0.000    0.000    0.000 
#
# Total GULP energy -178450.337063 kJ/mol
# GULP energy per Si atom -5576.573033 kJ/mol
# Density = 1.894379 g / cm^3
# Si number density = 18.987002 Si / 1000 Ang^3
#
#
#
# Elastic Constant Matrix: (Units=GPa)
#
#
# Indices 1 2 3 4 5 6 
#
# 1 70.9073 10.9905 -10.1207 0.0000 -22.5624 0.0000
# 2 10.9905 16.9855 0.8295 0.0000 -8.4109 0.0000
# 3 -10.1207 0.8295 29.5196 0.0000 -15.8198 0.0000
# 4 0.0000 0.0000 0.0000 18.7649 0.0000 -0.7766
# 5 -22.5624 -8.4109 -15.8198 0.0000 25.0263 0.0000
# 6 0.0000 0.0000 0.0000 -0.7766 0.0000 31.8980
#
#
#
# Elastic Compliance Matrix: (Units=1/GPa)
#
#
# Indices 1 2 3 4 5 6 
#
# 1 0.050658 0.008481 0.065230 0.000000 0.089755 0.000000
# 2 0.008481 0.077598 0.028432 0.000000 0.051698 0.000000
# 3 0.065230 0.028432 0.139250 0.000000 0.156387 0.000000
# 4 0.000000 0.000000 0.000000 0.053345 0.000000 0.001299
# 5 0.089755 0.051698 0.156387 0.000000 0.237107 0.000000
# 6 0.000000 0.000000 0.000000 0.001299 0.000000 0.031382
#
#
# Mechanical properties :
#
#
# Convention : Reuss Voigt Hill
#
# Bulk Modulus (GPa) = 2.11958 13.42344 7.77151
# Shear Modulus (GPa) = 9.21970 22.85205 16.03587
#
# Velocity S-wave (km/s) = 2.20598 3.47300 2.90930
# Velocity P-wave (km/s) = 2.75812 4.81326 3.92267
#
# Compressibility (1/GPa) = 0.47179241
#
# Stress axis : x y z
#
# Youngs Moduli (GPa) = 19.74008 12.88699 7.18132
#
# Poissons Ratio (x) = -0.10929 -0.46844
# Poissons Ratio (y) = -0.16741 -0.20418
# Poissons Ratio (z) = -1.28765 -0.36641
#
# Static dielectric constant tensor:
#      x y z
#    x 1.701840 0.000000 -0.007710 
#    y 0.000000 1.633400 0.000000 
#    z -0.007710 0.000000 1.644090 
# 
# From -- ./inp_files/93796.got.cif
#   From: 2010.05.17/outbox.cif.g08.bks.cpg/sg10_47_cif.got.tgz:93796.got - 2010.06.03 11:33:40.
