data_PCOD9150859
_publ_section_title
;
Structure prediction by ZEFSAII (Michael W. Deem and Ramdas Pophale) SiO2 
 PCOD9150859
Probable space group: P 2/M
;
_chemical_formula_sum "Si O2"
_cell_formula_units_Z 24
_cell_length_a 7.279561
_cell_length_b 8.170622
_cell_length_c 26.373004
_cell_angle_alpha 90.000000
_cell_angle_beta 135.118179
_cell_angle_gamma 90.000000
_cell_volume 1106.897177
_symmetry_space_group_name_H-M "P 2/M"
_symmetry_group_IT_number 10
_symmetry_cell_setting 'monoclinic'
loop_
_space_group_symop_operation_xyz
x,y,z
-x,y,-z
-x,-y,-z
x,-y,z
loop_
_atom_site_type_symbol
_atom_site_label
_atom_site_fract_x
_atom_site_fract_y
_atom_site_fract_z
Si Si1 0.655105 0.301433 0.981423
Si Si2 0.461034 0.000000 0.591590
Si Si3 0.238844 0.687275 0.219474
Si Si4 0.000000 0.252947 0.500000
Si Si5 0.271144 0.303414 0.112701
Si Si6 0.810965 0.671442 0.355934
Si Si7 0.015434 0.000000 0.664713
Si Si8 0.084631 0.000000 0.242873
O O1 0.622558 0.500000 0.974674
O O2 0.594849 0.239376 0.912532
O O3 0.500000 0.238315 0.000000
O O4 0.961936 0.269731 0.048726
O O5 0.264838 0.850967 0.547502
O O6 0.299142 0.000000 0.399969
O O7 0.618059 0.000000 0.675712
O O8 0.125911 0.500000 0.193806
O O9 0.339216 0.742131 0.183294
O O10 0.500402 0.674297 0.303420
O O11 0.061503 0.831698 0.206985
O O12 0.959693 0.334470 0.438061
O O13 0.303497 0.500000 0.117149
O O14 0.864878 0.500000 0.337689
O O15 0.886772 0.835905 0.342241
O O16 0.078687 0.000000 0.737162
#
# Coordination Sequence:
#
# PCOD9150859 Si02
#       8
#     4   2   4   2   4   4   2   2
#     4   8  13  25  47  77 110 146 185 228 280 337
#     4   9  20  36  60  78 105 144 183 234 280 331
#     4  10  20  37  59  83 110 149 194 231 275 336
#     4  11  19  38  62  81 101 148 195 229 276 337
#     4   8  15  28  48  77 113 146 185 233 279 335
#     4  11  22  36  58  84 113 146 186 232 281 337
#     4  10  22  41  54  82 116 143 178 234 293 336
#     4  10  20  40  59  78 110 151 182 231 281 334
#
# _framework density 21.682230000000001
#
# number of rings (size 3 to 8) (size 9 to 14) (size 15 to 20)
#    0.500    2.000    1.667    2.750    0.000    2.000 
#    3.000    2.500    0.000    2.000    0.000    1.167 
#    0.000    0.000    0.000    0.000    0.000    0.000 
#
# Total GULP energy -133603.885305 kJ/mol
# GULP energy per Si atom -5566.828554 kJ/mol
# Density = 2.163288 g / cm^3
# Si number density = 21.682230 Si / 1000 Ang^3
#
#
#
# Elastic Constant Matrix: (Units=GPa)
#
#
# Indices 1 2 3 4 5 6 
#
# 1 82.9250 48.9247 7.6060 0.0000 -29.6963 0.0000
# 2 48.9247 139.5352 10.3771 0.0000 -25.3930 0.0000
# 3 7.6060 10.3771 81.2460 0.0000 -31.8697 0.0000
# 4 0.0000 0.0000 0.0000 27.5310 0.0000 -26.6246
# 5 -29.6963 -25.3930 -31.8697 0.0000 41.1976 0.0000
# 6 0.0000 0.0000 0.0000 -26.6246 0.0000 -36.3608
#
#
#
# Elastic Compliance Matrix: (Units=1/GPa)
#
#
# Indices 1 2 3 4 5 6 
#
# 1 0.019650 -0.004513 0.004596 0.000000 0.014938 0.000000
# 2 -0.004513 0.009209 0.000282 0.000000 0.002641 0.000000
# 3 0.004596 0.000282 0.018965 0.000000 0.018158 0.000000
# 4 0.000000 0.000000 0.000000 0.021265 0.000000 -0.015571
# 5 0.014938 0.002641 0.018158 0.000000 0.050716 0.000000
# 6 0.000000 0.000000 0.000000 -0.015571 0.000000 -0.016101
#
#
# Mechanical properties :
#
#
# Convention : Reuss Voigt Hill
#
# Bulk Modulus (GPa) = 20.59541 48.61354 34.60447
# Shear Modulus (GPa) = 41.96200 22.26013 32.11107
#
# Velocity S-wave (km/s) = 4.40400 3.20762 3.85253
# Velocity P-wave (km/s) = 5.94808 6.01565 5.98196
#
# Compressibility (1/GPa) = 0.04855450
#
# Stress axis : x y z
#
# Youngs Moduli (GPa) = 50.89174 108.59281 52.72987
#
# Poissons Ratio (x) = 0.49008 -0.24237
# Poissons Ratio (y) = 0.22968 -0.01489
# Poissons Ratio (z) = -0.23392 -0.03067
#
# Static dielectric constant tensor:
#      x y z
#    x 1.745700 0.000000 -0.015950 
#    y 0.000000 1.828150 0.000000 
#    z -0.015950 0.000000 1.840360 
# 
# From -- ./inp_files/87748.got.cif
#   From: 2010.05.17/outbox.cif.g08.bks.cpg/sg10_44_cif.got.tgz:87748.got - 2010.06.03 11:33:40.
