data_PCOD9150237
_publ_section_title
;
Structure prediction by ZEFSAII (Michael W. Deem and Ramdas Pophale) SiO2 
 PCOD9150237
Probable space group: P 2/M
;
_chemical_formula_sum "Si O2"
_cell_formula_units_Z 18
_cell_length_a 18.519827
_cell_length_b 8.135294
_cell_length_c 5.305157
_cell_angle_alpha 90.000000
_cell_angle_beta 90.058375
_cell_angle_gamma 90.000000
_cell_volume 799.297019
_symmetry_space_group_name_H-M "P 2/M"
_symmetry_group_IT_number 10
_symmetry_cell_setting 'monoclinic'
loop_
_space_group_symop_operation_xyz
x,y,z
-x,y,-z
-x,-y,-z
x,-y,z
loop_
_atom_site_type_symbol
_atom_site_label
_atom_site_fract_x
_atom_site_fract_y
_atom_site_fract_z
Si Si1 0.293064 0.698596 0.708354
Si Si2 0.541482 0.801306 0.249901
Si Si3 0.950669 0.000000 0.243615
Si Si4 0.212925 0.301982 0.204729
Si Si5 0.085453 0.318574 0.547523
O O1 0.289781 0.500000 0.703038
O O2 0.375653 0.748144 0.745121
O O3 0.260875 0.757571 0.441942
O O4 0.245130 0.760110 0.943353
O O5 0.500000 0.743597 0.500000
O O6 0.539754 0.000000 0.249231
O O7 0.500000 0.742979 0.000000
O O8 0.906233 0.832115 0.263378
O O9 0.000000 0.000000 0.500000
O O10 0.000000 0.000000 0.000000
O O11 0.219843 0.500000 0.192109
O O12 0.130699 0.275331 0.297548
O O13 0.110527 0.500000 0.637616
O O14 0.000000 0.332870 0.500000
#
# Coordination Sequence:
#
# PCOD9150237 Si02
#       5
#     4   4   2   4   4
#     4  10  20  36  56  81 113 144 181 231 279 333
#     4  10  21  37  56  80 111 143 180 226 271 330
#     4  10  22  38  56  84 116 144 192 250 292 348
#     4   9  19  35  55  81 113 145 184 233 281 333
#     4   9  19  38  62  86 117 160 202 247 302 350
#
# _framework density 22.519787000000001
#
# number of rings (size 3 to 8) (size 9 to 14) (size 15 to 20)
#    0.000    2.444    0.000    1.333    0.000    4.889 
#    4.000    6.667    0.000    0.000    0.000    0.000 
#    0.000    0.000    0.000    0.000    0.000    0.000 
#
# Total GULP energy -100540.526267 kJ/mol
# GULP energy per Si atom -5585.584793 kJ/mol
# Density = 2.246853 g / cm^3
# Si number density = 22.519787 Si / 1000 Ang^3
#
#
#
# Elastic Constant Matrix: (Units=GPa)
#
#
# Indices 1 2 3 4 5 6 
#
# 1 173.2048 -1.2399 70.7190 0.0000 -11.1908 0.0000
# 2 -1.2399 81.2909 30.1856 0.0000 -14.5728 0.0000
# 3 70.7190 30.1856 173.1896 0.0000 -16.0068 0.0000
# 4 0.0000 0.0000 0.0000 18.2271 0.0000 -33.1328
# 5 -11.1908 -14.5728 -16.0068 0.0000 42.6209 0.0000
# 6 0.0000 0.0000 0.0000 -33.1328 0.0000 49.2578
#
#
#
# Elastic Compliance Matrix: (Units=1/GPa)
#
#
# Indices 1 2 3 4 5 6 
#
# 1 0.007105 0.001457 -0.003042 0.000000 0.001221 0.000000
# 2 0.001457 0.014062 -0.002658 0.000000 0.004192 0.000000
# 3 -0.003042 -0.002658 0.007585 0.000000 0.001141 0.000000
# 4 0.000000 0.000000 0.000000 -0.246345 0.000000 -0.165701
# 5 0.001221 0.004192 0.001141 0.000000 0.025645 0.000000
# 6 0.000000 0.000000 0.000000 -0.165701 0.000000 -0.091156
#
#
# Mechanical properties :
#
#
# Convention : Reuss Voigt Hill
#
# Bulk Modulus (GPa) = 49.34619 69.66830 59.50725
# Shear Modulus (GPa) = -18.66642 43.88919 12.61138
#
# Velocity S-wave (km/s) = -2.88217 4.41944 2.36903
# Velocity P-wave (km/s) = 3.29910 7.55285 5.82794
#
# Compressibility (1/GPa) = 0.02026499
#
# Stress axis : x y z
#
# Youngs Moduli (GPa) = 140.74616 71.11154 131.83792
#
# Poissons Ratio (x) = -0.10361 0.40109
# Poissons Ratio (y) = -0.20506 0.35048
# Poissons Ratio (z) = 0.42819 0.18904
#
# Static dielectric constant tensor:
#      x y z
#    x 1.863200 0.000000 0.059250 
#    y 0.000000 1.914760 0.000000 
#    z 0.059250 0.000000 1.859140 
# 
# From -- ./inp_files/10375.got.cif
#   From: 2010.05.17/outbox.cif.g08.bks.cpg/sg10_6_cif.got.tgz:10375.got - 2010.06.03 11:33:40.
