data_PCOD9150759
_publ_section_title
;
Structure prediction by ZEFSAII (Michael W. Deem and Ramdas Pophale) SiO2 
 PCOD9150759
Probable space group: P 2/M
;
_chemical_formula_sum "Si O2"
_cell_formula_units_Z 22
_cell_length_a 5.758608
_cell_length_b 8.728323
_cell_length_c 21.193616
_cell_angle_alpha 90.000000
_cell_angle_beta 120.859779
_cell_angle_gamma 90.000000
_cell_volume 914.441321
_symmetry_space_group_name_H-M "P 2/M"
_symmetry_group_IT_number 10
_symmetry_cell_setting 'monoclinic'
loop_
_space_group_symop_operation_xyz
x,y,z
-x,y,-z
-x,-y,-z
x,-y,z
loop_
_atom_site_type_symbol
_atom_site_label
_atom_site_fract_x
_atom_site_fract_y
_atom_site_fract_z
Si Si1 0.857334 0.167784 0.611176
Si Si2 0.173165 0.500000 0.459927
Si Si3 0.799667 0.330925 0.159676
Si Si4 0.337774 0.335541 0.309949
Si Si5 0.175877 0.183807 0.962982
Si Si6 0.415088 0.164133 0.764197
O O1 0.892862 0.330244 0.579775
O O2 0.627826 0.207814 0.631820
O O3 0.125948 0.146170 0.690000
O O4 0.807579 0.000000 0.573117
O O5 0.500000 0.500000 0.500000
O O6 0.000000 0.500000 0.500000
O O7 0.683132 0.500000 0.132086
O O8 0.026052 0.346293 0.245382
O O9 0.932070 0.264691 0.115182
O O10 0.600599 0.209509 0.164746
O O11 0.429371 0.500000 0.346867
O O12 0.467471 0.297193 0.261783
O O13 0.155754 0.000000 0.956334
O O14 0.500000 0.221301 0.000000
O O15 0.000000 0.231457 0.000000
O O16 0.559966 0.000000 0.777323
#
# Coordination Sequence:
#
# PCOD9150759 Si02
#       6
#     4   2   4   4   4   4
#     4  10  23  43  67  99 135 177 230 279 335 402
#     4  12  30  50  74 104 140 190 228 276 334 384
#     4  10  22  38  57  91 125 162 217 273 336 402
#     4  10  20  36  64  96 132 171 212 278 346 400
#     4  10  23  42  62  85 121 173 222 271 330 395
#     4  10  21  36  63  96 128 169 214 277 341 398
#
# _framework density 24.058408
#
# number of rings (size 3 to 8) (size 9 to 14) (size 15 to 20)
#    0.000    1.818    0.909    1.636    7.636    3.636 
#    0.000    0.000    0.000    0.000    0.000    0.000 
#    0.000    0.000    0.000    0.000    0.000    0.000 
#
# Total GULP energy -122485.016640 kJ/mol
# GULP energy per Si atom -5567.500756 kJ/mol
# Density = 2.400365 g / cm^3
# Si number density = 24.058408 Si / 1000 Ang^3
#
#
#
# Elastic Constant Matrix: (Units=GPa)
#
#
# Indices 1 2 3 4 5 6 
#
# 1 77.5911 34.4345 39.7470 0.0000 -22.5689 0.0000
# 2 34.4345 163.2132 51.1827 0.0000 -21.7175 0.0000
# 3 39.7470 51.1827 75.8298 0.0000 -28.9948 0.0000
# 4 0.0000 0.0000 0.0000 32.9654 0.0000 -5.0380
# 5 -22.5689 -21.7175 -28.9948 0.0000 44.8102 0.0000
# 6 0.0000 0.0000 0.0000 -5.0380 0.0000 20.9538
#
#
#
# Elastic Compliance Matrix: (Units=1/GPa)
#
#
# Indices 1 2 3 4 5 6 
#
# 1 0.018265 -0.001014 -0.007387 0.000000 0.003928 0.000000
# 2 -0.001014 0.007837 -0.004652 0.000000 0.000277 0.000000
# 3 -0.007387 -0.004652 0.023804 0.000000 0.009427 0.000000
# 4 0.000000 0.000000 0.000000 0.031492 0.000000 0.007572
# 5 0.003928 0.000277 0.009427 0.000000 0.030529 0.000000
# 6 0.000000 0.000000 0.000000 0.007572 0.000000 0.049545
#
#
# Mechanical properties :
#
#
# Convention : Reuss Voigt Hill
#
# Bulk Modulus (GPa) = 42.01892 63.04026 52.52959
# Shear Modulus (GPa) = 25.57400 32.49721 29.03561
#
# Velocity S-wave (km/s) = 3.26390 3.67926 3.47779
# Velocity P-wave (km/s) = 5.63093 6.65651 6.16508
#
# Compressibility (1/GPa) = 0.02379880
#
# Stress axis : x y z
#
# Youngs Moduli (GPa) = 54.74990 127.60614 42.00944
#
# Poissons Ratio (x) = 0.12942 0.31034
# Poissons Ratio (y) = 0.05553 0.19542
# Poissons Ratio (z) = 0.40446 0.59360
#
# Static dielectric constant tensor:
#      x y z
#    x 2.019120 0.000000 0.092430 
#    y 0.000000 1.982210 0.000000 
#    z 0.092430 0.000000 1.965700 
# 
# From -- ./inp_files/13020.got.cif
#   From: 2010.05.17/outbox.cif.g08.bks.cpg/sg10_7_cif.got.tgz:13020.got - 2010.06.03 11:33:40.
