data_PCOD9150717
_publ_section_title
;
Structure prediction by ZEFSAII (Michael W. Deem and Ramdas Pophale) SiO2 
 PCOD9150717
Probable space group: P 2/M
;
_chemical_formula_sum "Si O2"
_cell_formula_units_Z 28
_cell_length_a 18.985828
_cell_length_b 9.755672
_cell_length_c 6.840282
_cell_angle_alpha 90.000000
_cell_angle_beta 74.028915
_cell_angle_gamma 90.000000
_cell_volume 1218.050130
_symmetry_space_group_name_H-M "P 2/M"
_symmetry_group_IT_number 10
_symmetry_cell_setting 'monoclinic'
loop_
_space_group_symop_operation_xyz
x,y,z
-x,y,-z
-x,-y,-z
x,-y,z
loop_
_atom_site_type_symbol
_atom_site_label
_atom_site_fract_x
_atom_site_fract_y
_atom_site_fract_z
Si Si1 0.254515 0.152021 0.913760
Si Si2 0.066833 0.161305 0.299130
Si Si3 0.114509 0.339576 0.939380
Si Si4 0.475076 0.335799 0.299139
Si Si5 0.166417 0.346281 0.470481
Si Si6 0.322420 0.724100 0.525368
Si Si7 0.365141 0.348182 0.924496
O O1 0.190317 0.261623 0.933340
O O2 0.293579 0.145842 0.669866
O O3 0.232079 0.000000 0.987655
O O4 0.137583 0.226543 0.353527
O O5 0.000000 0.177730 0.500000
O O6 0.926464 0.000000 0.749931
O O7 0.058075 0.252509 0.111326
O O8 0.112866 0.500000 0.992655
O O9 0.116636 0.334976 0.703684
O O10 0.500000 0.296765 0.500000
O O11 0.464451 0.500000 0.298692
O O12 0.394958 0.269551 0.338060
O O13 0.549517 0.311398 0.120479
O O14 0.155872 0.500000 0.396595
O O15 0.251121 0.333446 0.471149
O O16 0.311621 0.223956 0.016527
O O17 0.347754 0.640408 0.702170
O O18 0.351090 0.500000 0.018646
#
# Coordination Sequence:
#
# PCOD9150717 Si02
#       7
#     4   4   4   4   4   4   4
#     4   9  17  26  42  70 107 145 183 228 278 335
#     4  11  26  45  63  87 121 156 189 229 284 354
#     4  10  21  39  65  91 117 150 193 242 287 338
#     4   8  11  18  35  62  99 143 186 237 284 322
#     4  10  20  36  62  91 119 152 194 245 292 338
#     4   8  15  24  44  71 107 144 190 238 281 333
#     4   8  13  22  39  65 102 145 192 238 279 328
#
# _framework density 22.987558
#
# number of rings (size 3 to 8) (size 9 to 14) (size 15 to 20)
#    0.857    2.000    0.000    3.429    0.000    4.571 
#    0.000    4.286    0.000    0.000    0.000    1.000 
#    0.000    6.857    0.000    0.000    0.000    0.000 
#
# Total GULP energy -155970.418039 kJ/mol
# GULP energy per Si atom -5570.372073 kJ/mol
# Density = 2.293524 g / cm^3
# Si number density = 22.987558 Si / 1000 Ang^3
#
#
#
# Elastic Constant Matrix: (Units=GPa)
#
#
# Indices 1 2 3 4 5 6 
#
# 1 96.7217 26.4754 12.8835 0.0000 -1.3057 0.0000
# 2 26.4754 143.3812 37.3944 0.0000 -0.9864 0.0000
# 3 12.8835 37.3944 99.3553 0.0000 -12.0448 0.0000
# 4 0.0000 0.0000 0.0000 33.6068 0.0000 -3.1351
# 5 -1.3057 -0.9864 -12.0448 0.0000 41.5698 0.0000
# 6 0.0000 0.0000 0.0000 -3.1351 0.0000 6.5397
#
#
#
# Elastic Compliance Matrix: (Units=1/GPa)
#
#
# Indices 1 2 3 4 5 6 
#
# 1 0.010937 -0.001832 -0.000718 0.000000 0.000092 0.000000
# 2 -0.001832 0.008059 -0.002881 0.000000 -0.000701 0.000000
# 3 -0.000718 -0.002881 0.011640 0.000000 0.003282 0.000000
# 4 0.000000 0.000000 0.000000 0.031149 0.000000 0.014932
# 5 0.000092 -0.000701 0.003282 0.000000 0.024993 0.000000
# 6 0.000000 0.000000 0.000000 0.014932 0.000000 0.160071
#
#
# Mechanical properties :
#
#
# Convention : Reuss Voigt Hill
#
# Bulk Modulus (GPa) = 50.56597 54.77388 52.66992
# Shear Modulus (GPa) = 18.91780 33.85690 26.38735
#
# Velocity S-wave (km/s) = 2.87184 3.84192 3.39174
# Velocity P-wave (km/s) = 5.74817 6.59998 6.18875
#
# Compressibility (1/GPa) = 0.01977615
#
# Stress axis : x y z
#
# Youngs Moduli (GPa) = 91.43127 124.08300 85.91069
#
# Poissons Ratio (x) = 0.22729 0.06165
# Poissons Ratio (y) = 0.16748 0.24748
# Poissons Ratio (z) = 0.06561 0.35744
#
# Static dielectric constant tensor:
#      x y z
#    x 1.907990 0.000000 -0.015490 
#    y 0.000000 1.793360 0.000000 
#    z -0.015490 0.000000 2.020400 
# 
# From -- ./inp_files/35918.got.cif
#   From: 2010.05.17/outbox.cif.g08.bks.cpg/sg10_18_cif.got.tgz:35918.got - 2010.06.03 11:33:40.
