data_PCOD9150413
_publ_section_title
;
Structure prediction by ZEFSAII (Michael W. Deem and Ramdas Pophale) SiO2 
 PCOD9150413
Probable space group: P 2/M
;
_chemical_formula_sum "Si O2"
_cell_formula_units_Z 32
_cell_length_a 22.728227
_cell_length_b 8.918103
_cell_length_c 15.202481
_cell_angle_alpha 90.000000
_cell_angle_beta 148.099950
_cell_angle_gamma 90.000000
_cell_volume 1628.348790
_symmetry_space_group_name_H-M "P 2/M"
_symmetry_group_IT_number 10
_symmetry_cell_setting 'monoclinic'
loop_
_space_group_symop_operation_xyz
x,y,z
-x,y,-z
-x,-y,-z
x,-y,z
loop_
_atom_site_type_symbol
_atom_site_label
_atom_site_fract_x
_atom_site_fract_y
_atom_site_fract_z
Si Si1 0.131666 0.678701 0.176124
Si Si2 0.428590 0.823795 0.321795
Si Si3 0.093078 0.821799 0.768655
Si Si4 0.803013 0.677635 0.937156
Si Si5 0.861085 0.677797 0.468536
Si Si6 0.279966 0.322397 0.882557
Si Si7 0.239764 0.179743 0.485042
Si Si8 0.492386 0.178763 0.771630
O O1 0.147279 0.500000 0.210181
O O2 0.185072 0.719160 0.149958
O O3 0.184362 0.766025 0.324128
O O4 0.000000 0.706406 0.000000
O O5 0.500000 0.799303 0.500000
O O6 0.319686 0.722168 0.186797
O O7 0.497142 0.794368 0.320045
O O8 0.394641 0.000000 0.276825
O O9 0.196567 0.759961 0.843823
O O10 0.977246 0.753378 0.588634
O O11 0.090759 0.000000 0.762207
O O12 0.111824 0.764808 0.892124
O O13 0.822751 0.500000 0.970601
O O14 0.878526 0.500000 0.499294
O O15 0.768974 0.704065 0.276652
O O16 0.821014 0.746308 0.509476
O O17 0.276415 0.500000 0.896092
O O18 0.404394 0.261837 0.052575
O O19 0.370318 0.223398 0.649198
O O20 0.232795 0.000000 0.482293
O O21 0.505154 0.000000 0.801575
#
# Coordination Sequence:
#
# PCOD9150413 Si02
#       8
#     4   4   4   4   4   4   4   4
#     4  10  22  40  61  87 124 169 211 257 312 370
#     4  10  20  36  58  85 120 163 206 252 308 365
#     4  12  24  40  65  96 129 163 205 261 321 378
#     4  11  22  36  59  91 124 162 208 254 307 371
#     4  11  25  44  65  91 125 165 210 261 318 377
#     4  11  24  42  66  94 125 165 210 259 316 379
#     4  11  24  42  65  94 126 166 215 262 313 372
#     4  10  22  40  62  90 127 168 208 259 313 369
#
# _framework density 19.651807999999999
#
# number of rings (size 3 to 8) (size 9 to 14) (size 15 to 20)
#    0.000    1.250    1.250    4.500    0.000    8.500 
#    0.000    2.500    0.000    0.000    0.000    0.000 
#    0.000    0.000    0.000    0.000    0.000    0.000 
#
# Total GULP energy -179010.891975 kJ/mol
# GULP energy per Si atom -5594.090374 kJ/mol
# Density = 1.960708 g / cm^3
# Si number density = 19.651808 Si / 1000 Ang^3
#
#
#
# Elastic Constant Matrix: (Units=GPa)
#
#
# Indices 1 2 3 4 5 6 
#
# 1 73.2295 32.3451 24.3139 0.0000 2.7688 0.0000
# 2 32.3451 68.1958 53.0911 0.0000 -5.8959 0.0000
# 3 24.3139 53.0911 104.3438 0.0000 -0.6931 0.0000
# 4 0.0000 0.0000 0.0000 44.6008 0.0000 -36.9870
# 5 2.7688 -5.8959 -0.6931 0.0000 29.5533 0.0000
# 6 0.0000 0.0000 0.0000 -36.9870 0.0000 210.8886
#
#
#
# Elastic Compliance Matrix: (Units=1/GPa)
#
#
# Indices 1 2 3 4 5 6 
#
# 1 0.017612 -0.009004 0.000455 0.000000 -0.003436 0.000000
# 2 -0.009004 0.029515 -0.012877 0.000000 0.006430 0.000000
# 3 0.000455 -0.012877 0.016015 0.000000 -0.002236 0.000000
# 4 0.000000 0.000000 0.000000 0.026237 0.000000 0.004602
# 5 -0.003436 0.006430 -0.002236 0.000000 0.035389 0.000000
# 6 0.000000 0.000000 0.000000 0.004602 0.000000 0.005549
#
#
# Mechanical properties :
#
#
# Convention : Reuss Voigt Hill
#
# Bulk Modulus (GPa) = 49.28770 51.69660 50.49215
# Shear Modulus (GPa) = 27.78833 66.07648 46.93240
#
# Velocity S-wave (km/s) = 3.76444 5.80488 4.89222
# Velocity P-wave (km/s) = 6.63548 8.44347 7.59348
#
# Compressibility (1/GPa) = 0.02028904
#
# Stress axis : x y z
#
# Youngs Moduli (GPa) = 56.78018 33.88133 62.44315
#
# Poissons Ratio (x) = 0.30508 -0.02840
# Poissons Ratio (y) = 0.51127 0.80405
# Poissons Ratio (z) = -0.02582 0.43627
#
# Static dielectric constant tensor:
#      x y z
#    x 1.677720 0.000000 -0.004510 
#    y 0.000000 1.657570 0.000000 
#    z -0.004510 0.000000 1.679400 
# 
# From -- ./inp_files/71622.got.cif
#   From: 2010.05.17/outbox.cif.g08.bks.cpg/sg10_36_cif.got.tgz:71622.got - 2010.06.03 11:33:40.
