data_PCOD9150939
_publ_section_title
;
Structure prediction by ZEFSAII (Michael W. Deem and Ramdas Pophale) SiO2 
 PCOD9150939
Probable space group: P 2/M
;
_chemical_formula_sum "Si O2"
_cell_formula_units_Z 26
_cell_length_a 5.381837
_cell_length_b 7.364441
_cell_length_c 32.491182
_cell_angle_alpha 90.000000
_cell_angle_beta 59.911166
_cell_angle_gamma 90.000000
_cell_volume 1114.235560
_symmetry_space_group_name_H-M "P 2/M"
_symmetry_group_IT_number 10
_symmetry_cell_setting 'monoclinic'
loop_
_space_group_symop_operation_xyz
x,y,z
-x,y,-z
-x,-y,-z
x,-y,z
loop_
_atom_site_type_symbol
_atom_site_label
_atom_site_fract_x
_atom_site_fract_y
_atom_site_fract_z
Si Si1 0.825836 0.790952 0.724426
Si Si2 0.137335 0.779202 0.186295
Si Si3 0.669405 0.779180 0.526332
Si Si4 0.823917 0.716826 0.975545
Si Si5 0.434600 0.500000 0.306457
Si Si6 0.436916 0.211836 0.634574
Si Si7 0.208633 0.783262 0.863887
O O1 0.936937 0.731957 0.760347
O O2 0.589220 0.658216 0.727197
O O3 0.096698 0.775380 0.671472
O O4 0.729448 0.000000 0.734783
O O5 0.468648 0.718315 0.153829
O O6 0.936824 0.713692 0.166031
O O7 0.129507 0.000000 0.185088
O O8 0.500000 0.716219 0.500000
O O9 0.515385 0.732349 0.581866
O O10 0.000000 0.719511 0.500000
O O11 0.671773 0.000000 0.524416
O O12 0.801285 0.500000 0.982956
O O13 0.998972 0.748687 0.919364
O O14 0.500000 0.788652 0.000000
O O15 0.000000 0.788686 0.000000
O O16 0.428096 0.341949 0.342992
O O17 0.521600 0.000000 0.633479
O O18 0.235714 0.000000 0.857004
#
# Coordination Sequence:
#
# PCOD9150939 Si02
#       7
#     4   4   4   4   2   4   4
#     4  10  23  43  66  90 128 176 214 266 332 392
#     4   9  20  38  60  86 120 157 199 252 315 374
#     4   9  19  37  64  95 126 167 219 269 325 395
#     4  10  21  37  56  80 116 156 195 240 298 363
#     4  12  24  40  64  99 130 162 224 279 312 400
#     4  10  23  42  67  94 129 174 217 270 333 389
#     4  10  20  37  60  87 117 151 198 256 307 364
#
# _framework density 23.334381
#
# number of rings (size 3 to 8) (size 9 to 14) (size 15 to 20)
#    0.000    2.154    0.000    1.846    4.308    0.615 
#    2.769    0.769    0.000    0.000    0.000    0.000 
#    0.000    0.000    0.000    0.000    0.000    0.000 
#
# Total GULP energy -144935.048224 kJ/mol
# GULP energy per Si atom -5574.424932 kJ/mol
# Density = 2.328127 g / cm^3
# Si number density = 23.334381 Si / 1000 Ang^3
#
#
#
# Elastic Constant Matrix: (Units=GPa)
#
#
# Indices 1 2 3 4 5 6 
#
# 1 135.9479 34.5962 82.7289 0.0000 28.3090 0.0000
# 2 34.5962 99.8105 13.0301 0.0000 11.4423 0.0000
# 3 82.7289 13.0301 125.8897 0.0000 1.5172 0.0000
# 4 0.0000 0.0000 0.0000 8.3159 0.0000 41.2396
# 5 28.3090 11.4423 1.5172 0.0000 43.3307 0.0000
# 6 0.0000 0.0000 0.0000 41.2396 0.0000 -20.3734
#
#
#
# Elastic Compliance Matrix: (Units=1/GPa)
#
#
# Indices 1 2 3 4 5 6 
#
# 1 0.016498 -0.003267 -0.010388 0.000000 -0.009552 0.000000
# 2 -0.003267 0.011116 0.001007 0.000000 -0.000836 0.000000
# 3 -0.010388 0.001007 0.014594 0.000000 0.006010 0.000000
# 4 0.000000 0.000000 0.000000 0.010894 0.000000 0.022052
# 5 -0.009552 -0.000836 0.006010 0.000000 0.029329 0.000000
# 6 0.000000 0.000000 0.000000 0.022052 0.000000 -0.004447
#
#
# Mechanical properties :
#
#
# Convention : Reuss Voigt Hill
#
# Bulk Modulus (GPa) = 59.13869 69.15093 64.14481
# Shear Modulus (GPa) = 45.90578 21.67415 33.78997
#
# Velocity S-wave (km/s) = 4.44024 3.05101 3.80949
# Velocity P-wave (km/s) = 7.18934 6.48927 6.84826
#
# Compressibility (1/GPa) = 0.01690941
#
# Stress axis : x y z
#
# Youngs Moduli (GPa) = 60.61354 89.96113 68.52307
#
# Poissons Ratio (x) = 0.29393 0.71185
# Poissons Ratio (y) = 0.19804 -0.06898
# Poissons Ratio (z) = 0.62968 -0.09056
#
# Static dielectric constant tensor:
#      x y z
#    x 1.908700 0.000000 -0.022980 
#    y 0.000000 1.871570 0.000000 
#    z -0.022980 0.000000 1.830100 
# 
# From -- ./inp_files/94272.got.cif
#   From: 2010.05.17/outbox.cif.g08.bks.cpg/sg10_48_cif.got.tgz:94272.got - 2010.06.03 11:33:40.
