data_PCOD9150482
_publ_section_title
;
Structure prediction by ZEFSAII (Michael W. Deem and Ramdas Pophale) SiO2 
 PCOD9150482
Probable space group: P 2/M
;
_chemical_formula_sum "Si O2"
_cell_formula_units_Z 32
_cell_length_a 17.238025
_cell_length_b 15.415483
_cell_length_c 6.844108
_cell_angle_alpha 90.000000
_cell_angle_beta 77.789959
_cell_angle_gamma 90.000000
_cell_volume 1777.560666
_symmetry_space_group_name_H-M "P 2/M"
_symmetry_group_IT_number 10
_symmetry_cell_setting 'monoclinic'
loop_
_space_group_symop_operation_xyz
x,y,z
-x,y,-z
-x,-y,-z
x,-y,z
loop_
_atom_site_type_symbol
_atom_site_label
_atom_site_fract_x
_atom_site_fract_y
_atom_site_fract_z
Si Si1 0.587580 0.748180 0.021575
Si Si2 0.087580 0.751820 0.021574
Si Si3 0.642272 0.599014 0.256817
Si Si4 0.699003 0.673297 0.624009
Si Si5 0.800997 0.826703 0.375992
Si Si6 0.200420 0.597876 0.091567
Si Si7 0.857727 0.900986 0.743185
Si Si8 0.299580 0.902124 0.908431
O O1 0.636990 0.713843 0.809317
O O2 0.500000 0.771559 0.000000
O O3 0.588020 0.670017 0.178862
O O4 0.635545 0.828990 0.085240
O O5 0.135545 0.671010 0.085239
O O6 0.088020 0.829983 0.178861
O O7 0.136990 0.786157 0.809315
O O8 0.000000 0.728441 0.000000
O O9 0.615050 0.500000 0.244264
O O10 0.655655 0.621466 0.475396
O O11 0.728395 0.607321 0.104567
O O12 0.750000 0.750000 0.500001
O O13 0.758061 0.614925 0.722179
O O14 0.844345 0.878534 0.524606
O O15 0.741939 0.885074 0.277823
O O16 0.169401 0.500000 0.096161
O O17 0.884950 0.000000 0.755738
O O18 0.771605 0.892679 0.895434
O O19 0.330599 0.000000 0.903837
#
# Coordination Sequence:
#
# PCOD9150482 Si02
#       8
#     4   4   4   4   4   4   4   4
#     4  11  23  37  55  84 120 149 177 225 284 334
#     4  11  23  37  55  84 120 149 177 225 284 334
#     4  10  20  37  61  84 108 145 191 232 272 325
#     4  11  18  37  62  81 105 146 192 229 269 320
#     4  11  18  37  62  81 105 146 192 229 269 320
#     4  10  20  36  59  85 111 145 188 230 272 327
#     4  10  20  37  61  84 108 145 191 232 272 325
#     4  10  20  36  59  85 111 145 188 230 272 327
#
# _framework density 18.002198
#
# number of rings (size 3 to 8) (size 9 to 14) (size 15 to 20)
#    0.000    1.500    5.000    2.250    0.000    3.000 
#    0.000    1.250    0.000    1.500    0.000    0.000 
#    0.000    0.000    0.000    0.000    0.000    0.000 
#
# Total GULP energy -178703.068455 kJ/mol
# GULP energy per Si atom -5584.470889 kJ/mol
# Density = 1.796122 g / cm^3
# Si number density = 18.002198 Si / 1000 Ang^3
#
#
#
# Elastic Constant Matrix: (Units=GPa)
#
#
# Indices 1 2 3 4 5 6 
#
# 1 34.4968 -1.9610 11.4454 0.0000 9.2546 0.0000
# 2 -1.9610 72.6157 22.4832 0.0000 1.2075 0.0000
# 3 11.4454 22.4832 103.9319 0.0000 18.5130 0.0000
# 4 0.0000 0.0000 0.0000 25.1898 0.0000 0.7826
# 5 9.2546 1.2075 18.5130 0.0000 12.6709 0.0000
# 6 0.0000 0.0000 0.0000 0.7826 0.0000 0.5745
#
#
#
# Elastic Compliance Matrix: (Units=1/GPa)
#
#
# Indices 1 2 3 4 5 6 
#
# 1 0.036227 0.001236 0.000645 0.000000 -0.027520 0.000000
# 2 0.001236 0.014986 -0.004005 0.000000 0.003521 0.000000
# 3 0.000645 -0.004005 0.014104 0.000000 -0.020696 0.000000
# 4 0.000000 0.000000 0.000000 0.041453 0.000000 -0.056463
# 5 -0.027520 0.003521 -0.020696 0.000000 0.128924 0.000000
# 6 0.000000 0.000000 0.000000 -0.056463 0.000000 1.817437
#
#
# Mechanical properties :
#
#
# Convention : Reuss Voigt Hill
#
# Bulk Modulus (GPa) = 16.37478 30.55328 23.46403
# Shear Modulus (GPa) = 2.40647 19.62550 11.01599
#
# Velocity S-wave (km/s) = 1.15744 3.30536 2.47639
# Velocity P-wave (km/s) = 3.30181 5.61925 4.60858
#
# Compressibility (1/GPa) = 0.06106953
#
# Stress axis : x y z
#
# Youngs Moduli (GPa) = 27.60338 66.72880 70.90429
#
# Poissons Ratio (x) = -0.08249 -0.04575
# Poissons Ratio (y) = -0.03412 0.28398
# Poissons Ratio (z) = -0.01781 0.26726
#
# Static dielectric constant tensor:
#      x y z
#    x 1.583170 0.000000 0.001550 
#    y 0.000000 1.621070 0.000000 
#    z 0.001550 0.000000 1.616120 
# 
# From -- ./inp_files/11427.got.cif
#   From: 2010.05.17/outbox.cif.g08.bks.cpg/sg10_6_cif.got.tgz:11427.got - 2010.06.03 11:33:40.
