data_PCOD9150057
_publ_section_title
;
Structure prediction by ZEFSAII (Michael W. Deem and Ramdas Pophale) SiO2 
 PCOD9150057
Probable space group: P 2/M
;
_chemical_formula_sum "Si O2"
_cell_formula_units_Z 28
_cell_length_a 15.221074
_cell_length_b 9.312958
_cell_length_c 11.926316
_cell_angle_alpha 90.000000
_cell_angle_beta 117.726612
_cell_angle_gamma 90.000000
_cell_volume 1496.475745
_symmetry_space_group_name_H-M "P 2/M"
_symmetry_group_IT_number 10
_symmetry_cell_setting 'monoclinic'
loop_
_space_group_symop_operation_xyz
x,y,z
-x,y,-z
-x,-y,-z
x,-y,z
loop_
_atom_site_type_symbol
_atom_site_label
_atom_site_fract_x
_atom_site_fract_y
_atom_site_fract_z
Si Si1 0.817454 0.327162 0.641817
Si Si2 0.327473 0.669331 0.631427
Si Si3 0.190950 0.666649 0.761686
Si Si4 0.719972 0.165111 0.997703
Si Si5 0.503192 0.831915 0.133645
Si Si6 0.114954 0.170171 0.094960
Si Si7 0.005398 0.836652 0.369046
O O1 0.821992 0.500000 0.648200
O O2 0.715997 0.286269 0.515616
O O3 0.837945 0.259314 0.775126
O O4 0.906520 0.262628 0.620776
O O5 0.350377 0.500000 0.640556
O O6 0.237019 0.687325 0.666256
O O7 0.419354 0.750766 0.741478
O O8 0.165213 0.500000 0.759836
O O9 0.097263 0.766646 0.728989
O O10 0.270752 0.720095 0.898251
O O11 0.608642 0.179479 0.884963
O O12 0.809616 0.187357 0.964244
O O13 0.727429 0.000000 0.045207
O O14 0.531587 0.000000 0.147592
O O15 0.500000 0.784896 0.000000
O O16 0.112800 0.000000 0.121490
O O17 0.000000 0.211991 0.000000
O O18 0.000000 0.839701 0.500000
O O19 0.016624 0.000000 0.334158
#
# Coordination Sequence:
#
# PCOD9150057 Si02
#       7
#     4   4   4   4   4   4   4
#     4  11  23  40  60  84 119 156 197 246 296 351
#     4  10  22  37  55  84 120 155 189 239 298 351
#     4  11  21  34  55  84 119 154 190 236 295 354
#     4  10  21  38  59  86 119 152 196 249 297 348
#     4  10  20  35  58  87 118 155 197 243 294 352
#     4  10  22  41  63  86 116 154 198 246 295 351
#     4  11  22  34  53  82 115 152 192 233 287 353
#
# _framework density 18.710629000000001
#
# number of rings (size 3 to 8) (size 9 to 14) (size 15 to 20)
#    0.000    1.571    2.857    2.143    0.000    5.143 
#    0.000    0.714    0.000    4.286    0.000    0.000 
#    0.000    0.000    0.000    0.000    0.000    0.000 
#
# Total GULP energy -156225.683554 kJ/mol
# GULP energy per Si atom -5579.488698 kJ/mol
# Density = 1.866804 g / cm^3
# Si number density = 18.710629 Si / 1000 Ang^3
#
#
#
# Elastic Constant Matrix: (Units=GPa)
#
#
# Indices 1 2 3 4 5 6 
#
# 1 67.3069 24.8904 30.9701 0.0000 14.4611 0.0000
# 2 24.8904 54.2170 62.2952 0.0000 6.0291 0.0000
# 3 30.9701 62.2952 128.6898 0.0000 19.0988 0.0000
# 4 0.0000 0.0000 0.0000 33.4893 0.0000 2.9713
# 5 14.4611 6.0291 19.0988 0.0000 32.5120 0.0000
# 6 0.0000 0.0000 0.0000 2.9713 0.0000 21.6057
#
#
#
# Elastic Compliance Matrix: (Units=1/GPa)
#
#
# Indices 1 2 3 4 5 6 
#
# 1 0.019417 -0.008981 0.000777 0.000000 -0.007427 0.000000
# 2 -0.008981 0.046324 -0.021451 0.000000 0.008005 0.000000
# 3 0.000777 -0.021451 0.019093 0.000000 -0.007584 0.000000
# 4 0.000000 0.000000 0.000000 0.030229 0.000000 -0.004157
# 5 -0.007427 0.008005 -0.007584 0.000000 0.037032 0.000000
# 6 0.000000 0.000000 0.000000 -0.004157 0.000000 0.046856
#
#
# Mechanical properties :
#
#
# Convention : Reuss Voigt Hill
#
# Bulk Modulus (GPa) = 39.17837 54.05834 46.61835
# Shear Modulus (GPa) = 18.74278 26.32525 22.53402
#
# Velocity S-wave (km/s) = 3.16843 3.75503 3.47413
# Velocity P-wave (km/s) = 5.86258 6.91048 6.40799
#
# Compressibility (1/GPa) = 0.02552429
#
# Stress axis : x y z
#
# Youngs Moduli (GPa) = 51.50194 21.58687 52.37485
#
# Poissons Ratio (x) = 0.19386 -0.04068
# Poissons Ratio (y) = 0.46251 1.12351
# Poissons Ratio (z) = -0.04000 0.46307
#
# Static dielectric constant tensor:
#      x y z
#    x 1.655750 0.000000 -0.003060 
#    y 0.000000 1.628270 0.000000 
#    z -0.003060 0.000000 1.680920 
# 
# From -- ./inp_files/49585.got.cif
#   From: 2010.05.17/outbox.cif.g08.bks.cpg/sg10_25_cif.got.tgz:49585.got - 2010.06.03 11:33:40.
