data_PCOD9150965
_publ_section_title
;
Structure prediction by ZEFSAII (Michael W. Deem and Ramdas Pophale) SiO2 
 PCOD9150965
Probable space group: P 2/M
;
_chemical_formula_sum "Si O2"
_cell_formula_units_Z 24
_cell_length_a 9.233853
_cell_length_b 19.895080
_cell_length_c 9.233856
_cell_angle_alpha 90.000000
_cell_angle_beta 130.645727
_cell_angle_gamma 90.000000
_cell_volume 1287.097409
_symmetry_space_group_name_H-M "P 2/M"
_symmetry_group_IT_number 10
_symmetry_cell_setting 'monoclinic'
loop_
_space_group_symop_operation_xyz
x,y,z
-x,y,-z
-x,-y,-z
x,-y,z
loop_
_atom_site_type_symbol
_atom_site_label
_atom_site_fract_x
_atom_site_fract_y
_atom_site_fract_z
Si Si1 0.639296 0.923926 0.952012
Si Si2 0.047988 0.923926 0.360704
Si Si3 0.704484 0.575935 0.898748
Si Si4 0.402221 0.325065 0.597779
Si Si5 0.594260 0.827555 0.405740
Si Si6 0.898748 0.575935 0.704484
O O1 0.550392 0.869467 0.788163
O O2 0.635859 0.000000 0.887493
O O3 0.500000 0.924864 0.000000
O O4 0.854090 0.909855 0.145910
O O5 0.000000 0.924864 0.500000
O O6 0.211837 0.869467 0.449608
O O7 0.112507 0.000000 0.364141
O O8 0.629390 0.500000 0.872000
O O9 0.544535 0.632543 0.791541
O O10 0.800107 0.576142 0.800107
O O11 0.877981 0.588034 0.122019
O O12 0.500000 0.324395 0.500000
O O13 0.373214 0.248488 0.626786
O O14 0.208459 0.367457 0.455465
O O15 0.500000 0.821972 0.500000
O O16 0.872000 0.500000 0.629390
#
# Coordination Sequence:
#
# PCOD9150965 Si02
#       6
#     4   4   4   4   4   4
#     4  10  20  37  61  81 100 137 184 223 264 319
#     4  10  20  37  61  81 100 137 184 223 264 319
#     4   8  13  22  38  59  86 128 178 215 245 296
#     4   9  17  27  39  61 101 142 165 199 264 320
#     4  11  23  35  51  83 120 145 171 219 277 327
#     4   8  13  22  38  59  86 128 178 215 245 296
#
# _framework density 18.646606999999999
#
# number of rings (size 3 to 8) (size 9 to 14) (size 15 to 20)
#    0.000    2.667    1.667    2.000    0.000    5.333 
#    0.000    5.000    0.000    0.000    0.000    0.000 
#    0.000    5.333    0.000    0.000    0.000    0.000 
#
# Total GULP energy -133813.736183 kJ/mol
# GULP energy per Si atom -5575.572341 kJ/mol
# Density = 1.860417 g / cm^3
# Si number density = 18.646607 Si / 1000 Ang^3
#
#
#
# Elastic Constant Matrix: (Units=GPa)
#
#
# Indices 1 2 3 4 5 6 
#
# 1 23.2060 41.6286 19.9063 0.0000 20.3311 0.0000
# 2 41.6286 203.7839 116.1495 0.0000 44.4053 0.0000
# 3 19.9063 116.1495 119.4273 0.0000 37.0049 0.0000
# 4 0.0000 0.0000 0.0000 5.4800 0.0000 33.8742
# 5 20.3311 44.4053 37.0049 0.0000 28.6452 0.0000
# 6 0.0000 0.0000 0.0000 33.8742 0.0000 -51.3659
#
#
#
# Elastic Compliance Matrix: (Units=1/GPa)
#
#
# Indices 1 2 3 4 5 6 
#
# 1 0.181794 -0.032145 0.042521 0.000000 -0.134129 0.000000
# 2 -0.032145 0.017218 -0.016985 0.000000 0.018066 0.000000
# 3 0.042521 -0.016985 0.031678 0.000000 -0.044771 0.000000
# 4 0.000000 0.000000 0.000000 0.035947 0.000000 0.023706
# 5 -0.134129 0.018066 -0.044771 0.000000 0.159940 0.000000
# 6 0.000000 0.000000 0.000000 0.023706 0.000000 -0.003835
#
#
# Mechanical properties :
#
#
# Convention : Reuss Voigt Hill
#
# Bulk Modulus (GPa) = 4.59831 77.97621 41.28726
# Shear Modulus (GPa) = 9.83383 7.80072 8.81727
#
# Velocity S-wave (km/s) = 2.29896 2.04757 2.17690
# Velocity P-wave (km/s) = 3.08518 6.89193 5.33934
#
# Compressibility (1/GPa) = 0.21747128
#
# Stress axis : x y z
#
# Youngs Moduli (GPa) = 5.50074 58.07887 31.56812
#
# Poissons Ratio (x) = 1.86693 -1.34232
# Poissons Ratio (y) = 0.17682 0.53620
# Poissons Ratio (z) = -0.23390 0.98649
#
# Static dielectric constant tensor:
#      x y z
#    x 1.649310 0.000000 -0.009160 
#    y 0.000000 1.647000 0.000000 
#    z -0.009160 0.000000 1.633940 
# 
# From -- ./inp_files/20277.got.cif
#   From: 2010.05.17/outbox.cif.g08.bks.cpg/sg10_11_cif.got.tgz:20277.got - 2010.06.03 11:33:40.
