data_PCOD9150190
_publ_section_title
;
Structure prediction by ZEFSAII (Michael W. Deem and Ramdas Pophale) SiO2 
 PCOD9150190
Probable space group: P 2/M
;
_chemical_formula_sum "Si O2"
_cell_formula_units_Z 28
_cell_length_a 18.778276
_cell_length_b 14.805028
_cell_length_c 9.610435
_cell_angle_alpha 90.000000
_cell_angle_beta 142.796065
_cell_angle_gamma 90.000000
_cell_volume 1615.529141
_symmetry_space_group_name_H-M "P 2/M"
_symmetry_group_IT_number 10
_symmetry_cell_setting 'monoclinic'
loop_
_space_group_symop_operation_xyz
x,y,z
-x,y,-z
-x,-y,-z
x,-y,z
loop_
_atom_site_type_symbol
_atom_site_label
_atom_site_fract_x
_atom_site_fract_y
_atom_site_fract_z
Si Si1 0.395024 0.712174 0.640899
Si Si2 0.305492 0.100376 0.162639
Si Si3 0.263291 0.604914 0.665201
Si Si4 0.999243 0.606625 0.832052
Si Si5 0.479517 0.100423 0.702573
Si Si6 0.614195 0.394586 0.852420
Si Si7 0.229992 0.712129 0.123692
O O1 0.352676 0.664533 0.714741
O O2 0.443235 0.813549 0.735632
O O3 0.496043 0.654589 0.720501
O O4 0.284065 0.715290 0.363015
O O5 0.392067 0.101827 0.432207
O O6 0.391103 0.112074 0.163099
O O7 0.223191 0.186398 0.053578
O O8 0.251955 0.000000 0.073303
O O9 0.276203 0.500000 0.639785
O O10 0.128923 0.631596 0.426022
O O11 0.296953 0.609682 0.878528
O O12 0.018100 0.500000 0.834127
O O13 0.105820 0.662372 0.933011
O O14 0.000000 0.619130 0.000000
O O15 0.470918 0.000000 0.751945
O O16 0.592460 0.500000 0.786105
O O17 0.675071 0.342304 0.820879
#
# Coordination Sequence:
#
# PCOD9150190 Si02
#       7
#     4   4   4   4   4   4   4
#     4  11  19  32  54  78 107 136 169 210 256 313
#     4   8  14  27  47  75 107 131 160 206 261 310
#     4  10  22  38  52  69 103 150 179 199 251 315
#     4  10  20  36  55  74  99 136 180 216 248 297
#     4   8  14  26  47  75 105 133 164 205 253 307
#     4  11  23  34  48  77 109 136 169 213 262 307
#     4  11  20  32  55  82 102 129 176 223 254 288
#
# _framework density 17.331782
#
# number of rings (size 3 to 8) (size 9 to 14) (size 15 to 20)
#    0.000    2.143    2.857    2.571    0.000    4.000 
#    0.000    2.143    0.000    3.857    0.000    1.000 
#    0.000    0.000    0.000    0.000    0.000    0.000 
#
# Total GULP energy -156219.717551 kJ/mol
# GULP energy per Si atom -5579.275627 kJ/mol
# Density = 1.729233 g / cm^3
# Si number density = 17.331782 Si / 1000 Ang^3
#
#
#
# Elastic Constant Matrix: (Units=GPa)
#
#
# Indices 1 2 3 4 5 6 
#
# 1 41.1948 28.1881 9.3324 0.0000 11.2034 0.0000
# 2 28.1881 100.4535 14.3543 0.0000 12.9990 0.0000
# 3 9.3324 14.3543 52.1285 0.0000 9.0312 0.0000
# 4 0.0000 0.0000 0.0000 8.7784 0.0000 2.5314
# 5 11.2034 12.9990 9.0312 0.0000 24.6733 0.0000
# 6 0.0000 0.0000 0.0000 2.5314 0.0000 22.6246
#
#
#
# Elastic Compliance Matrix: (Units=1/GPa)
#
#
# Indices 1 2 3 4 5 6 
#
# 1 0.032658 -0.007569 -0.002012 0.000000 -0.010105 0.000000
# 2 -0.007569 0.012657 -0.001677 0.000000 -0.002618 0.000000
# 3 -0.002012 -0.001677 0.021027 0.000000 -0.005900 0.000000
# 4 0.000000 0.000000 0.000000 0.117714 0.000000 -0.013171
# 5 -0.010105 -0.002618 -0.005900 0.000000 0.048657 0.000000
# 6 0.000000 0.000000 0.000000 -0.013171 0.000000 0.045673
#
#
# Mechanical properties :
#
#
# Convention : Reuss Voigt Hill
#
# Bulk Modulus (GPa) = 22.81674 33.05849 27.93762
# Shear Modulus (GPa) = 15.84733 20.67540 18.26137
#
# Velocity S-wave (km/s) = 3.02710 3.45761 3.24950
# Velocity P-wave (km/s) = 5.04094 5.92076 5.49848
#
# Compressibility (1/GPa) = 0.04382746
#
# Stress axis : x y z
#
# Youngs Moduli (GPa) = 30.62037 79.00685 47.55704
#
# Poissons Ratio (x) = 0.59801 0.09567
# Poissons Ratio (y) = 0.23177 0.07974
# Poissons Ratio (z) = 0.06160 0.13247
#
# Static dielectric constant tensor:
#      x y z
#    x 1.556400 0.000000 -0.013740 
#    y 0.000000 1.607190 0.000000 
#    z -0.013740 0.000000 1.586800 
# 
# From -- ./inp_files/25026.got.cif
#   From: 2010.05.17/outbox.cif.g08.bks.cpg/sg10_13_cif.got.tgz:25026.got - 2010.06.03 11:33:40.
