data_PCOD9150901
_publ_section_title
;
Structure prediction by ZEFSAII (Michael W. Deem and Ramdas Pophale) SiO2 
 PCOD9150901
Probable space group: P 2/M
;
_chemical_formula_sum "Si O2"
_cell_formula_units_Z 26
_cell_length_a 11.658459
_cell_length_b 15.111135
_cell_length_c 8.653297
_cell_angle_alpha 90.000000
_cell_angle_beta 92.121276
_cell_angle_gamma 90.000000
_cell_volume 1523.428685
_symmetry_space_group_name_H-M "P 2/M"
_symmetry_group_IT_number 10
_symmetry_cell_setting 'monoclinic'
loop_
_space_group_symop_operation_xyz
x,y,z
-x,y,-z
-x,-y,-z
x,-y,z
loop_
_atom_site_type_symbol
_atom_site_label
_atom_site_fract_x
_atom_site_fract_y
_atom_site_fract_z
Si Si1 0.200788 0.895282 0.690982
Si Si2 0.321498 0.603237 0.096763
Si Si3 0.373079 0.232965 0.542300
Si Si4 0.000000 0.791222 0.500000
Si Si5 0.184942 0.742037 0.272669
Si Si6 0.135637 0.900128 0.039140
Si Si7 0.578646 0.396093 0.236740
O O1 0.311372 0.841982 0.639885
O O2 0.091171 0.851511 0.598707
O O3 0.204212 0.000000 0.657233
O O4 0.191047 0.884301 0.874757
O O5 0.294084 0.500000 0.112717
O O6 0.220781 0.662236 0.162273
O O7 0.444011 0.618059 0.189111
O O8 0.350129 0.619548 0.917810
O O9 0.500000 0.206305 0.500000
O O10 0.292414 0.245740 0.391018
O O11 0.382739 0.325799 0.634510
O O12 0.073753 0.735492 0.378758
O O13 0.168531 0.828525 0.166980
O O14 0.163073 0.000000 0.093018
O O15 0.000000 0.895745 0.000000
O O16 0.592090 0.500000 0.280813
#
# Coordination Sequence:
#
# PCOD9150901 Si02
#       7
#     4   4   4   2   4   4   4
#     4  10  21  37  57  79 110 146 189 234 274 328
#     4   9  18  34  59  85 111 149 191 229 274 326
#     4  11  22  35  53  86 121 151 180 221 289 341
#     4  10  21  34  55  84 108 148 189 228 281 328
#     4  11  21  35  57  84 115 147 184 238 276 330
#     4  10  20  37  60  83 102 139 195 242 277 316
#     4   9  18  35  58  84 113 148 192 232 266 327
#
# _framework density 17.066766000000001
#
# number of rings (size 3 to 8) (size 9 to 14) (size 15 to 20)
#    0.000    2.000    3.077    2.077    0.000    3.692 
#    0.000    0.385    0.000    3.231    0.000    0.000 
#    0.000    0.000    0.000    0.000    0.000    0.000 
#
# Total GULP energy -145025.232390 kJ/mol
# GULP energy per Si atom -5577.893553 kJ/mol
# Density = 1.702792 g / cm^3
# Si number density = 17.066766 Si / 1000 Ang^3
#
#
#
# Elastic Constant Matrix: (Units=GPa)
#
#
# Indices 1 2 3 4 5 6 
#
# 1 100.8406 59.3110 55.8674 0.0000 -23.4435 0.0000
# 2 59.3110 89.1110 71.4415 0.0000 -20.6707 0.0000
# 3 55.8674 71.4415 91.0159 0.0000 -15.3585 0.0000
# 4 0.0000 0.0000 0.0000 42.1507 0.0000 16.9495
# 5 -23.4435 -20.6707 -15.3585 0.0000 37.3719 0.0000
# 6 0.0000 0.0000 0.0000 16.9495 0.0000 29.8573
#
#
#
# Elastic Compliance Matrix: (Units=1/GPa)
#
#
# Indices 1 2 3 4 5 6 
#
# 1 0.017778 -0.006896 -0.004578 0.000000 0.005456 0.000000
# 2 -0.006896 0.035038 -0.022273 0.000000 0.005900 0.000000
# 3 -0.004578 -0.022273 0.030857 0.000000 -0.002511 0.000000
# 4 0.000000 0.000000 0.000000 0.030742 0.000000 -0.017452
# 5 0.005456 0.005900 -0.002511 0.000000 0.032412 0.000000
# 6 0.000000 0.000000 0.000000 -0.017452 0.000000 0.043400
#
#
# Mechanical properties :
#
#
# Convention : Reuss Voigt Hill
#
# Bulk Modulus (GPa) = 61.82114 72.68972 67.25543
# Shear Modulus (GPa) = 19.00309 28.16581 23.58445
#
# Velocity S-wave (km/s) = 3.34047 4.06683 3.72142
# Velocity P-wave (km/s) = 7.15402 8.04587 7.61302
#
# Compressibility (1/GPa) = 0.01617570
#
# Stress axis : x y z
#
# Youngs Moduli (GPa) = 56.24959 28.54073 32.40757
#
# Poissons Ratio (x) = 0.19683 0.14838
# Poissons Ratio (y) = 0.38792 0.72183
# Poissons Ratio (z) = 0.25754 0.63570
#
# Static dielectric constant tensor:
#      x y z
#    x 1.565150 0.000000 -0.023160 
#    y 0.000000 1.559620 0.000000 
#    z -0.023160 0.000000 1.599040 
# 
# From -- ./inp_files/24616.got.cif
#   From: 2010.05.17/outbox.cif.g08.bks.cpg/sg10_13_cif.got.tgz:24616.got - 2010.06.03 11:33:40.
