data_PCOD9150153
_publ_section_title
;
Structure prediction by ZEFSAII (Michael W. Deem and Ramdas Pophale) SiO2 
 PCOD9150153
Probable space group: P 2/M
;
_chemical_formula_sum "Si O2"
_cell_formula_units_Z 20
_cell_length_a 13.425283
_cell_length_b 7.512686
_cell_length_c 22.128586
_cell_angle_alpha 90.000000
_cell_angle_beta 158.176111
_cell_angle_gamma 90.000000
_cell_volume 829.715273
_symmetry_space_group_name_H-M "P 2/M"
_symmetry_group_IT_number 10
_symmetry_cell_setting 'monoclinic'
loop_
_space_group_symop_operation_xyz
x,y,z
-x,y,-z
-x,-y,-z
x,-y,z
loop_
_atom_site_type_symbol
_atom_site_label
_atom_site_fract_x
_atom_site_fract_y
_atom_site_fract_z
Si Si1 0.728968 0.207177 0.818669
Si Si2 0.301761 0.292765 0.671307
Si Si3 0.424966 0.715969 0.056425
Si Si4 0.502894 0.714783 0.432335
Si Si5 0.911612 0.283699 0.241571
O O1 0.463575 0.286470 0.700080
O O2 0.715490 0.226886 0.739024
O O3 0.720365 0.000000 0.829071
O O4 0.000000 0.284583 0.000000
O O5 0.264559 0.500000 0.667281
O O6 0.501470 0.218312 0.835516
O O7 0.000000 0.216146 0.500000
O O8 0.396676 0.500000 0.042889
O O9 0.683434 0.761480 0.160904
O O10 0.176345 0.777081 0.875138
O O11 0.500000 0.774228 0.500000
O O12 0.488806 0.500000 0.425228
O O13 0.795486 0.775311 0.574703
O O14 0.917699 0.500000 0.243366
#
# Coordination Sequence:
#
# PCOD9150153 Si02
#       5
#     4   4   4   4   4
#     4  11  26  44  59  82 122 171 212 245 292 361
#     4  10  20  35  61  93 120 151 198 253 310 362
#     4   8  14  25  48  79 114 147 174 224 293 353
#     4  10  21  36  60  89 114 145 196 255 307 358
#     4   8  14  27  47  79 116 143 175 226 293 357
#
# _framework density 24.104655000000001
#
# number of rings (size 3 to 8) (size 9 to 14) (size 15 to 20)
#    0.000    2.600    0.000    3.000    2.800    5.600 
#    0.000    0.000    0.000    0.000    0.000    4.200 
#    0.000    0.000    0.000    0.000    0.000    0.000 
#
# Total GULP energy -111663.621016 kJ/mol
# GULP energy per Si atom -5583.181051 kJ/mol
# Density = 2.404979 g / cm^3
# Si number density = 24.104655 Si / 1000 Ang^3
#
#
#
# Elastic Constant Matrix: (Units=GPa)
#
#
# Indices 1 2 3 4 5 6 
#
# 1 83.8066 -11.3336 43.6392 0.0000 -32.6069 0.0000
# 2 -11.3336 58.3569 0.1319 0.0000 -0.5789 0.0000
# 3 43.6392 0.1319 143.8897 0.0000 -29.8121 0.0000
# 4 0.0000 0.0000 0.0000 -26.5419 0.0000 31.3113
# 5 -32.6069 -0.5789 -29.8121 0.0000 43.3706 0.0000
# 6 0.0000 0.0000 0.0000 31.3113 0.0000 -39.3057
#
#
#
# Elastic Compliance Matrix: (Units=1/GPa)
#
#
# Indices 1 2 3 4 5 6 
#
# 1 0.018767 0.003771 -0.003220 0.000000 0.011946 0.000000
# 2 0.003771 0.017896 -0.000610 0.000000 0.002654 0.000000
# 3 -0.003220 -0.000610 0.008656 0.000000 0.003521 0.000000
# 4 0.000000 0.000000 0.000000 -0.625418 0.000000 -0.498214
# 5 0.011946 0.002654 0.003521 0.000000 0.034494 0.000000
# 6 0.000000 0.000000 0.000000 -0.498214 0.000000 -0.422324
#
#
# Mechanical properties :
#
#
# Convention : Reuss Voigt Hill
#
# Bulk Modulus (GPa) = 22.12377 38.99200 30.55788
# Shear Modulus (GPa) = -5.24801 12.41234 3.58217
#
# Velocity S-wave (km/s) = -1.47713 2.27168 1.22037
# Velocity P-wave (km/s) = 2.50778 4.80541 3.83281
#
# Compressibility (1/GPa) = 0.04520026
#
# Stress axis : x y z
#
# Youngs Moduli (GPa) = 53.28557 55.87867 115.52067
#
# Poissons Ratio (x) = -0.21069 0.37198
# Poissons Ratio (y) = -0.20091 0.07047
# Poissons Ratio (z) = 0.17158 0.03409
#
# Static dielectric constant tensor:
#      x y z
#    x 1.917750 0.000000 -0.024730 
#    y 0.000000 1.941380 0.000000 
#    z -0.024730 0.000000 1.949320 
# 
# From -- ./inp_files/89431.got.cif
#   From: 2010.05.17/outbox.cif.g08.bks.cpg/sg10_45_cif.got.tgz:89431.got - 2010.06.03 11:33:40.
