data_PCOD9150807
_publ_section_title
;
Structure prediction by ZEFSAII (Michael W. Deem and Ramdas Pophale) SiO2 
 PCOD9150807
Probable space group: P 2/M
;
_chemical_formula_sum "Si O2"
_cell_formula_units_Z 32
_cell_length_a 25.438718
_cell_length_b 9.617861
_cell_length_c 20.336158
_cell_angle_alpha 90.000000
_cell_angle_beta 159.926991
_cell_angle_gamma 90.000000
_cell_volume 1707.700684
_symmetry_space_group_name_H-M "P 2/M"
_symmetry_group_IT_number 10
_symmetry_cell_setting 'monoclinic'
loop_
_space_group_symop_operation_xyz
x,y,z
-x,y,-z
-x,-y,-z
x,-y,z
loop_
_atom_site_type_symbol
_atom_site_label
_atom_site_fract_x
_atom_site_fract_y
_atom_site_fract_z
Si Si1 0.335173 0.837409 0.389410
Si Si2 0.304988 0.338023 0.628139
Si Si3 0.729505 0.337928 0.954163
Si Si4 0.196943 0.165325 0.619500
Si Si5 0.295595 0.161959 0.198282
Si Si6 0.361956 0.656237 0.914703
Si Si7 0.628005 0.334348 0.442055
Si Si8 0.911605 0.341730 0.302089
O O1 0.519757 0.829580 0.595458
O O2 0.264743 0.790323 0.236809
O O3 0.299790 0.748062 0.412112
O O4 0.297972 0.000000 0.355438
O O5 0.255322 0.500000 0.576548
O O6 0.211918 0.235085 0.565307
O O7 0.306958 0.300511 0.553515
O O8 0.479194 0.330543 0.859931
O O9 0.728938 0.500000 0.935008
O O10 0.773619 0.248905 0.942520
O O11 0.555169 0.303585 0.771763
O O12 0.839499 0.320557 0.145373
O O13 0.329411 0.230836 0.820856
O O14 0.040413 0.227889 0.464907
O O15 0.201088 0.000000 0.622714
O O16 0.253924 0.000000 0.144684
O O17 0.356230 0.500000 0.878665
O O18 0.226275 0.666445 0.808385
O O19 0.644015 0.500000 0.470303
O O20 0.975289 0.500000 0.381064
#
# Coordination Sequence:
#
# PCOD9150807 Si02
#       8
#     4   4   4   4   4   4   4   4
#     4   8  14  24  38  61  97 137 169 196 237 296
#     4  10  20  37  58  78 101 134 173 212 257 309
#     4   9  16  28  48  74  99 124 164 214 254 292
#     4  12  26  38  50  76 109 136 169 212 256 306
#     4   8  14  24  38  61  97 137 169 196 237 296
#     4  10  20  38  62  80  97 130 173 213 258 312
#     4   9  16  28  48  74  99 124 164 214 254 292
#     4  10  20  37  58  78 101 134 173 212 257 309
#
# _framework density 18.738647
#
# number of rings (size 3 to 8) (size 9 to 14) (size 15 to 20)
#    0.000    2.500    1.250    2.625    0.000    5.500 
#    0.000    2.500    0.000    0.000    0.000    0.875 
#    0.000    7.000    0.000    0.000    0.000    0.000 
#
# Total GULP energy -178528.623645 kJ/mol
# GULP energy per Si atom -5579.019489 kJ/mol
# Density = 1.869600 g / cm^3
# Si number density = 18.738647 Si / 1000 Ang^3
#
#
#
# Elastic Constant Matrix: (Units=GPa)
#
#
# Indices 1 2 3 4 5 6 
#
# 1 114.8436 59.6761 24.1066 0.0000 -24.7645 0.0000
# 2 59.6761 82.2800 21.6009 0.0000 -12.1077 0.0000
# 3 24.1066 21.6009 19.8963 0.0000 -5.2474 0.0000
# 4 0.0000 0.0000 0.0000 -252.2872 0.0000 141.1255
# 5 -24.7645 -12.1077 -5.2474 0.0000 31.6586 0.0000
# 6 0.0000 0.0000 0.0000 141.1255 0.0000 -63.9328
#
#
#
# Elastic Compliance Matrix: (Units=1/GPa)
#
#
# Indices 1 2 3 4 5 6 
#
# 1 0.016894 -0.008703 -0.008797 0.000000 0.008428 0.000000
# 2 -0.008703 0.021883 -0.013387 0.000000 -0.000657 0.000000
# 3 -0.008797 -0.013387 0.075593 0.000000 0.000528 0.000000
# 4 0.000000 0.000000 0.000000 0.016882 0.000000 0.037266
# 5 0.008428 -0.000657 0.000528 0.000000 0.038016 0.000000
# 6 0.000000 0.000000 0.000000 0.037266 0.000000 0.066619
#
#
# Mechanical properties :
#
#
# Convention : Reuss Voigt Hill
#
# Bulk Modulus (GPa) = 19.01309 47.53191 33.27250
# Shear Modulus (GPa) = 15.86322 -49.46985 -16.80332
#
# Velocity S-wave (km/s) = 2.91271 -5.14366 -2.99778
# Velocity P-wave (km/s) = 4.63469 3.13935 2.41089
#
# Compressibility (1/GPa) = 0.05259534
#
# Stress axis : x y z
#
# Youngs Moduli (GPa) = 59.19267 45.69657 13.22877
#
# Poissons Ratio (x) = 0.39770 0.11638
# Poissons Ratio (y) = 0.51516 0.17709
# Poissons Ratio (z) = 0.52074 0.61174
#
# Static dielectric constant tensor:
#      x y z
#    x 1.666990 0.000000 0.004650 
#    y 0.000000 1.622650 0.000000 
#    z 0.004650 0.000000 1.660670 
# 
# From -- ./inp_files/87054.got.cif
#   From: 2010.05.17/outbox.cif.g08.bks.cpg/sg10_44_cif.got.tgz:87054.got - 2010.06.03 11:33:40.
