data_PCOD9150123
_publ_section_title
;
Structure prediction by ZEFSAII (Michael W. Deem and Ramdas Pophale) SiO2 
 PCOD9150123
Probable space group: P 2/M
;
_chemical_formula_sum "Si O2"
_cell_formula_units_Z 28
_cell_length_a 8.530123
_cell_length_b 15.021157
_cell_length_c 12.330288
_cell_angle_alpha 90.000000
_cell_angle_beta 50.058664
_cell_angle_gamma 90.000000
_cell_volume 1211.319188
_symmetry_space_group_name_H-M "P 2/M"
_symmetry_group_IT_number 10
_symmetry_cell_setting 'monoclinic'
loop_
_space_group_symop_operation_xyz
x,y,z
-x,y,-z
-x,-y,-z
x,-y,z
loop_
_atom_site_type_symbol
_atom_site_label
_atom_site_fract_x
_atom_site_fract_y
_atom_site_fract_z
Si Si1 0.825164 0.104077 0.804417
Si Si2 0.173574 0.606265 0.670315
Si Si3 0.125216 0.240515 0.547555
Si Si4 0.551513 0.902134 0.602465
Si Si5 0.285666 0.598427 0.078012
Si Si6 0.607285 0.146144 0.120000
Si Si7 0.767404 0.329286 0.118173
O O1 0.609872 0.117811 0.836057
O O2 0.985425 0.177210 0.687849
O O3 0.887634 0.000000 0.763283
O O4 0.771826 0.122551 0.954394
O O5 0.199740 0.500000 0.639850
O O6 0.243608 0.677730 0.551535
O O7 0.257686 0.632900 0.750822
O O8 0.929310 0.630016 0.780343
O O9 0.290468 0.171307 0.430936
O O10 0.000000 0.274749 0.500000
O O11 0.500000 0.884309 0.500000
O O12 0.371500 0.898835 0.770915
O O13 0.644334 0.000000 0.565640
O O14 0.308544 0.500000 0.116165
O O15 0.500000 0.647760 0.000000
O O16 0.254253 0.595789 0.963378
O O17 0.624635 0.249728 0.143012
O O18 0.000000 0.295346 0.000000
#
# Coordination Sequence:
#
# PCOD9150123 Si02
#       7
#     4   4   4   4   4   4   4
#     4  11  23  40  65  99 135 170 215 273 331 382
#     4  10  22  41  61  88 127 172 219 267 333 397
#     4  12  25  42  67  95 125 175 223 277 331 401
#     4  11  24  43  66  95 134 177 219 267 326 397
#     4   9  18  31  55  89 123 158 205 264 321 384
#     4  11  22  37  64  95 131 169 216 267 318 382
#     4  10  20  35  60  88 129 172 212 259 325 395
#
# _framework density 23.115293000000001
#
# number of rings (size 3 to 8) (size 9 to 14) (size 15 to 20)
#    0.000    1.429    1.429    5.143    4.000    2.571 
#    0.000    0.000    0.000   11.143    0.000    0.000 
#    0.000    0.000    0.000    0.000    0.000    0.000 
#
# Total GULP energy -156239.797806 kJ/mol
# GULP energy per Si atom -5579.992779 kJ/mol
# Density = 2.306268 g / cm^3
# Si number density = 23.115293 Si / 1000 Ang^3
#
#
#
# Elastic Constant Matrix: (Units=GPa)
#
#
# Indices 1 2 3 4 5 6 
#
# 1 38.1907 8.0328 18.3122 0.0000 9.4054 0.0000
# 2 8.0328 123.4228 18.1295 0.0000 11.3822 0.0000
# 3 18.3122 18.1295 115.7560 0.0000 22.4584 0.0000
# 4 0.0000 0.0000 0.0000 9.4944 0.0000 27.3108
# 5 9.4054 11.3822 22.4584 0.0000 35.6461 0.0000
# 6 0.0000 0.0000 0.0000 27.3108 0.0000 30.0300
#
#
#
# Elastic Compliance Matrix: (Units=1/GPa)
#
#
# Indices 1 2 3 4 5 6 
#
# 1 0.029339 -0.000914 -0.003478 0.000000 -0.005258 0.000000
# 2 -0.000914 0.008460 -0.000801 0.000000 -0.001956 0.000000
# 3 -0.003478 -0.000801 0.010352 0.000000 -0.005349 0.000000
# 4 0.000000 0.000000 0.000000 -0.065174 0.000000 0.059273
# 5 -0.005258 -0.001956 -0.005349 0.000000 0.033435 0.000000
# 6 0.000000 0.000000 0.000000 0.059273 0.000000 -0.020606
#
#
# Mechanical properties :
#
#
# Convention : Reuss Voigt Hill
#
# Bulk Modulus (GPa) = 26.47905 40.70204 33.59054
# Shear Modulus (GPa) = 266.23160 30.56044 148.39602
#
# Velocity S-wave (km/s) = 10.74363 3.64000 8.02107
# Velocity P-wave (km/s) = 12.86005 5.94244 10.01732
#
# Compressibility (1/GPa) = 0.03776571
#
# Stress axis : x y z
#
# Youngs Moduli (GPa) = 34.08401 118.20758 96.59701
#
# Poissons Ratio (x) = 0.10800 0.33597
# Poissons Ratio (y) = 0.03114 0.07737
# Poissons Ratio (z) = 0.11855 0.09468
#
# Static dielectric constant tensor:
#      x y z
#    x 1.920680 0.000000 -0.027680 
#    y 0.000000 1.882780 0.000000 
#    z -0.027680 0.000000 1.944140 
# 
# From -- ./inp_files/42857.got.cif
#   From: 2010.05.17/outbox.cif.g08.bks.cpg/sg10_22_cif.got.tgz:42857.got - 2010.06.03 11:33:40.
