data_PCOD9150974
_publ_section_title
;
Structure prediction by ZEFSAII (Michael W. Deem and Ramdas Pophale) SiO2 
 PCOD9150974
Probable space group: P 2/M
;
_chemical_formula_sum "Si O2"
_cell_formula_units_Z 24
_cell_length_a 14.765403
_cell_length_b 7.548674
_cell_length_c 15.029386
_cell_angle_alpha 90.000000
_cell_angle_beta 141.412872
_cell_angle_gamma 90.000000
_cell_volume 1044.806214
_symmetry_space_group_name_H-M "P 2/M"
_symmetry_group_IT_number 10
_symmetry_cell_setting 'monoclinic'
loop_
_space_group_symop_operation_xyz
x,y,z
-x,y,-z
-x,-y,-z
x,-y,z
loop_
_atom_site_type_symbol
_atom_site_label
_atom_site_fract_x
_atom_site_fract_y
_atom_site_fract_z
Si Si1 0.965085 0.199978 0.379446
Si Si2 0.804703 0.785397 0.088412
Si Si3 0.491525 0.213765 0.890716
Si Si4 0.051418 0.709722 0.134397
Si Si5 0.638898 0.283798 0.551249
Si Si6 0.273422 0.706854 0.571107
O O1 0.121206 0.193496 0.452760
O O2 0.000000 0.289469 0.500000
O O3 0.856653 0.280358 0.225287
O O4 0.910678 0.000000 0.357564
O O5 0.920667 0.730564 0.104038
O O6 0.808900 0.000000 0.094391
O O7 0.637979 0.730283 0.951279
O O8 0.355170 0.270072 0.727094
O O9 0.488529 0.000000 0.891308
O O10 0.500000 0.274055 0.000000
O O11 0.074878 0.500000 0.140096
O O12 0.205869 0.777525 0.289908
O O13 0.000000 0.784427 0.000000
O O14 0.500000 0.221405 0.500000
O O15 0.637458 0.500000 0.553983
O O16 0.633193 0.235683 0.442536
O O17 0.238514 0.500000 0.532394
#
# Coordination Sequence:
#
# PCOD9150974 Si02
#       6
#     4   4   4   4   4   4
#     4  10  20  37  61  84 111 154 196 229 281 352
#     4  10  21  37  59  85 115 150 191 243 287 330
#     4  10  22  41  61  82 115 159 200 234 279 345
#     4  10  21  37  60  85 112 151 192 233 287 350
#     4   9  19  36  56  82 115 150 188 229 283 348
#     4  11  22  36  59  89 119 149 186 243 294 333
#
# _framework density 22.970766000000001
#
# number of rings (size 3 to 8) (size 9 to 14) (size 15 to 20)
#    0.000    2.000    1.667    1.500    2.333    4.333 
#    0.000    1.667    0.000    2.500    0.000    0.000 
#    0.000    0.000    0.000    0.000    0.000    0.000 
#
# Total GULP energy -134081.268003 kJ/mol
# GULP energy per Si atom -5586.719500 kJ/mol
# Density = 2.291848 g / cm^3
# Si number density = 22.970766 Si / 1000 Ang^3
#
#
#
# Elastic Constant Matrix: (Units=GPa)
#
#
# Indices 1 2 3 4 5 6 
#
# 1 92.6167 -2.7013 7.7485 0.0000 -0.3893 0.0000
# 2 -2.7013 59.2770 1.2800 0.0000 -2.4106 0.0000
# 3 7.7485 1.2800 94.4819 0.0000 -1.1988 0.0000
# 4 0.0000 0.0000 0.0000 2.2798 0.0000 8.9148
# 5 -0.3893 -2.4106 -1.1988 0.0000 46.2783 0.0000
# 6 0.0000 0.0000 0.0000 8.9148 0.0000 19.5924
#
#
#
# Elastic Compliance Matrix: (Units=1/GPa)
#
#
# Indices 1 2 3 4 5 6 
#
# 1 0.010888 0.000519 -0.000899 0.000000 0.000095 0.000000
# 2 0.000519 0.016935 -0.000261 0.000000 0.000880 0.000000
# 3 -0.000899 -0.000261 0.010665 0.000000 0.000255 0.000000
# 4 0.000000 0.000000 0.000000 -0.562881 0.000000 0.256117
# 5 0.000095 0.000880 0.000255 0.000000 0.021662 0.000000
# 6 0.000000 0.000000 0.000000 0.256117 0.000000 -0.065496
#
#
# Mechanical properties :
#
#
# Convention : Reuss Voigt Hill
#
# Bulk Modulus (GPa) = 26.87654 28.78111 27.82883
# Shear Modulus (GPa) = -9.01640 29.63332 10.30846
#
# Velocity S-wave (km/s) = -1.98335 3.59562 2.12070
# Velocity P-wave (km/s) = 2.54574 5.45844 4.25884
#
# Compressibility (1/GPa) = 0.03720717
#
# Stress axis : x y z
#
# Youngs Moduli (GPa) = 91.84481 59.04918 93.76889
#
# Poissons Ratio (x) = -0.03067 0.08428
# Poissons Ratio (y) = -0.04771 0.02446
# Poissons Ratio (z) = 0.08255 0.01540
#
# Static dielectric constant tensor:
#      x y z
#    x 1.854660 0.000000 -0.020160 
#    y 0.000000 1.899850 0.000000 
#    z -0.020160 0.000000 1.820460 
# 
# From -- ./inp_files/66698.got.cif
#   From: 2010.05.17/outbox.cif.g08.bks.cpg/sg10_34_cif.got.tgz:66698.got - 2010.06.03 11:33:40.
