data_PCOD9150788
_publ_section_title
;
Structure prediction by ZEFSAII (Michael W. Deem and Ramdas Pophale) SiO2 
 PCOD9150788
Probable space group: P 2/M
;
_chemical_formula_sum "Si O2"
_cell_formula_units_Z 28
_cell_length_a 17.452187
_cell_length_b 8.134134
_cell_length_c 16.970185
_cell_angle_alpha 90.000000
_cell_angle_beta 26.293561
_cell_angle_gamma 90.000000
_cell_volume 1067.142712
_symmetry_space_group_name_H-M "P 2/M"
_symmetry_group_IT_number 10
_symmetry_cell_setting 'monoclinic'
loop_
_space_group_symop_operation_xyz
x,y,z
-x,y,-z
-x,-y,-z
x,-y,z
loop_
_atom_site_type_symbol
_atom_site_label
_atom_site_fract_x
_atom_site_fract_y
_atom_site_fract_z
Si Si1 0.625968 0.695989 0.058980
Si Si2 0.761216 0.188670 0.225269
Si Si3 0.927089 0.192893 0.661838
Si Si4 0.655170 0.693897 0.791936
Si Si5 0.867057 0.196386 0.966395
Si Si6 0.427512 0.314158 0.455462
Si Si7 0.820428 0.198121 0.442623
O O1 0.622202 0.500000 0.050030
O O2 0.441626 0.762489 0.196798
O O3 0.700082 0.730005 0.076682
O O4 0.772227 0.770563 0.866784
O O5 0.885353 0.249016 0.040200
O O6 0.578264 0.193680 0.345571
O O7 0.719091 0.290363 0.341860
O O8 0.801243 0.000000 0.211115
O O9 0.830608 0.237205 0.668885
O O10 0.094199 0.265070 0.554672
O O11 0.958259 0.000000 0.631095
O O12 0.685123 0.500000 0.756910
O O13 0.500000 0.714898 0.000000
O O14 0.845987 0.000000 0.987484
O O15 0.027843 0.230530 0.761714
O O16 0.493491 0.500000 0.398471
O O17 0.342498 0.279822 0.449480
O O18 0.795439 0.000000 0.469525
#
# Coordination Sequence:
#
# PCOD9150788 Si02
#       7
#     4   4   4   4   4   4   4
#     4   9  16  25  39  61  93 128 156 190 238 284
#     4  10  20  37  57  73  94 126 159 197 243 284
#     4   9  16  25  40  62  89 123 162 200 234 274
#     4   8  14  23  35  56  88 125 159 189 231 283
#     4   9  19  33  51  74  97 125 163 200 237 285
#     4  11  22  35  52  75  98 124 161 198 234 285
#     4   9  18  33  49  70 100 129 159 197 241 285
#
# _framework density 26.238289999999999
#
# number of rings (size 3 to 8) (size 9 to 14) (size 15 to 20)
#    0.000    2.714    0.000    5.143    0.000    7.714 
#    0.000    2.857    0.000    0.000    0.000    1.000 
#    0.000    8.000    0.000    0.000    0.000    0.000 
#
# Total GULP energy -156580.395013 kJ/mol
# GULP energy per Si atom -5592.156965 kJ/mol
# Density = 2.617857 g / cm^3
# Si number density = 26.238290 Si / 1000 Ang^3
#
#
#
# Elastic Constant Matrix: (Units=GPa)
#
#
# Indices 1 2 3 4 5 6 
#
# 1 201.5654 38.8324 3.7347 0.0000 -9.0083 0.0000
# 2 38.8324 35.2021 13.6118 0.0000 -13.0625 0.0000
# 3 3.7347 13.6118 72.7712 0.0000 -27.6550 0.0000
# 4 0.0000 0.0000 0.0000 22.6137 0.0000 -12.7975
# 5 -9.0083 -13.0625 -27.6550 0.0000 65.1863 0.0000
# 6 0.0000 0.0000 0.0000 -12.7975 0.0000 55.8149
#
#
#
# Elastic Compliance Matrix: (Units=1/GPa)
#
#
# Indices 1 2 3 4 5 6 
#
# 1 0.006378 -0.007495 0.001000 0.000000 -0.000196 0.000000
# 2 -0.007495 0.040536 -0.005370 0.000000 0.004809 0.000000
# 3 0.001000 -0.005370 0.017094 0.000000 0.006314 0.000000
# 4 0.000000 0.000000 0.000000 0.050815 0.000000 0.011651
# 5 -0.000196 0.004809 0.006314 0.000000 0.018956 0.000000
# 6 0.000000 0.000000 0.000000 0.011651 0.000000 0.020588
#
#
# Mechanical properties :
#
#
# Convention : Reuss Voigt Hill
#
# Bulk Modulus (GPa) = 24.82723 46.87742 35.85232
# Shear Modulus (GPa) = 26.10646 45.61364 35.86005
#
# Velocity S-wave (km/s) = 3.15775 4.17398 3.70091
# Velocity P-wave (km/s) = 4.77262 6.41360 5.65297
#
# Compressibility (1/GPa) = 0.04027836
#
# Stress axis : x y z
#
# Youngs Moduli (GPa) = 156.79314 24.66915 58.49846
#
# Poissons Ratio (x) = 0.18490 -0.05850
# Poissons Ratio (y) = 1.17518 0.31414
# Poissons Ratio (z) = -0.15680 0.13248
#
# Static dielectric constant tensor:
#      x y z
#    x 2.152380 0.000000 0.055650 
#    y 0.000000 1.884070 0.000000 
#    z 0.055650 0.000000 2.228400 
# 
# From -- ./inp_files/85606.got.cif
#   From: 2010.05.17/outbox.cif.g08.bks.cpg/sg10_43_cif.got.tgz:85606.got - 2010.06.03 11:33:40.
