data_PCOD9150025
_publ_section_title
;
Structure prediction by ZEFSAII (Michael W. Deem and Ramdas Pophale) SiO2 
 PCOD9150025
Probable space group: P 2/M
;
_chemical_formula_sum "Si O2"
_cell_formula_units_Z 28
_cell_length_a 27.416015
_cell_length_b 9.901868
_cell_length_c 8.480408
_cell_angle_alpha 90.000000
_cell_angle_beta 40.168186
_cell_angle_gamma 90.000000
_cell_volume 1484.979533
_symmetry_space_group_name_H-M "P 2/M"
_symmetry_group_IT_number 10
_symmetry_cell_setting 'monoclinic'
loop_
_space_group_symop_operation_xyz
x,y,z
-x,y,-z
-x,-y,-z
x,-y,z
loop_
_atom_site_type_symbol
_atom_site_label
_atom_site_fract_x
_atom_site_fract_y
_atom_site_fract_z
Si Si1 0.721004 0.645632 0.275102
Si Si2 0.230701 0.843484 0.104869
Si Si3 0.169007 0.748234 0.748332
Si Si4 0.316438 0.148096 0.213819
Si Si5 0.896834 0.659770 0.420776
Si Si6 0.418084 0.655559 0.149478
Si Si7 0.019026 0.845246 0.267527
O O1 0.724910 0.500000 0.180766
O O2 0.786056 0.648704 0.247483
O O3 0.640681 0.656338 0.560015
O O4 0.735197 0.774757 0.132914
O O5 0.292119 0.840802 0.092765
O O6 0.163649 0.744850 0.327121
O O7 0.206468 0.000000 0.143516
O O8 0.237344 0.835461 0.504603
O O9 0.127681 0.680818 0.700468
O O10 0.106845 0.826274 0.005497
O O11 0.375927 0.258759 0.121006
O O12 0.347567 0.000000 0.169660
O O13 0.898801 0.500000 0.451342
O O14 0.974044 0.735765 0.275115
O O15 0.427061 0.500000 0.075910
O O16 0.500000 0.706691 0.000000
O O17 0.000000 0.823822 0.500000
O O18 0.996580 0.000000 0.284187
#
# Coordination Sequence:
#
# PCOD9150025 Si02
#       7
#     4   4   4   4   4   4   4
#     4  10  20  35  58  84 110 142 180 222 268 319
#     4  10  21  37  56  81 113 144 180 224 271 325
#     4  10  21  36  57  81 109 141 183 228 273 324
#     4   9  19  35  56  81 107 142 185 226 268 317
#     4  11  23  38  58  81 107 141 183 231 277 323
#     4   9  19  36  57  83 114 146 181 221 266 319
#     4  11  24  39  55  78 110 147 184 225 275 327
#
# _framework density 18.855478000000002
#
# number of rings (size 3 to 8) (size 9 to 14) (size 15 to 20)
#    0.000    2.000    0.000    3.000    0.000   12.571 
#    0.000    0.714    0.000    4.286    0.000    0.000 
#    0.000    0.000    0.000    0.000    0.000    0.000 
#
# Total GULP energy -156195.425358 kJ/mol
# GULP energy per Si atom -5578.408049 kJ/mol
# Density = 1.881256 g / cm^3
# Si number density = 18.855478 Si / 1000 Ang^3
#
#
#
# Elastic Constant Matrix: (Units=GPa)
#
#
# Indices 1 2 3 4 5 6 
#
# 1 75.7617 51.2142 43.6594 0.0000 -13.7825 0.0000
# 2 51.2142 138.2374 37.0532 0.0000 -3.7902 0.0000
# 3 43.6594 37.0532 56.2171 0.0000 -7.5519 0.0000
# 4 0.0000 0.0000 0.0000 98.6076 0.0000 -80.1657
# 5 -13.7825 -3.7902 -7.5519 0.0000 28.5349 0.0000
# 6 0.0000 0.0000 0.0000 -80.1657 0.0000 97.8572
#
#
#
# Elastic Compliance Matrix: (Units=1/GPa)
#
#
# Indices 1 2 3 4 5 6 
#
# 1 0.028559 -0.005718 -0.017273 0.000000 0.008463 0.000000
# 2 -0.005718 0.009935 -0.002386 0.000000 -0.002074 0.000000
# 3 -0.017273 -0.002386 0.032778 0.000000 0.000015 0.000000
# 4 0.000000 0.000000 0.000000 0.030363 0.000000 0.024874
# 5 0.008463 -0.002074 0.000015 0.000000 0.038861 0.000000
# 6 0.000000 0.000000 0.000000 0.024874 0.000000 0.030596
#
#
# Mechanical properties :
#
#
# Convention : Reuss Voigt Hill
#
# Bulk Modulus (GPa) = 48.74224 59.34110 54.04167
# Shear Modulus (GPa) = 21.86418 54.21923 38.04170
#
# Velocity S-wave (km/s) = 3.40893 5.36820 4.49658
# Velocity P-wave (km/s) = 6.43436 8.36441 7.46205
#
# Compressibility (1/GPa) = 0.02051609
#
# Stress axis : x y z
#
# Youngs Moduli (GPa) = 35.01577 100.65280 30.50870
#
# Poissons Ratio (x) = 0.57557 0.52699
# Poissons Ratio (y) = 0.20023 0.07279
# Poissons Ratio (z) = 0.60484 0.24015
#
# Static dielectric constant tensor:
#      x y z
#    x 1.646650 0.000000 0.010400 
#    y 0.000000 1.652960 0.000000 
#    z 0.010400 0.000000 1.656340 
# 
# From -- ./inp_files/31518.got.cif
#   From: 2010.05.17/outbox.cif.g08.bks.cpg/sg10_16_cif.got.tgz:31518.got - 2010.06.03 11:33:40.
