data_PCOD9150497
_publ_section_title
;
Structure prediction by ZEFSAII (Michael W. Deem and Ramdas Pophale) SiO2 
 PCOD9150497
Probable space group: P 2/M
;
_chemical_formula_sum "Si O2"
_cell_formula_units_Z 20
_cell_length_a 13.639123
_cell_length_b 13.775690
_cell_length_c 10.411907
_cell_angle_alpha 90.000000
_cell_angle_beta 147.717074
_cell_angle_gamma 90.000000
_cell_volume 1044.847777
_symmetry_space_group_name_H-M "P 2/M"
_symmetry_group_IT_number 10
_symmetry_cell_setting 'monoclinic'
loop_
_space_group_symop_operation_xyz
x,y,z
-x,y,-z
-x,-y,-z
x,-y,z
loop_
_atom_site_type_symbol
_atom_site_label
_atom_site_fract_x
_atom_site_fract_y
_atom_site_fract_z
Si Si1 0.815911 0.888439 0.883003
Si Si2 0.933848 0.610687 0.726810
Si Si3 0.616051 0.283233 0.519912
Si Si4 0.280650 0.609917 0.781495
Si Si5 0.244882 0.259095 0.977309
O O1 0.681999 0.816575 0.657976
O O2 0.756073 0.000000 0.824194
O O3 0.826027 0.842030 0.038337
O O4 0.000000 0.885840 0.000000
O O5 0.960218 0.500000 0.791603
O O6 0.792858 0.662533 0.665297
O O7 0.832080 0.614927 0.475315
O O8 0.126077 0.665379 0.929895
O O9 0.500000 0.339176 0.500000
O O10 0.463128 0.263769 0.242793
O O11 0.246656 0.500000 0.799550
O O12 0.221235 0.697901 0.808454
O O13 0.500000 0.615490 0.000000
#
# Coordination Sequence:
#
# PCOD9150497 Si02
#       5
#     4   4   4   4   4
#     4  10  21  41  66  87 111 147 193 242 300 357
#     4  11  22  37  57  85 121 159 197 233 280 341
#     4  10  22  37  57  87 116 150 193 240 290 340
#     4  10  20  36  59  85 117 161 200 232 278 340
#     4  11  21  36  61  86 115 151 198 241 287 336
#
# _framework density 19.141542999999999
#
# number of rings (size 3 to 8) (size 9 to 14) (size 15 to 20)
#    0.000    1.600    4.000    1.200    0.000    6.400 
#    0.000   10.000    0.000    4.200    0.000    0.000 
#    0.000    0.000    0.000    0.000    0.000    0.000 
#
# Total GULP energy -111469.872725 kJ/mol
# GULP energy per Si atom -5573.493636 kJ/mol
# Density = 1.909798 g / cm^3
# Si number density = 19.141543 Si / 1000 Ang^3
#
#
#
# Elastic Constant Matrix: (Units=GPa)
#
#
# Indices 1 2 3 4 5 6 
#
# 1 82.5345 50.0437 10.6405 0.0000 6.3103 0.0000
# 2 50.0437 130.9671 29.1041 0.0000 5.5317 0.0000
# 3 10.6405 29.1041 64.6967 0.0000 10.4162 0.0000
# 4 0.0000 0.0000 0.0000 48.9163 0.0000 7.5639
# 5 6.3103 5.5317 10.4162 0.0000 39.2382 0.0000
# 6 0.0000 0.0000 0.0000 7.5639 0.0000 33.6372
#
#
#
# Elastic Compliance Matrix: (Units=1/GPa)
#
#
# Indices 1 2 3 4 5 6 
#
# 1 0.015893 -0.006089 0.000416 0.000000 -0.001808 0.000000
# 2 -0.006089 0.010818 -0.003946 0.000000 0.000502 0.000000
# 3 0.000416 -0.003946 0.017847 0.000000 -0.004248 0.000000
# 4 0.000000 0.000000 0.000000 0.021180 0.000000 -0.004763
# 5 -0.001808 0.000502 -0.004248 0.000000 0.026833 0.000000
# 6 0.000000 0.000000 0.000000 -0.004763 0.000000 0.030800
#
#
# Mechanical properties :
#
#
# Convention : Reuss Voigt Hill
#
# Bulk Modulus (GPa) = 39.49265 50.86385 45.17825
# Shear Modulus (GPa) = 33.10223 36.91901 35.01062
#
# Velocity S-wave (km/s) = 4.16304 4.39650 4.28137
# Velocity P-wave (km/s) = 6.61699 7.23896 6.93495
#
# Compressibility (1/GPa) = 0.02532117
#
# Stress axis : x y z
#
# Youngs Moduli (GPa) = 62.92235 92.44043 56.03092
#
# Poissons Ratio (x) = 0.56286 -0.02333
# Poissons Ratio (y) = 0.38313 0.22108
# Poissons Ratio (z) = -0.02620 0.36475
#
# Static dielectric constant tensor:
#      x y z
#    x 1.730050 0.000000 -0.011910 
#    y 0.000000 1.642520 0.000000 
#    z -0.011910 0.000000 1.698770 
# 
# From -- ./inp_files/46857.got.cif
#   From: 2010.05.17/outbox.cif.g08.bks.cpg/sg10_24_cif.got.tgz:46857.got - 2010.06.03 11:33:40.
