data_PCOD9150850
_publ_section_title
;
Structure prediction by ZEFSAII (Michael W. Deem and Ramdas Pophale) SiO2 
 PCOD9150850
Probable space group: P 2/M
;
_chemical_formula_sum "Si O2"
_cell_formula_units_Z 28
_cell_length_a 9.549120
_cell_length_b 8.878486
_cell_length_c 27.980422
_cell_angle_alpha 90.000000
_cell_angle_beta 141.776597
_cell_angle_gamma 90.000000
_cell_volume 1467.767382
_symmetry_space_group_name_H-M "P 2/M"
_symmetry_group_IT_number 10
_symmetry_cell_setting 'monoclinic'
loop_
_space_group_symop_operation_xyz
x,y,z
-x,y,-z
-x,-y,-z
x,-y,z
loop_
_atom_site_type_symbol
_atom_site_label
_atom_site_fract_x
_atom_site_fract_y
_atom_site_fract_z
Si Si1 0.292301 0.818966 0.343922
Si Si2 0.720088 0.819367 0.031700
Si Si3 0.521079 0.681088 0.229570
Si Si4 0.172999 0.817963 0.207007
Si Si5 0.181359 0.181381 0.508236
Si Si6 0.050583 0.680321 0.371385
Si Si7 0.269348 0.327644 0.065823
O O1 0.168627 0.773536 0.261506
O O2 0.558599 0.783192 0.409114
O O3 0.188103 0.744527 0.363139
O O4 0.273392 0.000000 0.344039
O O5 0.953019 0.764482 0.118439
O O6 0.725803 0.000000 0.036729
O O7 0.500000 0.761965 0.000000
O O8 0.690935 0.772694 0.969439
O O9 0.500575 0.500000 0.228422
O O10 0.395291 0.756043 0.240417
O O11 0.390167 0.727446 0.146206
O O12 0.784529 0.719447 0.295987
O O13 0.180258 0.000000 0.207514
O O14 0.133301 0.253118 0.443866
O O15 0.000000 0.230526 0.500000
O O16 0.162206 0.000000 0.499074
O O17 0.072426 0.500000 0.377833
O O18 0.345524 0.500000 0.077571
O O19 0.000000 0.330235 0.000000
#
# Coordination Sequence:
#
# PCOD9150850 Si02
#       7
#     4   4   4   4   4   4   4
#     4  10  22  39  60  86 117 151 189 232 277 334
#     4  10  22  37  55  84 118 147 185 238 290 337
#     4  10  22  39  57  82 115 149 191 238 281 334
#     4  10  21  38  59  84 113 149 192 235 283 337
#     4  10  21  40  65  89 114 148 191 232 275 334
#     4  11  24  39  58  87 120 151 186 232 285 336
#     4  10  20  37  59  81 109 150 195 235 279 335
#
# _framework density 19.076592999999999
#
# number of rings (size 3 to 8) (size 9 to 14) (size 15 to 20)
#    0.000    1.857    1.429    1.714    2.000    6.571 
#    0.000    0.000    0.000    0.000    0.000    0.000 
#    0.000    0.000    0.000    0.000    0.000    0.000 
#
# Total GULP energy -156353.623598 kJ/mol
# GULP energy per Si atom -5584.057986 kJ/mol
# Density = 1.903317 g / cm^3
# Si number density = 19.076593 Si / 1000 Ang^3
#
#
#
# Elastic Constant Matrix: (Units=GPa)
#
#
# Indices 1 2 3 4 5 6 
#
# 1 137.7390 27.3847 29.9696 0.0000 -10.0025 0.0000
# 2 27.3847 7.6379 19.0168 0.0000 1.0708 0.0000
# 3 29.9696 19.0168 71.7866 0.0000 -18.6939 0.0000
# 4 0.0000 0.0000 0.0000 23.4609 0.0000 0.9809
# 5 -10.0025 1.0708 -18.6939 0.0000 34.0312 0.0000
# 6 0.0000 0.0000 0.0000 0.9809 0.0000 15.1202
#
#
#
# Elastic Compliance Matrix: (Units=1/GPa)
#
#
# Indices 1 2 3 4 5 6 
#
# 1 -0.005991 0.087906 -0.025631 0.000000 -0.018607 0.000000
# 2 0.087906 -0.552457 0.141088 0.000000 0.120723 0.000000
# 3 -0.025631 0.141088 -0.018511 0.000000 -0.022141 0.000000
# 4 0.000000 0.000000 0.000000 0.042740 0.000000 -0.002773
# 5 -0.018607 0.120723 -0.022141 0.000000 0.007955 0.000000
# 6 0.000000 0.000000 0.000000 -0.002773 0.000000 0.066316
#
#
# Mechanical properties :
#
#
# Convention : Reuss Voigt Hill
#
# Bulk Modulus (GPa) = -5.87432 41.10062 17.61315
# Shear Modulus (GPa) = -5.41466 23.90864 9.24699
#
# Velocity S-wave (km/s) = -1.68658 3.54403 2.20405
# Velocity P-wave (km/s) = 2.62274 6.19183 3.96611
#
# Compressibility (1/GPa) = -0.17023255
#
# Stress axis : x y z
#
# Youngs Moduli (GPa) = -166.90894 -1.81009 -54.02328
#
# Poissons Ratio (x) = 0.15912 -1.38467
# Poissons Ratio (y) = 14.67225 7.62206
# Poissons Ratio (z) = -4.27803 0.25538
#
# Static dielectric constant tensor:
#      x y z
#    x 1.781600 0.000000 -0.063390 
#    y 0.000000 1.653320 0.000000 
#    z -0.063390 0.000000 1.702110 
# 
# From -- ./inp_files/36907.got.cif
#   From: 2010.05.17/outbox.cif.g08.bks.cpg/sg10_19_cif.got.tgz:36907.got - 2010.06.03 11:33:40.
