data_PCOD9150156
_publ_section_title
;
Structure prediction by ZEFSAII (Michael W. Deem and Ramdas Pophale) SiO2 
 PCOD9150156
Probable space group: P 2/M
;
_chemical_formula_sum "Si O2"
_cell_formula_units_Z 20
_cell_length_a 13.051639
_cell_length_b 12.777231
_cell_length_c 5.334584
_cell_angle_alpha 90.000000
_cell_angle_beta 76.320486
_cell_angle_gamma 90.000000
_cell_volume 864.380467
_symmetry_space_group_name_H-M "P 2/M"
_symmetry_group_IT_number 10
_symmetry_cell_setting 'monoclinic'
loop_
_space_group_symop_operation_xyz
x,y,z
-x,y,-z
-x,-y,-z
x,-y,z
loop_
_atom_site_type_symbol
_atom_site_label
_atom_site_fract_x
_atom_site_fract_y
_atom_site_fract_z
Si Si1 0.600590 0.112536 0.125529
Si Si2 0.937813 0.213670 0.278345
Si Si3 0.244016 0.218992 0.292834
Si Si4 0.385737 0.324775 0.571054
Si Si5 0.169551 0.617233 0.945159
O O1 0.705396 0.128313 0.898975
O O2 0.602169 0.000000 0.256237
O O3 0.500000 0.114453 0.000000
O O4 0.597495 0.213674 0.300662
O O5 0.820369 0.177119 0.429552
O O6 0.908936 0.333529 0.216690
O O7 0.000000 0.198314 0.500000
O O8 0.000000 0.169105 0.000000
O O9 0.339841 0.293088 0.327930
O O10 0.173141 0.296397 0.163460
O O11 0.500000 0.377044 0.500000
O O12 0.288311 0.381203 0.763284
O O13 0.142352 0.500000 0.036853
#
# Coordination Sequence:
#
# PCOD9150156 Si02
#       5
#     4   4   4   4   4
#     4  10  20  35  61  94 123 159 204 255 314 375
#     4  11  22  42  65  91 120 168 212 262 319 366
#     4  10  21  39  60  86 127 162 204 262 308 374
#     4  10  20  36  57  85 126 168 205 251 309 371
#     4  10  23  39  59  90 123 163 212 261 310 371
#
# _framework density 23.137961000000001
#
# number of rings (size 3 to 8) (size 9 to 14) (size 15 to 20)
#    0.000    1.800    4.000    0.000    0.000    5.600 
#    0.000    1.000    0.000    1.200    0.000    0.000 
#    0.000    0.000    0.000    0.000    0.000    0.000 
#
# Total GULP energy -111550.794595 kJ/mol
# GULP energy per Si atom -5577.539730 kJ/mol
# Density = 2.308530 g / cm^3
# Si number density = 23.137961 Si / 1000 Ang^3
#
#
#
# Elastic Constant Matrix: (Units=GPa)
#
#
# Indices 1 2 3 4 5 6 
#
# 1 59.2757 -22.8757 25.4164 0.0000 -3.2665 0.0000
# 2 -22.8757 80.1397 8.0435 0.0000 4.7033 0.0000
# 3 25.4164 8.0435 108.7173 0.0000 -18.6323 0.0000
# 4 0.0000 0.0000 0.0000 -14.3014 0.0000 -12.3903
# 5 -3.2665 4.7033 -18.6323 0.0000 64.2564 0.0000
# 6 0.0000 0.0000 0.0000 -12.3903 0.0000 -33.5562
#
#
#
# Elastic Compliance Matrix: (Units=1/GPa)
#
#
# Indices 1 2 3 4 5 6 
#
# 1 0.021987 0.006925 -0.005838 0.000000 -0.001082 0.000000
# 2 0.006925 0.014849 -0.002992 0.000000 -0.001603 0.000000
# 3 -0.005838 -0.002992 0.011334 0.000000 0.003209 0.000000
# 4 0.000000 0.000000 0.000000 -0.102814 0.000000 0.037963
# 5 -0.001082 -0.001603 0.003209 0.000000 0.016555 0.000000
# 6 0.000000 0.000000 0.000000 0.037963 0.000000 -0.043818
#
#
# Mechanical properties :
#
#
# Convention : Reuss Voigt Hill
#
# Bulk Modulus (GPa) = 22.54250 29.92235 26.23243
# Shear Modulus (GPa) = -78.97682 19.11635 -29.93023
#
# Velocity S-wave (km/s) = -5.84868 2.87747 -3.60050
# Velocity P-wave (km/s) = 5.98713 4.89898 2.43369
#
# Compressibility (1/GPa) = 0.04436065
#
# Stress axis : x y z
#
# Youngs Moduli (GPa) = 45.48236 67.34254 88.22762
#
# Poissons Ratio (x) = -0.46638 0.51507
# Poissons Ratio (y) = -0.31499 0.26401
# Poissons Ratio (z) = 0.26552 0.20151
#
# Static dielectric constant tensor:
#      x y z
#    x 1.981560 0.000000 -0.027890 
#    y 0.000000 1.785130 0.000000 
#    z -0.027890 0.000000 1.945000 
# 
# From -- ./inp_files/6710.got.cif
#   From: 2010.05.17/outbox.cif.g08.bks.cpg/sg10_4_cif.got.tgz:6710.got - 2010.06.03 11:33:40.
