data_PCOD9150396
_publ_section_title
;
Structure prediction by ZEFSAII (Michael W. Deem and Ramdas Pophale) SiO2 
 PCOD9150396
Probable space group: P 2/M
;
_chemical_formula_sum "Si O2"
_cell_formula_units_Z 24
_cell_length_a 20.258744
_cell_length_b 13.841724
_cell_length_c 11.400221
_cell_angle_alpha 90.000000
_cell_angle_beta 159.243900
_cell_angle_gamma 90.000000
_cell_volume 1132.917174
_symmetry_space_group_name_H-M "P 2/M"
_symmetry_group_IT_number 10
_symmetry_cell_setting 'monoclinic'
loop_
_space_group_symop_operation_xyz
x,y,z
-x,y,-z
-x,-y,-z
x,-y,z
loop_
_atom_site_type_symbol
_atom_site_label
_atom_site_fract_x
_atom_site_fract_y
_atom_site_fract_z
Si Si1 0.259827 0.500000 0.515288
Si Si2 0.358288 0.790262 0.156317
Si Si3 0.293520 0.709625 0.651298
Si Si4 0.160717 0.500000 0.097923
Si Si5 0.472210 0.000000 0.813811
Si Si6 0.312502 0.198083 0.449465
Si Si7 0.776868 0.000000 0.135869
Si Si8 0.909945 0.290590 0.125664
O O1 0.321066 0.596711 0.679197
O O2 0.297331 0.500000 0.437737
O O3 0.041114 0.500000 0.179260
O O4 0.500000 0.777237 0.500000
O O5 0.483514 0.761819 0.252343
O O6 0.301533 0.902343 0.052164
O O7 0.174747 0.732751 0.888275
O O8 0.221365 0.745643 0.405419
O O9 0.131998 0.722354 0.478698
O O10 0.500000 0.756094 0.000000
O O11 0.161382 0.398330 0.029302
O O12 0.359793 0.908454 0.574782
O O13 0.500000 0.000000 0.000000
O O14 0.680055 0.000000 0.103091
O O15 0.181181 0.214744 0.118928
O O16 0.000000 0.000000 0.500000
#
# Coordination Sequence:
#
# PCOD9150396 Si02
#       8
#     2   4   4   2   2   4   2   4
#     4   9  17  32  55  79 110 146 186 229 277 333
#     4   9  20  37  57  82 111 142 189 230 273 331
#     4  11  21  34  55  83 112 147 188 231 278 332
#     4   9  16  32  58  82 112 144 185 233 276 332
#     4  10  22  39  57  83 118 148 184 233 280 333
#     4  10  20  37  57  81 112 147 183 232 282 328
#     4  10  21  37  60  81 110 152 185 223 280 335
#     4  10  20  36  58  84 113 148 188 231 281 329
#
# _framework density 21.184251
#
# number of rings (size 3 to 8) (size 9 to 14) (size 15 to 20)
#    0.000    2.167    1.667    1.500    0.000    6.000 
#    0.000    6.250    0.000    0.000    0.000    5.250 
#    0.000    0.000    0.000    0.000    0.000    0.000 
#
# Total GULP energy -133669.430122 kJ/mol
# GULP energy per Si atom -5569.559588 kJ/mol
# Density = 2.113603 g / cm^3
# Si number density = 21.184251 Si / 1000 Ang^3
#
#
#
# Elastic Constant Matrix: (Units=GPa)
#
#
# Indices 1 2 3 4 5 6 
#
# 1 93.8920 32.3823 20.0135 0.0000 31.4505 0.0000
# 2 32.3823 72.5294 15.6951 0.0000 22.4191 0.0000
# 3 20.0135 15.6951 89.1269 0.0000 18.6895 0.0000
# 4 0.0000 0.0000 0.0000 114.2942 0.0000 -34.2390
# 5 31.4505 22.4191 18.6895 0.0000 26.7542 0.0000
# 6 0.0000 0.0000 0.0000 -34.2390 0.0000 25.2754
#
#
#
# Elastic Compliance Matrix: (Units=1/GPa)
#
#
# Indices 1 2 3 4 5 6 
#
# 1 0.017795 -0.001996 0.000459 0.000000 -0.019567 0.000000
# 2 -0.001996 0.018831 -0.000060 0.000000 -0.013391 0.000000
# 3 0.000459 -0.000060 0.013157 0.000000 -0.009680 0.000000
# 4 0.000000 0.000000 0.000000 0.014725 0.000000 0.019947
# 5 -0.019567 -0.013391 -0.009680 0.000000 0.078363 0.000000
# 6 0.000000 0.000000 0.000000 0.019947 0.000000 0.066585
#
#
# Mechanical properties :
#
#
# Convention : Reuss Voigt Hill
#
# Bulk Modulus (GPa) = 21.46420 43.52557 32.49489
# Shear Modulus (GPa) = 21.91247 45.76191 33.83719
#
# Velocity S-wave (km/s) = 3.21966 4.65282 4.00094
# Velocity P-wave (km/s) = 4.89651 7.03248 6.05935
#
# Compressibility (1/GPa) = 0.04658919
#
# Stress axis : x y z
#
# Youngs Moduli (GPa) = 56.19411 53.10381 76.00275
#
# Poissons Ratio (x) = 0.10601 -0.03486
# Poissons Ratio (y) = 0.11218 0.00454
# Poissons Ratio (z) = -0.02577 0.00317
#
# Static dielectric constant tensor:
#      x y z
#    x 1.782630 0.000000 -0.003360 
#    y 0.000000 -0.205360 0.000000 
#    z -0.003360 0.000000 1.858860 
# 
# From -- ./inp_files/56075.got.cif
#   From: 2010.05.17/outbox.cif.g08.bks.cpg/sg10_29_cif.got.tgz:56075.got - 2010.06.03 11:33:40.
