data_PCOD9150504
_publ_section_title
;
Structure prediction by ZEFSAII (Michael W. Deem and Ramdas Pophale) SiO2 
 PCOD9150504
Probable space group: P 2/M
;
_chemical_formula_sum "Si O2"
_cell_formula_units_Z 32
_cell_length_a 15.856673
_cell_length_b 13.868317
_cell_length_c 21.171644
_cell_angle_alpha 90.000000
_cell_angle_beta 160.485287
_cell_angle_gamma 90.000000
_cell_volume 1555.250936
_symmetry_space_group_name_H-M "P 2/M"
_symmetry_group_IT_number 10
_symmetry_cell_setting 'monoclinic'
loop_
_space_group_symop_operation_xyz
x,y,z
-x,y,-z
-x,-y,-z
x,-y,z
loop_
_atom_site_type_symbol
_atom_site_label
_atom_site_fract_x
_atom_site_fract_y
_atom_site_fract_z
Si Si1 0.955821 0.614491 0.228190
Si Si2 0.582231 0.113149 0.190173
Si Si3 0.053537 0.199143 0.853286
Si Si4 0.306578 0.111716 0.496426
Si Si5 0.018265 0.887134 0.413568
Si Si6 0.837207 0.889107 0.822300
Si Si7 0.885006 0.383696 0.518474
Si Si8 0.381357 0.615751 0.792529
O O1 0.995453 0.500000 0.241649
O O2 0.028434 0.694144 0.227205
O O3 0.090707 0.637441 0.390015
O O4 0.651792 0.630495 0.015750
O O5 0.785278 0.117148 0.390105
O O6 0.743127 0.146122 0.242677
O O7 0.510485 0.000000 0.132126
O O8 0.341715 0.175420 0.038750
O O9 0.893611 0.122926 0.699929
O O10 0.983442 0.175561 0.875235
O O11 0.167319 0.154819 0.459342
O O12 0.566808 0.152408 0.652770
O O13 0.366955 0.000000 0.554357
O O14 0.975312 0.000000 0.368627
O O15 0.804758 0.000000 0.774984
O O16 0.000000 0.895214 0.000000
O O17 0.876569 0.500000 0.511792
O O18 0.668174 0.350477 0.315413
O O19 0.145004 0.352428 0.668013
O O20 0.359055 0.500000 0.773586
#
# Coordination Sequence:
#
# PCOD9150504 Si02
#       8
#     4   4   4   4   4   4   4   4
#     4  10  21  37  52  76 118 159 199 247 298 352
#     4   9  17  33  55  80 119 161 194 229 276 348
#     4  12  23  35  54  89 117 150 194 242 299 351
#     4  10  20  36  59  86 115 144 182 236 291 349
#     4   8  16  33  55  80 116 162 194 221 277 351
#     4  10  21  40  67  92 115 145 184 240 305 359
#     4   8  14  29  53  76 101 143 201 254 301 346
#     4   8  14  29  54  76  99 144 200 253 301 344
#
# _framework density 20.575458000000001
#
# number of rings (size 3 to 8) (size 9 to 14) (size 15 to 20)
#    0.000    2.625    0.000    4.125    0.000    5.000 
#    9.000    3.125    0.000    1.875    0.000    0.000 
#    0.000    0.000    0.000    0.000    0.000    0.000 
#
# Total GULP energy -178332.954303 kJ/mol
# GULP energy per Si atom -5572.904822 kJ/mol
# Density = 2.052863 g / cm^3
# Si number density = 20.575458 Si / 1000 Ang^3
#
#
#
# Elastic Constant Matrix: (Units=GPa)
#
#
# Indices 1 2 3 4 5 6 
#
# 1 156.5636 23.8085 32.0682 0.0000 15.8387 0.0000
# 2 23.8085 118.8641 6.2827 0.0000 8.5404 0.0000
# 3 32.0682 6.2827 73.2828 0.0000 14.4217 0.0000
# 4 0.0000 0.0000 0.0000 9.7028 0.0000 -3.1803
# 5 15.8387 8.5404 14.4217 0.0000 32.8193 0.0000
# 6 0.0000 0.0000 0.0000 -3.1803 0.0000 -50.2412
#
#
#
# Elastic Compliance Matrix: (Units=1/GPa)
#
#
# Indices 1 2 3 4 5 6 
#
# 1 0.007327 -0.001178 -0.002703 0.000000 -0.002041 0.000000
# 2 -0.001178 0.008770 0.000110 0.000000 -0.001762 0.000000
# 3 -0.002703 0.000110 0.015947 0.000000 -0.005732 0.000000
# 4 0.000000 0.000000 0.000000 0.100968 0.000000 -0.006391
# 5 -0.002041 -0.001762 -0.005732 0.000000 0.034432 0.000000
# 6 0.000000 0.000000 0.000000 -0.006391 0.000000 -0.019499
#
#
# Mechanical properties :
#
#
# Convention : Reuss Voigt Hill
#
# Bulk Modulus (GPa) = 40.81355 52.55882 46.68618
# Shear Modulus (GPa) = 30.55238 17.55959 24.05599
#
# Velocity S-wave (km/s) = 3.85761 2.92451 3.42301
# Velocity P-wave (km/s) = 6.30243 6.08306 6.19372
#
# Compressibility (1/GPa) = 0.02450167
#
# Stress axis : x y z
#
# Youngs Moduli (GPa) = 136.49014 114.02913 62.70678
#
# Poissons Ratio (x) = 0.13432 0.16952
# Poissons Ratio (y) = 0.16078 -0.00692
# Poissons Ratio (z) = 0.36898 -0.01259
#
# Static dielectric constant tensor:
#      x y z
#    x 1.763880 0.000000 0.008720 
#    y 0.000000 1.791360 0.000000 
#    z 0.008720 0.000000 1.743780 
# 
# From -- ./inp_files/85412.got.cif
#   From: 2010.05.17/outbox.cif.g08.bks.cpg/sg10_43_cif.got.tgz:85412.got - 2010.06.03 11:33:40.
