data_PCOD9150069
_publ_section_title
;
Structure prediction by ZEFSAII (Michael W. Deem and Ramdas Pophale) SiO2 
 PCOD9150069
Probable space group: P 2/M
;
_chemical_formula_sum "Si O2"
_cell_formula_units_Z 32
_cell_length_a 18.730120
_cell_length_b 14.378073
_cell_length_c 12.476359
_cell_angle_alpha 90.000000
_cell_angle_beta 153.314501
_cell_angle_gamma 90.000000
_cell_volume 1508.916742
_symmetry_space_group_name_H-M "P 2/M"
_symmetry_group_IT_number 10
_symmetry_cell_setting 'monoclinic'
loop_
_space_group_symop_operation_xyz
x,y,z
-x,y,-z
-x,-y,-z
x,-y,z
loop_
_atom_site_type_symbol
_atom_site_label
_atom_site_fract_x
_atom_site_fract_y
_atom_site_fract_z
Si Si1 0.190838 0.891258 0.746293
Si Si2 0.645907 0.395402 0.905475
Si Si3 0.178569 0.111178 0.490876
Si Si4 0.856800 0.612146 0.380739
Si Si5 0.698271 0.892518 0.564968
Si Si6 0.964033 0.605605 0.181174
Si Si7 0.384326 0.799471 0.195380
Si Si8 0.880185 0.210086 0.980530
O O1 0.226614 0.857055 0.673753
O O2 0.000000 0.888845 0.500000
O O3 0.240547 0.000000 0.825738
O O4 0.271555 0.829602 0.945407
O O5 0.578500 0.500000 0.806094
O O6 0.552656 0.305855 0.738941
O O7 0.698787 0.376526 0.099357
O O8 0.809746 0.395859 0.054402
O O9 0.305857 0.126952 0.567615
O O10 0.017052 0.154773 0.227804
O O11 0.152904 0.000000 0.467033
O O12 0.879804 0.500000 0.415800
O O13 0.000000 0.652395 0.500000
O O14 0.890261 0.639961 0.547486
O O15 0.529468 0.869627 0.389380
O O16 0.740746 0.000000 0.636659
O O17 0.830508 0.831183 0.800612
O O18 0.989277 0.500000 0.178223
O O19 0.929372 0.682233 0.046404
O O20 0.276747 0.799662 0.155958
#
# Coordination Sequence:
#
# PCOD9150069 Si02
#       8
#     4   4   4   4   4   4   4   4
#     4  10  20  35  58  89 119 140 176 238 300 345
#     4   8  15  27  46  76 114 149 182 222 276 339
#     4  10  22  40  61  83 110 149 191 234 287 346
#     4   7  10  19  38  67 104 139 168 210 265 319
#     4  11  25  42  57  78 112 156 200 235 276 340
#     4   8  15  27  47  80 115 143 181 232 281 326
#     4  11  22  34  58  89 119 148 187 236 293 333
#     4  11  21  35  60  86 113 150 197 237 277 327
#
# _framework density 21.207267999999999
#
# number of rings (size 3 to 8) (size 9 to 14) (size 15 to 20)
#    0.000    2.500    1.250    3.000    1.750    4.000 
#    0.000    2.500    0.000    5.250    0.000    0.875 
#    0.000    0.000    0.000    0.000    0.000    0.000 
#
# Total GULP energy -178534.270052 kJ/mol
# GULP energy per Si atom -5579.195939 kJ/mol
# Density = 2.115900 g / cm^3
# Si number density = 21.207268 Si / 1000 Ang^3
#
#
#
# Elastic Constant Matrix: (Units=GPa)
#
#
# Indices 1 2 3 4 5 6 
#
# 1 49.9192 22.4635 5.8865 0.0000 -14.5868 0.0000
# 2 22.4635 72.7781 7.7843 0.0000 -16.2952 0.0000
# 3 5.8865 7.7843 24.0566 0.0000 -11.4845 0.0000
# 4 0.0000 0.0000 0.0000 14.0833 0.0000 -15.2761
# 5 -14.5868 -16.2952 -11.4845 0.0000 27.4694 0.0000
# 6 0.0000 0.0000 0.0000 -15.2761 0.0000 11.9205
#
#
#
# Elastic Compliance Matrix: (Units=1/GPa)
#
#
# Indices 1 2 3 4 5 6 
#
# 1 0.025548 -0.005599 0.000564 0.000000 0.010481 0.000000
# 2 -0.005599 0.017084 -0.000924 0.000000 0.006775 0.000000
# 3 0.000564 -0.000924 0.051987 0.000000 0.021486 0.000000
# 4 0.000000 0.000000 0.000000 -0.182049 0.000000 -0.233295
# 5 0.010481 0.006775 0.021486 0.000000 0.054972 0.000000
# 6 0.000000 0.000000 0.000000 -0.233295 0.000000 -0.215078
#
#
# Mechanical properties :
#
#
# Convention : Reuss Voigt Hill
#
# Bulk Modulus (GPa) = 12.09171 24.33584 18.21377
# Shear Modulus (GPa) = -24.03255 18.06929 -2.98163
#
# Velocity S-wave (km/s) = -3.36999 2.92213 -1.18701
# Velocity P-wave (km/s) = 3.07057 4.78385 2.59392
#
# Compressibility (1/GPa) = 0.08270131
#
# Stress axis : x y z
#
# Youngs Moduli (GPa) = 39.14190 58.53290 19.23558
#
# Poissons Ratio (x) = 0.32774 -0.01085
# Poissons Ratio (y) = 0.21917 0.01777
# Poissons Ratio (z) = -0.02207 0.05407
#
# Static dielectric constant tensor:
#      x y z
#    x 1.780720 0.000000 -0.001270 
#    y 0.000000 1.784380 0.000000 
#    z -0.001270 0.000000 1.767280 
# 
# From -- ./inp_files/54068.got.cif
#   From: 2010.05.17/outbox.cif.g08.bks.cpg/sg10_28_cif.got.tgz:54068.got - 2010.06.03 11:33:40.
