data_PCOD9150838
_publ_section_title
;
Structure prediction by ZEFSAII (Michael W. Deem and Ramdas Pophale) SiO2 
 PCOD9150838
Probable space group: P 2/M
;
_chemical_formula_sum "Si O2"
_cell_formula_units_Z 32
_cell_length_a 12.463597
_cell_length_b 8.793541
_cell_length_c 16.416941
_cell_angle_alpha 90.000000
_cell_angle_beta 88.711615
_cell_angle_gamma 90.000000
_cell_volume 1798.827919
_symmetry_space_group_name_H-M "P 2/M"
_symmetry_group_IT_number 10
_symmetry_cell_setting 'monoclinic'
loop_
_space_group_symop_operation_xyz
x,y,z
-x,y,-z
-x,-y,-z
x,-y,z
loop_
_atom_site_type_symbol
_atom_site_label
_atom_site_fract_x
_atom_site_fract_y
_atom_site_fract_z
Si Si1 0.380364 0.318548 0.967721
Si Si2 0.116723 0.180720 0.535166
Si Si3 0.730220 0.181149 0.877506
Si Si4 0.088139 0.317907 0.229858
Si Si5 0.147868 0.318208 0.712282
Si Si6 0.640630 0.181127 0.211616
Si Si7 0.420034 0.317897 0.261225
Si Si8 0.767032 0.318972 0.615220
O O1 0.368003 0.500000 0.960307
O O2 0.366928 0.242023 0.880521
O O3 0.500000 0.288119 0.000000
O O4 0.297897 0.252668 0.035086
O O5 0.135114 0.266692 0.619182
O O6 0.203150 0.228927 0.465947
O O7 0.000000 0.220751 0.500000
O O8 0.119364 0.000000 0.549141
O O9 0.845233 0.232705 0.840620
O O10 0.643891 0.246988 0.814182
O O11 0.721884 0.000000 0.880505
O O12 0.099431 0.500000 0.217579
O O13 0.146548 0.283053 0.315048
O O14 0.963506 0.278974 0.240114
O O15 0.160887 0.500000 0.715855
O O16 0.249405 0.237841 0.750526
O O17 0.538510 0.250903 0.260451
O O18 0.634252 0.000000 0.212598
O O19 0.423279 0.500000 0.249959
O O20 0.348000 0.285690 0.342046
O O21 0.773610 0.500000 0.599237
#
# Coordination Sequence:
#
# PCOD9150838 Si02
#       8
#     4   4   4   4   4   4   4   4
#     4  11  22  38  62  87 116 155 199 243 283 342
#     4  11  22  35  56  89 123 152 191 245 297 342
#     4  11  21  33  57  90 121 150 187 244 299 339
#     4   9  19  36  58  84 115 154 197 238 285 347
#     4  11  23  41  63  84 116 161 202 238 286 352
#     4  12  25  40  60  88 122 154 191 242 300 353
#     4  10  20  37  58  84 117 155 198 237 284 349
#     4   9  18  34  58  86 114 149 195 243 284 339
#
# _framework density 17.789362000000001
#
# number of rings (size 3 to 8) (size 9 to 14) (size 15 to 20)
#    0.000    1.500    2.500    4.500    0.000    4.500 
#    0.000    1.250    0.000    7.500    0.000    0.000 
#    0.000    0.000    0.000    0.000    0.000    0.000 
#
# Total GULP energy -178815.069731 kJ/mol
# GULP energy per Si atom -5587.970929 kJ/mol
# Density = 1.774887 g / cm^3
# Si number density = 17.789362 Si / 1000 Ang^3
#
#
#
# Elastic Constant Matrix: (Units=GPa)
#
#
# Indices 1 2 3 4 5 6 
#
# 1 138.9528 63.6202 55.0891 0.0000 -12.8857 0.0000
# 2 63.6202 83.3557 45.0713 0.0000 -6.5963 0.0000
# 3 55.0891 45.0713 72.9615 0.0000 -13.1916 0.0000
# 4 0.0000 0.0000 0.0000 47.6607 0.0000 -6.7904
# 5 -12.8857 -6.5963 -13.1916 0.0000 26.6619 0.0000
# 6 0.0000 0.0000 0.0000 -6.7904 0.0000 25.0582
#
#
#
# Elastic Compliance Matrix: (Units=1/GPa)
#
#
# Indices 1 2 3 4 5 6 
#
# 1 0.012345 -0.006633 -0.004877 0.000000 0.001912 0.000000
# 2 -0.006633 0.021610 -0.008736 0.000000 -0.002182 0.000000
# 3 -0.004877 -0.008736 0.024126 0.000000 0.007419 0.000000
# 4 0.000000 0.000000 0.000000 0.021824 0.000000 0.005914
# 5 0.001912 -0.002182 0.007419 0.000000 0.041562 0.000000
# 6 0.000000 0.000000 0.000000 0.005914 0.000000 0.041510
#
#
# Mechanical properties :
#
#
# Convention : Reuss Voigt Hill
#
# Bulk Modulus (GPa) = 56.85527 69.20347 63.02937
# Shear Modulus (GPa) = 23.88542 28.64212 26.26377
#
# Velocity S-wave (km/s) = 3.66823 4.01692 3.84653
# Velocity P-wave (km/s) = 7.06901 7.77819 7.43206
#
# Compressibility (1/GPa) = 0.01758852
#
# Stress axis : x y z
#
# Youngs Moduli (GPa) = 81.00533 46.27397 41.44878
#
# Poissons Ratio (x) = 0.30696 0.20217
# Poissons Ratio (y) = 0.53735 0.36208
# Poissons Ratio (z) = 0.39510 0.40423
#
# Static dielectric constant tensor:
#      x y z
#    x 1.605950 0.000000 -0.015670 
#    y 0.000000 1.588540 0.000000 
#    z -0.015670 0.000000 1.580290 
# 
# From -- ./inp_files/63763.got.cif
#   From: 2010.05.17/outbox.cif.g08.bks.cpg/sg10_32_cif.got.tgz:63763.got - 2010.06.03 11:33:40.
