data_PCOD9150298
_publ_section_title
;
Structure prediction by ZEFSAII (Michael W. Deem and Ramdas Pophale) SiO2 
 PCOD9150298
Probable space group: P 2/M
;
_chemical_formula_sum "Si O2"
_cell_formula_units_Z 24
_cell_length_a 16.239976
_cell_length_b 8.562569
_cell_length_c 16.218710
_cell_angle_alpha 90.000000
_cell_angle_beta 36.781851
_cell_angle_gamma 90.000000
_cell_volume 1350.410348
_symmetry_space_group_name_H-M "P 2/M"
_symmetry_group_IT_number 10
_symmetry_cell_setting 'monoclinic'
loop_
_space_group_symop_operation_xyz
x,y,z
-x,y,-z
-x,-y,-z
x,-y,z
loop_
_atom_site_type_symbol
_atom_site_label
_atom_site_fract_x
_atom_site_fract_y
_atom_site_fract_z
Si Si1 0.970453 0.813834 0.262659
Si Si2 0.691422 0.686628 0.407627
Si Si3 0.938289 0.310943 0.637416
Si Si4 0.637158 0.310241 0.934525
Si Si5 0.598321 0.186304 0.307696
Si Si6 0.260437 0.687833 0.969552
O O1 0.983439 0.761355 0.347472
O O2 0.831337 0.749468 0.334492
O O3 0.974269 0.000000 0.253741
O O4 0.104433 0.743247 0.109864
O O5 0.689076 0.500000 0.411311
O O6 0.557779 0.751022 0.562739
O O7 0.673353 0.744470 0.328170
O O8 0.946338 0.500000 0.638081
O O9 0.000000 0.265414 0.500000
O O10 0.778037 0.265789 0.775354
O O11 0.632241 0.500000 0.937672
O O12 0.655909 0.264287 0.014930
O O13 0.500000 0.252024 0.000000
O O14 0.673505 0.240375 0.164721
O O15 0.596993 0.000000 0.314959
O O16 0.262464 0.500000 0.962560
#
# Coordination Sequence:
#
# PCOD9150298 Si02
#       6
#     4   4   4   4   4   4
#     4  11  22  37  56  81 113 147 184 232 285 327
#     4  11  22  39  60  82 109 145 187 227 271 329
#     4   9  18  33  53  77 106 142 184 226 270 326
#     4   8  15  29  50  76 104 135 176 224 265 307
#     4  11  22  38  58  84 115 144 178 225 280 330
#     4  10  20  36  57  82 111 147 189 228 271 329
#
# _framework density 17.772376999999999
#
# number of rings (size 3 to 8) (size 9 to 14) (size 15 to 20)
#    0.000    2.000    0.000    7.000    0.000    2.333 
#    0.000    6.667    0.000   12.500    0.000    0.000 
#    0.000    0.000    0.000    0.000    0.000    0.000 
#
# Total GULP energy -134015.219439 kJ/mol
# GULP energy per Si atom -5583.967477 kJ/mol
# Density = 1.773193 g / cm^3
# Si number density = 17.772377 Si / 1000 Ang^3
#
#
#
# Elastic Constant Matrix: (Units=GPa)
#
#
# Indices 1 2 3 4 5 6 
#
# 1 146.1035 32.3020 94.1236 0.0000 -23.6473 0.0000
# 2 32.3020 83.2841 27.0748 0.0000 -1.0047 0.0000
# 3 94.1236 27.0748 126.5276 0.0000 16.4827 0.0000
# 4 0.0000 0.0000 0.0000 16.3707 0.0000 -6.5907
# 5 -23.6473 -1.0047 16.4827 0.0000 28.7213 0.0000
# 6 0.0000 0.0000 0.0000 -6.5907 0.0000 3.6002
#
#
#
# Elastic Compliance Matrix: (Units=1/GPa)
#
#
# Indices 1 2 3 4 5 6 
#
# 1 0.036917 -0.002905 -0.033275 0.000000 0.049389 0.000000
# 2 -0.002905 0.013263 -0.000460 0.000000 -0.001664 0.000000
# 3 -0.033275 -0.000460 0.039261 0.000000 -0.049943 0.000000
# 4 0.000000 0.000000 0.000000 0.232270 0.000000 0.425210
# 5 0.049389 -0.001664 -0.049943 0.000000 0.104085 0.000000
# 6 0.000000 0.000000 0.000000 0.425210 0.000000 1.056185
#
#
# Mechanical properties :
#
#
# Convention : Reuss Voigt Hill
#
# Bulk Modulus (GPa) = 61.87685 73.65732 67.76709
# Shear Modulus (GPa) = 3.20380 23.23278 13.21829
#
# Velocity S-wave (km/s) = 1.34410 3.61950 2.73015
# Velocity P-wave (km/s) = 6.10743 7.68131 6.93914
#
# Compressibility (1/GPa) = 0.01616113
#
# Stress axis : x y z
#
# Youngs Moduli (GPa) = 27.08781 75.39528 25.47062
#
# Poissons Ratio (x) = 0.21905 0.84753
# Poissons Ratio (y) = 0.07870 0.01172
# Poissons Ratio (z) = 0.90134 0.03469
#
# Static dielectric constant tensor:
#      x y z
#    x 1.586390 0.000000 -0.001270 
#    y 0.000000 1.594700 0.000000 
#    z -0.001270 0.000000 1.582790 
# 
# From -- ./inp_files/66304.got.cif
#   From: 2010.05.17/outbox.cif.g08.bks.cpg/sg10_34_cif.got.tgz:66304.got - 2010.06.03 11:33:40.
