data_PCOD9150534
_publ_section_title
;
Structure prediction by ZEFSAII (Michael W. Deem and Ramdas Pophale) SiO2 
 PCOD9150534
Probable space group: P 2/M
;
_chemical_formula_sum "Si O2"
_cell_formula_units_Z 28
_cell_length_a 10.382398
_cell_length_b 8.772843
_cell_length_c 28.074440
_cell_angle_alpha 90.000000
_cell_angle_beta 35.061799
_cell_angle_gamma 90.000000
_cell_volume 1468.955541
_symmetry_space_group_name_H-M "P 2/M"
_symmetry_group_IT_number 10
_symmetry_cell_setting 'monoclinic'
loop_
_space_group_symop_operation_xyz
x,y,z
-x,y,-z
-x,-y,-z
x,-y,z
loop_
_atom_site_type_symbol
_atom_site_label
_atom_site_fract_x
_atom_site_fract_y
_atom_site_fract_z
Si Si1 0.912555 0.683502 0.973555
Si Si2 0.604421 0.683765 0.344571
Si Si3 0.657229 0.683941 0.218291
Si Si4 0.873495 0.816372 0.489859
Si Si5 0.535259 0.818269 0.933868
Si Si6 0.075594 0.682622 0.245051
Si Si7 0.782621 0.182827 0.696958
O O1 0.880819 0.500000 0.981465
O O2 0.105834 0.725839 0.877182
O O3 0.000000 0.721824 0.000000
O O4 0.680637 0.762781 0.030327
O O5 0.592882 0.500000 0.348528
O O6 0.634986 0.731661 0.280104
O O7 0.374675 0.749327 0.434609
O O8 0.823560 0.730387 0.307745
O O9 0.641028 0.500000 0.221191
O O10 0.453510 0.753626 0.250133
O O11 0.000000 0.767931 0.500000
O O12 0.025838 0.770898 0.399004
O O13 0.858968 0.000000 0.494804
O O14 0.754630 0.737267 0.847049
O O15 0.559412 0.000000 0.921991
O O16 0.500000 0.780268 0.000000
O O17 0.082089 0.500000 0.246210
O O18 0.156401 0.753369 0.270030
O O19 0.772730 0.000000 0.701227
#
# Coordination Sequence:
#
# PCOD9150534 Si02
#       7
#     4   4   4   4   4   4   4
#     4  10  21  37  59  87 119 157 200 247 298 352
#     4  10  22  38  60  88 117 154 201 250 294 347
#     4  10  20  36  59  88 118 153 200 248 298 352
#     4  10  21  39  61  88 121 158 199 241 295 359
#     4  11  24  41  62  90 122 158 201 246 296 354
#     4  11  24  42  62  88 122 159 200 245 298 356
#     4  11  23  39  61  89 122 159 198 245 300 355
#
# _framework density 19.061163000000001
#
# number of rings (size 3 to 8) (size 9 to 14) (size 15 to 20)
#    0.000    1.571    1.429    3.000    0.000    7.429 
#    0.000    2.857    0.000    0.000    0.000    0.000 
#    0.000    0.000    0.000    0.000    0.000    0.000 
#
# Total GULP energy -156553.966156 kJ/mol
# GULP energy per Si atom -5591.213077 kJ/mol
# Density = 1.901778 g / cm^3
# Si number density = 19.061163 Si / 1000 Ang^3
#
#
#
# Elastic Constant Matrix: (Units=GPa)
#
#
# Indices 1 2 3 4 5 6 
#
# 1 57.1134 6.0759 -19.6916 0.0000 -12.7955 0.0000
# 2 6.0759 12.1219 7.2695 0.0000 -2.7472 0.0000
# 3 -19.6916 7.2695 63.3387 0.0000 -15.4383 0.0000
# 4 0.0000 0.0000 0.0000 36.9757 0.0000 -10.3054
# 5 -12.7955 -2.7472 -15.4383 0.0000 37.5331 0.0000
# 6 0.0000 0.0000 0.0000 -10.3054 0.0000 -0.5948
#
#
#
# Elastic Compliance Matrix: (Units=1/GPa)
#
#
# Indices 1 2 3 4 5 6 
#
# 1 0.027486 -0.019109 0.014095 0.000000 0.013769 0.000000
# 2 -0.019109 0.102100 -0.019367 0.000000 -0.007008 0.000000
# 3 0.014095 -0.019367 0.025806 0.000000 0.014002 0.000000
# 4 0.000000 0.000000 0.000000 0.004640 0.000000 -0.080388
# 5 0.013769 -0.007008 0.014002 0.000000 0.036584 0.000000
# 6 0.000000 0.000000 0.000000 -0.080388 0.000000 -0.288430
#
#
# Mechanical properties :
#
#
# Convention : Reuss Voigt Hill
#
# Bulk Modulus (GPa) = 9.37831 13.32017 11.34924
# Shear Modulus (GPa) = -665.95206 24.04413 -320.95397
#
# Velocity S-wave (km/s) = -18.71189 3.55550 -12.99025
# Velocity P-wave (km/s) = 21.49222 4.88454 14.79961
#
# Compressibility (1/GPa) = 0.10662899
#
# Stress axis : x y z
#
# Youngs Moduli (GPa) = 36.38183 9.79432 38.75110
#
# Poissons Ratio (x) = 0.18716 -0.54618
# Poissons Ratio (y) = 0.69522 0.75050
# Poissons Ratio (z) = -0.51279 0.18969
#
# Static dielectric constant tensor:
#      x y z
#    x 1.632080 0.000000 0.014720 
#    y 0.000000 1.642950 0.000000 
#    z 0.014720 0.000000 1.641640 
# 
# From -- ./inp_files/91996.got.cif
#   From: 2010.05.17/outbox.cif.g08.bks.cpg/sg10_46_cif.got.tgz:91996.got - 2010.06.03 11:33:40.
