data_PCOD9150927
_publ_section_title
;
Structure prediction by ZEFSAII (Michael W. Deem and Ramdas Pophale) SiO2 
 PCOD9150927
Probable space group: P 2/M
;
_chemical_formula_sum "Si O2"
_cell_formula_units_Z 28
_cell_length_a 21.347418
_cell_length_b 8.510688
_cell_length_c 24.122739
_cell_angle_alpha 90.000000
_cell_angle_beta 160.262777
_cell_angle_gamma 90.000000
_cell_volume 1480.050321
_symmetry_space_group_name_H-M "P 2/M"
_symmetry_group_IT_number 10
_symmetry_cell_setting 'monoclinic'
loop_
_space_group_symop_operation_xyz
x,y,z
-x,y,-z
-x,-y,-z
x,-y,z
loop_
_atom_site_type_symbol
_atom_site_label
_atom_site_fract_x
_atom_site_fract_y
_atom_site_fract_z
Si Si1 0.704745 0.673231 0.643331
Si Si2 0.484617 0.187776 0.120910
Si Si3 0.434392 0.809673 0.580475
Si Si4 0.129178 0.311756 0.763550
Si Si5 0.192818 0.181059 0.165983
Si Si6 0.293266 0.189643 0.584055
Si Si7 0.195699 0.310225 0.692201
O O1 0.500000 0.658377 0.500000
O O2 0.791181 0.500000 0.720287
O O3 0.698508 0.728685 0.575099
O O4 0.779375 0.808379 0.745167
O O5 0.581221 0.243425 0.259115
O O6 0.631829 0.237121 0.196406
O O7 0.470520 0.000000 0.111957
O O8 0.281778 0.251816 0.934769
O O9 0.637389 0.756224 0.728491
O O10 0.388778 0.768573 0.605264
O O11 0.423014 0.000000 0.565002
O O12 0.126929 0.500000 0.764050
O O13 0.192414 0.264613 0.753983
O O14 0.917454 0.252474 0.592473
O O15 0.177716 0.000000 0.135648
O O16 0.000000 0.268912 0.000000
O O17 0.282719 0.000000 0.578557
O O18 0.210432 0.500000 0.701180
O O19 0.000000 0.265767 0.500000
#
# Coordination Sequence:
#
# PCOD9150927 Si02
#       7
#     4   4   4   4   4   4   4
#     4   9  17  30  50  75 103 134 170 216 268 317
#     4  11  23  38  59  87 119 151 191 242 294 346
#     4   9  18  35  56  76 104 143 183 223 270 329
#     4  11  23  39  61  85 114 151 194 241 290 347
#     4   9  17  31  53  81 108 138 182 227 270 325
#     4  10  22  40  59  81 114 155 194 236 287 343
#     4  10  20  37  60  85 113 151 195 240 292 344
#
# _framework density 18.918275999999999
#
# number of rings (size 3 to 8) (size 9 to 14) (size 15 to 20)
#    0.000    2.143    1.429    1.714    0.000    6.286 
#    2.571    0.000    0.000    0.000    0.000    0.000 
#    0.000    0.000    0.000    0.000    0.000    0.000 
#
# Total GULP energy -155925.280341 kJ/mol
# GULP energy per Si atom -5568.760012 kJ/mol
# Density = 1.887522 g / cm^3
# Si number density = 18.918276 Si / 1000 Ang^3
#
#
#
# Elastic Constant Matrix: (Units=GPa)
#
#
# Indices 1 2 3 4 5 6 
#
# 1 147.1127 27.6773 68.1473 0.0000 -10.4062 0.0000
# 2 27.6773 24.9456 24.0943 0.0000 0.0324 0.0000
# 3 68.1473 24.0943 128.3064 0.0000 -13.3234 0.0000
# 4 0.0000 0.0000 0.0000 13.0653 0.0000 3.3333
# 5 -10.4062 0.0324 -13.3234 0.0000 15.8541 0.0000
# 6 0.0000 0.0000 0.0000 3.3333 0.0000 49.1673
#
#
#
# Elastic Compliance Matrix: (Units=1/GPa)
#
#
# Indices 1 2 3 4 5 6 
#
# 1 0.010185 -0.007884 -0.003542 0.000000 0.003724 0.000000
# 2 -0.007884 0.056160 -0.007568 0.000000 -0.011650 0.000000
# 3 -0.003542 -0.007568 0.011895 0.000000 0.007686 0.000000
# 4 0.000000 0.000000 0.000000 0.077886 0.000000 -0.005280
# 5 0.003724 -0.011650 0.007686 0.000000 0.072003 0.000000
# 6 0.000000 0.000000 0.000000 -0.005280 0.000000 0.020697
#
#
# Mechanical properties :
#
#
# Convention : Reuss Voigt Hill
#
# Bulk Modulus (GPa) = 24.84456 60.02250 42.43353
# Shear Modulus (GPa) = 16.65381 27.64704 22.15043
#
# Velocity S-wave (km/s) = 2.97021 3.82696 3.42548
# Velocity P-wave (km/s) = 4.99239 7.16405 6.17445
#
# Compressibility (1/GPa) = 0.04025026
#
# Stress axis : x y z
#
# Youngs Moduli (GPa) = 98.18208 17.80633 84.07079
#
# Poissons Ratio (x) = 0.14038 0.29781
# Poissons Ratio (y) = 0.77405 0.63629
# Poissons Ratio (z) = 0.34780 0.13477
#
# Static dielectric constant tensor:
#      x y z
#    x 1.645060 0.000000 -0.033460 
#    y 0.000000 1.663310 0.000000 
#    z -0.033460 0.000000 1.737590 
# 
# From -- ./inp_files/90370.got.cif
#   From: 2010.05.17/outbox.cif.g08.bks.cpg/sg10_46_cif.got.tgz:90370.got - 2010.06.03 11:33:40.
