data_PCOD9150487
_publ_section_title
;
Structure prediction by ZEFSAII (Michael W. Deem and Ramdas Pophale) SiO2 
 PCOD9150487
Probable space group: P 2/M
;
_chemical_formula_sum "Si O2"
_cell_formula_units_Z 24
_cell_length_a 10.581010
_cell_length_b 8.433519
_cell_length_c 13.995227
_cell_angle_alpha 90.000000
_cell_angle_beta 100.856199
_cell_angle_gamma 90.000000
_cell_volume 1226.515187
_symmetry_space_group_name_H-M "P 2/M"
_symmetry_group_IT_number 10
_symmetry_cell_setting 'monoclinic'
loop_
_space_group_symop_operation_xyz
x,y,z
-x,y,-z
-x,-y,-z
x,-y,z
loop_
_atom_site_type_symbol
_atom_site_label
_atom_site_fract_x
_atom_site_fract_y
_atom_site_fract_z
Si Si1 0.988095 0.189734 0.388720
Si Si2 0.286590 0.690089 0.721416
Si Si3 0.142165 0.692099 0.053974
Si Si4 0.207608 0.308440 0.278326
Si Si5 0.360671 0.189947 0.941303
Si Si6 0.487727 0.306454 0.388526
O O1 0.104928 0.251985 0.341221
O O2 0.000000 0.247028 0.500000
O O3 0.853022 0.243990 0.325051
O O4 0.992371 0.000000 0.389842
O O5 0.280364 0.500000 0.717003
O O6 0.330099 0.740981 0.832912
O O7 0.392897 0.745288 0.659554
O O8 0.147557 0.500000 0.051747
O O9 0.168618 0.743615 0.166411
O O10 0.250475 0.757365 0.999016
O O11 0.000000 0.740705 0.000000
O O12 0.207233 0.500000 0.278683
O O13 0.351338 0.255079 0.325657
O O14 0.362106 0.000000 0.934750
O O15 0.500000 0.243594 0.000000
O O16 0.500000 0.254923 0.500000
O O17 0.488444 0.500000 0.388336
#
# Coordination Sequence:
#
# PCOD9150487 Si02
#       6
#     4   4   4   4   4   4
#     4  11  24  40  58  85 122 159 194 235 286 347
#     4  11  22  38  63  89 115 152 196 244 293 340
#     4  10  21  37  58  85 114 147 193 243 288 338
#     4  10  20  36  59  85 113 147 191 241 287 338
#     4  11  24  40  59  86 121 158 194 235 288 352
#     4   9  18  33  55  84 113 142 184 237 288 337
#
# _framework density 19.567634999999999
#
# number of rings (size 3 to 8) (size 9 to 14) (size 15 to 20)
#    0.000    1.667    0.000    4.500    0.000    7.667 
#    0.000    1.667    0.000    4.500    0.000    0.000 
#    0.000    0.000    0.000    0.000    0.000    0.000 
#
# Total GULP energy -134195.167741 kJ/mol
# GULP energy per Si atom -5591.465323 kJ/mol
# Density = 1.952310 g / cm^3
# Si number density = 19.567635 Si / 1000 Ang^3
#
#
#
# Elastic Constant Matrix: (Units=GPa)
#
#
# Indices 1 2 3 4 5 6 
#
# 1 64.9874 -11.1131 -36.2190 0.0000 -2.8174 0.0000
# 2 -11.1131 4.7012 -12.1561 0.0000 -0.3152 0.0000
# 3 -36.2190 -12.1561 48.2008 0.0000 -3.4333 0.0000
# 4 0.0000 0.0000 0.0000 10.3931 0.0000 -5.6279
# 5 -2.8174 -0.3152 -3.4333 0.0000 46.4810 0.0000
# 6 0.0000 0.0000 0.0000 -5.6279 0.0000 5.7874
#
#
#
# Elastic Compliance Matrix: (Units=1/GPa)
#
#
# Indices 1 2 3 4 5 6 
#
# 1 -0.004510 -0.057272 -0.017975 0.000000 -0.001989 0.000000
# 2 -0.057272 -0.104349 -0.070018 0.000000 -0.009351 0.000000
# 3 -0.017975 -0.070018 -0.010585 0.000000 -0.002346 0.000000
# 4 0.000000 0.000000 0.000000 0.203236 0.000000 0.197634
# 5 -0.001989 -0.009351 -0.002346 0.000000 0.021157 0.000000
# 6 0.000000 0.000000 0.000000 0.197634 0.000000 0.364976
#
#
# Mechanical properties :
#
#
# Convention : Reuss Voigt Hill
#
# Bulk Modulus (GPa) = -2.43917 -0.12078 -1.27998
# Shear Modulus (GPa) = 8.01544 24.35748 16.18646
#
# Velocity S-wave (km/s) = 2.02612 3.53198 2.87924
# Velocity P-wave (km/s) = 2.05531 4.07079 3.22456
#
# Compressibility (1/GPa) = -0.40997483
#
# Stress axis : x y z
#
# Youngs Moduli (GPa) = -221.72316 -9.58322 -94.46890
#
# Poissons Ratio (x) = -0.54885 -1.69804
# Poissons Ratio (y) = -12.69859 -6.61454
# Poissons Ratio (z) = -3.98539 -0.67100
#
# Static dielectric constant tensor:
#      x y z
#    x 1.642830 0.000000 0.008140 
#    y 0.000000 1.668000 0.000000 
#    z 0.008140 0.000000 1.659600 
# 
# From -- ./inp_files/60368.got.cif
#   From: 2010.05.17/outbox.cif.g08.bks.cpg/sg10_31_cif.got.tgz:60368.got - 2010.06.03 11:33:40.
