data_PCOD9150559
_publ_section_title
;
Structure prediction by ZEFSAII (Michael W. Deem and Ramdas Pophale) SiO2 
 PCOD9150559
Probable space group: P 2/M
;
_chemical_formula_sum "Si O2"
_cell_formula_units_Z 32
_cell_length_a 11.092116
_cell_length_b 9.644461
_cell_length_c 15.594755
_cell_angle_alpha 90.000000
_cell_angle_beta 86.071376
_cell_angle_gamma 90.000000
_cell_volume 1664.367410
_symmetry_space_group_name_H-M "P 2/M"
_symmetry_group_IT_number 10
_symmetry_cell_setting 'monoclinic'
loop_
_space_group_symop_operation_xyz
x,y,z
-x,y,-z
-x,-y,-z
x,-y,z
loop_
_atom_site_type_symbol
_atom_site_label
_atom_site_fract_x
_atom_site_fract_y
_atom_site_fract_z
Si Si1 0.033682 0.841307 0.397898
Si Si2 0.259651 0.665749 0.345938
Si Si3 0.153085 0.846564 0.749297
Si Si4 0.643455 0.843163 0.502131
Si Si5 0.881063 0.161972 0.053673
Si Si6 0.326370 0.343911 0.659824
Si Si7 0.532308 0.658062 0.779872
Si Si8 0.599260 0.165905 0.070025
O O1 0.125887 0.726341 0.359133
O O2 0.000000 0.814231 0.500000
O O3 0.929158 0.841211 0.331331
O O4 0.082477 0.000000 0.393904
O O5 0.264764 0.500000 0.360171
O O6 0.323303 0.754295 0.417238
O O7 0.331107 0.694320 0.253828
O O8 0.092519 0.835140 0.845375
O O9 0.242473 0.718197 0.737323
O O10 0.213951 0.000000 0.745785
O O11 0.500000 0.851192 0.500000
O O12 0.687784 0.758949 0.418139
O O13 0.691736 0.000000 0.501844
O O14 0.740324 0.212752 0.047990
O O15 0.874672 0.000000 0.027056
O O16 0.000000 0.222841 0.000000
O O17 0.294623 0.500000 0.636872
O O18 0.459645 0.343200 0.693285
O O19 0.528310 0.500000 0.813610
O O20 0.462372 0.759665 0.845992
O O21 0.605542 0.000000 0.083740
O O22 0.500000 0.190641 0.000000
#
# Coordination Sequence:
#
# PCOD9150559 Si02
#       8
#     4   4   4   4   4   4   4   4
#     4  10  22  39  57  82 117 155 201 252 299 354
#     4  11  23  39  58  83 119 157 199 245 295 356
#     4  10  20  36  60  84 111 153 197 243 297 353
#     4  11  22  34  53  82 114 151 193 238 291 343
#     4   9  18  34  57  86 118 152 194 245 304 365
#     4  11  21  35  57  83 116 152 192 238 286 345
#     4  10  22  38  57  84 118 156 191 235 294 355
#     4  10  21  37  61  91 119 151 197 252 302 361
#
# _framework density 19.226524000000001
#
# number of rings (size 3 to 8) (size 9 to 14) (size 15 to 20)
#    0.000    1.750    2.500    1.875    0.000    5.000 
#    0.000    2.500    0.000    1.500    0.000    0.000 
#    0.000    0.000    0.000    0.000    0.000    0.000 
#
# Total GULP energy -178223.804617 kJ/mol
# GULP energy per Si atom -5569.493894 kJ/mol
# Density = 1.918276 g / cm^3
# Si number density = 19.226524 Si / 1000 Ang^3
#
#
#
# Elastic Constant Matrix: (Units=GPa)
#
#
# Indices 1 2 3 4 5 6 
#
# 1 93.1645 47.1938 47.0934 0.0000 -11.0752 0.0000
# 2 47.1938 95.0272 40.2621 0.0000 -17.9805 0.0000
# 3 47.0934 40.2621 85.9365 0.0000 -8.0368 0.0000
# 4 0.0000 0.0000 0.0000 25.4491 0.0000 -7.6406
# 5 -11.0752 -17.9805 -8.0368 0.0000 36.8235 0.0000
# 6 0.0000 0.0000 0.0000 -7.6406 0.0000 22.9815
#
#
#
# Elastic Compliance Matrix: (Units=1/GPa)
#
#
# Indices 1 2 3 4 5 6 
#
# 1 0.016964 -0.005410 -0.006668 0.000000 0.001005 0.000000
# 2 -0.005410 0.015897 -0.003991 0.000000 0.005264 0.000000
# 3 -0.006668 -0.003991 0.017140 0.000000 -0.000213 0.000000
# 4 0.000000 0.000000 0.000000 0.043651 0.000000 0.014513
# 5 0.001005 0.005264 -0.000213 0.000000 0.029983 0.000000
# 6 0.000000 0.000000 0.000000 0.014513 0.000000 0.048338
#
#
# Mechanical properties :
#
#
# Convention : Reuss Voigt Hill
#
# Bulk Modulus (GPa) = 55.97747 60.35852 58.16800
# Shear Modulus (GPa) = 23.80209 26.35608 25.07909
#
# Velocity S-wave (km/s) = 3.52231 3.70647 3.61557
# Velocity P-wave (km/s) = 6.76167 7.05541 6.91010
#
# Compressibility (1/GPa) = 0.01786433
#
# Stress axis : x y z
#
# Youngs Moduli (GPa) = 58.94822 62.90515 58.34163
#
# Poissons Ratio (x) = 0.34029 0.38901
# Poissons Ratio (y) = 0.31889 0.23285
# Poissons Ratio (z) = 0.39306 0.25106
#
# Static dielectric constant tensor:
#      x y z
#    x 1.769070 0.000000 0.006220 
#    y 0.000000 1.652300 0.000000 
#    z 0.006220 0.000000 1.675740 
# 
# From -- ./inp_files/55282.got.cif
#   From: 2010.05.17/outbox.cif.g08.bks.cpg/sg10_28_cif.got.tgz:55282.got - 2010.06.03 11:33:40.
