data_PCOD9150745
_publ_section_title
;
Structure prediction by ZEFSAII (Michael W. Deem and Ramdas Pophale) SiO2 
 PCOD9150745
Probable space group: P 2/M
;
_chemical_formula_sum "Si O2"
_cell_formula_units_Z 30
_cell_length_a 28.172731
_cell_length_b 8.711118
_cell_length_c 5.506939
_cell_angle_alpha 90.000000
_cell_angle_beta 102.099299
_cell_angle_gamma 90.000000
_cell_volume 1321.468568
_symmetry_space_group_name_H-M "P 2/M"
_symmetry_group_IT_number 10
_symmetry_cell_setting 'monoclinic'
loop_
_space_group_symop_operation_xyz
x,y,z
-x,y,-z
-x,-y,-z
x,-y,z
loop_
_atom_site_type_symbol
_atom_site_label
_atom_site_fract_x
_atom_site_fract_y
_atom_site_fract_z
Si Si1 0.470372 0.500000 0.219378
Si Si2 0.134899 0.815307 0.877555
Si Si3 0.423493 0.167022 0.062165
Si Si4 0.269687 0.669039 0.805904
Si Si5 0.320982 0.837414 0.218913
Si Si6 0.630140 0.336773 0.339754
Si Si7 0.973356 0.314480 0.221345
Si Si8 0.810180 0.815310 0.569202
O O1 0.500000 0.500000 0.500000
O O2 0.443751 0.330789 0.181672
O O3 0.500000 0.500000 0.000000
O O4 0.165095 0.767171 0.150885
O O5 0.131761 0.000000 0.883292
O O6 0.081379 0.745751 0.835686
O O7 0.158649 0.776028 0.641539
O O8 0.371182 0.144124 0.127016
O O9 0.449171 0.000000 0.111962
O O10 0.408725 0.207120 0.766986
O O11 0.251794 0.500000 0.858209
O O12 0.326962 0.654117 0.811696
O O13 0.240182 0.731509 0.545775
O O14 0.272963 0.799341 0.014680
O O15 0.336620 0.696205 0.397193
O O16 0.313678 0.000000 0.346120
O O17 0.604929 0.500000 0.330266
O O18 0.972985 0.500000 0.220781
O O19 0.000000 0.264716 0.500000
O O20 0.000000 0.264554 0.000000
O O21 0.804253 0.000000 0.567143
#
# Coordination Sequence:
#
# PCOD9150745 Si02
#       8
#     2   4   4   4   4   4   4   4
#     4  12  30  50  74 104 138 182 220 272 340 394
#     4  10  22  39  59  84 114 158 204 246 310 373
#     4  10  23  43  67  98 132 173 223 271 330 396
#     4  10  22  37  54  87 121 162 214 263 313 373
#     4  10  21  36  62  93 124 166 214 269 325 380
#     4  10  20  36  63  93 128 167 214 274 326 380
#     4  10  21  37  59  87 116 144 189 251 311 370
#     4  10  22  39  57  81 121 164 205 252 301 372
#
# _framework density 22.702014999999999
#
# number of rings (size 3 to 8) (size 9 to 14) (size 15 to 20)
#    0.000    1.867    0.667    2.000    5.600    3.733 
#    0.000    0.000    0.000    0.000    0.000    0.000 
#    0.000    0.000    0.000    0.000    0.000    0.000 
#
# Total GULP energy -167127.861509 kJ/mol
# GULP energy per Si atom -5570.928717 kJ/mol
# Density = 2.265034 g / cm^3
# Si number density = 22.702015 Si / 1000 Ang^3
#
#
#
# Elastic Constant Matrix: (Units=GPa)
#
#
# Indices 1 2 3 4 5 6 
#
# 1 80.9940 37.3926 42.2164 0.0000 4.0381 0.0000
# 2 37.3926 112.4082 40.1724 0.0000 14.7686 0.0000
# 3 42.2164 40.1724 138.0061 0.0000 19.1393 0.0000
# 4 0.0000 0.0000 0.0000 18.7975 0.0000 8.7460
# 5 4.0381 14.7686 19.1393 0.0000 38.3797 0.0000
# 6 0.0000 0.0000 0.0000 8.7460 0.0000 29.6250
#
#
#
# Elastic Compliance Matrix: (Units=1/GPa)
#
#
# Indices 1 2 3 4 5 6 
#
# 1 0.016303 -0.004239 -0.004019 0.000000 0.001920 0.000000
# 2 -0.004239 0.011270 -0.001552 0.000000 -0.003117 0.000000
# 3 -0.004019 -0.001552 0.009439 0.000000 -0.003687 0.000000
# 4 0.000000 0.000000 0.000000 0.061670 0.000000 -0.018206
# 5 0.001920 -0.003117 -0.003687 0.000000 0.028891 0.000000
# 6 0.000000 0.000000 0.000000 -0.018206 0.000000 0.039130
#
#
# Mechanical properties :
#
#
# Convention : Reuss Voigt Hill
#
# Bulk Modulus (GPa) = 57.49922 63.44123 60.47022
# Shear Modulus (GPa) = 26.02528 31.46887 28.74708
#
# Velocity S-wave (km/s) = 3.38951 3.72717 3.56234
# Velocity P-wave (km/s) = 6.37974 6.82116 6.60414
#
# Compressibility (1/GPa) = 0.01739154
#
# Stress axis : x y z
#
# Youngs Moduli (GPa) = 61.33862 88.72859 105.94758
#
# Poissons Ratio (x) = 0.37612 0.42586
# Poissons Ratio (y) = 0.26001 0.16440
# Poissons Ratio (z) = 0.24655 0.13768
#
# Static dielectric constant tensor:
#      x y z
#    x 1.884990 0.000000 -0.089810 
#    y 0.000000 1.911720 0.000000 
#    z -0.089810 0.000000 1.905720 
# 
# From -- ./inp_files/13673.got.cif
#   From: 2010.05.17/outbox.cif.g08.bks.cpg/sg10_7_cif.got.tgz:13673.got - 2010.06.03 11:33:40.
