data_PCOD9150949
_publ_section_title
;
Structure prediction by ZEFSAII (Michael W. Deem and Ramdas Pophale) SiO2 
 PCOD9150949
Probable space group: P 2/M
;
_chemical_formula_sum "Si O2"
_cell_formula_units_Z 32
_cell_length_a 16.625531
_cell_length_b 8.040242
_cell_length_c 25.604323
_cell_angle_alpha 90.000000
_cell_angle_beta 26.219998
_cell_angle_gamma 90.000000
_cell_volume 1512.175955
_symmetry_space_group_name_H-M "P 2/M"
_symmetry_group_IT_number 10
_symmetry_cell_setting 'monoclinic'
loop_
_space_group_symop_operation_xyz
x,y,z
-x,y,-z
-x,-y,-z
x,-y,z
loop_
_atom_site_type_symbol
_atom_site_label
_atom_site_fract_x
_atom_site_fract_y
_atom_site_fract_z
Si Si1 0.364405 0.700765 0.743897
Si Si2 0.512645 0.804211 0.841730
Si Si3 0.076469 0.302195 0.399504
Si Si4 0.226206 0.694527 0.932222
Si Si5 0.106955 0.700947 0.803068
Si Si6 0.061964 0.800095 0.710712
Si Si7 0.225094 0.199151 0.508492
Si Si8 0.349630 0.796779 0.046397
O O1 0.355679 0.500000 0.750374
O O2 0.247590 0.764338 0.861480
O O3 0.274762 0.755194 0.741681
O O4 0.573889 0.750092 0.626023
O O5 0.726435 0.776864 0.724364
O O6 0.422101 0.712976 0.845626
O O7 0.477969 0.000000 0.855098
O O8 0.409850 0.745072 0.953661
O O9 0.102643 0.500000 0.387070
O O10 0.000000 0.243688 0.500000
O O11 0.930881 0.263016 0.439507
O O12 0.180400 0.500000 0.952949
O O13 0.074318 0.762844 0.060575
O O14 0.101403 0.500000 0.805211
O O15 0.117197 0.756122 0.737349
O O16 0.184911 0.740014 0.591029
O O17 0.854374 0.740540 0.822967
O O18 0.059087 0.000000 0.709572
O O19 0.214818 0.000000 0.513938
O O20 0.350356 0.000000 0.046819
O O21 0.500000 0.740001 0.000000
#
# Coordination Sequence:
#
# PCOD9150949 Si02
#       8
#     4   4   4   4   4   4   4   4
#     4  10  22  40  61  85 117 159 199 245 302 355
#     4  11  21  34  58  88 117 151 192 238 292 351
#     4  11  24  41  60  84 119 161 199 240 293 350
#     4  10  20  37  60  87 121 155 195 245 299 357
#     4  10  21  38  62  89 117 154 202 247 294 355
#     4  10  21  39  60  84 120 158 194 242 300 352
#     4  11  24  41  62  88 118 157 203 248 292 350
#     4   9  17  32  54  79 109 147 186 226 282 344
#
# _framework density 21.161559
#
# number of rings (size 3 to 8) (size 9 to 14) (size 15 to 20)
#    0.000    1.750    1.250    3.000    0.000   10.000 
#    0.000    2.500    0.000    4.125    0.000    0.000 
#    0.000    0.000    0.000    0.000    0.000    0.000 
#
# Total GULP energy -178809.534146 kJ/mol
# GULP energy per Si atom -5587.797942 kJ/mol
# Density = 2.111339 g / cm^3
# Si number density = 21.161559 Si / 1000 Ang^3
#
#
#
# Elastic Constant Matrix: (Units=GPa)
#
#
# Indices 1 2 3 4 5 6 
#
# 1 79.2778 -6.3827 -5.7284 0.0000 19.2125 0.0000
# 2 -6.3827 18.4637 -0.1781 0.0000 7.9420 0.0000
# 3 -5.7284 -0.1781 65.5943 0.0000 17.5159 0.0000
# 4 0.0000 0.0000 0.0000 21.4137 0.0000 -2.7554
# 5 19.2125 7.9420 17.5159 0.0000 39.6416 0.0000
# 6 0.0000 0.0000 0.0000 -2.7554 0.0000 32.0428
#
#
#
# Elastic Compliance Matrix: (Units=1/GPa)
#
#
# Indices 1 2 3 4 5 6 
#
# 1 0.016944 0.011343 0.004887 0.000000 -0.012644 0.000000
# 2 0.011343 0.067699 0.007102 0.000000 -0.022199 0.000000
# 3 0.004887 0.007102 0.018938 0.000000 -0.012159 0.000000
# 4 0.000000 0.000000 0.000000 0.047222 0.000000 0.004061
# 5 -0.012644 -0.022199 -0.012159 0.000000 0.041174 0.000000
# 6 0.000000 0.000000 0.000000 0.004061 0.000000 0.031557
#
#
# Mechanical properties :
#
#
# Convention : Reuss Voigt Hill
#
# Bulk Modulus (GPa) = 6.65571 15.41748 11.03660
# Shear Modulus (GPa) = 22.03113 30.32794 26.17954
#
# Velocity S-wave (km/s) = 3.23010 3.78982 3.52110
# Velocity P-wave (km/s) = 4.13078 5.14313 4.66450
#
# Compressibility (1/GPa) = 0.15024694
#
# Stress axis : x y z
#
# Youngs Moduli (GPa) = 59.01627 14.77134 52.80308
#
# Poissons Ratio (x) = -0.16756 -0.25805
# Poissons Ratio (y) = -0.66945 -0.37503
# Poissons Ratio (z) = -0.28841 -0.10491
#
# Static dielectric constant tensor:
#      x y z
#    x 1.754770 0.000000 0.016910 
#    y 0.000000 1.764730 0.000000 
#    z 0.016910 0.000000 1.761220 
# 
# From -- ./inp_files/89475.got.cif
#   From: 2010.05.17/outbox.cif.g08.bks.cpg/sg10_45_cif.got.tgz:89475.got - 2010.06.03 11:33:40.
