data_PCOD9150277
_publ_section_title
;
Structure prediction by ZEFSAII (Michael W. Deem and Ramdas Pophale) SiO2 
 PCOD9150277
Probable space group: P 2/M
;
_chemical_formula_sum "Si O2"
_cell_formula_units_Z 32
_cell_length_a 16.234294
_cell_length_b 22.247279
_cell_length_c 9.184671
_cell_angle_alpha 90.000000
_cell_angle_beta 29.969482
_cell_angle_gamma 90.000000
_cell_volume 1657.078215
_symmetry_space_group_name_H-M "P 2/M"
_symmetry_group_IT_number 10
_symmetry_cell_setting 'monoclinic'
loop_
_space_group_symop_operation_xyz
x,y,z
-x,y,-z
-x,-y,-z
x,-y,z
loop_
_atom_site_type_symbol
_atom_site_label
_atom_site_fract_x
_atom_site_fract_y
_atom_site_fract_z
Si Si1 0.320907 0.565904 0.297987
Si Si2 0.171129 0.355156 0.317045
Si Si3 0.657977 0.929237 0.355620
Si Si4 0.174624 0.857023 0.647740
Si Si5 0.312721 0.570945 0.841781
Si Si6 0.687828 0.270466 0.663345
Si Si7 0.994255 0.070638 0.343302
Si Si8 0.807988 0.627176 0.259254
O O1 0.337117 0.500000 0.212311
O O2 0.169776 0.596951 0.449549
O O3 0.273994 0.569374 0.537040
O O4 0.500000 0.596027 0.000000
O O5 0.226707 0.296576 0.320708
O O6 0.000000 0.346338 0.500000
O O7 0.293708 0.389981 0.018582
O O8 0.500000 0.911058 0.500000
O O9 0.698103 0.890429 0.438034
O O10 0.636995 0.000000 0.426312
O O11 0.823213 0.924438 0.005092
O O12 0.238903 0.792359 0.501164
O O13 0.131571 0.895745 0.570504
O O14 0.000000 0.851155 0.000000
O O15 0.500000 0.569047 0.500000
O O16 0.257812 0.500000 0.940382
O O17 0.218671 0.612673 0.867877
O O18 0.718043 0.317677 0.482841
O O19 0.500000 0.263640 0.000000
O O20 0.000000 0.093409 0.500000
O O21 0.950519 0.000000 0.413850
O O22 0.000000 0.633833 0.000000
#
# Coordination Sequence:
#
# PCOD9150277 Si02
#       8
#     4   4   4   4   4   4   4   4
#     4  10  20  36  57  80 111 149 181 216 276 351
#     4  11  23  38  57  80 108 142 182 232 285 337
#     4   9  18  35  60  91 126 160 195 240 295 349
#     4  10  21  38  61  87 117 156 203 247 289 343
#     4  11  22  36  57  85 111 135 172 225 283 341
#     4  11  24  43  60  76 108 153 196 233 282 349
#     4   9  18  34  58  89 125 162 198 241 292 343
#     4  11  22  37  57  80 107 140 181 228 280 337
#
# _framework density 19.311098999999999
#
# number of rings (size 3 to 8) (size 9 to 14) (size 15 to 20)
#    0.000    1.750    0.000    6.000    0.000    8.000 
#    0.000    4.375    0.000    3.750    0.000    0.000 
#    0.000    0.000    0.000    0.000    0.000    0.000 
#
# Total GULP energy -178305.951956 kJ/mol
# GULP energy per Si atom -5572.060999 kJ/mol
# Density = 1.926715 g / cm^3
# Si number density = 19.311099 Si / 1000 Ang^3
#
#
#
# Elastic Constant Matrix: (Units=GPa)
#
#
# Indices 1 2 3 4 5 6 
#
# 1 155.7179 78.1593 37.5942 0.0000 -3.5676 0.0000
# 2 78.1593 119.6982 38.4253 0.0000 -2.9016 0.0000
# 3 37.5942 38.4253 60.8659 0.0000 1.1386 0.0000
# 4 0.0000 0.0000 0.0000 83.3051 0.0000 -131.0864
# 5 -3.5676 -2.9016 1.1386 0.0000 38.5815 0.0000
# 6 0.0000 0.0000 0.0000 -131.0864 0.0000 361.3395
#
#
#
# Elastic Compliance Matrix: (Units=1/GPa)
#
#
# Indices 1 2 3 4 5 6 
#
# 1 0.009868 -0.005606 -0.002567 0.000000 0.000567 0.000000
# 2 -0.005606 0.013700 -0.005199 0.000000 0.000665 0.000000
# 3 -0.002567 -0.005199 0.021320 0.000000 -0.001258 0.000000
# 4 0.000000 0.000000 0.000000 0.027972 0.000000 0.010148
# 5 0.000567 0.000665 -0.001258 0.000000 0.026059 0.000000
# 6 0.000000 0.000000 0.000000 0.010148 0.000000 0.006449
#
#
# Mechanical properties :
#
#
# Convention : Reuss Voigt Hill
#
# Bulk Modulus (GPa) = 55.10933 71.62662 63.36798
# Shear Modulus (GPa) = 36.18987 108.78545 72.48766
#
# Velocity S-wave (km/s) = 4.33372 7.51368 6.13337
# Velocity P-wave (km/s) = 7.32401 10.60402 9.11281
#
# Compressibility (1/GPa) = 0.01814575
#
# Stress axis : x y z
#
# Youngs Moduli (GPa) = 101.33414 72.99291 46.90332
#
# Poissons Ratio (x) = 0.40920 0.12039
# Poissons Ratio (y) = 0.56808 0.24384
# Poissons Ratio (z) = 0.26009 0.37947
#
# Static dielectric constant tensor:
#      x y z
#    x 1.721960 0.000000 0.004790 
#    y 0.000000 1.679940 0.000000 
#    z 0.004790 0.000000 1.692840 
# 
# From -- ./inp_files/30558.got.cif
#   From: 2010.05.17/outbox.cif.g08.bks.cpg/sg10_16_cif.got.tgz:30558.got - 2010.06.03 11:33:40.
