data_PCOD9150760
_publ_section_title
;
Structure prediction by ZEFSAII (Michael W. Deem and Ramdas Pophale) SiO2 
 PCOD9150760
Probable space group: P 2/M
;
_chemical_formula_sum "Si O2"
_cell_formula_units_Z 32
_cell_length_a 11.455233
_cell_length_b 14.286452
_cell_length_c 17.087598
_cell_angle_alpha 90.000000
_cell_angle_beta 146.566014
_cell_angle_gamma 90.000000
_cell_volume 1540.784475
_symmetry_space_group_name_H-M "P 2/M"
_symmetry_group_IT_number 10
_symmetry_cell_setting 'monoclinic'
loop_
_space_group_symop_operation_xyz
x,y,z
-x,y,-z
-x,-y,-z
x,-y,z
loop_
_atom_site_type_symbol
_atom_site_label
_atom_site_fract_x
_atom_site_fract_y
_atom_site_fract_z
Si Si1 0.087472 0.656284 0.373625
Si Si2 0.731059 0.107328 0.137579
Si Si3 0.065948 0.108782 0.921223
Si Si4 0.848434 0.221344 0.350737
Si Si5 0.371112 0.267394 0.133492
Si Si6 0.278702 0.229241 0.346240
Si Si7 0.567212 0.391817 0.678306
Si Si8 0.303389 0.395422 0.947690
O O1 0.151450 0.743253 0.353057
O O2 0.312644 0.610814 0.521203
O O3 0.967187 0.686053 0.385458
O O4 0.911249 0.605045 0.222900
O O5 0.834755 0.108328 0.110784
O O6 0.838761 0.158799 0.268663
O O7 0.705241 0.000000 0.147492
O O8 0.500000 0.151804 0.000000
O O9 0.844548 0.161342 0.781504
O O10 0.051720 0.000000 0.938355
O O11 0.220337 0.176279 0.057695
O O12 0.613843 0.238134 0.252138
O O13 0.000000 0.177736 0.500000
O O14 0.375635 0.337298 0.209723
O O15 0.291078 0.322884 0.011796
O O16 0.500000 0.187610 0.500000
O O17 0.329381 0.327732 0.331470
O O18 0.636947 0.500000 0.716685
O O19 0.341630 0.500000 0.000432
O O20 0.500000 0.372994 0.000000
#
# Coordination Sequence:
#
# PCOD9150760 Si02
#       8
#     4   4   4   4   4   4   4   4
#     4  11  21  41  64  94 127 173 214 264 319 386
#     4  10  20  36  64  97 126 165 216 261 315 391
#     4  11  23  42  70  98 128 170 219 272 332 389
#     4  12  22  36  62  95 138 176 204 259 325 381
#     4  12  23  41  64  97 137 169 213 263 330 392
#     4  10  23  43  70  93 126 167 227 274 324 379
#     4  11  26  46  66  91 129 175 224 273 329 388
#     4  11  22  35  60  94 128 168 214 263 317 384
#
# _framework density 20.768640000000001
#
# number of rings (size 3 to 8) (size 9 to 14) (size 15 to 20)
#    0.000    1.000    6.250    0.750    0.000    3.750 
#    0.000    2.500    0.000    0.750    0.000    0.000 
#    0.000    0.000    0.000    0.000    0.000    0.000 
#
# Total GULP energy -178709.106059 kJ/mol
# GULP energy per Si atom -5584.659564 kJ/mol
# Density = 2.072137 g / cm^3
# Si number density = 20.768640 Si / 1000 Ang^3
#
#
#
# Elastic Constant Matrix: (Units=GPa)
#
#
# Indices 1 2 3 4 5 6 
#
# 1 63.6174 25.5055 43.1245 0.0000 -5.6851 0.0000
# 2 25.5055 127.5165 59.0811 0.0000 4.6928 0.0000
# 3 43.1245 59.0811 133.4765 0.0000 -3.7799 0.0000
# 4 0.0000 0.0000 0.0000 19.9962 0.0000 0.0597
# 5 -5.6851 4.6928 -3.7799 0.0000 34.7266 0.0000
# 6 0.0000 0.0000 0.0000 0.0597 0.0000 11.9758
#
#
#
# Elastic Compliance Matrix: (Units=1/GPa)
#
#
# Indices 1 2 3 4 5 6 
#
# 1 0.020582 -0.001487 -0.005909 0.000000 0.002927 0.000000
# 2 -0.001487 0.010088 -0.004043 0.000000 -0.002047 0.000000
# 3 -0.005909 -0.004043 0.011213 0.000000 0.000800 0.000000
# 4 0.000000 0.000000 0.000000 0.050010 0.000000 -0.000249
# 5 0.002927 -0.002047 0.000800 0.000000 0.029639 0.000000
# 6 0.000000 0.000000 0.000000 -0.000249 0.000000 0.083503
#
#
# Mechanical properties :
#
#
# Convention : Reuss Voigt Hill
#
# Bulk Modulus (GPa) = 52.61424 64.44806 58.53115
# Shear Modulus (GPa) = 21.34492 26.46633 23.90562
#
# Velocity S-wave (km/s) = 3.20933 3.57366 3.39639
# Velocity P-wave (km/s) = 6.25472 6.93736 6.60486
#
# Compressibility (1/GPa) = 0.01900626
#
# Stress axis : x y z
#
# Youngs Moduli (GPa) = 48.58596 99.12790 89.18101
#
# Poissons Ratio (x) = 0.14739 0.52695
# Poissons Ratio (y) = 0.07224 0.36055
# Poissons Ratio (z) = 0.28708 0.40076
#
# Static dielectric constant tensor:
#      x y z
#    x 1.759760 0.000000 0.030590 
#    y 0.000000 1.753620 0.000000 
#    z 0.030590 0.000000 1.761680 
# 
# From -- ./inp_files/77068.got.cif
#   From: 2010.05.17/outbox.cif.g08.bks.cpg/sg10_39_cif.got.tgz:77068.got - 2010.06.03 11:33:40.
