data_PCOD9150333
_publ_section_title
;
Structure prediction by ZEFSAII (Michael W. Deem and Ramdas Pophale) SiO2 
 PCOD9150333
Probable space group: P 2/M
;
_chemical_formula_sum "Si O2"
_cell_formula_units_Z 28
_cell_length_a 5.530030
_cell_length_b 31.522265
_cell_length_c 7.618893
_cell_angle_alpha 90.000000
_cell_angle_beta 119.591842
_cell_angle_gamma 90.000000
_cell_volume 1154.885566
_symmetry_space_group_name_H-M "P 2/M"
_symmetry_group_IT_number 10
_symmetry_cell_setting 'monoclinic'
loop_
_space_group_symop_operation_xyz
x,y,z
-x,y,-z
-x,-y,-z
x,-y,z
loop_
_atom_site_type_symbol
_atom_site_label
_atom_site_fract_x
_atom_site_fract_y
_atom_site_fract_z
Si Si1 0.832524 0.633942 0.752840
Si Si2 0.763955 0.046917 0.223430
Si Si3 0.672829 0.223690 0.247489
Si Si4 0.830586 0.268867 0.754813
Si Si5 0.657790 0.406775 0.235017
Si Si6 0.547356 0.131176 0.229233
Si Si7 0.000000 0.094927 0.000000
Si Si8 0.666067 0.500000 0.374835
O O1 0.830810 0.682582 0.692105
O O2 0.520217 0.619042 0.686078
O O3 0.020696 0.604646 0.691875
O O4 0.000000 0.632655 0.000000
O O5 0.700359 0.086902 0.326907
O O6 0.800302 0.000000 0.308901
O O7 0.500000 0.044051 0.000000
O O8 0.981538 0.062846 0.158069
O O9 0.475721 0.251927 0.302804
O O10 0.678990 0.175613 0.321335
O O11 0.975501 0.241180 0.304099
O O12 0.500000 0.222207 0.000000
O O13 0.000000 0.268638 0.000000
O O14 0.602102 0.456083 0.254800
O O15 0.500000 0.395585 0.000000
O O16 0.500000 0.129764 0.000000
O O17 0.227765 0.126758 0.164838
O O18 0.500000 0.500000 0.500000
O O19 0.000000 0.500000 0.500000
#
# Coordination Sequence:
#
# PCOD9150333 Si02
#       8
#     4   4   4   4   4   4   2   2
#     4   9  17  30  49  72  94 121 162 203 237 277
#     4   8  13  19  24  31  40  57  92 139 188 237
#     4   9  16  21  31  44  67  92 116 148 203 266
#     4   9  16  24  36  55  77 100 127 168 213 259
#     4  10  20  36  58  78 105 140 177 211 246 296
#     4   8  15  19  25  33  49  71 102 137 185 254
#     4   8  13  18  26  30  42  62  96 136 184 237
#     4  12  25  40  57  84 116 142 174 212 259 298
#
# _framework density 24.244827000000001
#
# number of rings (size 3 to 8) (size 9 to 14) (size 15 to 20)
#    0.000    3.286    0.000    2.143    7.000    4.000 
#    0.000    2.857    0.000    0.000    0.000    0.000 
#    0.000    0.000    0.000    0.000    0.000    0.000 
#
# Total GULP energy -156140.147316 kJ/mol
# GULP energy per Si atom -5576.433833 kJ/mol
# Density = 2.418964 g / cm^3
# Si number density = 24.244827 Si / 1000 Ang^3
#
#
#
# Elastic Constant Matrix: (Units=GPa)
#
#
# Indices 1 2 3 4 5 6 
#
# 1 157.4988 86.8629 17.5213 0.0000 12.4789 0.0000
# 2 86.8629 207.4519 -6.9835 0.0000 -6.1360 0.0000
# 3 17.5213 -6.9835 57.9629 0.0000 -1.7414 0.0000
# 4 0.0000 0.0000 0.0000 -383.8534 0.0000 108.4077
# 5 12.4789 -6.1360 -1.7414 0.0000 37.2845 0.0000
# 6 0.0000 0.0000 0.0000 108.4077 0.0000 58.5112
#
#
#
# Elastic Compliance Matrix: (Units=1/GPa)
#
#
# Indices 1 2 3 4 5 6 
#
# 1 0.009328 -0.004139 -0.003438 0.000000 -0.003964 0.000000
# 2 -0.004139 0.006702 0.002136 0.000000 0.002588 0.000000
# 3 -0.003438 0.002136 0.018620 0.000000 0.002372 0.000000
# 4 0.000000 0.000000 0.000000 -0.001710 0.000000 0.003169
# 5 -0.003964 0.002588 0.002372 0.000000 0.028684 0.000000
# 6 0.000000 0.000000 0.000000 0.003169 0.000000 0.011220
#
#
# Mechanical properties :
#
#
# Convention : Reuss Voigt Hill
#
# Bulk Modulus (GPa) = 42.06952 68.63500 55.35226
# Shear Modulus (GPa) = 54.55663 -35.91066 9.32298
#
# Velocity S-wave (km/s) = 4.74881 -3.85277 1.96308
# Velocity P-wave (km/s) = 6.88897 2.92896 5.29324
#
# Compressibility (1/GPa) = 0.02377018
#
# Stress axis : x y z
#
# Youngs Moduli (GPa) = 107.19948 149.21213 53.70512
#
# Poissons Ratio (x) = 0.61757 0.18462
# Poissons Ratio (y) = 0.44369 -0.11473
# Poissons Ratio (z) = 0.36851 -0.31877
#
# Static dielectric constant tensor:
#      x y z
#    x 1.322870 0.000000 -0.020210 
#    y 0.000000 1.954820 0.000000 
#    z -0.020210 0.000000 1.990340 
# 
# From -- ./inp_files/15934.got.cif
#   From: 2010.05.17/outbox.cif.g08.bks.cpg/sg10_8_cif.got.tgz:15934.got - 2010.06.03 11:33:40.
