data_PCOD9150397
_publ_section_title
;
Structure prediction by ZEFSAII (Michael W. Deem and Ramdas Pophale) SiO2 
 PCOD9150397
Probable space group: P 2/M
;
_chemical_formula_sum "Si O2"
_cell_formula_units_Z 24
_cell_length_a 15.189660
_cell_length_b 18.110563
_cell_length_c 8.834624
_cell_angle_alpha 90.000000
_cell_angle_beta 151.630932
_cell_angle_gamma 90.000000
_cell_volume 1154.776989
_symmetry_space_group_name_H-M "P 2/M"
_symmetry_group_IT_number 10
_symmetry_cell_setting 'monoclinic'
loop_
_space_group_symop_operation_xyz
x,y,z
-x,y,-z
-x,-y,-z
x,-y,z
loop_
_atom_site_type_symbol
_atom_site_label
_atom_site_fract_x
_atom_site_fract_y
_atom_site_fract_z
Si Si1 0.332728 0.582378 0.129667
Si Si2 0.455351 0.149298 0.101591
Si Si3 0.179143 0.195435 0.166558
Si Si4 0.041232 0.354652 0.895937
Si Si5 0.197724 0.707465 0.711552
Si Si6 0.832006 0.082538 0.127723
O O1 0.500000 0.593803 0.500000
O O2 0.349382 0.500000 0.089658
O O3 0.145167 0.589187 0.944414
O O4 0.314485 0.646553 0.979198
O O5 0.638993 0.176807 0.463545
O O6 0.500000 0.122873 0.000000
O O7 0.311857 0.217700 0.872018
O O8 0.353713 0.090927 0.054832
O O9 0.170135 0.281545 0.107294
O O10 0.167736 0.144405 0.001119
O O11 0.000000 0.182330 0.000000
O O12 0.858423 0.324280 0.536593
O O13 0.000000 0.383430 0.000000
O O14 0.000000 0.718083 0.500000
O O15 0.000000 0.092687 0.500000
O O16 0.846682 0.000000 0.084502
#
# Coordination Sequence:
#
# PCOD9150397 Si02
#       6
#     4   4   4   4   4   4
#     4  10  21  37  56  80 113 153 194 234 283 343
#     4  12  23  38  63  89 118 153 194 242 290 344
#     4  11  23  40  62  89 119 152 195 241 289 344
#     4  10  20  36  58  84 114 145 187 238 287 339
#     4  10  21  37  60  85 114 150 194 239 287 345
#     4  11  24  42  62  86 119 156 194 238 290 347
#
# _framework density 20.783232999999999
#
# number of rings (size 3 to 8) (size 9 to 14) (size 15 to 20)
#    0.000    1.333    0.000    8.000    0.000    5.333 
#    0.000    0.000    0.000    2.500    0.000    0.000 
#    0.000    0.000    0.000    0.000    0.000    0.000 
#
# Total GULP energy -134247.915367 kJ/mol
# GULP energy per Si atom -5593.663140 kJ/mol
# Density = 2.073593 g / cm^3
# Si number density = 20.783233 Si / 1000 Ang^3
#
#
#
# Elastic Constant Matrix: (Units=GPa)
#
#
# Indices 1 2 3 4 5 6 
#
# 1 72.2093 5.3217 -7.9153 0.0000 -5.4530 0.0000
# 2 5.3217 43.8100 -3.8028 0.0000 7.0204 0.0000
# 3 -7.9153 -3.8028 89.2657 0.0000 5.1090 0.0000
# 4 0.0000 0.0000 0.0000 14.3051 0.0000 0.8803
# 5 -5.4530 7.0204 5.1090 0.0000 29.9064 0.0000
# 6 0.0000 0.0000 0.0000 0.8803 0.0000 3.6386
#
#
#
# Elastic Compliance Matrix: (Units=1/GPa)
#
#
# Indices 1 2 3 4 5 6 
#
# 1 0.014338 -0.002125 0.001013 0.000000 0.002940 0.000000
# 2 -0.002125 0.024193 0.001201 0.000000 -0.006272 0.000000
# 3 0.001013 0.001201 0.011461 0.000000 -0.002055 0.000000
# 4 0.000000 0.000000 0.000000 0.070961 0.000000 -0.017168
# 5 0.002940 -0.006272 -0.002055 0.000000 0.035797 0.000000
# 6 0.000000 0.000000 0.000000 -0.017168 0.000000 0.278987
#
#
# Mechanical properties :
#
#
# Convention : Reuss Voigt Hill
#
# Bulk Modulus (GPa) = 19.93211 21.38802 20.66006
# Shear Modulus (GPa) = 11.05500 23.68212 17.36856
#
# Velocity S-wave (km/s) = 2.30884 3.37928 2.89398
# Velocity P-wave (km/s) = 4.08888 5.05365 4.59665
#
# Compressibility (1/GPa) = 0.05017030
#
# Stress axis : x y z
#
# Youngs Moduli (GPa) = 69.74340 41.33377 87.25168
#
# Poissons Ratio (x) = 0.08783 -0.08835
# Poissons Ratio (y) = 0.14820 -0.10481
# Poissons Ratio (z) = -0.07062 -0.04965
#
# Static dielectric constant tensor:
#      x y z
#    x 1.748590 0.000000 0.004370 
#    y 0.000000 1.737000 0.000000 
#    z 0.004370 0.000000 1.738630 
# 
# From -- ./inp_files/30236.got.cif
#   From: 2010.05.17/outbox.cif.g08.bks.cpg/sg10_16_cif.got.tgz:30236.got - 2010.06.03 11:33:40.
