data_PCOD9150756
_publ_section_title
;
Structure prediction by ZEFSAII (Michael W. Deem and Ramdas Pophale) SiO2 
 PCOD9150756
Probable space group: P 2/M
;
_chemical_formula_sum "Si O2"
_cell_formula_units_Z 24
_cell_length_a 15.043873
_cell_length_b 9.096060
_cell_length_c 15.385227
_cell_angle_alpha 90.000000
_cell_angle_beta 140.057844
_cell_angle_gamma 90.000000
_cell_volume 1351.640884
_symmetry_space_group_name_H-M "P 2/M"
_symmetry_group_IT_number 10
_symmetry_cell_setting 'monoclinic'
loop_
_space_group_symop_operation_xyz
x,y,z
-x,y,-z
-x,-y,-z
x,-y,z
loop_
_atom_site_type_symbol
_atom_site_label
_atom_site_fract_x
_atom_site_fract_y
_atom_site_fract_z
Si Si1 0.153466 0.676190 0.650323
Si Si2 0.855112 0.323717 0.666060
Si Si3 0.142571 0.824110 0.825676
Si Si4 0.358200 0.676204 0.645471
Si Si5 0.840866 0.675663 0.856596
Si Si6 0.343773 0.824246 0.135866
O O1 0.155103 0.500000 0.665926
O O2 0.179897 0.757725 0.760198
O O3 0.265325 0.711619 0.660200
O O4 0.000000 0.713802 0.500000
O O5 0.879322 0.500000 0.677888
O O6 0.733020 0.286371 0.507736
O O7 0.819139 0.289922 0.738856
O O8 0.995340 0.242820 0.743839
O O9 0.132724 0.000000 0.813198
O O10 0.255130 0.785341 0.983481
O O11 0.380475 0.500000 0.661411
O O12 0.503730 0.757255 0.755038
O O13 0.823188 0.500000 0.855378
O O14 0.737970 0.759517 0.843000
O O15 0.000000 0.711386 0.000000
O O16 0.350161 0.000000 0.146701
#
# Coordination Sequence:
#
# PCOD9150756 Si02
#       6
#     4   4   4   4   4   4
#     4  10  20  38  64  90 116 150 197 248 293 343
#     4  10  20  38  63  90 117 149 197 250 293 346
#     4  11  23  37  58  88 120 158 196 237 292 352
#     4  10  22  40  62  87 118 154 194 245 298 348
#     4  10  20  36  64  92 114 151 200 248 294 344
#     4  11  25  41  57  84 126 163 193 239 294 353
#
# _framework density 17.756195999999999
#
# number of rings (size 3 to 8) (size 9 to 14) (size 15 to 20)
#    0.000    1.667    3.333    1.000    0.000    6.000 
#    0.000    6.667    0.000    0.000    0.000    0.000 
#    0.000    0.000    0.000    0.000    0.000    0.000 
#
# Total GULP energy -134094.970829 kJ/mol
# GULP energy per Si atom -5587.290451 kJ/mol
# Density = 1.771578 g / cm^3
# Si number density = 17.756196 Si / 1000 Ang^3
#
#
#
# Elastic Constant Matrix: (Units=GPa)
#
#
# Indices 1 2 3 4 5 6 
#
# 1 170.0797 71.2082 118.4750 0.0000 -4.3626 0.0000
# 2 71.2082 42.6503 72.5396 0.0000 -1.3180 0.0000
# 3 118.4750 72.5396 173.2934 0.0000 -5.4837 0.0000
# 4 0.0000 0.0000 0.0000 25.2959 0.0000 -11.7128
# 5 -4.3626 -1.3180 -5.4837 0.0000 38.3322 0.0000
# 6 0.0000 0.0000 0.0000 -11.7128 0.0000 -12.5000
#
#
#
# Elastic Compliance Matrix: (Units=1/GPa)
#
#
# Indices 1 2 3 4 5 6 
#
# 1 0.019643 -0.034655 0.001115 0.000000 0.001204 0.000000
# 2 -0.034655 0.142701 -0.036175 0.000000 -0.004212 0.000000
# 3 0.001115 -0.036175 0.020207 0.000000 0.001774 0.000000
# 4 0.000000 0.000000 0.000000 0.027570 0.000000 -0.025834
# 5 0.001204 -0.004212 0.001774 0.000000 0.026334 0.000000
# 6 0.000000 0.000000 0.000000 -0.025834 0.000000 -0.055793
#
#
# Mechanical properties :
#
#
# Convention : Reuss Voigt Hill
#
# Bulk Modulus (GPa) = 23.18994 101.16320 62.17657
# Shear Modulus (GPa) = 14.94928 18.47900 16.71414
#
# Velocity S-wave (km/s) = 2.90473 3.22950 3.07141
# Velocity P-wave (km/s) = 4.93341 8.42635 6.90441
#
# Compressibility (1/GPa) = 0.04312215
#
# Stress axis : x y z
#
# Youngs Moduli (GPa) = 50.90978 7.00764 49.48819
#
# Poissons Ratio (x) = 0.24285 -0.05519
# Poissons Ratio (y) = 1.76426 1.79024
# Poissons Ratio (z) = -0.05678 0.25350
#
# Static dielectric constant tensor:
#      x y z
#    x 1.574110 0.000000 -0.014410 
#    y 0.000000 1.588950 0.000000 
#    z -0.014410 0.000000 1.588800 
# 
# From -- ./inp_files/33967.got.cif
#   From: 2010.05.17/outbox.cif.g08.bks.cpg/sg10_17_cif.got.tgz:33967.got - 2010.06.03 11:33:40.
