data_PCOD9150602
_publ_section_title
;
Structure prediction by ZEFSAII (Michael W. Deem and Ramdas Pophale) SiO2 
 PCOD9150602
Probable space group: P 2/M
;
_chemical_formula_sum "Si O2"
_cell_formula_units_Z 28
_cell_length_a 29.602427
_cell_length_b 8.695626
_cell_length_c 9.267812
_cell_angle_alpha 90.000000
_cell_angle_beta 39.049627
_cell_angle_gamma 90.000000
_cell_volume 1502.938833
_symmetry_space_group_name_H-M "P 2/M"
_symmetry_group_IT_number 10
_symmetry_cell_setting 'monoclinic'
loop_
_space_group_symop_operation_xyz
x,y,z
-x,y,-z
-x,-y,-z
x,-y,z
loop_
_atom_site_type_symbol
_atom_site_label
_atom_site_fract_x
_atom_site_fract_y
_atom_site_fract_z
Si Si1 0.428414 0.684297 0.091135
Si Si2 0.843604 0.682012 0.233332
Si Si3 0.429736 0.814040 0.766156
Si Si4 0.708432 0.184758 0.402068
Si Si5 0.150694 0.186789 0.457533
Si Si6 0.289857 0.187093 0.934166
Si Si7 0.993125 0.177226 0.842060
O O1 0.424317 0.500000 0.101525
O O2 0.358722 0.751266 0.342612
O O3 0.500000 0.731432 0.000000
O O4 0.432041 0.744251 0.919128
O O5 0.834741 0.500000 0.257138
O O6 0.781767 0.758549 0.292160
O O7 0.838350 0.746221 0.409830
O O8 0.922902 0.726452 0.980229
O O9 0.500000 0.772111 0.500000
O O10 0.358254 0.764170 0.858484
O O11 0.428266 0.000000 0.782089
O O12 0.704485 0.236884 0.245378
O O13 0.706382 0.000000 0.410835
O O14 0.071515 0.231723 0.597294
O O15 0.149998 0.000000 0.471281
O O16 0.215728 0.234314 0.193583
O O17 0.290165 0.000000 0.932855
O O18 0.981884 0.000000 0.825433
O O19 0.000000 0.178104 0.000000
#
# Coordination Sequence:
#
# PCOD9150602 Si02
#       7
#     4   4   4   4   4   4   4
#     4  11  24  40  58  84 117 149 181 219 268 325
#     4  11  21  33  52  80 112 144 180 222 274 333
#     4  10  20  36  60  88 114 143 185 230 270 319
#     4  11  22  38  59  80 107 144 185 227 271 320
#     4   9  17  33  56  80 106 139 184 233 277 326
#     4   9  19  35  56  81 106 137 181 232 278 319
#     4   8  15  29  51  77 104 138 182 229 274 322
#
# _framework density 18.630167
#
# number of rings (size 3 to 8) (size 9 to 14) (size 15 to 20)
#    0.000    2.143    0.000    4.714    0.000    6.286 
#    0.000    3.571    0.000    4.286    0.000    0.000 
#    0.000    0.000    0.000    0.000    0.000    0.000 
#
# Total GULP energy -156337.732245 kJ/mol
# GULP energy per Si atom -5583.490437 kJ/mol
# Density = 1.858776 g / cm^3
# Si number density = 18.630167 Si / 1000 Ang^3
#
#
#
# Elastic Constant Matrix: (Units=GPa)
#
#
# Indices 1 2 3 4 5 6 
#
# 1 152.2035 40.4844 104.4657 0.0000 -8.0881 0.0000
# 2 40.4844 38.0691 41.8429 0.0000 -2.7638 0.0000
# 3 104.4657 41.8429 183.6669 0.0000 -14.2243 0.0000
# 4 0.0000 0.0000 0.0000 4.1552 0.0000 -10.5164
# 5 -8.0881 -2.7638 -14.2243 0.0000 32.0886 0.0000
# 6 0.0000 0.0000 0.0000 -10.5164 0.0000 14.6195
#
#
#
# Elastic Compliance Matrix: (Units=1/GPa)
#
#
# Indices 1 2 3 4 5 6 
#
# 1 0.012044 -0.007044 -0.005237 0.000000 0.000107 0.000000
# 2 -0.007044 0.039172 -0.004964 0.000000 -0.000602 0.000000
# 3 -0.005237 -0.004964 0.009754 0.000000 0.002576 0.000000
# 4 0.000000 0.000000 0.000000 -0.293283 0.000000 -0.210971
# 5 0.000107 -0.000602 0.002576 0.000000 0.032281 0.000000
# 6 0.000000 0.000000 0.000000 -0.210971 0.000000 -0.083359
#
#
# Mechanical properties :
#
#
# Convention : Reuss Voigt Hill
#
# Bulk Modulus (GPa) = 37.76639 83.05838 60.41238
# Shear Modulus (GPa) = -20.82696 22.64910 0.91107
#
# Velocity S-wave (km/s) = -3.34715 3.49050 0.70006
# Velocity P-wave (km/s) = 2.31899 7.80540 5.75769
#
# Compressibility (1/GPa) = 0.02647857
#
# Stress axis : x y z
#
# Youngs Moduli (GPa) = 83.02754 25.52876 102.52186
#
# Poissons Ratio (x) = 0.17982 0.53695
# Poissons Ratio (y) = 0.58484 0.50894
# Poissons Ratio (z) = 0.43485 0.12673
#
# Static dielectric constant tensor:
#      x y z
#    x 1.617710 0.000000 -0.015760 
#    y 0.000000 1.624290 0.000000 
#    z -0.015760 0.000000 1.641690 
# 
# From -- ./inp_files/37119.got.cif
#   From: 2010.05.17/outbox.cif.g08.bks.cpg/sg10_19_cif.got.tgz:37119.got - 2010.06.03 11:33:40.
