data_PCOD9150331
_publ_section_title
;
Structure prediction by ZEFSAII (Michael W. Deem and Ramdas Pophale) SiO2 
 PCOD9150331
Probable space group: P 2/M
;
_chemical_formula_sum "Si O2"
_cell_formula_units_Z 28
_cell_length_a 7.006225
_cell_length_b 16.269778
_cell_length_c 13.835251
_cell_angle_alpha 90.000000
_cell_angle_beta 125.957925
_cell_angle_gamma 90.000000
_cell_volume 1276.562042
_symmetry_space_group_name_H-M "P 2/M"
_symmetry_group_IT_number 10
_symmetry_cell_setting 'monoclinic'
loop_
_space_group_symop_operation_xyz
x,y,z
-x,y,-z
-x,-y,-z
x,-y,z
loop_
_atom_site_type_symbol
_atom_site_label
_atom_site_fract_x
_atom_site_fract_y
_atom_site_fract_z
Si Si1 0.473399 0.254223 0.106298
Si Si2 0.162937 0.126036 0.129209
Si Si3 0.527700 0.000000 0.670006
Si Si4 0.888737 0.000000 0.595812
Si Si5 0.601109 0.593499 0.802079
Si Si6 0.286928 0.684330 0.362857
Si Si7 0.049293 0.409933 0.614121
Si Si8 0.963443 0.167516 0.273776
O O1 0.278914 0.201241 0.105387
O O2 0.391467 0.348183 0.101916
O O3 0.729629 0.222450 0.221996
O O4 0.500000 0.240877 0.000000
O O5 0.382947 0.076273 0.239293
O O6 0.990955 0.143878 0.168789
O O7 0.000000 0.084464 0.000000
O O8 0.263361 0.000000 0.548690
O O9 0.696229 0.000000 0.625895
O O10 0.026950 0.085191 0.658480
O O11 0.704495 0.500000 0.835247
O O12 0.669130 0.652161 0.731915
O O13 0.323637 0.582316 0.705212
O O14 0.500000 0.666073 0.500000
O O15 0.064538 0.631983 0.329800
O O16 0.200440 0.777267 0.354753
O O17 0.933279 0.500000 0.571442
O O18 0.000000 0.362606 0.500000
#
# Coordination Sequence:
#
# PCOD9150331 Si02
#       8
#     4   4   2   2   4   4   4   4
#     4  12  25  44  69  94 128 173 229 286 336 392
#     4  11  22  42  69  98 129 173 227 282 330 386
#     4   9  21  41  69  99 140 179 212 268 335 400
#     4   9  22  43  65  98 141 180 214 261 329 407
#     4  11  24  41  62  93 131 173 222 277 340 399
#     4  12  23  36  65  98 131 177 218 270 329 406
#     4  10  20  36  57  89 130 166 209 265 325 392
#     4  11  24  42  66  97 134 175 222 276 329 398
#
# _framework density 21.933913
#
# number of rings (size 3 to 8) (size 9 to 14) (size 15 to 20)
#    0.000    1.143    5.714    0.643    4.000    1.429 
#    0.000    3.571    0.000    1.286    0.000    0.000 
#    0.000    0.000    0.000    0.000    0.000    0.000 
#
# Total GULP energy -156012.048288 kJ/mol
# GULP energy per Si atom -5571.858867 kJ/mol
# Density = 2.188399 g / cm^3
# Si number density = 21.933913 Si / 1000 Ang^3
#
#
#
# Elastic Constant Matrix: (Units=GPa)
#
#
# Indices 1 2 3 4 5 6 
#
# 1 82.6686 30.3675 20.1878 0.0000 -7.0189 0.0000
# 2 30.3675 131.5126 31.0072 0.0000 -5.1881 0.0000
# 3 20.1878 31.0072 78.3976 0.0000 -8.0543 0.0000
# 4 0.0000 0.0000 0.0000 -14.1442 0.0000 -11.2096
# 5 -7.0189 -5.1881 -8.0543 0.0000 29.0285 0.0000
# 6 0.0000 0.0000 0.0000 -11.2096 0.0000 12.1767
#
#
#
# Elastic Compliance Matrix: (Units=1/GPa)
#
#
# Indices 1 2 3 4 5 6 
#
# 1 0.013788 -0.002550 -0.002312 0.000000 0.002236 0.000000
# 2 -0.002550 0.008868 -0.002832 0.000000 0.000182 0.000000
# 3 -0.002312 -0.002832 0.014783 0.000000 0.003037 0.000000
# 4 0.000000 0.000000 0.000000 -0.040877 0.000000 -0.037631
# 5 0.002236 0.000182 0.003037 0.000000 0.035865 0.000000
# 6 0.000000 0.000000 0.000000 -0.037631 0.000000 0.047482
#
#
# Mechanical properties :
#
#
# Convention : Reuss Voigt Hill
#
# Bulk Modulus (GPa) = 45.35150 50.63376 47.99263
# Shear Modulus (GPa) = 48.71103 19.47995 34.09549
#
# Velocity S-wave (km/s) = 4.71766 2.98337 3.94695
# Velocity P-wave (km/s) = 7.09904 5.91626 6.53447
#
# Compressibility (1/GPa) = 0.02204999
#
# Stress axis : x y z
#
# Youngs Moduli (GPa) = 72.52775 112.77015 67.64625
#
# Poissons Ratio (x) = 0.28761 0.15639
# Poissons Ratio (y) = 0.18498 0.19156
# Poissons Ratio (z) = 0.16768 0.31934
#
# Static dielectric constant tensor:
#      x y z
#    x 1.867530 0.000000 -0.152460 
#    y 0.000000 1.919160 0.000000 
#    z -0.152460 0.000000 2.178870 
# 
# From -- ./inp_files/59304.got.cif
#   From: 2010.05.17/outbox.cif.g08.bks.cpg/sg10_30_cif.got.tgz:59304.got - 2010.06.03 11:33:40.
