data_PCOD9150982
_publ_section_title
;
Structure prediction by ZEFSAII (Michael W. Deem and Ramdas Pophale) SiO2 
 PCOD9150982
Probable space group: P 2/M
;
_chemical_formula_sum "Si O2"
_cell_formula_units_Z 32
_cell_length_a 12.328926
_cell_length_b 14.574911
_cell_length_c 18.172148
_cell_angle_alpha 90.000000
_cell_angle_beta 32.058585
_cell_angle_gamma 90.000000
_cell_volume 1733.233114
_symmetry_space_group_name_H-M "P 2/M"
_symmetry_group_IT_number 10
_symmetry_cell_setting 'monoclinic'
loop_
_space_group_symop_operation_xyz
x,y,z
-x,y,-z
-x,-y,-z
x,-y,z
loop_
_atom_site_type_symbol
_atom_site_label
_atom_site_fract_x
_atom_site_fract_y
_atom_site_fract_z
Si Si1 0.291986 0.607731 0.160729
Si Si2 0.426827 0.103632 0.295108
Si Si3 0.186106 0.402268 0.835897
Si Si4 0.948961 0.897231 0.373966
Si Si5 0.812241 0.758768 0.665214
Si Si6 0.112329 0.603224 0.706782
Si Si7 0.786932 0.796585 0.165710
Si Si8 0.262980 0.199159 0.635974
O O1 0.310798 0.500000 0.167997
O O2 0.256868 0.667155 0.253920
O O3 0.099049 0.616428 0.215798
O O4 0.500000 0.636488 0.000000
O O5 0.244282 0.102221 0.459631
O O6 0.362792 0.183078 0.275188
O O7 0.631550 0.132826 0.219042
O O8 0.440137 0.000000 0.256392
O O9 0.299348 0.500000 0.776446
O O10 0.094260 0.397320 0.806123
O O11 0.302549 0.307930 0.785309
O O12 0.000000 0.404438 0.000000
O O13 0.866804 0.862977 0.343649
O O14 0.104677 0.825655 0.318878
O O15 0.032654 0.000000 0.322966
O O16 0.000000 0.742874 0.500000
O O17 0.191449 0.500000 0.641706
O O18 0.245854 0.694756 0.617542
O O19 0.816750 0.811768 0.235243
O O20 0.000000 0.798329 0.000000
O O21 0.500000 0.172930 0.500000
#
# Coordination Sequence:
#
# PCOD9150982 Si02
#       8
#     4   4   4   4   4   4   4   4
#     4  10  21  37  60  88 118 155 191 226 283 344
#     4  10  21  38  59  82 113 151 191 239 292 346
#     4   8  15  29  50  76 107 144 185 221 265 328
#     4  10  20  37  61  86 108 144 196 245 291 340
#     4  10  21  39  63  85 112 148 195 243 287 335
#     4   9  18  33  53  79 116 151 183 231 282 336
#     4  10  21  35  54  82 117 151 184 228 290 341
#     4  11  20  34  59  84 111 146 192 234 283 342
#
# _framework density 18.462606999999998
#
# number of rings (size 3 to 8) (size 9 to 14) (size 15 to 20)
#    0.000    2.250    2.500    0.375    0.000    6.000 
#    0.000    1.875    0.000    1.500    0.000    0.000 
#    0.000    0.000    0.000    0.000    0.000    0.000 
#
# Total GULP energy -178302.570960 kJ/mol
# GULP energy per Si atom -5571.955342 kJ/mol
# Density = 1.842059 g / cm^3
# Si number density = 18.462607 Si / 1000 Ang^3
#
#
#
# Elastic Constant Matrix: (Units=GPa)
#
#
# Indices 1 2 3 4 5 6 
#
# 1 63.4283 27.6714 17.8994 0.0000 5.1970 0.0000
# 2 27.6714 76.8721 23.2282 0.0000 10.2201 0.0000
# 3 17.8994 23.2282 24.7906 0.0000 10.5252 0.0000
# 4 0.0000 0.0000 0.0000 40.4280 0.0000 46.8759
# 5 5.1970 10.2201 10.5252 0.0000 20.9918 0.0000
# 6 0.0000 0.0000 0.0000 46.8759 0.0000 113.1129
#
#
#
# Elastic Compliance Matrix: (Units=1/GPa)
#
#
# Indices 1 2 3 4 5 6 
#
# 1 0.020843 -0.004143 -0.012492 0.000000 0.003120 0.000000
# 2 -0.004143 0.018972 -0.014355 0.000000 -0.001014 0.000000
# 3 -0.012492 -0.014355 0.074356 0.000000 -0.027200 0.000000
# 4 0.000000 0.000000 0.000000 0.047615 0.000000 -0.019732
# 5 0.003120 -0.001014 -0.027200 0.000000 0.060997 0.000000
# 6 0.000000 0.000000 0.000000 -0.019732 0.000000 0.017018
#
#
# Mechanical properties :
#
#
# Convention : Reuss Voigt Hill
#
# Bulk Modulus (GPa) = 19.16027 33.63209 26.39618
# Shear Modulus (GPa) = 15.66526 41.32600 28.49563
#
# Velocity S-wave (km/s) = 2.91604 4.73627 3.93291
# Velocity P-wave (km/s) = 4.66241 6.94014 5.91201
#
# Compressibility (1/GPa) = 0.05219133
#
# Stress axis : x y z
#
# Youngs Moduli (GPa) = 47.97814 52.70851 13.44882
#
# Poissons Ratio (x) = 0.21837 0.16800
# Poissons Ratio (y) = 0.19877 0.19306
# Poissons Ratio (z) = 0.59935 0.75662
#
# Static dielectric constant tensor:
#      x y z
#    x 1.616590 0.000000 0.009140 
#    y 0.000000 1.685920 0.000000 
#    z 0.009140 0.000000 1.609550 
# 
# From -- ./inp_files/76982.got.cif
#   From: 2010.05.17/outbox.cif.g08.bks.cpg/sg10_39_cif.got.tgz:76982.got - 2010.06.03 11:33:40.
