data_PCOD9150152
_publ_section_title
;
Structure prediction by ZEFSAII (Michael W. Deem and Ramdas Pophale) SiO2 
 PCOD9150152
Probable space group: P 2/M
;
_chemical_formula_sum "Si O2"
_cell_formula_units_Z 32
_cell_length_a 5.264711
_cell_length_b 15.374082
_cell_length_c 17.152489
_cell_angle_alpha 90.000000
_cell_angle_beta 92.538575
_cell_angle_gamma 90.000000
_cell_volume 1386.961689
_symmetry_space_group_name_H-M "P 2/M"
_symmetry_group_IT_number 10
_symmetry_cell_setting 'monoclinic'
loop_
_space_group_symop_operation_xyz
x,y,z
-x,y,-z
-x,-y,-z
x,-y,z
loop_
_atom_site_type_symbol
_atom_site_label
_atom_site_fract_x
_atom_site_fract_y
_atom_site_fract_z
Si Si1 0.907645 0.596684 0.163486
Si Si2 0.589404 0.364498 0.922246
Si Si3 0.331414 0.397468 0.680212
Si Si4 0.739691 0.253550 0.724335
Si Si5 0.888743 0.250864 0.413093
Si Si6 0.175197 0.198747 0.104352
Si Si7 0.700388 0.100416 0.133352
Si Si8 0.632717 0.897632 0.310895
O O1 0.795409 0.500000 0.147514
O O2 0.676755 0.654691 0.125815
O O3 0.894195 0.604198 0.257514
O O4 0.183593 0.594291 0.126086
O O5 0.731336 0.275518 0.949134
O O6 0.500000 0.408969 0.000000
O O7 0.395434 0.500000 0.669121
O O8 0.541672 0.333422 0.720809
O O9 0.267661 0.340968 0.601912
O O10 0.898156 0.262921 0.648836
O O11 0.861633 0.247513 0.811488
O O12 0.618311 0.157525 0.711182
O O13 0.000000 0.241892 0.500000
O O14 0.753073 0.162199 0.380681
O O15 0.915782 0.149177 0.087922
O O16 0.418781 0.136797 0.116449
O O17 0.767827 0.107227 0.227496
O O18 0.703189 0.000000 0.113164
O O19 0.603077 0.000000 0.329380
#
# Coordination Sequence:
#
# PCOD9150152 Si02
#       8
#     4   4   4   4   4   4   4   4
#     4  11  24  42  65  92 125 167 212 261 315 374
#     4  12  25  40  63  95 132 169 205 252 317 385
#     4  10  23  41  63  89 117 160 216 266 312 373
#     4  10  20  38  62  82 117 162 205 260 310 375
#     4  11  23  39  59  87 124 164 205 261 323 377
#     4  11  20  37  63  87 125 160 210 257 307 377
#     4  10  20  35  61  93 119 157 211 267 311 362
#     4   9  20  35  55  87 119 155 203 255 317 381
#
# _framework density 23.072012999999998
#
# number of rings (size 3 to 8) (size 9 to 14) (size 15 to 20)
#    0.000    1.500    2.500    2.625    1.750    5.500 
#    0.000    1.250    0.000    2.250    0.000    0.000 
#    0.000    0.000    0.000    0.000    0.000    0.000 
#
# Total GULP energy -178403.329883 kJ/mol
# GULP energy per Si atom -5575.104059 kJ/mol
# Density = 2.301950 g / cm^3
# Si number density = 23.072013 Si / 1000 Ang^3
#
#
#
# Elastic Constant Matrix: (Units=GPa)
#
#
# Indices 1 2 3 4 5 6 
#
# 1 94.4051 24.7510 10.8277 0.0000 -2.4386 0.0000
# 2 24.7510 165.3902 19.9777 0.0000 0.0786 0.0000
# 3 10.8277 19.9777 65.3255 0.0000 12.2436 0.0000
# 4 0.0000 0.0000 0.0000 5.9481 0.0000 -10.2034
# 5 -2.4386 0.0786 12.2436 0.0000 20.4062 0.0000
# 6 0.0000 0.0000 0.0000 -10.2034 0.0000 12.4789
#
#
#
# Elastic Compliance Matrix: (Units=1/GPa)
#
#
# Indices 1 2 3 4 5 6 
#
# 1 0.011255 -0.001458 -0.001885 0.000000 0.002482 0.000000
# 2 -0.001458 0.006496 -0.001924 0.000000 0.000955 0.000000
# 3 -0.001885 -0.001924 0.018308 0.000000 -0.011203 0.000000
# 4 0.000000 0.000000 0.000000 -0.417570 0.000000 -0.341429
# 5 0.002482 0.000955 -0.011203 0.000000 0.056019 0.000000
# 6 0.000000 0.000000 0.000000 -0.341429 0.000000 -0.199036
#
#
# Mechanical properties :
#
#
# Convention : Reuss Voigt Hill
#
# Bulk Modulus (GPa) = 39.17499 48.47041 43.82270
# Shear Modulus (GPa) = -9.89150 25.73758 7.92304
#
# Velocity S-wave (km/s) = -2.07281 3.34358 1.85513
# Velocity P-wave (km/s) = 3.35970 5.99666 4.86043
#
# Compressibility (1/GPa) = 0.02552649
#
# Stress axis : x y z
#
# Youngs Moduli (GPa) = 88.84822 153.93033 54.61954
#
# Poissons Ratio (x) = 0.22441 0.10295
# Poissons Ratio (y) = 0.12953 0.10509
# Poissons Ratio (z) = 0.16746 0.29618
#
# Static dielectric constant tensor:
#      x y z
#    x 1.964510 0.000000 0.030420 
#    y 0.000000 1.919860 0.000000 
#    z 0.030420 0.000000 1.876210 
# 
# From -- ./inp_files/73541.got.cif
#   From: 2010.05.17/outbox.cif.g08.bks.cpg/sg10_37_cif.got.tgz:73541.got - 2010.06.03 11:33:40.
