data_PCOD9150771
_publ_section_title
;
Structure prediction by ZEFSAII (Michael W. Deem and Ramdas Pophale) SiO2 
 PCOD9150771
Probable space group: P 2/M
;
_chemical_formula_sum "Si O2"
_cell_formula_units_Z 18
_cell_length_a 8.732239
_cell_length_b 5.718199
_cell_length_c 16.421899
_cell_angle_alpha 90.000000
_cell_angle_beta 117.062586
_cell_angle_gamma 90.000000
_cell_volume 730.208859
_symmetry_space_group_name_H-M "P 2/M"
_symmetry_group_IT_number 10
_symmetry_cell_setting 'monoclinic'
loop_
_space_group_symop_operation_xyz
x,y,z
-x,y,-z
-x,-y,-z
x,-y,z
loop_
_atom_site_type_symbol
_atom_site_label
_atom_site_fract_x
_atom_site_fract_y
_atom_site_fract_z
Si Si1 0.328893 0.000000 0.590783
Si Si2 0.286410 0.000000 0.766401
Si Si3 0.022800 0.500000 0.910043
Si Si4 0.428828 0.752353 0.075590
Si Si5 0.613005 0.500000 0.444531
Si Si6 0.948653 0.000000 0.142134
Si Si7 0.253197 0.500000 0.299229
Si Si8 0.255760 0.000000 0.311275
O O1 0.257433 0.000000 0.664492
O O2 0.289710 0.252194 0.540598
O O3 0.538520 0.000000 0.644642
O O4 0.405638 0.215235 0.825527
O O5 0.120099 0.000000 0.782318
O O6 0.854683 0.500000 0.810273
O O7 0.107288 0.249048 0.907899
O O8 0.000000 0.500000 0.000000
O O9 0.351063 0.500000 0.072305
O O10 0.334028 0.000000 0.066493
O O11 0.500000 0.754710 0.000000
O O12 0.500000 0.500000 0.500000
O O13 0.459756 0.500000 0.338781
O O14 0.155835 0.000000 0.200529
O O15 0.210206 0.743363 0.333910
#
# Coordination Sequence:
#
# PCOD9150771 Si02
#       8
#     2   2   2   4   2   2   2   2
#     4  10  21  33  59  83 113 139 180 224 286 334
#     4  10  21  32  53  81 109 134 180 232 280 330
#     4  10  20  37  53  79 109 151 194 233 260 325
#     4   8  16  30  45  62  99 139 175 208 265 324
#     4  10  20  37  57  85 111 141 180 231 280 341
#     4  10  21  33  57  75 111 147 188 226 284 312
#     4   8  16  32  54  76 100 136 184 220 274 310
#     4   8  16  34  49  75 100 140 182 212 254 332
#
# _framework density 24.650482
#
# number of rings (size 3 to 8) (size 9 to 14) (size 15 to 20)
#    0.667    2.222    0.000    0.667    3.111    0.000 
#    0.000   13.333    0.000    0.000    0.000   42.000 
#    0.000    0.000    0.000    0.000    0.000    0.000 
#
# Total GULP energy -100244.683234 kJ/mol
# GULP energy per Si atom -5569.149069 kJ/mol
# Density = 2.459438 g / cm^3
# Si number density = 24.650482 Si / 1000 Ang^3
#
#
#
# Elastic Constant Matrix: (Units=GPa)
#
#
# Indices 1 2 3 4 5 6 
#
# 1 34.3704 20.3242 26.7176 0.0000 -7.3700 0.0000
# 2 20.3242 315.0664 38.3001 0.0000 -17.7873 0.0000
# 3 26.7176 38.3001 101.9222 0.0000 -37.9478 0.0000
# 4 0.0000 0.0000 0.0000 -42.5731 0.0000 -36.9324
# 5 -7.3700 -17.7873 -37.9478 0.0000 44.5122 0.0000
# 6 0.0000 0.0000 0.0000 -36.9324 0.0000 -171.2124
#
#
#
# Elastic Compliance Matrix: (Units=1/GPa)
#
#
# Indices 1 2 3 4 5 6 
#
# 1 0.037348 -0.001316 -0.010532 0.000000 -0.003321 0.000000
# 2 -0.001316 0.003377 -0.000736 0.000000 0.000504 0.000000
# 3 -0.010532 -0.000736 0.017712 0.000000 0.013062 0.000000
# 4 0.000000 0.000000 0.000000 -0.028896 0.000000 0.006233
# 5 -0.003321 0.000504 0.013062 0.000000 0.033253 0.000000
# 6 0.000000 0.000000 0.000000 0.006233 0.000000 -0.007185
#
#
# Mechanical properties :
#
#
# Convention : Reuss Voigt Hill
#
# Bulk Modulus (GPa) = 30.05945 69.11587 49.58766
# Shear Modulus (GPa) = 54.42604 -9.45354 22.48625
#
# Velocity S-wave (km/s) = 4.70394 -1.96045 3.02355
# Velocity P-wave (km/s) = 6.45937 4.79320 5.68763
#
# Compressibility (1/GPa) = 0.03326741
#
# Stress axis : x y z
#
# Youngs Moduli (GPa) = 26.77496 296.13860 56.45801
#
# Poissons Ratio (x) = 0.38985 0.59463
# Poissons Ratio (y) = 0.03525 0.04157
# Poissons Ratio (z) = 0.28200 0.21805
#
# Static dielectric constant tensor:
#      x y z
#    x 1.956320 0.000000 0.094290 
#    y 0.000000 2.048640 0.000000 
#    z 0.094290 0.000000 1.983310 
# 
# From -- ./inp_files/73888.got.cif
#   From: 2010.05.17/outbox.cif.g08.bks.cpg/sg10_37_cif.got.tgz:73888.got - 2010.06.03 11:33:40.
