data_PCOD9150502
_publ_section_title
;
Structure prediction by ZEFSAII (Michael W. Deem and Ramdas Pophale) SiO2 
 PCOD9150502
Probable space group: P 2/M
;
_chemical_formula_sum "Si O2"
_cell_formula_units_Z 32
_cell_length_a 26.667607
_cell_length_b 8.377271
_cell_length_c 20.670036
_cell_angle_alpha 90.000000
_cell_angle_beta 21.175687
_cell_angle_gamma 90.000000
_cell_volume 1668.054933
_symmetry_space_group_name_H-M "P 2/M"
_symmetry_group_IT_number 10
_symmetry_cell_setting 'monoclinic'
loop_
_space_group_symop_operation_xyz
x,y,z
-x,y,-z
-x,-y,-z
x,-y,z
loop_
_atom_site_type_symbol
_atom_site_label
_atom_site_fract_x
_atom_site_fract_y
_atom_site_fract_z
Si Si1 0.163460 0.306510 0.405089
Si Si2 0.355596 0.692360 0.293618
Si Si3 0.844058 0.692906 0.206602
Si Si4 0.863567 0.807160 0.952231
Si Si5 0.859251 0.190983 0.809153
Si Si6 0.341199 0.307035 0.691309
Si Si7 0.167591 0.190901 0.635407
Si Si8 0.327317 0.692814 0.080590
O O1 0.159456 0.500000 0.410093
O O2 0.262790 0.252890 0.344492
O O3 0.230458 0.254028 0.256730
O O4 0.008561 0.245679 0.602785
O O5 0.358915 0.500000 0.286431
O O6 0.279660 0.742563 0.450575
O O7 0.514533 0.749185 0.100431
O O8 0.842827 0.500000 0.210166
O O9 0.739913 0.746306 0.275582
O O10 0.807523 0.755741 0.321267
O O11 0.000000 0.744146 0.000000
O O12 0.845304 0.752704 0.900200
O O13 0.013936 0.753046 0.797977
O O14 0.863773 0.000000 0.952355
O O15 0.744293 0.748372 0.143503
O O16 0.739884 0.253659 0.905660
O O17 0.855567 0.000000 0.813891
O O18 0.500000 0.251487 0.500000
O O19 0.341306 0.500000 0.691013
O O20 0.169342 0.000000 0.629719
O O21 0.329159 0.500000 0.079738
#
# Coordination Sequence:
#
# PCOD9150502 Si02
#       8
#     4   4   4   4   4   4   4   4
#     4  10  20  37  62  87 113 151 197 242 291 345
#     4  10  21  38  61  86 115 152 193 241 296 345
#     4  10  20  36  59  86 113 144 186 232 277 332
#     4  10  22  39  58  81 114 152 190 232 276 337
#     4  11  23  39  58  85 120 156 196 238 286 344
#     4  10  22  39  60  87 116 145 182 231 284 336
#     4  11  22  37  59  86 116 150 193 239 282 337
#     4  10  22  39  58  86 119 150 193 245 292 346
#
# _framework density 19.184021000000001
#
# number of rings (size 3 to 8) (size 9 to 14) (size 15 to 20)
#    0.000    1.750    2.500    1.500    0.000    7.500 
#    0.000    3.750    0.000    2.250    0.000    0.000 
#    0.000    0.000    0.000    0.000    0.000    0.000 
#
# Total GULP energy -178805.871756 kJ/mol
# GULP energy per Si atom -5587.683492 kJ/mol
# Density = 1.914036 g / cm^3
# Si number density = 19.184021 Si / 1000 Ang^3
#
#
#
# Elastic Constant Matrix: (Units=GPa)
#
#
# Indices 1 2 3 4 5 6 
#
# 1 90.1637 4.7166 22.1851 0.0000 4.7889 0.0000
# 2 4.7166 3.7650 1.9521 0.0000 -2.8262 0.0000
# 3 22.1851 1.9521 61.4232 0.0000 -2.3811 0.0000
# 4 0.0000 0.0000 0.0000 65.7979 0.0000 29.3449
# 5 4.7889 -2.8262 -2.3811 0.0000 39.4329 0.0000
# 6 0.0000 0.0000 0.0000 29.3449 0.0000 35.0539
#
#
#
# Elastic Compliance Matrix: (Units=1/GPa)
#
#
# Indices 1 2 3 4 5 6 
#
# 1 0.013191 -0.016557 -0.004357 0.000000 -0.003052 0.000000
# 2 -0.016557 0.305630 -0.002813 0.000000 0.023746 0.000000
# 3 -0.004357 -0.002813 0.017998 0.000000 0.001414 0.000000
# 4 0.000000 0.000000 0.000000 0.024253 0.000000 -0.020303
# 5 -0.003052 0.023746 0.001414 0.000000 0.027517 0.000000
# 6 0.000000 0.000000 0.000000 -0.020303 0.000000 0.045524
#
#
# Mechanical properties :
#
#
# Convention : Reuss Voigt Hill
#
# Bulk Modulus (GPa) = 3.45582 23.67328 13.56455
# Shear Modulus (GPa) = 8.65020 36.49015 22.57017
#
# Velocity S-wave (km/s) = 2.12576 4.36605 3.43375
# Velocity P-wave (km/s) = 2.79829 6.14682 4.77566
#
# Compressibility (1/GPa) = 0.28936689
#
# Stress axis : x y z
#
# Youngs Moduli (GPa) = 75.80884 3.27193 55.56106
#
# Poissons Ratio (x) = 0.05417 0.24205
# Poissons Ratio (y) = 1.25517 0.15627
# Poissons Ratio (z) = 0.33026 0.00920
#
# Static dielectric constant tensor:
#      x y z
#    x 1.651190 0.000000 -0.010890 
#    y 0.000000 1.666230 0.000000 
#    z -0.010890 0.000000 1.634120 
# 
# From -- ./inp_files/86790.got.cif
#   From: 2010.05.17/outbox.cif.g08.bks.cpg/sg10_44_cif.got.tgz:86790.got - 2010.06.03 11:33:40.
