data_PCOD9150961
_publ_section_title
;
Structure prediction by ZEFSAII (Michael W. Deem and Ramdas Pophale) SiO2 
 PCOD9150961
Probable space group: P 2/M
;
_chemical_formula_sum "Si O2"
_cell_formula_units_Z 24
_cell_length_a 12.240809
_cell_length_b 8.799048
_cell_length_c 25.147696
_cell_angle_alpha 90.000000
_cell_angle_beta 25.061193
_cell_angle_gamma 90.000000
_cell_volume 1147.322688
_symmetry_space_group_name_H-M "P 2/M"
_symmetry_group_IT_number 10
_symmetry_cell_setting 'monoclinic'
loop_
_space_group_symop_operation_xyz
x,y,z
-x,y,-z
-x,-y,-z
x,-y,z
loop_
_atom_site_type_symbol
_atom_site_label
_atom_site_fract_x
_atom_site_fract_y
_atom_site_fract_z
Si Si1 0.621617 0.179966 0.284549
Si Si2 0.936452 0.323643 0.967296
Si Si3 0.669096 0.681888 0.374048
Si Si4 0.327645 0.674124 0.214277
Si Si5 0.230365 0.819949 0.146334
Si Si6 0.255732 0.827878 0.352897
O O1 0.914202 0.219844 0.140293
O O2 0.550073 0.257038 0.371496
O O3 0.466298 0.236038 0.301124
O O4 0.579535 0.000000 0.307348
O O5 0.020190 0.500000 0.923918
O O6 0.000000 0.278090 0.000000
O O7 0.633703 0.317276 0.089983
O O8 0.500000 0.730710 0.500000
O O9 0.674141 0.500000 0.371171
O O10 0.963343 0.742316 0.246259
O O11 0.257632 0.500000 0.232367
O O12 0.256062 0.780893 0.197138
O O13 0.208331 0.728651 0.322110
O O14 0.208710 0.000000 0.146479
O O15 0.500000 0.766698 0.000000
O O16 0.000000 0.838478 0.500000
O O17 0.334751 0.000000 0.301764
#
# Coordination Sequence:
#
# PCOD9150961 Si02
#       6
#     4   4   4   4   4   4
#     4  11  23  39  64  94 126 165 209 260 316 375
#     4  10  20  37  60  90 127 164 203 251 310 372
#     4  11  26  46  68  96 129 169 218 269 323 385
#     4  11  23  39  64  95 127 165 208 258 315 375
#     4  11  25  45  69  97 130 170 218 269 323 384
#     4  10  23  41  60  89 126 167 210 255 313 375
#
# _framework density 20.918264000000001
#
# number of rings (size 3 to 8) (size 9 to 14) (size 15 to 20)
#    0.000    1.333    1.667    3.000    2.333    8.000 
#    0.000    0.000    0.000    0.000    0.000    0.000 
#    0.000    0.000    0.000    0.000    0.000    0.000 
#
# Total GULP energy -134153.049770 kJ/mol
# GULP energy per Si atom -5589.710407 kJ/mol
# Density = 2.087065 g / cm^3
# Si number density = 20.918264 Si / 1000 Ang^3
#
#
#
# Elastic Constant Matrix: (Units=GPa)
#
#
# Indices 1 2 3 4 5 6 
#
# 1 73.6996 7.6504 12.1517 0.0000 19.5562 0.0000
# 2 7.6504 33.3312 15.2264 0.0000 6.3242 0.0000
# 3 12.1517 15.2264 74.4281 0.0000 17.0939 0.0000
# 4 0.0000 0.0000 0.0000 23.5699 0.0000 9.8088
# 5 19.5562 6.3242 17.0939 0.0000 32.3340 0.0000
# 6 0.0000 0.0000 0.0000 9.8088 0.0000 16.0006
#
#
#
# Elastic Compliance Matrix: (Units=1/GPa)
#
#
# Indices 1 2 3 4 5 6 
#
# 1 0.016283 -0.001902 -0.000106 0.000000 -0.009420 0.000000
# 2 -0.001902 0.033628 -0.006058 0.000000 -0.002224 0.000000
# 3 -0.000106 -0.006058 0.016396 0.000000 -0.007419 0.000000
# 4 0.000000 0.000000 0.000000 0.056958 0.000000 -0.034917
# 5 -0.009420 -0.002224 -0.007419 0.000000 0.040982 0.000000
# 6 0.000000 0.000000 0.000000 -0.034917 0.000000 0.083902
#
#
# Mechanical properties :
#
#
# Convention : Reuss Voigt Hill
#
# Bulk Modulus (GPa) = 19.92983 27.94623 23.93803
# Shear Modulus (GPa) = 17.79316 24.14292 20.96804
#
# Velocity S-wave (km/s) = 2.91968 3.40097 3.16947
# Velocity P-wave (km/s) = 4.57320 5.36758 4.98623
#
# Compressibility (1/GPa) = 0.05017603
#
# Stress axis : x y z
#
# Youngs Moduli (GPa) = 61.41319 29.73713 60.98885
#
# Poissons Ratio (x) = 0.05655 0.00646
# Poissons Ratio (y) = 0.11678 0.36948
# Poissons Ratio (z) = 0.00650 0.18015
#
# Static dielectric constant tensor:
#      x y z
#    x 1.778730 0.000000 -0.034320 
#    y 0.000000 1.739710 0.000000 
#    z -0.034320 0.000000 1.775670 
# 
# From -- ./inp_files/88607.got.cif
#   From: 2010.05.17/outbox.cif.g08.bks.cpg/sg10_45_cif.got.tgz:88607.got - 2010.06.03 11:33:40.
