data_PCOD9150967
_publ_section_title
;
Structure prediction by ZEFSAII (Michael W. Deem and Ramdas Pophale) SiO2 
 PCOD9150967
Probable space group: P 2/M
;
_chemical_formula_sum "Si O2"
_cell_formula_units_Z 32
_cell_length_a 9.705804
_cell_length_b 15.031136
_cell_length_c 10.330456
_cell_angle_alpha 90.000000
_cell_angle_beta 90.371495
_cell_angle_gamma 90.000000
_cell_volume 1507.070901
_symmetry_space_group_name_H-M "P 2/M"
_symmetry_group_IT_number 10
_symmetry_cell_setting 'monoclinic'
loop_
_space_group_symop_operation_xyz
x,y,z
-x,y,-z
-x,-y,-z
x,-y,z
loop_
_atom_site_type_symbol
_atom_site_label
_atom_site_fract_x
_atom_site_fract_y
_atom_site_fract_z
Si Si1 0.592059 0.624818 0.207619
Si Si2 0.934445 0.103404 0.776243
Si Si3 0.851222 0.758578 0.552215
Si Si4 0.556713 0.827362 0.188498
Si Si5 0.337095 0.401858 0.511367
Si Si6 0.297385 0.401914 0.083016
Si Si7 0.727862 0.195547 0.923192
Si Si8 0.221082 0.903877 0.655909
O O1 0.579860 0.728537 0.239851
O O2 0.676430 0.592391 0.332200
O O3 0.434530 0.596608 0.174445
O O4 0.661719 0.603562 0.069733
O O5 0.877554 0.177540 0.674893
O O6 0.861850 0.135695 0.906665
O O7 0.099054 0.108487 0.760342
O O8 0.897826 0.000000 0.749553
O O9 0.751952 0.673878 0.557719
O O10 0.791438 0.825370 0.445102
O O11 0.000000 0.727756 0.500000
O O12 0.393707 0.837319 0.173839
O O13 0.631918 0.898306 0.276304
O O14 0.644412 0.819915 0.055777
O O15 0.500000 0.384208 0.500000
O O16 0.307179 0.500000 0.456958
O O17 0.228897 0.500000 0.101640
O O18 0.239232 0.300850 0.100133
O O19 0.196266 0.000000 0.593720
#
# Coordination Sequence:
#
# PCOD9150967 Si02
#       8
#     4   4   4   4   4   4   4   4
#     4   9  16  31  51  78 112 145 178 217 261 315
#     4  10  22  39  58  79 105 142 187 232 279 327
#     4  10  22  40  59  78 108 145 187 231 276 324
#     4   9  18  34  54  82 114 143 177 218 272 330
#     4  11  23  35  55  87 118 146 181 227 270 319
#     4   9  16  28  53  82 109 145 183 216 257 319
#     4   9  20  34  53  84 116 144 174 222 278 327
#     4  10  20  37  61  82 101 138 189 233 273 328
#
# _framework density 21.233241
#
# number of rings (size 3 to 8) (size 9 to 14) (size 15 to 20)
#    0.000    2.375    1.250    3.375    3.500    3.250 
#    0.000    2.500    0.000    3.000    0.000    1.750 
#    0.000    0.000    0.000    0.000    0.000    0.000 
#
# Total GULP energy -178158.269001 kJ/mol
# GULP energy per Si atom -5567.445906 kJ/mol
# Density = 2.118491 g / cm^3
# Si number density = 21.233241 Si / 1000 Ang^3
#
#
#
# Elastic Constant Matrix: (Units=GPa)
#
#
# Indices 1 2 3 4 5 6 
#
# 1 50.0904 47.7231 7.0530 0.0000 2.9606 0.0000
# 2 47.7231 126.6483 10.7555 0.0000 2.0224 0.0000
# 3 7.0530 10.7555 33.0367 0.0000 3.1206 0.0000
# 4 0.0000 0.0000 0.0000 7.2944 0.0000 -3.0311
# 5 2.9606 2.0224 3.1206 0.0000 21.6294 0.0000
# 6 0.0000 0.0000 0.0000 -3.0311 0.0000 13.7588
#
#
#
# Elastic Compliance Matrix: (Units=1/GPa)
#
#
# Indices 1 2 3 4 5 6 
#
# 1 0.031592 -0.011630 -0.002689 0.000000 -0.002849 0.000000
# 2 -0.011630 0.012405 -0.001619 0.000000 0.000666 0.000000
# 3 -0.002689 -0.001619 0.031754 0.000000 -0.004062 0.000000
# 4 0.000000 0.000000 0.000000 0.150906 0.000000 0.033245
# 5 -0.002849 0.000666 -0.004062 0.000000 0.047147 0.000000
# 6 0.000000 0.000000 0.000000 0.033245 0.000000 0.080005
#
#
# Mechanical properties :
#
#
# Convention : Reuss Voigt Hill
#
# Bulk Modulus (GPa) = 22.79199 37.87096 30.33148
# Shear Modulus (GPa) = 12.49032 18.15277 15.32154
#
# Velocity S-wave (km/s) = 2.42800 2.92708 2.68914
# Velocity P-wave (km/s) = 4.31482 5.41277 4.89468
#
# Compressibility (1/GPa) = 0.04387506
#
# Stress axis : x y z
#
# Youngs Moduli (GPa) = 31.65396 80.61114 31.49202
#
# Poissons Ratio (x) = 0.93754 0.08468
# Poissons Ratio (y) = 0.36815 0.05097
# Poissons Ratio (z) = 0.08512 0.13048
#
# Static dielectric constant tensor:
#      x y z
#    x 1.732270 0.000000 -0.017900 
#    y 0.000000 1.784740 0.000000 
#    z -0.017900 0.000000 1.864270 
# 
# From -- ./inp_files/42995.got.cif
#   From: 2010.05.17/outbox.cif.g08.bks.cpg/sg10_22_cif.got.tgz:42995.got - 2010.06.03 11:33:40.
