data_PCOD9150023
_publ_section_title
;
Structure prediction by ZEFSAII (Michael W. Deem and Ramdas Pophale) SiO2 
 PCOD9150023
Probable space group: P 2/M
;
_chemical_formula_sum "Si O2"
_cell_formula_units_Z 28
_cell_length_a 9.526866
_cell_length_b 15.779058
_cell_length_c 22.534295
_cell_angle_alpha 90.000000
_cell_angle_beta 153.824194
_cell_angle_gamma 90.000000
_cell_volume 1494.303036
_symmetry_space_group_name_H-M "P 2/M"
_symmetry_group_IT_number 10
_symmetry_cell_setting 'monoclinic'
loop_
_space_group_symop_operation_xyz
x,y,z
-x,y,-z
-x,-y,-z
x,-y,z
loop_
_atom_site_type_symbol
_atom_site_label
_atom_site_fract_x
_atom_site_fract_y
_atom_site_fract_z
Si Si1 0.651074 0.839735 0.752409
Si Si2 0.366282 0.402454 0.382776
Si Si3 0.158062 0.280582 0.999754
Si Si4 0.268934 0.000000 0.812798
Si Si5 0.176183 0.268841 0.505020
Si Si6 0.676982 0.159627 0.248582
Si Si7 0.356853 0.595556 0.880298
Si Si8 0.951952 0.000000 0.136698
O O1 0.398318 0.809378 0.608334
O O2 0.465992 0.867548 0.741903
O O3 0.860300 0.916031 0.809173
O O4 0.875387 0.758815 0.853063
O O5 0.500000 0.404268 0.500000
O O6 0.355010 0.500000 0.355839
O O7 0.601207 0.343729 0.434249
O O8 0.002452 0.370227 0.249381
O O9 0.382054 0.202235 0.102838
O O10 0.393950 0.347994 0.060718
O O11 0.000000 0.314802 0.000000
O O12 0.206994 0.917563 0.748225
O O13 0.091953 0.000000 0.808815
O O14 0.632413 0.000000 0.975370
O O15 0.000000 0.293484 0.500000
O O16 0.930976 0.232600 0.362974
O O17 0.331139 0.500000 0.845210
O O18 0.500000 0.590102 0.000000
#
# Coordination Sequence:
#
# PCOD9150023 Si02
#       8
#     4   4   4   2   4   4   4   2
#     4  10  21  38  59  83 113 151 189 235 287 341
#     4  10  21  38  59  84 116 157 195 232 287 347
#     4  10  20  35  58  84 109 148 194 234 281 337
#     4  11  23  38  57  86 116 148 190 236 283 341
#     4  10  22  39  59  88 117 149 195 241 287 340
#     4  10  21  38  60  82 113 149 190 236 288 338
#     4  10  21  36  55  82 115 149 186 231 287 343
#     4  11  23  38  57  86 116 146 194 235 279 343
#
# _framework density 18.737832999999998
#
# number of rings (size 3 to 8) (size 9 to 14) (size 15 to 20)
#    0.000    1.857    1.429    2.143    0.000    5.143 
#    0.000    2.857    0.000   10.286    0.000    0.000 
#    0.000    0.000    0.000    0.000    0.000    0.000 
#
# Total GULP energy -156195.055579 kJ/mol
# GULP energy per Si atom -5578.394842 kJ/mol
# Density = 1.869518 g / cm^3
# Si number density = 18.737833 Si / 1000 Ang^3
#
#
#
# Elastic Constant Matrix: (Units=GPa)
#
#
# Indices 1 2 3 4 5 6 
#
# 1 110.9745 74.0926 20.4748 0.0000 23.2134 0.0000
# 2 74.0926 66.0186 -2.6927 0.0000 13.7778 0.0000
# 3 20.4748 -2.6927 74.1450 0.0000 9.6811 0.0000
# 4 0.0000 0.0000 0.0000 15.6442 0.0000 8.1297
# 5 23.2134 13.7778 9.6811 0.0000 28.3695 0.0000
# 6 0.0000 0.0000 0.0000 8.1297 0.0000 36.7886
#
#
#
# Elastic Compliance Matrix: (Units=1/GPa)
#
#
# Indices 1 2 3 4 5 6 
#
# 1 0.051224 -0.056099 -0.014933 0.000000 -0.009573 0.000000
# 2 -0.056099 0.078517 0.018137 0.000000 0.001582 0.000000
# 3 -0.014933 0.018137 0.018655 0.000000 -0.002956 0.000000
# 4 0.000000 0.000000 0.000000 0.072214 0.000000 -0.015958
# 5 -0.009573 0.001582 -0.002956 0.000000 0.043323 0.000000
# 6 0.000000 0.000000 0.000000 -0.015958 0.000000 0.030709
#
#
# Mechanical properties :
#
#
# Convention : Reuss Voigt Hill
#
# Bulk Modulus (GPa) = 23.47139 48.32081 35.89610
# Shear Modulus (GPa) = 12.05883 26.77802 19.41842
#
# Velocity S-wave (km/s) = 2.53959 3.78443 3.22269
# Velocity P-wave (km/s) = 4.59921 6.70371 5.74858
#
# Compressibility (1/GPa) = 0.04260506
#
# Stress axis : x y z
#
# Youngs Moduli (GPa) = 19.52227 12.73609 53.60424
#
# Poissons Ratio (x) = 0.71449 0.80045
# Poissons Ratio (y) = 1.09519 -0.97220
# Poissons Ratio (z) = 0.29152 -0.23099
#
# Static dielectric constant tensor:
#      x y z
#    x 1.649060 0.000000 0.011460 
#    y 0.000000 1.637520 0.000000 
#    z 0.011460 0.000000 1.645100 
# 
# From -- ./inp_files/82920.got.cif
#   From: 2010.05.17/outbox.cif.g08.bks.cpg/sg10_42_cif.got.tgz:82920.got - 2010.06.03 11:33:40.
