data_PCOD9150600
_publ_section_title
;
Structure prediction by ZEFSAII (Michael W. Deem and Ramdas Pophale) SiO2 
 PCOD9150600
Probable space group: P 2/M
;
_chemical_formula_sum "Si O2"
_cell_formula_units_Z 32
_cell_length_a 14.913095
_cell_length_b 8.350802
_cell_length_c 24.101265
_cell_angle_alpha 90.000000
_cell_angle_beta 150.181701
_cell_angle_gamma 90.000000
_cell_volume 1492.490394
_symmetry_space_group_name_H-M "P 2/M"
_symmetry_group_IT_number 10
_symmetry_cell_setting 'monoclinic'
loop_
_space_group_symop_operation_xyz
x,y,z
-x,y,-z
-x,-y,-z
x,-y,z
loop_
_atom_site_type_symbol
_atom_site_label
_atom_site_fract_x
_atom_site_fract_y
_atom_site_fract_z
Si Si1 0.232379 0.314877 0.063189
Si Si2 0.884229 0.305359 0.812085
Si Si3 0.555891 0.306654 0.714041
Si Si4 0.878209 0.683153 0.381080
Si Si5 0.682056 0.684456 0.132505
Si Si6 0.180759 0.189054 0.464088
Si Si7 0.463746 0.177550 0.835567
Si Si8 0.061904 0.306409 0.285303
O O1 0.195651 0.500000 0.057705
O O2 0.340001 0.247785 0.174350
O O3 0.376078 0.299645 0.090518
O O4 0.045393 0.246114 0.939175
O O5 0.903658 0.500000 0.820936
O O6 0.693497 0.270996 0.737804
O O7 0.898532 0.250024 0.756066
O O8 0.534381 0.500000 0.707823
O O9 0.361290 0.237680 0.593962
O O10 0.814861 0.500000 0.342769
O O11 0.703188 0.791805 0.294710
O O12 0.000000 0.698543 0.500000
O O13 0.008123 0.725525 0.399523
O O14 0.714634 0.500000 0.167431
O O15 0.634383 0.792121 0.159160
O O16 0.855921 0.736432 0.191092
O O17 0.500000 0.685335 0.000000
O O18 0.183622 0.240236 0.400907
O O19 0.153707 0.000000 0.453490
O O20 0.537711 0.000000 0.870811
O O21 0.077142 0.500000 0.293958
#
# Coordination Sequence:
#
# PCOD9150600 Si02
#       8
#     4   4   4   4   4   4   4   4
#     4  10  20  38  64  93 124 158 201 254 309 368
#     4   9  19  38  66  96 119 152 205 261 311 359
#     4  10  21  39  65  93 121 156 204 259 311 365
#     4  11  23  40  62  86 114 153 202 251 299 355
#     4  10  20  36  60  87 117 157 202 246 293 352
#     4  12  25  40  59  86 125 165 205 252 304 365
#     4  12  24  36  55  87 124 160 194 235 294 361
#     4  10  20  37  62  88 121 161 204 253 303 360
#
# _framework density 21.440674999999999
#
# number of rings (size 3 to 8) (size 9 to 14) (size 15 to 20)
#    0.000    1.500    1.250    4.500    0.000    8.750 
#    0.000    5.625    0.000    1.500    0.000    0.000 
#    0.000    0.000    0.000    0.000    0.000    0.000 
#
# Total GULP energy -178733.778209 kJ/mol
# GULP energy per Si atom -5585.430569 kJ/mol
# Density = 2.139188 g / cm^3
# Si number density = 21.440675 Si / 1000 Ang^3
#
#
#
# Elastic Constant Matrix: (Units=GPa)
#
#
# Indices 1 2 3 4 5 6 
#
# 1 49.8213 -1.2795 2.3449 0.0000 -8.1802 0.0000
# 2 -1.2795 33.3932 1.5378 0.0000 -4.1843 0.0000
# 3 2.3449 1.5378 83.2228 0.0000 -6.0710 0.0000
# 4 0.0000 0.0000 0.0000 17.5484 0.0000 -43.2669
# 5 -8.1802 -4.1843 -6.0710 0.0000 34.9945 0.0000
# 6 0.0000 0.0000 0.0000 -43.2669 0.0000 80.4154
#
#
#
# Elastic Compliance Matrix: (Units=1/GPa)
#
#
# Indices 1 2 3 4 5 6 
#
# 1 0.020946 0.001444 -0.000250 0.000000 0.005025 0.000000
# 2 0.001444 0.030509 -0.000318 0.000000 0.003930 0.000000
# 3 -0.000250 -0.000318 0.012176 0.000000 0.002016 0.000000
# 4 0.000000 0.000000 0.000000 -0.174487 0.000000 -0.093882
# 5 0.005025 0.003930 0.002016 0.000000 0.030570 0.000000
# 6 0.000000 0.000000 0.000000 -0.093882 0.000000 -0.038077
#
#
# Mechanical properties :
#
#
# Convention : Reuss Voigt Hill
#
# Bulk Modulus (GPa) = 15.29477 19.07153 17.18315
# Shear Modulus (GPa) = -50.85371 37.51392 -6.66989
#
# Velocity S-wave (km/s) = -4.87543 4.18743 -1.76568
# Velocity P-wave (km/s) = 4.95420 5.68276 1.96847
#
# Compressibility (1/GPa) = 0.06538184
#
# Stress axis : x y z
#
# Youngs Moduli (GPa) = 47.74247 32.77761 82.12938
#
# Poissons Ratio (x) = -0.04732 0.02055
# Poissons Ratio (y) = -0.06893 0.02609
# Poissons Ratio (z) = 0.01195 0.01041
#
# Static dielectric constant tensor:
#      x y z
#    x 1.798370 0.000000 -0.046220 
#    y 0.000000 1.771850 0.000000 
#    z -0.046220 0.000000 1.800100 
# 
# From -- ./inp_files/89609.got.cif
#   From: 2010.05.17/outbox.cif.g08.bks.cpg/sg10_45_cif.got.tgz:89609.got - 2010.06.03 11:33:40.
