data_PCOD9150950
_publ_section_title
;
Structure prediction by ZEFSAII (Michael W. Deem and Ramdas Pophale) SiO2 
 PCOD9150950
Probable space group: P 2/M
;
_chemical_formula_sum "Si O2"
_cell_formula_units_Z 32
_cell_length_a 11.848918
_cell_length_b 9.513606
_cell_length_c 21.733900
_cell_angle_alpha 90.000000
_cell_angle_beta 143.673279
_cell_angle_gamma 90.000000
_cell_volume 1451.337734
_symmetry_space_group_name_H-M "P 2/M"
_symmetry_group_IT_number 10
_symmetry_cell_setting 'monoclinic'
loop_
_space_group_symop_operation_xyz
x,y,z
-x,y,-z
-x,-y,-z
x,-y,z
loop_
_atom_site_type_symbol
_atom_site_label
_atom_site_fract_x
_atom_site_fract_y
_atom_site_fract_z
Si Si1 0.727661 0.842775 0.105760
Si Si2 0.062253 0.163311 0.933437
Si Si3 0.245060 0.662384 0.266037
Si Si4 0.937747 0.163311 0.566563
Si Si5 0.727661 0.157226 0.605760
Si Si6 0.626759 0.336837 0.864934
Si Si7 0.245061 0.662384 0.766038
Si Si8 0.626759 0.663163 0.364934
O O1 0.822882 0.828871 0.081113
O O2 0.791161 0.729782 0.183550
O O3 0.772407 0.000000 0.149668
O O4 0.500000 0.833590 0.000000
O O5 0.871636 0.249761 0.835667
O O6 0.027137 0.000000 0.931854
O O7 0.197498 0.237272 0.042643
O O8 0.187357 0.500000 0.237731
O O9 0.208838 0.729782 0.316449
O O10 0.470160 0.670582 0.350665
O O11 0.822883 0.171129 0.581113
O O12 0.802502 0.237271 0.457358
O O13 0.128364 0.249761 0.664334
O O14 0.972863 0.000000 0.568146
O O15 0.500000 0.166412 0.500000
O O16 0.772405 0.000000 0.649667
O O17 0.688325 0.500000 0.885327
O O18 0.470160 0.329418 0.850665
O O19 0.500000 0.300061 0.750000
O O20 0.187357 0.500000 0.737731
O O21 0.688326 0.500000 0.385328
#
# Coordination Sequence:
#
# PCOD9150950 Si02
#       8
#     4   4   4   4   4   4   4   4
#     4  10  20  37  60  87 121 157 191 233 291 352
#     4  11  23  39  62  89 120 156 193 239 292 350
#     4  11  23  38  61  90 120 154 194 242 291 347
#     4  11  23  39  62  89 120 156 193 239 292 350
#     4  10  20  37  60  87 121 157 191 233 291 352
#     4  10  23  43  63  84 115 156 200 245 292 342
#     4  11  23  38  61  90 120 154 194 242 291 347
#     4  10  23  43  63  84 115 156 200 245 292 342
#
# _framework density 22.048624
#
# number of rings (size 3 to 8) (size 9 to 14) (size 15 to 20)
#    0.000    1.500    2.500    2.250    0.000    8.000 
#    0.000    5.000    0.000    0.000    0.000    0.000 
#    0.000    0.000    0.000    0.000    0.000    0.000 
#
# Total GULP energy -179078.231593 kJ/mol
# GULP energy per Si atom -5596.194737 kJ/mol
# Density = 2.199844 g / cm^3
# Si number density = 22.048624 Si / 1000 Ang^3
#
#
#
# Elastic Constant Matrix: (Units=GPa)
#
#
# Indices 1 2 3 4 5 6 
#
# 1 45.7918 10.8521 -4.2825 0.0000 -3.1482 0.0000
# 2 10.8521 174.8407 106.2317 0.0000 -1.1687 0.0000
# 3 -4.2825 106.2317 127.5758 0.0000 4.2470 0.0000
# 4 0.0000 0.0000 0.0000 52.3097 0.0000 -3.1565
# 5 -3.1482 -1.1687 4.2470 0.0000 38.6713 0.0000
# 6 0.0000 0.0000 0.0000 -3.1565 0.0000 17.2502
#
#
#
# Elastic Compliance Matrix: (Units=1/GPa)
#
#
# Indices 1 2 3 4 5 6 
#
# 1 0.023195 -0.003798 0.003897 0.000000 0.001346 0.000000
# 2 -0.003798 0.012276 -0.010390 0.000000 0.001203 0.000000
# 3 0.003897 -0.010390 0.016682 0.000000 -0.001829 0.000000
# 4 0.000000 0.000000 0.000000 0.019330 0.000000 0.003537
# 5 0.001346 0.001203 -0.001829 0.000000 0.026206 0.000000
# 6 0.000000 0.000000 0.000000 0.003537 0.000000 0.058618
#
#
# Mechanical properties :
#
#
# Convention : Reuss Voigt Hill
#
# Bulk Modulus (GPa) = 31.67568 63.75675 47.71622
# Shear Modulus (GPa) = 26.67918 37.34004 32.00961
#
# Velocity S-wave (km/s) = 3.48230 4.11972 3.81435
# Velocity P-wave (km/s) = 5.52866 7.18392 6.40994
#
# Compressibility (1/GPa) = 0.03156996
#
# Stress axis : x y z
#
# Youngs Moduli (GPa) = 43.11267 81.46017 59.94646
#
# Poissons Ratio (x) = 0.30940 -0.23358
# Poissons Ratio (y) = 0.16375 0.62282
# Poissons Ratio (z) = -0.16799 0.84634
#
# Static dielectric constant tensor:
#      x y z
#    x 1.846220 0.000000 -0.007460 
#    y 0.000000 1.760230 0.000000 
#    z -0.007460 0.000000 1.782310 
# 
# From -- ./inp_files/49912.got.cif
#   From: 2010.05.17/outbox.cif.g08.bks.cpg/sg10_25_cif.got.tgz:49912.got - 2010.06.03 11:33:40.
