data_PCOD9150729
_publ_section_title
;
Structure prediction by ZEFSAII (Michael W. Deem and Ramdas Pophale) SiO2 
 PCOD9150729
Probable space group: P 2/M
;
_chemical_formula_sum "Si O2"
_cell_formula_units_Z 20
_cell_length_a 9.798917
_cell_length_b 15.179834
_cell_length_c 9.346946
_cell_angle_alpha 90.000000
_cell_angle_beta 134.904852
_cell_angle_gamma 90.000000
_cell_volume 984.736079
_symmetry_space_group_name_H-M "P 2/M"
_symmetry_group_IT_number 10
_symmetry_cell_setting 'monoclinic'
loop_
_space_group_symop_operation_xyz
x,y,z
-x,y,-z
-x,-y,-z
x,-y,z
loop_
_atom_site_type_symbol
_atom_site_label
_atom_site_fract_x
_atom_site_fract_y
_atom_site_fract_z
Si Si1 0.632913 0.217808 0.958479
Si Si2 0.283757 0.599773 0.408553
Si Si3 0.523752 0.594732 0.846805
Si Si4 0.389909 0.901392 0.567560
Si Si5 0.052635 0.778499 0.204319
O O1 0.630986 0.315807 0.888445
O O2 0.533847 0.147850 0.781591
O O3 0.500000 0.219435 0.000000
O O4 0.857608 0.204796 0.148766
O O5 0.500000 0.612262 0.500000
O O6 0.219948 0.500000 0.324314
O O7 0.326658 0.600736 0.611273
O O8 0.139947 0.679238 0.268137
O O9 0.613147 0.500000 0.872960
O O10 0.500000 0.593835 0.000000
O O11 0.500000 0.909415 0.500000
O O12 0.211102 0.839672 0.396060
O O13 0.338082 0.000000 0.579489
O O14 0.000000 0.801563 0.000000
#
# Coordination Sequence:
#
# PCOD9150729 Si02
#       5
#     4   4   4   4   4
#     4  11  24  42  65  95 133 168 207 265 321 374
#     4  10  20  36  62  94 129 166 213 268 315 367
#     4   9  18  36  60  86 125 170 206 247 303 367
#     4  11  24  45  70  95 125 162 213 267 322 385
#     4  12  23  39  68  95 125 169 216 257 317 388
#
# _framework density 20.310009999999998
#
# number of rings (size 3 to 8) (size 9 to 14) (size 15 to 20)
#    0.000    1.400    4.000    1.800    0.000    3.600 
#    0.000    1.000    0.000    6.000    0.000    0.000 
#    0.000    0.000    0.000    0.000    0.000    0.000 
#
# Total GULP energy -111497.919384 kJ/mol
# GULP energy per Si atom -5574.895969 kJ/mol
# Density = 2.026378 g / cm^3
# Si number density = 20.310010 Si / 1000 Ang^3
#
#
#
# Elastic Constant Matrix: (Units=GPa)
#
#
# Indices 1 2 3 4 5 6 
#
# 1 83.2242 25.9263 38.4030 0.0000 11.8477 0.0000
# 2 25.9263 168.0457 70.8936 0.0000 17.5128 0.0000
# 3 38.4030 70.8936 101.8539 0.0000 19.0570 0.0000
# 4 0.0000 0.0000 0.0000 13.1573 0.0000 -17.0237
# 5 11.8477 17.5128 19.0570 0.0000 42.5797 0.0000
# 6 0.0000 0.0000 0.0000 -17.0237 0.0000 10.1624
#
#
#
# Elastic Compliance Matrix: (Units=1/GPa)
#
#
# Indices 1 2 3 4 5 6 
#
# 1 0.014669 0.000163 -0.005313 0.000000 -0.001771 0.000000
# 2 0.000163 0.008459 -0.005773 0.000000 -0.000941 0.000000
# 3 -0.005313 -0.005773 0.016500 0.000000 -0.003532 0.000000
# 4 0.000000 0.000000 0.000000 -0.065103 0.000000 -0.109058
# 5 -0.001771 -0.000941 -0.003532 0.000000 0.025946 0.000000
# 6 0.000000 0.000000 0.000000 -0.109058 0.000000 -0.084289
#
#
# Mechanical properties :
#
#
# Convention : Reuss Voigt Hill
#
# Bulk Modulus (GPa) = 56.23731 69.28553 62.76142
# Shear Modulus (GPa) = -89.21440 27.70661 -30.75390
#
# Velocity S-wave (km/s) = -6.63488 3.69749 -3.89552
# Velocity P-wave (km/s) = 5.56291 7.23993 3.27648
#
# Compressibility (1/GPa) = 0.01778179
#
# Stress axis : x y z
#
# Youngs Moduli (GPa) = 68.17303 118.21357 60.60506
#
# Poissons Ratio (x) = -0.01923 0.32197
# Poissons Ratio (y) = -0.01109 0.34989
# Poissons Ratio (z) = 0.36217 0.68248
#
# Static dielectric constant tensor:
#      x y z
#    x 1.762740 0.000000 -0.018280 
#    y 0.000000 1.775950 0.000000 
#    z -0.018280 0.000000 1.707240 
# 
# From -- ./inp_files/47663.got.cif
#   From: 2010.05.17/outbox.cif.g08.bks.cpg/sg10_24_cif.got.tgz:47663.got - 2010.06.03 11:33:40.
