data_PCOD9150561
_publ_section_title
;
Structure prediction by ZEFSAII (Michael W. Deem and Ramdas Pophale) SiO2 
 PCOD9150561
Probable space group: P 2/M
;
_chemical_formula_sum "Si O2"
_cell_formula_units_Z 32
_cell_length_a 23.135195
_cell_length_b 7.764150
_cell_length_c 12.990501
_cell_angle_alpha 90.000000
_cell_angle_beta 37.043193
_cell_angle_gamma 90.000000
_cell_volume 1405.691884
_symmetry_space_group_name_H-M "P 2/M"
_symmetry_group_IT_number 10
_symmetry_cell_setting 'monoclinic'
loop_
_space_group_symop_operation_xyz
x,y,z
-x,y,-z
-x,-y,-z
x,-y,z
loop_
_atom_site_type_symbol
_atom_site_label
_atom_site_fract_x
_atom_site_fract_y
_atom_site_fract_z
Si Si1 0.891390 0.796404 0.124935
Si Si2 0.139951 0.706951 0.607567
Si Si3 0.392025 0.289221 0.624002
Si Si4 0.401166 0.804878 0.944494
Si Si5 0.070107 0.299683 0.148148
Si Si6 0.599869 0.304194 0.610975
Si Si7 0.752299 0.291424 0.991207
Si Si8 0.659389 0.291220 0.748671
O O1 0.835742 0.757162 0.308919
O O2 0.891036 0.000000 0.108071
O O3 0.872754 0.709568 0.042117
O O4 0.000000 0.739612 0.000000
O O5 0.134147 0.500000 0.616557
O O6 0.228049 0.755694 0.409901
O O7 0.035669 0.777167 0.721805
O O8 0.500000 0.236895 0.500000
O O9 0.391203 0.500000 0.621460
O O10 0.367232 0.226254 0.543992
O O11 0.318497 0.234144 0.816217
O O12 0.395277 0.775995 0.074567
O O13 0.427220 0.000000 0.884317
O O14 0.483798 0.692001 0.774614
O O15 0.298204 0.764245 0.041632
O O16 0.054514 0.500000 0.195098
O O17 0.141176 0.226888 0.133112
O O18 0.637454 0.500000 0.560677
O O19 0.623206 0.226616 0.689097
O O20 0.754951 0.500000 0.988552
O O21 0.649797 0.500000 0.764791
#
# Coordination Sequence:
#
# PCOD9150561 Si02
#       8
#     4   4   4   4   4   4   4   4
#     4   9  17  29  47  73 110 153 185 216 268 332
#     4   9  18  34  54  82 113 142 186 240 282 319
#     4   9  16  30  56  85 111 140 178 227 271 324
#     4  12  25  40  57  79 113 148 186 235 287 337
#     4   9  18  32  55  83 112 146 186 235 281 323
#     4  10  20  37  61  86 111 144 187 227 275 338
#     4  10  20  36  60  84 112 150 191 228 276 336
#     4  10  22  38  61  84 109 146 192 237 278 331
#
# _framework density 22.764592
#
# number of rings (size 3 to 8) (size 9 to 14) (size 15 to 20)
#    0.000    2.250    1.250    1.875    1.750    4.500 
#    0.000    1.875    0.000    3.750    0.000    0.000 
#    0.000    0.000    0.000    0.000    0.000    0.000 
#
# Total GULP energy -178698.142149 kJ/mol
# GULP energy per Si atom -5584.316942 kJ/mol
# Density = 2.271278 g / cm^3
# Si number density = 22.764592 Si / 1000 Ang^3
#
#
#
# Elastic Constant Matrix: (Units=GPa)
#
#
# Indices 1 2 3 4 5 6 
#
# 1 116.2177 3.7440 3.2757 0.0000 6.6328 0.0000
# 2 3.7440 42.5501 -1.4045 0.0000 -1.8502 0.0000
# 3 3.2757 -1.4045 54.0495 0.0000 8.3653 0.0000
# 4 0.0000 0.0000 0.0000 1023.2678 0.0000 1499.5696
# 5 6.6328 -1.8502 8.3653 0.0000 34.9117 0.0000
# 6 0.0000 0.0000 0.0000 1499.5696 0.0000 2191.1402
#
#
#
# Elastic Compliance Matrix: (Units=1/GPa)
#
#
# Indices 1 2 3 4 5 6 
#
# 1 0.008734 -0.000849 -0.000299 0.000000 -0.001633 0.000000
# 2 -0.000849 0.023648 0.000464 0.000000 0.001303 0.000000
# 3 -0.000299 0.000464 0.019232 0.000000 -0.004527 0.000000
# 4 0.000000 0.000000 0.000000 -0.332706 0.000000 0.227697
# 5 -0.001633 0.001303 -0.004527 0.000000 0.030108 0.000000
# 6 0.000000 0.000000 0.000000 0.227697 0.000000 -0.155374
#
#
# Mechanical properties :
#
#
# Convention : Reuss Voigt Hill
#
# Bulk Modulus (GPa) = 19.90174 24.89418 22.39796
# Shear Modulus (GPa) = -12.87857 663.67741 325.39942
#
# Velocity S-wave (km/s) = -2.38108 17.09305 11.96877
# Velocity P-wave (km/s) = 1.09634 20.01305 14.17258
#
# Compressibility (1/GPa) = 0.05024687
#
# Stress axis : x y z
#
# Youngs Moduli (GPa) = 114.50162 42.28608 51.99571
#
# Poissons Ratio (x) = 0.03591 0.01553
# Poissons Ratio (y) = 0.09725 -0.02414
# Poissons Ratio (z) = 0.03420 -0.01963
#
# Static dielectric constant tensor:
#      x y z
#    x 1.899150 0.000000 -0.036780 
#    y 0.000000 1.824410 0.000000 
#    z -0.036780 0.000000 1.834720 
# 
# From -- ./inp_files/55262.got.cif
#   From: 2010.05.17/outbox.cif.g08.bks.cpg/sg10_28_cif.got.tgz:55262.got - 2010.06.03 11:33:40.
