data_PCOD9150062
_publ_section_title
;
Structure prediction by ZEFSAII (Michael W. Deem and Ramdas Pophale) SiO2 
 PCOD9150062
Probable space group: P 2/M
;
_chemical_formula_sum "Si O2"
_cell_formula_units_Z 24
_cell_length_a 8.412568
_cell_length_b 16.759685
_cell_length_c 12.349428
_cell_angle_alpha 90.000000
_cell_angle_beta 45.886257
_cell_angle_gamma 90.000000
_cell_volume 1250.089596
_symmetry_space_group_name_H-M "P 2/M"
_symmetry_group_IT_number 10
_symmetry_cell_setting 'monoclinic'
loop_
_space_group_symop_operation_xyz
x,y,z
-x,y,-z
-x,-y,-z
x,-y,z
loop_
_atom_site_type_symbol
_atom_site_label
_atom_site_fract_x
_atom_site_fract_y
_atom_site_fract_z
Si Si1 0.345220 0.000000 0.911877
Si Si2 0.114944 0.843119 0.557485
Si Si3 0.150012 0.000000 0.240506
Si Si4 0.606170 0.708969 0.065554
Si Si5 0.885986 0.267078 0.238919
Si Si6 0.420225 0.156674 0.762601
Si Si7 0.245670 0.590620 0.829412
O O1 0.304651 0.921023 0.863424
O O2 0.609556 0.000000 0.815152
O O3 0.207159 0.000000 0.087037
O O4 0.117220 0.770413 0.640854
O O5 0.366838 0.865284 0.409153
O O6 0.000000 0.819252 0.500000
O O7 0.984736 0.920521 0.663817
O O8 0.506341 0.786956 0.171444
O O9 0.604721 0.636997 0.153026
O O10 0.500000 0.690897 0.000000
O O11 0.862454 0.729224 0.921101
O O12 0.747273 0.208009 0.228864
O O13 0.780119 0.353813 0.264435
O O14 0.315536 0.500000 0.775737
O O15 0.000000 0.588149 0.000000
#
# Coordination Sequence:
#
# PCOD9150062 Si02
#       7
#     2   4   2   4   4   4   4
#     4  11  23  39  60  84 116 156 196 241 288 339
#     4  12  22  38  58  82 117 155 200 239 289 342
#     4  11  24  38  57  86 117 154 195 244 295 332
#     4  10  20  35  58  88 117 151 197 243 289 346
#     4  10  22  38  58  87 115 154 196 240 294 346
#     4  11  22  37  58  81 117 154 197 242 288 343
#     4   8  16  34  59  87 120 152 187 236 291 346
#
# _framework density 19.198623999999999
#
# number of rings (size 3 to 8) (size 9 to 14) (size 15 to 20)
#    0.000    1.667    1.667    4.750    2.333    1.000 
#    0.000    4.167    0.000    8.500    0.000    0.000 
#    0.000    0.000    0.000    0.000    0.000    0.000 
#
# Total GULP energy -134074.481795 kJ/mol
# GULP energy per Si atom -5586.436741 kJ/mol
# Density = 1.915493 g / cm^3
# Si number density = 19.198624 Si / 1000 Ang^3
#
#
#
# Elastic Constant Matrix: (Units=GPa)
#
#
# Indices 1 2 3 4 5 6 
#
# 1 86.6682 48.2058 38.1792 0.0000 10.1491 0.0000
# 2 48.2058 156.1535 50.0759 0.0000 34.9881 0.0000
# 3 38.1792 50.0759 88.5710 0.0000 15.1011 0.0000
# 4 0.0000 0.0000 0.0000 -21.6375 0.0000 1.5342
# 5 10.1491 34.9881 15.1011 0.0000 25.9588 0.0000
# 6 0.0000 0.0000 0.0000 1.5342 0.0000 13.8879
#
#
#
# Elastic Compliance Matrix: (Units=1/GPa)
#
#
# Indices 1 2 3 4 5 6 
#
# 1 0.015510 -0.003564 -0.004946 0.000000 0.001618 0.000000
# 2 -0.003564 0.011031 -0.002668 0.000000 -0.011923 0.000000
# 3 -0.004946 -0.002668 0.015528 0.000000 -0.003504 0.000000
# 4 0.000000 0.000000 0.000000 -0.045857 0.000000 0.005066
# 5 0.001618 -0.011923 -0.003504 0.000000 0.055998 0.000000
# 6 0.000000 0.000000 0.000000 0.005066 0.000000 0.071445
#
#
# Mechanical properties :
#
#
# Convention : Reuss Voigt Hill
#
# Bulk Modulus (GPa) = 50.72782 67.14604 58.93693
# Shear Modulus (GPa) = 32.76878 16.63731 24.70305
#
# Velocity S-wave (km/s) = 4.13586 2.94698 3.59096
# Velocity P-wave (km/s) = 7.02048 6.82861 6.92521
#
# Compressibility (1/GPa) = 0.01971305
#
# Stress axis : x y z
#
# Youngs Moduli (GPa) = 64.47292 90.65205 64.39922
#
# Poissons Ratio (x) = 0.32312 0.31855
# Poissons Ratio (y) = 0.22980 0.17179
# Poissons Ratio (z) = 0.31891 0.24182
#
# Static dielectric constant tensor:
#      x y z
#    x 1.689620 0.000000 -0.001190 
#    y 0.000000 1.657170 0.000000 
#    z -0.001190 0.000000 1.674620 
# 
# From -- ./inp_files/43240.got.cif
#   From: 2010.05.17/outbox.cif.g08.bks.cpg/sg10_22_cif.got.tgz:43240.got - 2010.06.03 11:33:40.
