data_PCOD9150592
_publ_section_title
;
Structure prediction by ZEFSAII (Michael W. Deem and Ramdas Pophale) SiO2 
 PCOD9150592
Probable space group: P 2/M
;
_chemical_formula_sum "Si O2"
_cell_formula_units_Z 28
_cell_length_a 27.291733
_cell_length_b 7.536377
_cell_length_c 10.155572
_cell_angle_alpha 90.000000
_cell_angle_beta 142.256827
_cell_angle_gamma 90.000000
_cell_volume 1278.606362
_symmetry_space_group_name_H-M "P 2/M"
_symmetry_group_IT_number 10
_symmetry_cell_setting 'monoclinic'
loop_
_space_group_symop_operation_xyz
x,y,z
-x,y,-z
-x,-y,-z
x,-y,z
loop_
_atom_site_type_symbol
_atom_site_label
_atom_site_fract_x
_atom_site_fract_y
_atom_site_fract_z
Si Si1 0.794935 0.706809 0.856257
Si Si2 0.868602 0.205433 0.516722
Si Si3 0.564212 0.714695 0.744111
Si Si4 0.431740 0.208035 0.949229
Si Si5 0.254463 0.204821 0.536971
Si Si6 0.740153 0.715816 0.023622
Si Si7 0.978207 0.784410 0.305012
O O1 0.774303 0.500000 0.800393
O O2 0.767646 0.793017 0.662730
O O3 0.753849 0.774695 0.902701
O O4 0.889828 0.726058 0.078341
O O5 0.816719 0.285354 0.525771
O O6 0.810347 0.214635 0.266403
O O7 0.953426 0.281046 0.650102
O O8 0.885292 0.000000 0.586548
O O9 0.500000 0.774463 0.500000
O O10 0.563644 0.500000 0.743984
O O11 0.544126 0.776842 0.847680
O O12 0.653913 0.770585 0.895517
O O13 0.342344 0.285807 0.744983
O O14 0.424365 0.000000 0.897198
O O15 0.500000 0.285356 0.000000
O O16 0.260370 0.000000 0.595664
O O17 0.744505 0.500000 0.035446
O O18 0.000000 0.727415 0.500000
O O19 0.979296 0.000000 0.307255
#
# Coordination Sequence:
#
# PCOD9150592 Si02
#       7
#     4   4   4   4   4   4   4
#     4  11  24  38  57  86 119 153 192 237 287 341
#     4  10  20  37  62  86 110 150 195 237 286 342
#     4  10  22  39  60  87 118 153 193 235 283 342
#     4  10  22  40  61  88 119 151 191 239 288 338
#     4  10  22  40  59  82 117 154 191 235 286 342
#     4  10  21  37  57  84 116 151 192 238 283 336
#     4  10  20  36  60  87 114 147 193 240 287 343
#
# _framework density 21.898841999999998
#
# number of rings (size 3 to 8) (size 9 to 14) (size 15 to 20)
#    0.000    1.857    2.857    0.429    2.000    3.714 
#    0.000    2.857    0.000    0.000    0.000    0.000 
#    0.000    0.000    0.000    0.000    0.000    0.000 
#
# Total GULP energy -156470.187336 kJ/mol
# GULP energy per Si atom -5588.220976 kJ/mol
# Density = 2.184900 g / cm^3
# Si number density = 21.898842 Si / 1000 Ang^3
#
#
#
# Elastic Constant Matrix: (Units=GPa)
#
#
# Indices 1 2 3 4 5 6 
#
# 1 186.9533 -0.8116 31.5613 0.0000 -6.8395 0.0000
# 2 -0.8116 55.1560 -17.7778 0.0000 4.5907 0.0000
# 3 31.5613 -17.7778 73.8555 0.0000 -10.4457 0.0000
# 4 0.0000 0.0000 0.0000 23.1621 0.0000 -12.7523
# 5 -6.8395 4.5907 -10.4457 0.0000 35.3520 0.0000
# 6 0.0000 0.0000 0.0000 -12.7523 0.0000 -2.1166
#
#
#
# Elastic Compliance Matrix: (Units=1/GPa)
#
#
# Indices 1 2 3 4 5 6 
#
# 1 0.005802 -0.000792 -0.002606 0.000000 0.000455 0.000000
# 2 -0.000792 0.019813 0.004928 0.000000 -0.001270 0.000000
# 3 -0.002606 0.004928 0.016362 0.000000 0.003690 0.000000
# 4 0.000000 0.000000 0.000000 0.010001 0.000000 -0.060253
# 5 0.000455 -0.001270 0.003690 0.000000 0.029630 0.000000
# 6 0.000000 0.000000 0.000000 -0.060253 0.000000 -0.109437
#
#
# Mechanical properties :
#
#
# Convention : Reuss Voigt Hill
#
# Bulk Modulus (GPa) = 22.20414 37.98985 30.09700
# Shear Modulus (GPa) = -314.91020 31.47902 -141.71559
#
# Velocity S-wave (km/s) = -12.00477 3.79552 -8.05321
# Velocity P-wave (km/s) = 13.49041 6.04925 8.52636
#
# Compressibility (1/GPa) = 0.04503664
#
# Stress axis : x y z
#
# Youngs Moduli (GPa) = 172.35264 50.47220 61.11829
#
# Poissons Ratio (x) = 0.04000 0.15926
# Poissons Ratio (y) = 0.13658 -0.30120
# Poissons Ratio (z) = 0.44911 -0.24874
#
# Static dielectric constant tensor:
#      x y z
#    x 1.814470 0.000000 0.017780 
#    y 0.000000 1.437690 0.000000 
#    z 0.017780 0.000000 1.730480 
# 
# From -- ./inp_files/37340.got.cif
#   From: 2010.05.17/outbox.cif.g08.bks.cpg/sg10_19_cif.got.tgz:37340.got - 2010.06.03 11:33:40.
