data_PCOD9150215
_publ_section_title
;
Structure prediction by ZEFSAII (Michael W. Deem and Ramdas Pophale) SiO2 
 PCOD9150215
Probable space group: P 2/M
;
_chemical_formula_sum "Si O2"
_cell_formula_units_Z 32
_cell_length_a 28.440488
_cell_length_b 8.328257
_cell_length_c 22.200355
_cell_angle_alpha 90.000000
_cell_angle_beta 17.031736
_cell_angle_gamma 90.000000
_cell_volume 1540.183485
_symmetry_space_group_name_H-M "P 2/M"
_symmetry_group_IT_number 10
_symmetry_cell_setting 'monoclinic'
loop_
_space_group_symop_operation_xyz
x,y,z
-x,y,-z
-x,-y,-z
x,-y,z
loop_
_atom_site_type_symbol
_atom_site_label
_atom_site_fract_x
_atom_site_fract_y
_atom_site_fract_z
Si Si1 0.604592 0.308332 0.103503
Si Si2 0.018830 0.186266 0.877876
Si Si3 0.107129 0.814083 0.550665
Si Si4 0.260882 0.806491 0.479561
Si Si5 0.791939 0.688970 0.994151
Si Si6 0.941293 0.307035 0.636559
Si Si7 0.455346 0.816263 0.624396
Si Si8 0.780620 0.317231 0.262667
O O1 0.592349 0.500000 0.110007
O O2 0.434668 0.236414 0.292872
O O3 0.656333 0.281343 0.109238
O O4 0.761973 0.248988 0.873785
O O5 0.115962 0.250908 0.700948
O O6 0.147843 0.200318 0.774448
O O7 0.973329 0.000000 0.923945
O O8 0.869930 0.279003 0.090276
O O9 0.236721 0.749005 0.440100
O O10 0.065328 0.732894 0.538379
O O11 0.141254 0.000000 0.496901
O O12 0.942877 0.792963 0.789623
O O13 0.246711 0.000000 0.496181
O O14 0.833038 0.500000 0.942024
O O15 0.715875 0.742337 0.149788
O O16 0.930760 0.500000 0.646808
O O17 0.000000 0.246296 0.500000
O O18 0.500000 0.816866 0.500000
O O19 0.593575 0.711572 0.485350
O O20 0.460032 0.000000 0.640325
O O21 0.814000 0.500000 0.239822
#
# Coordination Sequence:
#
# PCOD9150215 Si02
#       8
#     4   4   4   4   4   4   4   4
#     4   9  19  35  58  86 112 143 184 228 275 332
#     4  10  20  36  56  74 101 144 186 227 282 344
#     4  10  21  37  57  86 119 151 189 230 278 339
#     4  10  22  36  54  81 114 148 186 230 277 332
#     4  10  21  38  58  82 110 144 190 241 289 341
#     4   9  19  39  64  89 118 152 190 231 275 330
#     4  11  24  38  53  73 103 143 186 234 289 345
#     4  11  22  36  52  76 104 134 183 239 291 343
#
# _framework density 20.776744999999998
#
# number of rings (size 3 to 8) (size 9 to 14) (size 15 to 20)
#    0.000    2.000    0.000    4.875    1.750    7.750 
#    0.000    0.625    0.000    3.750    0.000    0.000 
#    0.000    0.000    0.000    0.000    0.000    0.000 
#
# Total GULP energy -178647.209311 kJ/mol
# GULP energy per Si atom -5582.725291 kJ/mol
# Density = 2.072946 g / cm^3
# Si number density = 20.776745 Si / 1000 Ang^3
#
#
#
# Elastic Constant Matrix: (Units=GPa)
#
#
# Indices 1 2 3 4 5 6 
#
# 1 82.3291 -3.0219 17.1295 0.0000 12.4550 0.0000
# 2 -3.0219 22.2238 -0.5272 0.0000 3.9036 0.0000
# 3 17.1295 -0.5272 43.4546 0.0000 15.2708 0.0000
# 4 0.0000 0.0000 0.0000 16.4026 0.0000 10.9258
# 5 12.4550 3.9036 15.2708 0.0000 36.1434 0.0000
# 6 0.0000 0.0000 0.0000 10.9258 0.0000 10.3597
#
#
#
# Elastic Compliance Matrix: (Units=1/GPa)
#
#
# Indices 1 2 3 4 5 6 
#
# 1 0.013585 0.002300 -0.004222 0.000000 -0.003146 0.000000
# 2 0.002300 0.046527 0.001999 0.000000 -0.006662 0.000000
# 3 -0.004222 0.001999 0.028497 0.000000 -0.010801 0.000000
# 4 0.000000 0.000000 0.000000 0.204926 0.000000 -0.216123
# 5 -0.003146 -0.006662 -0.010801 0.000000 0.034035 0.000000
# 6 0.000000 0.000000 0.000000 -0.216123 0.000000 0.324460
#
#
# Mechanical properties :
#
#
# Convention : Reuss Voigt Hill
#
# Bulk Modulus (GPa) = 11.26590 19.46314 15.36452
# Shear Modulus (GPa) = 7.33716 21.54295 14.44005
#
# Velocity S-wave (km/s) = 1.88125 3.22355 2.63916
# Velocity P-wave (km/s) = 3.18637 4.82111 4.08632
#
# Compressibility (1/GPa) = 0.08876347
#
# Stress axis : x y z
#
# Youngs Moduli (GPa) = 73.61015 21.49281 35.09190
#
# Poissons Ratio (x) = -0.04943 0.14814
# Poissons Ratio (y) = -0.16928 -0.07016
# Poissons Ratio (z) = 0.31075 -0.04297
#
# Static dielectric constant tensor:
#      x y z
#    x 1.792200 0.000000 0.006940 
#    y 0.000000 1.724810 0.000000 
#    z 0.006940 0.000000 1.744820 
# 
# From -- ./inp_files/86915.got.cif
#   From: 2010.05.17/outbox.cif.g08.bks.cpg/sg10_44_cif.got.tgz:86915.got - 2010.06.03 11:33:40.
