data_PCOD9150357
_publ_section_title
;
Structure prediction by ZEFSAII (Michael W. Deem and Ramdas Pophale) SiO2 
 PCOD9150357
Probable space group: P 2/M
;
_chemical_formula_sum "Si O2"
_cell_formula_units_Z 16
_cell_length_a 7.990422
_cell_length_b 20.100805
_cell_length_c 7.906031
_cell_angle_alpha 90.000000
_cell_angle_beta 143.538261
_cell_angle_gamma 90.000000
_cell_volume 754.635224
_symmetry_space_group_name_H-M "P 2/M"
_symmetry_group_IT_number 10
_symmetry_cell_setting 'monoclinic'
loop_
_space_group_symop_operation_xyz
x,y,z
-x,y,-z
-x,-y,-z
x,-y,z
loop_
_atom_site_type_symbol
_atom_site_label
_atom_site_fract_x
_atom_site_fract_y
_atom_site_fract_z
Si Si1 0.699802 0.925010 0.324389
Si Si2 0.302958 0.824623 0.195886
Si Si3 0.185848 0.571013 0.819197
Si Si4 0.811871 0.716043 0.179860
O O1 0.526284 0.878290 0.307913
O O2 0.000000 0.898903 0.500000
O O3 0.748127 0.000000 0.431710
O O4 0.500000 0.929607 0.000000
O O5 0.500000 0.790454 0.500000
O O6 0.200569 0.772660 0.970817
O O7 0.000000 0.856136 0.000000
O O8 0.143300 0.500000 0.877136
O O9 0.122972 0.643165 0.846961
O O10 0.000000 0.569940 0.500000
O O11 0.500000 0.571476 0.000000
O O12 0.000000 0.728651 0.500000
O O13 0.500000 0.712952 0.000000
#
# Coordination Sequence:
#
# PCOD9150357 Si02
#       4
#     4   4   4   4
#     4  10  22  42  66  88 112 148 196 243 287 345
#     4  12  25  38  57  88 125 157 189 238 296 352
#     4   8  14  26  48  78 105 135 187 248 289 321
#     4  10  20  36  58  81 112 155 199 240 284 344
#
# _framework density 21.202297999999999
#
# number of rings (size 3 to 8) (size 9 to 14) (size 15 to 20)
#    0.000    2.000    0.000    3.750    0.000    3.000 
#    0.000    0.000    0.000    1.500    0.000    0.000 
#    0.000    0.000    0.000    0.000    0.000    0.250 
#
# Total GULP energy -89141.594590 kJ/mol
# GULP energy per Si atom -5571.349662 kJ/mol
# Density = 2.115404 g / cm^3
# Si number density = 21.202298 Si / 1000 Ang^3
#
#
#
# Elastic Constant Matrix: (Units=GPa)
#
#
# Indices 1 2 3 4 5 6 
#
# 1 64.7228 53.9897 37.9861 0.0000 21.4093 0.0000
# 2 53.9897 135.8691 25.2158 0.0000 3.8389 0.0000
# 3 37.9861 25.2158 172.3466 0.0000 23.8182 0.0000
# 4 0.0000 0.0000 0.0000 22.0002 0.0000 12.7458
# 5 21.4093 3.8389 23.8182 0.0000 38.8411 0.0000
# 6 0.0000 0.0000 0.0000 12.7458 0.0000 -12.8102
#
#
#
# Elastic Compliance Matrix: (Units=1/GPa)
#
#
# Indices 1 2 3 4 5 6 
#
# 1 0.031871 -0.011639 -0.003335 0.000000 -0.014372 0.000000
# 2 -0.011639 0.011816 0.000122 0.000000 0.005173 0.000000
# 3 -0.003335 0.000122 0.006848 0.000000 -0.002373 0.000000
# 4 0.000000 0.000000 0.000000 0.028834 0.000000 0.028689
# 5 -0.014372 0.005173 -0.002373 0.000000 0.034611 0.000000
# 6 0.000000 0.000000 0.000000 0.028689 0.000000 -0.049519
#
#
# Mechanical properties :
#
#
# Convention : Reuss Voigt Hill
#
# Bulk Modulus (GPa) = 48.01102 67.48019 57.74560
# Shear Modulus (GPa) = 49.45073 26.65602 38.05338
#
# Velocity S-wave (km/s) = 4.83466 3.54958 4.24108
# Velocity P-wave (km/s) = 7.33884 6.97820 7.16079
#
# Compressibility (1/GPa) = 0.02082855
#
# Stress axis : x y z
#
# Youngs Moduli (GPa) = 31.37623 84.62814 146.03861
#
# Poissons Ratio (x) = 0.98502 0.48711
# Poissons Ratio (y) = 0.36520 -0.01776
# Poissons Ratio (z) = 0.10465 -0.01029
#
# Static dielectric constant tensor:
#      x y z
#    x 1.730060 0.000000 -0.013400 
#    y 0.000000 1.930820 0.000000 
#    z -0.013400 0.000000 1.716500 
# 
# From -- ./inp_files/1142.got.cif
#   From: 2010.05.17/outbox.cif.g08.bks.cpg/sg10_1_cif.got.tgz:1142.got - 2010.06.03 11:33:40.
