data_PCOD9150764
_publ_section_title
;
Structure prediction by ZEFSAII (Michael W. Deem and Ramdas Pophale) SiO2 
 PCOD9150764
Probable space group: P 2/M
;
_chemical_formula_sum "Si O2"
_cell_formula_units_Z 17
_cell_length_a 13.289924
_cell_length_b 7.474921
_cell_length_c 10.412843
_cell_angle_alpha 90.000000
_cell_angle_beta 131.761639
_cell_angle_gamma 90.000000
_cell_volume 771.599425
_symmetry_space_group_name_H-M "P 2/M"
_symmetry_group_IT_number 10
_symmetry_cell_setting 'monoclinic'
loop_
_space_group_symop_operation_xyz
x,y,z
-x,y,-z
-x,-y,-z
x,-y,z
loop_
_atom_site_type_symbol
_atom_site_label
_atom_site_fract_x
_atom_site_fract_y
_atom_site_fract_z
Si Si1 0.913711 0.207563 0.310469
Si Si2 0.367356 0.792009 0.037509
Si Si3 0.643818 0.716609 0.675277
Si Si4 0.077238 0.716260 0.195334
Si Si5 0.500000 0.500000 0.000000
O O1 0.000000 0.288805 0.500000
O O2 0.002364 0.216057 0.257356
O O3 0.889147 0.000000 0.322326
O O4 0.765135 0.280181 0.151836
O O5 0.335790 0.778997 0.161666
O O6 0.392378 0.000000 0.028877
O O7 0.484850 0.658475 0.097321
O O8 0.500000 0.776734 0.500000
O O9 0.644859 0.500000 0.679412
O O10 0.768206 0.772706 0.691527
O O11 0.072081 0.500000 0.197427
O O12 0.000000 0.770661 0.000000
#
# Coordination Sequence:
#
# PCOD9150764 Si02
#       5
#     4   4   4   4   1
#     4  10  23  42  64  96 134 168 219 280 332 396
#     4  11  24  44  69  95 129 180 227 272 336 402
#     4  10  21  40  65  98 136 172 220 277 334 395
#     4  10  20  36  65  94 125 169 218 266 326 393
#     4  12  26  44  68  88 140 178 218 284 332 400
#
# _framework density 22.032154999999999
#
# number of rings (size 3 to 8) (size 9 to 14) (size 15 to 20)
#    0.000    1.647    3.529    0.353    1.647    4.235 
#    4.235    2.353    0.000    0.000    0.000    0.000 
#    0.000    0.000    0.000    0.000    0.000    0.000 
#
# Total GULP energy -94752.996245 kJ/mol
# GULP energy per Si atom -5573.705661 kJ/mol
# Density = 2.198201 g / cm^3
# Si number density = 22.032155 Si / 1000 Ang^3
#
#
#
# Elastic Constant Matrix: (Units=GPa)
#
#
# Indices 1 2 3 4 5 6 
#
# 1 55.7649 3.6742 3.6291 0.0000 -0.4522 0.0000
# 2 3.6742 107.6425 0.0476 0.0000 3.7633 0.0000
# 3 3.6291 0.0476 111.1580 0.0000 6.3276 0.0000
# 4 0.0000 0.0000 0.0000 14.0818 0.0000 -9.1279
# 5 -0.4522 3.7633 6.3276 0.0000 39.5704 0.0000
# 6 0.0000 0.0000 0.0000 -9.1279 0.0000 5.3514
#
#
#
# Elastic Compliance Matrix: (Units=1/GPa)
#
#
# Indices 1 2 3 4 5 6 
#
# 1 0.018016 -0.000627 -0.000609 0.000000 0.000363 0.000000
# 2 -0.000627 0.009343 0.000068 0.000000 -0.000907 0.000000
# 3 -0.000609 0.000068 0.009100 0.000000 -0.001469 0.000000
# 4 0.000000 0.000000 0.000000 -0.672257 0.000000 -1.146663
# 5 0.000363 -0.000907 -0.001469 0.000000 0.025597 0.000000
# 6 0.000000 0.000000 0.000000 -1.146663 0.000000 -1.768987
#
#
# Mechanical properties :
#
#
# Convention : Reuss Voigt Hill
#
# Bulk Modulus (GPa) = 29.30548 32.14079 30.72313
# Shear Modulus (GPa) = -2.11374 29.61503 13.75065
#
# Velocity S-wave (km/s) = -0.98055 3.67027 2.50094
# Velocity P-wave (km/s) = 3.47104 5.70798 4.72383
#
# Compressibility (1/GPa) = 0.03412331
#
# Stress axis : x y z
#
# Youngs Moduli (GPa) = 55.50525 107.03090 109.89448
#
# Poissons Ratio (x) = 0.06715 0.06688
# Poissons Ratio (y) = 0.03482 -0.00748
# Poissons Ratio (z) = 0.03378 -0.00729
#
# Static dielectric constant tensor:
#      x y z
#    x 1.828810 0.000000 0.044680 
#    y 0.000000 1.899400 0.000000 
#    z 0.044680 0.000000 1.815900 
# 
# From -- ./inp_files/21743.got.cif
#   From: 2010.05.17/outbox.cif.g08.bks.cpg/sg10_11_cif.got.tgz:21743.got - 2010.06.03 11:33:40.
