data_PCOD9150179
_publ_section_title
;
Structure prediction by ZEFSAII (Michael W. Deem and Ramdas Pophale) SiO2 
 PCOD9150179
Probable space group: P 2/M
;
_chemical_formula_sum "Si O2"
_cell_formula_units_Z 32
_cell_length_a 20.347243
_cell_length_b 14.322102
_cell_length_c 13.876041
_cell_angle_alpha 90.000000
_cell_angle_beta 21.138928
_cell_angle_gamma 90.000000
_cell_volume 1458.278509
_symmetry_space_group_name_H-M "P 2/M"
_symmetry_group_IT_number 10
_symmetry_cell_setting 'monoclinic'
loop_
_space_group_symop_operation_xyz
x,y,z
-x,y,-z
-x,-y,-z
x,-y,z
loop_
_atom_site_type_symbol
_atom_site_label
_atom_site_fract_x
_atom_site_fract_y
_atom_site_fract_z
Si Si1 0.018613 0.233346 0.859171
Si Si2 0.677934 0.105447 0.308943
Si Si3 0.330231 0.609095 0.160327
Si Si4 0.298791 0.710262 0.996818
Si Si5 0.651929 0.111761 0.862101
Si Si6 0.594688 0.170097 0.626982
Si Si7 0.950680 0.892490 0.680276
Si Si8 0.959330 0.606287 0.790395
O O1 0.221018 0.192559 0.569203
O O2 0.983263 0.325821 0.847638
O O3 0.863238 0.160807 0.039173
O O4 0.000000 0.246762 0.000000
O O5 0.500000 0.146323 0.500000
O O6 0.640617 0.105382 0.474242
O O7 0.698639 0.000000 0.246049
O O8 0.359052 0.500000 0.091032
O O9 0.296669 0.672686 0.110825
O O10 0.144270 0.613504 0.474922
O O11 0.500000 0.633009 0.000000
O O12 0.188762 0.806767 0.121932
O O13 0.206439 0.636908 0.052291
O O14 0.510076 0.736484 0.695213
O O15 0.563718 0.131683 0.086954
O O16 0.662393 0.000000 0.839899
O O17 0.500000 0.150683 0.000000
O O18 0.851326 0.142605 0.555387
O O19 0.000000 0.901745 0.500000
O O20 0.903563 0.000000 0.775568
O O21 0.936175 0.500000 0.852818
#
# Coordination Sequence:
#
# PCOD9150179 Si02
#       8
#     4   4   4   4   4   4   4   4
#     4  10  24  44  66  94 124 161 212 266 326 379
#     4  10  22  44  68  93 126 162 209 267 321 373
#     4  10  22  40  63  93 130 170 213 262 319 381
#     4  12  23  38  62  95 132 171 211 255 307 377
#     4  10  22  37  53  83 127 171 215 251 293 359
#     4  11  23  36  63  91 123 168 208 256 309 376
#     4  10  20  36  53  80 128 174 209 250 294 353
#     4  11  24  42  66  94 124 163 214 266 324 387
#
# _framework density 21.943681999999999
#
# number of rings (size 3 to 8) (size 9 to 14) (size 15 to 20)
#    0.000    1.500    1.250    3.375    1.750    5.000 
#    0.000    1.250    0.000    8.250    0.000    0.000 
#    0.000    0.000    0.000    0.000    0.000    0.000 
#
# Total GULP energy -178702.088621 kJ/mol
# GULP energy per Si atom -5584.440269 kJ/mol
# Density = 2.189374 g / cm^3
# Si number density = 21.943682 Si / 1000 Ang^3
#
#
#
# Elastic Constant Matrix: (Units=GPa)
#
#
# Indices 1 2 3 4 5 6 
#
# 1 106.4516 32.7929 40.9156 0.0000 -29.5339 0.0000
# 2 32.7929 118.1567 43.5508 0.0000 -15.5616 0.0000
# 3 40.9156 43.5508 103.8185 0.0000 -35.5266 0.0000
# 4 0.0000 0.0000 0.0000 13.5932 0.0000 -0.4186
# 5 -29.5339 -15.5616 -35.5266 0.0000 46.2983 0.0000
# 6 0.0000 0.0000 0.0000 -0.4186 0.0000 18.1429
#
#
#
# Elastic Compliance Matrix: (Units=1/GPa)
#
#
# Indices 1 2 3 4 5 6 
#
# 1 0.012360 -0.001897 -0.002164 0.000000 0.005587 0.000000
# 2 -0.001897 0.010304 -0.003802 0.000000 -0.000664 0.000000
# 3 -0.002164 -0.003802 0.015148 0.000000 0.008965 0.000000
# 4 0.000000 0.000000 0.000000 0.073619 0.000000 0.001699
# 5 0.005587 -0.000664 0.008965 0.000000 0.031819 0.000000
# 6 0.000000 0.000000 0.000000 0.001699 0.000000 0.055157
#
#
# Mechanical properties :
#
#
# Convention : Reuss Voigt Hill
#
# Bulk Modulus (GPa) = 45.27757 62.54948 53.91352
# Shear Modulus (GPa) = 22.57403 29.68471 26.12937
#
# Velocity S-wave (km/s) = 3.21085 3.68199 3.45446
# Velocity P-wave (km/s) = 5.86723 6.82953 6.36659
#
# Compressibility (1/GPa) = 0.02208599
#
# Stress axis : x y z
#
# Youngs Moduli (GPa) = 80.90696 97.05245 66.01658
#
# Poissons Ratio (x) = 0.18412 0.14283
# Poissons Ratio (y) = 0.15349 0.25099
# Poissons Ratio (z) = 0.17505 0.36899
#
# Static dielectric constant tensor:
#      x y z
#    x 1.907540 0.000000 -0.046630 
#    y 0.000000 1.820520 0.000000 
#    z -0.046630 0.000000 1.845580 
# 
# From -- ./inp_files/70756.got.cif
#   From: 2010.05.17/outbox.cif.g08.bks.cpg/sg10_36_cif.got.tgz:70756.got - 2010.06.03 11:33:40.
