data_PCOD9150385
_publ_section_title
;
Structure prediction by ZEFSAII (Michael W. Deem and Ramdas Pophale) SiO2 
 PCOD9150385
Probable space group: P 2/M
;
_chemical_formula_sum "Si O2"
_cell_formula_units_Z 32
_cell_length_a 12.441958
_cell_length_b 7.666670
_cell_length_c 32.437154
_cell_angle_alpha 90.000000
_cell_angle_beta 151.424377
_cell_angle_gamma 90.000000
_cell_volume 1479.977839
_symmetry_space_group_name_H-M "P 2/M"
_symmetry_group_IT_number 10
_symmetry_cell_setting 'monoclinic'
loop_
_space_group_symop_operation_xyz
x,y,z
-x,y,-z
-x,-y,-z
x,-y,z
loop_
_atom_site_type_symbol
_atom_site_label
_atom_site_fract_x
_atom_site_fract_y
_atom_site_fract_z
Si Si1 0.474426 0.288616 0.242314
Si Si2 0.743903 0.205803 0.918432
Si Si3 0.126780 0.707537 0.818834
Si Si4 0.299746 0.211031 0.487966
Si Si5 0.937066 0.713561 0.840115
Si Si6 0.799760 0.210012 0.636686
Si Si7 0.944285 0.294171 0.436263
Si Si8 0.386903 0.296274 0.036039
O O1 0.475773 0.500000 0.242329
O O2 0.392953 0.234345 0.169560
O O3 0.288223 0.229156 0.212816
O O4 0.719965 0.224015 0.338610
O O5 0.627240 0.284047 0.919422
O O6 0.760217 0.000000 0.931776
O O7 0.000000 0.274734 0.000000
O O8 0.146733 0.500000 0.831590
O O9 0.379794 0.780219 0.902078
O O10 0.978265 0.772326 0.807129
O O11 0.001460 0.735681 0.733678
O O12 0.559598 0.268355 0.574329
O O13 0.192161 0.268461 0.408076
O O14 0.155821 0.274357 0.477610
O O15 0.298536 0.000000 0.488246
O O16 0.929087 0.500000 0.838124
O O17 0.155978 0.774149 0.939345
O O18 0.794999 0.000000 0.634232
O O19 0.900237 0.500000 0.427338
O O20 0.000000 0.219017 0.500000
O O21 0.387372 0.500000 0.024539
#
# Coordination Sequence:
#
# PCOD9150385 Si02
#       8
#     4   4   4   4   4   4   4   4
#     4  10  21  38  60  84 113 154 193 227 285 350
#     4  11  23  38  57  84 116 150 194 243 284 328
#     4  10  21  34  57  89 113 140 187 236 280 332
#     4   9  20  40  61  79 109 152 191 225 276 344
#     4   9  18  35  58  81 111 150 188 227 275 337
#     4   9  20  39  59  81 110 148 189 230 280 336
#     4  10  23  39  59  89 120 146 185 242 293 338
#     4  10  20  36  58  83 114 150 188 229 279 338
#
# _framework density 21.621946000000001
#
# number of rings (size 3 to 8) (size 9 to 14) (size 15 to 20)
#    0.000    2.250    1.250    1.500    3.500    4.250 
#    0.000    2.500    0.000    1.500    0.000    0.000 
#    0.000    0.000    0.000    0.000    0.000    0.000 
#
# Total GULP energy -178740.199877 kJ/mol
# GULP energy per Si atom -5585.631246 kJ/mol
# Density = 2.157273 g / cm^3
# Si number density = 21.621946 Si / 1000 Ang^3
#
#
#
# Elastic Constant Matrix: (Units=GPa)
#
#
# Indices 1 2 3 4 5 6 
#
# 1 70.8207 -15.7999 12.3684 0.0000 -7.7398 0.0000
# 2 -15.7999 34.3164 -2.5901 0.0000 0.6931 0.0000
# 3 12.3684 -2.5901 69.9908 0.0000 -7.9210 0.0000
# 4 0.0000 0.0000 0.0000 29.1882 0.0000 -11.3797
# 5 -7.7398 0.6931 -7.9210 0.0000 20.5348 0.0000
# 6 0.0000 0.0000 0.0000 -11.3797 0.0000 23.6213
#
#
#
# Elastic Compliance Matrix: (Units=1/GPa)
#
#
# Indices 1 2 3 4 5 6 
#
# 1 0.016716 0.007433 -0.002085 0.000000 0.005245 0.000000
# 2 0.007433 0.032534 0.000087 0.000000 0.001737 0.000000
# 3 -0.002085 0.000087 0.015235 0.000000 0.005088 0.000000
# 4 0.000000 0.000000 0.000000 0.042183 0.000000 0.020322
# 5 0.005245 0.001737 0.005088 0.000000 0.052579 0.000000
# 6 0.000000 0.000000 0.000000 0.020322 0.000000 0.052125
#
#
# Mechanical properties :
#
#
# Convention : Reuss Voigt Hill
#
# Bulk Modulus (GPa) = 13.27055 18.12052 15.69554
# Shear Modulus (GPa) = 22.16105 26.74551 24.45328
#
# Velocity S-wave (km/s) = 3.20493 3.52086 3.36660
# Velocity P-wave (km/s) = 4.45492 4.99274 4.73148
#
# Compressibility (1/GPa) = 0.07535481
#
# Stress axis : x y z
#
# Youngs Moduli (GPa) = 59.82354 30.73676 65.63786
#
# Poissons Ratio (x) = -0.22846 0.13687
# Poissons Ratio (y) = -0.44467 -0.00572
# Poissons Ratio (z) = 0.12475 -0.00268
#
# Static dielectric constant tensor:
#      x y z
#    x 1.760520 0.000000 0.005730 
#    y 0.000000 1.825330 0.000000 
#    z 0.005730 0.000000 1.764200 
# 
# From -- ./inp_files/95020.got.cif
#   From: 2010.05.17/outbox.cif.g08.bks.cpg/sg10_48_cif.got.tgz:95020.got - 2010.06.03 11:33:40.
