data_PCOD9150053
_publ_section_title
;
Structure prediction by ZEFSAII (Michael W. Deem and Ramdas Pophale) SiO2 
 PCOD9150053
Probable space group: P 2/M
;
_chemical_formula_sum "Si O2"
_cell_formula_units_Z 28
_cell_length_a 14.866539
_cell_length_b 14.282855
_cell_length_c 14.054104
_cell_angle_alpha 90.000000
_cell_angle_beta 31.549012
_cell_angle_gamma 90.000000
_cell_volume 1561.416719
_symmetry_space_group_name_H-M "P 2/M"
_symmetry_group_IT_number 10
_symmetry_cell_setting 'monoclinic'
loop_
_space_group_symop_operation_xyz
x,y,z
-x,y,-z
-x,-y,-z
x,-y,z
loop_
_atom_site_type_symbol
_atom_site_label
_atom_site_fract_x
_atom_site_fract_y
_atom_site_fract_z
Si Si1 0.574759 0.607876 0.036929
Si Si2 0.524302 0.791901 0.781817
Si Si3 0.191951 0.891030 0.104092
Si Si4 0.976411 0.886665 0.127260
Si Si5 0.583318 0.887725 0.528812
Si Si6 0.907732 0.198198 0.481382
Si Si7 0.981252 0.397627 0.631923
O O1 0.526589 0.500000 0.100369
O O2 0.500836 0.681349 0.178820
O O3 0.500000 0.632068 0.000000
O O4 0.781204 0.612383 0.840514
O O5 0.519211 0.829726 0.677869
O O6 0.706645 0.823608 0.661123
O O7 0.360774 0.836491 0.982818
O O8 0.126944 0.854219 0.060535
O O9 0.024765 0.874026 0.318572
O O10 0.232870 0.000000 0.061507
O O11 0.786451 0.867462 0.336638
O O12 0.990123 0.000000 0.112316
O O13 0.000000 0.850670 0.000000
O O14 0.500000 0.868106 0.500000
O O15 0.557998 0.000000 0.568853
O O16 0.000000 0.202532 0.500000
O O17 0.925959 0.302667 0.420295
O O18 0.042480 0.500000 0.611282
O O19 0.000000 0.400470 0.500000
#
# Coordination Sequence:
#
# PCOD9150053 Si02
#       7
#     4   4   4   4   4   4   4
#     4  10  20  35  58  87 117 150 192 241 292 347
#     4  12  23  36  61  86 117 151 196 242 294 347
#     4  11  23  38  54  79 114 152 196 238 281 338
#     4   9  17  33  56  80 108 141 183 241 293 332
#     4  10  20  36  59  87 115 149 195 243 292 345
#     4  11  23  38  56  78 113 155 195 235 283 343
#     4   9  17  33  56  81 109 142 185 239 292 336
#
# _framework density 17.932431000000001
#
# number of rings (size 3 to 8) (size 9 to 14) (size 15 to 20)
#    0.000    1.714    2.857    3.000    0.000    4.857 
#    0.000    0.714    0.000    0.429    0.000    0.000 
#    0.000    5.143    0.000    0.000    0.000    0.000 
#
# Total GULP energy -156123.541657 kJ/mol
# GULP energy per Si atom -5575.840773 kJ/mol
# Density = 1.789162 g / cm^3
# Si number density = 17.932431 Si / 1000 Ang^3
#
#
#
# Elastic Constant Matrix: (Units=GPa)
#
#
# Indices 1 2 3 4 5 6 
#
# 1 67.9353 28.8899 31.2612 0.0000 -10.3619 0.0000
# 2 28.8899 57.2795 17.2836 0.0000 3.0288 0.0000
# 3 31.2612 17.2836 87.9372 0.0000 -15.4429 0.0000
# 4 0.0000 0.0000 0.0000 -5.7831 0.0000 -8.2545
# 5 -10.3619 3.0288 -15.4429 0.0000 34.9008 0.0000
# 6 0.0000 0.0000 0.0000 -8.2545 0.0000 2.9074
#
#
#
# Elastic Compliance Matrix: (Units=1/GPa)
#
#
# Indices 1 2 3 4 5 6 
#
# 1 0.021994 -0.009868 -0.004968 0.000000 0.005188 0.000000
# 2 -0.009868 0.023389 -0.002125 0.000000 -0.005900 0.000000
# 3 -0.004968 -0.002125 0.014452 0.000000 0.005104 0.000000
# 4 0.000000 0.000000 0.000000 -0.034225 0.000000 -0.097169
# 5 0.005188 -0.005900 0.005104 0.000000 0.032963 0.000000
# 6 0.000000 0.000000 0.000000 -0.097169 0.000000 0.068077
#
#
# Mechanical properties :
#
#
# Convention : Reuss Voigt Hill
#
# Bulk Modulus (GPa) = 38.59228 40.89128 39.74178
# Shear Modulus (GPa) = 29.54910 15.45282 22.50096
#
# Velocity S-wave (km/s) = 4.06372 2.93870 3.54611
# Velocity P-wave (km/s) = 6.60197 5.86234 6.24312
#
# Compressibility (1/GPa) = 0.02591192
#
# Stress axis : x y z
#
# Youngs Moduli (GPa) = 45.46727 42.75583 69.19535
#
# Poissons Ratio (x) = 0.42193 0.34377
# Poissons Ratio (y) = 0.44868 0.14703
# Poissons Ratio (z) = 0.22588 0.09085
#
# Static dielectric constant tensor:
#      x y z
#    x 1.580140 0.000000 -0.030800 
#    y 0.000000 1.634050 0.000000 
#    z -0.030800 0.000000 1.633900 
# 
# From -- ./inp_files/67533.got.cif
#   From: 2010.05.17/outbox.cif.g08.bks.cpg/sg10_34_cif.got.tgz:67533.got - 2010.06.03 11:33:40.
