data_PCOD9150625
_publ_section_title
;
Structure prediction by ZEFSAII (Michael W. Deem and Ramdas Pophale) SiO2 
 PCOD9150625
Probable space group: P 2/M
;
_chemical_formula_sum "Si O2"
_cell_formula_units_Z 26
_cell_length_a 12.047820
_cell_length_b 19.688375
_cell_length_c 5.581904
_cell_angle_alpha 90.000000
_cell_angle_beta 58.568957
_cell_angle_gamma 90.000000
_cell_volume 1129.760437
_symmetry_space_group_name_H-M "P 2/M"
_symmetry_group_IT_number 10
_symmetry_cell_setting 'monoclinic'
loop_
_space_group_symop_operation_xyz
x,y,z
-x,y,-z
-x,-y,-z
x,-y,z
loop_
_atom_site_type_symbol
_atom_site_label
_atom_site_fract_x
_atom_site_fract_y
_atom_site_fract_z
Si Si1 0.391705 0.074328 0.828693
Si Si2 0.848702 0.925367 0.231127
Si Si3 0.126444 0.804176 0.487562
Si Si4 0.278430 0.650744 0.802424
Si Si5 0.613256 0.768310 0.050747
Si Si6 0.000000 0.298934 0.000000
Si Si7 0.346957 0.422793 0.222719
O O1 0.500000 0.068398 0.500000
O O2 0.245239 0.077120 0.889940
O O3 0.414586 0.151270 0.889899
O O4 0.397109 0.000000 0.952178
O O5 0.805638 0.865208 0.449186
O O6 0.834978 0.000000 0.356712
O O7 0.000000 0.915207 0.000000
O O8 0.000000 0.835011 0.500000
O O9 0.240420 0.767487 0.219205
O O10 0.060038 0.749818 0.732739
O O11 0.361094 0.721082 0.745568
O O12 0.321985 0.615023 0.504729
O O13 0.296669 0.611726 0.034203
O O14 0.123930 0.661162 0.953785
O O15 0.500000 0.741636 0.000000
O O16 0.296233 0.500000 0.301429
O O17 0.500000 0.425992 0.000000
#
# Coordination Sequence:
#
# PCOD9150625 Si02
#       7
#     4   4   4   4   4   2   4
#     4  10  22  41  61  89 136 189 235 300 385 450
#     4  10  20  36  60  89 122 174 246 311 371 450
#     4  12  23  42  65  93 136 191 238 303 386 447
#     4  12  26  47  77 112 153 199 248 307 365 438
#     4  12  26  42  68 109 142 187 256 313 370 446
#     4  12  26  46  68  98 150 196 244 294 368 446
#     4  11  26  50  81 117 156 196 239 298 374 444
#
# _framework density 23.013726999999999
#
# number of rings (size 3 to 8) (size 9 to 14) (size 15 to 20)
#    0.000    0.769    2.308    5.077    0.000    6.154 
#    0.000    2.308    0.000    0.000    0.000    0.000 
#    0.000    0.000    0.000    0.000    0.000    0.000 
#
# Total GULP energy -145217.260962 kJ/mol
# GULP energy per Si atom -5585.279268 kJ/mol
# Density = 2.296135 g / cm^3
# Si number density = 23.013727 Si / 1000 Ang^3
#
#
#
# Elastic Constant Matrix: (Units=GPa)
#
#
# Indices 1 2 3 4 5 6 
#
# 1 163.0078 52.0365 29.4958 0.0000 7.1409 0.0000
# 2 52.0365 151.4247 56.0912 0.0000 22.3840 0.0000
# 3 29.4958 56.0912 122.3343 0.0000 1.1344 0.0000
# 4 0.0000 0.0000 0.0000 50.2229 0.0000 2.1985
# 5 7.1409 22.3840 1.1344 0.0000 37.8397 0.0000
# 6 0.0000 0.0000 0.0000 2.1985 0.0000 33.5498
#
#
#
# Elastic Compliance Matrix: (Units=1/GPa)
#
#
# Indices 1 2 3 4 5 6 
#
# 1 0.006940 -0.002120 -0.000701 0.000000 -0.000034 0.000000
# 2 -0.002120 0.009492 -0.003794 0.000000 -0.005101 0.000000
# 3 -0.000701 -0.003794 0.010063 0.000000 0.002075 0.000000
# 4 0.000000 0.000000 0.000000 0.019969 0.000000 -0.001309
# 5 -0.000034 -0.005101 0.002075 0.000000 0.029389 0.000000
# 6 0.000000 0.000000 0.000000 -0.001309 0.000000 0.029892
#
#
# Mechanical properties :
#
#
# Convention : Reuss Voigt Hill
#
# Bulk Modulus (GPa) = 75.38089 79.11265 77.24677
# Shear Modulus (GPa) = 40.51997 44.26535 42.39266
#
# Velocity S-wave (km/s) = 4.20061 4.39045 4.29658
# Velocity P-wave (km/s) = 7.50684 7.75580 7.63233
#
# Compressibility (1/GPa) = 0.01326596
#
# Stress axis : x y z
#
# Youngs Moduli (GPa) = 144.09624 105.35405 99.36948
#
# Poissons Ratio (x) = 0.22337 0.06964
# Poissons Ratio (y) = 0.30550 0.37697
# Poissons Ratio (z) = 0.10099 0.39967
#
# Static dielectric constant tensor:
#      x y z
#    x 2.024380 0.000000 0.058610 
#    y 0.000000 1.909740 0.000000 
#    z 0.058610 0.000000 1.859940 
# 
# From -- ./inp_files/7666.got.cif
#   From: 2010.05.17/outbox.cif.g08.bks.cpg/sg10_4_cif.got.tgz:7666.got - 2010.06.03 11:33:40.
