data_PCOD9150056
_publ_section_title
;
Structure prediction by ZEFSAII (Michael W. Deem and Ramdas Pophale) SiO2 
 PCOD9150056
Probable space group: P 2/M
;
_chemical_formula_sum "Si O2"
_cell_formula_units_Z 28
_cell_length_a 8.796508
_cell_length_b 7.857699
_cell_length_c 27.462362
_cell_angle_alpha 90.000000
_cell_angle_beta 36.232406
_cell_angle_gamma 90.000000
_cell_volume 1121.958013
_symmetry_space_group_name_H-M "P 2/M"
_symmetry_group_IT_number 10
_symmetry_cell_setting 'monoclinic'
loop_
_space_group_symop_operation_xyz
x,y,z
-x,y,-z
-x,-y,-z
x,-y,z
loop_
_atom_site_type_symbol
_atom_site_label
_atom_site_fract_x
_atom_site_fract_y
_atom_site_fract_z
Si Si1 0.695164 0.197454 0.904682
Si Si2 0.605151 0.190632 0.114111
Si Si3 0.191372 0.792881 0.838257
Si Si4 0.680072 0.297144 0.647078
Si Si5 0.411966 0.705122 0.619588
Si Si6 0.817614 0.811096 0.437797
Si Si7 0.102571 0.308007 0.274361
O O1 0.526321 0.267597 0.901719
O O2 0.957677 0.266748 0.862829
O O3 0.748984 0.000000 0.877242
O O4 0.500000 0.199090 0.000000
O O5 0.802780 0.260852 0.105007
O O6 0.343348 0.187882 0.213670
O O7 0.692362 0.000000 0.078481
O O8 0.455627 0.733521 0.744501
O O9 0.180723 0.000000 0.842453
O O10 0.732322 0.500000 0.631984
O O11 0.570616 0.237393 0.624379
O O12 0.944129 0.201351 0.587219
O O13 0.410879 0.500000 0.618477
O O14 0.561819 0.767268 0.533224
O O15 0.116312 0.755559 0.705576
O O16 0.929479 0.689411 0.367332
O O17 0.805871 0.000000 0.420104
O O18 0.190098 0.500000 0.242110
#
# Coordination Sequence:
#
# PCOD9150056 Si02
#       7
#     4   4   4   4   4   4   4
#     4   9  19  36  59  90 125 157 191 235 288 347
#     4  10  20  35  58  87 118 153 197 245 289 342
#     4  10  20  35  58  87 118 153 197 245 289 342
#     4  11  22  38  59  81 111 152 196 242 294 353
#     4  10  23  39  55  79 110 149 198 246 297 354
#     4  12  24  37  55  82 114 149 194 245 298 352
#     4  11  22  38  59  81 111 152 196 242 294 353
#
# _framework density 24.95637
#
# number of rings (size 3 to 8) (size 9 to 14) (size 15 to 20)
#    0.000    1.571    1.429    3.857    0.000    6.286 
#    0.000    2.857    0.000    1.714    0.000    2.000 
#    0.000    0.000    0.000    0.000    0.000    0.000 
#
# Total GULP energy -156136.611812 kJ/mol
# GULP energy per Si atom -5576.307565 kJ/mol
# Density = 2.489957 g / cm^3
# Si number density = 24.956370 Si / 1000 Ang^3
#
#
#
# Elastic Constant Matrix: (Units=GPa)
#
#
# Indices 1 2 3 4 5 6 
#
# 1 162.5667 4.6663 15.7403 0.0000 17.7778 0.0000
# 2 4.6663 48.4660 9.2239 0.0000 -3.8038 0.0000
# 3 15.7403 9.2239 34.0227 0.0000 10.2953 0.0000
# 4 0.0000 0.0000 0.0000 -39.7648 0.0000 209.6539
# 5 17.7778 -3.8038 10.2953 0.0000 49.4470 0.0000
# 6 0.0000 0.0000 0.0000 209.6539 0.0000 -892.1662
#
#
#
# Elastic Compliance Matrix: (Units=1/GPa)
#
#
# Indices 1 2 3 4 5 6 
#
# 1 0.006600 -0.000330 -0.002389 0.000000 -0.001901 0.000000
# 2 -0.000330 0.022226 -0.006858 0.000000 0.003256 0.000000
# 3 -0.002389 -0.006858 0.034425 0.000000 -0.006836 0.000000
# 4 0.000000 0.000000 0.000000 0.105233 0.000000 0.024729
# 5 -0.001901 0.003256 -0.006836 0.000000 0.022581 0.000000
# 6 0.000000 0.000000 0.000000 0.024729 0.000000 0.004690
#
#
# Mechanical properties :
#
#
# Convention : Reuss Voigt Hill
#
# Bulk Modulus (GPa) = 22.67733 33.81290 28.24512
# Shear Modulus (GPa) = 21.77620 -162.13512 -70.17946
#
# Velocity S-wave (km/s) = 2.95714 -8.06898 -5.30866
# Velocity P-wave (km/s) = 4.55698 8.55763 5.12187
#
# Compressibility (1/GPa) = 0.04409690
#
# Stress axis : x y z
#
# Youngs Moduli (GPa) = 151.51616 44.99313 29.04839
#
# Poissons Ratio (x) = 0.01485 0.06939
# Poissons Ratio (y) = 0.05000 0.19922
# Poissons Ratio (z) = 0.36193 0.30858
#
# Static dielectric constant tensor:
#      x y z
#    x 2.213310 0.000000 0.054060 
#    y 0.000000 1.889410 0.000000 
#    z 0.054060 0.000000 1.936270 
# 
# From -- ./inp_files/91966.got.cif
#   From: 2010.05.17/outbox.cif.g08.bks.cpg/sg10_46_cif.got.tgz:91966.got - 2010.06.03 11:33:40.
