data_PCOD9150742
_publ_section_title
;
Structure prediction by ZEFSAII (Michael W. Deem and Ramdas Pophale) SiO2 
 PCOD9150742
Probable space group: P 2/M
;
_chemical_formula_sum "Si O2"
_cell_formula_units_Z 28
_cell_length_a 14.796819
_cell_length_b 7.890669
_cell_length_c 21.653501
_cell_angle_alpha 90.000000
_cell_angle_beta 150.634450
_cell_angle_gamma 90.000000
_cell_volume 1239.775112
_symmetry_space_group_name_H-M "P 2/M"
_symmetry_group_IT_number 10
_symmetry_cell_setting 'monoclinic'
loop_
_space_group_symop_operation_xyz
x,y,z
-x,y,-z
-x,-y,-z
x,-y,z
loop_
_atom_site_type_symbol
_atom_site_label
_atom_site_fract_x
_atom_site_fract_y
_atom_site_fract_z
Si Si1 0.065885 0.803998 0.605154
Si Si2 0.787102 0.302518 0.867119
Si Si3 0.740442 0.204939 0.972879
Si Si4 0.161818 0.692976 0.421981
Si Si5 0.106619 0.203137 0.255808
Si Si6 0.563333 0.793387 0.105982
Si Si7 0.556637 0.192968 0.618911
O O1 0.242779 0.733406 0.748487
O O2 0.000000 0.728823 0.500000
O O3 0.899210 0.796573 0.554765
O O4 0.115200 0.000000 0.621127
O O5 0.779228 0.500000 0.844348
O O6 0.696174 0.278052 0.879705
O O7 0.689068 0.194300 0.756938
O O8 0.000000 0.251539 0.000000
O O9 0.594521 0.248830 0.938573
O O10 0.745057 0.000000 0.970791
O O11 0.942535 0.266245 0.114766
O O12 0.114970 0.500000 0.406985
O O13 0.063845 0.753460 0.300879
O O14 0.376054 0.709631 0.532484
O O15 0.308812 0.263195 0.354481
O O16 0.112496 0.000000 0.253380
O O17 0.575697 0.000000 0.108784
O O18 0.500000 0.733972 0.000000
O O19 0.498963 0.000000 0.569976
#
# Coordination Sequence:
#
# PCOD9150742 Si02
#       7
#     4   4   4   4   4   4   4
#     4  10  22  41  64  91 120 159 212 264 312 367
#     4  11  23  38  57  87 129 168 200 245 309 372
#     4  10  20  36  63  93 120 158 207 255 302 360
#     4  12  26  41  61  89 124 164 201 249 319 381
#     4  10  21  39  63  92 122 158 206 255 300 360
#     4   9  18  35  62  92 121 153 200 261 314 359
#     4  11  23  40  64  90 120 161 212 258 299 358
#
# _framework density 22.584741000000001
#
# number of rings (size 3 to 8) (size 9 to 14) (size 15 to 20)
#    0.000    1.571    1.429    3.429    2.000    6.571 
#    0.000    0.714    0.000    1.714    0.000    0.000 
#    0.000    0.000    0.000    0.000    0.000    0.000 
#
# Total GULP energy -156492.992106 kJ/mol
# GULP energy per Si atom -5589.035432 kJ/mol
# Density = 2.253334 g / cm^3
# Si number density = 22.584741 Si / 1000 Ang^3
#
#
#
# Elastic Constant Matrix: (Units=GPa)
#
#
# Indices 1 2 3 4 5 6 
#
# 1 123.2808 3.6950 45.0929 0.0000 -22.5496 0.0000
# 2 3.6950 25.3969 9.8890 0.0000 2.9969 0.0000
# 3 45.0929 9.8890 109.2176 0.0000 -14.5175 0.0000
# 4 0.0000 0.0000 0.0000 32.5279 0.0000 -25.0940
# 5 -22.5496 2.9969 -14.5175 0.0000 42.6422 0.0000
# 6 0.0000 0.0000 0.0000 -25.0940 0.0000 26.3122
#
#
#
# Elastic Compliance Matrix: (Units=1/GPa)
#
#
# Indices 1 2 3 4 5 6 
#
# 1 0.010219 -0.000580 -0.003606 0.000000 0.004217 0.000000
# 2 -0.000580 0.041622 -0.004146 0.000000 -0.004644 0.000000
# 3 -0.003606 -0.004146 0.011318 0.000000 0.002238 0.000000
# 4 0.000000 0.000000 0.000000 0.116339 0.000000 0.110953
# 5 0.004217 -0.004644 0.002238 0.000000 0.026769 0.000000
# 6 0.000000 0.000000 0.000000 0.110953 0.000000 0.143822
#
#
# Mechanical properties :
#
#
# Convention : Reuss Voigt Hill
#
# Bulk Modulus (GPa) = 21.50843 41.69434 31.60138
# Shear Modulus (GPa) = 13.08035 33.57767 23.32901
#
# Velocity S-wave (km/s) = 2.40920 3.86001 3.21745
# Velocity P-wave (km/s) = 4.15730 6.19416 5.27498
#
# Compressibility (1/GPa) = 0.04649341
#
# Stress axis : x y z
#
# Youngs Moduli (GPa) = 97.85325 24.02588 88.35661
#
# Poissons Ratio (x) = 0.01394 0.31863
# Poissons Ratio (y) = 0.05678 0.36635
# Poissons Ratio (z) = 0.35288 0.09962
#
# Static dielectric constant tensor:
#      x y z
#    x 1.814500 0.000000 0.005040 
#    y 0.000000 1.809240 0.000000 
#    z 0.005040 0.000000 1.856880 
# 
# From -- ./inp_files/50081.got.cif
#   From: 2010.05.17/outbox.cif.g08.bks.cpg/sg10_26_cif.got.tgz:50081.got - 2010.06.03 11:33:40.
