data_PCOD9150088
_publ_section_title
;
Structure prediction by ZEFSAII (Michael W. Deem and Ramdas Pophale) SiO2 
 PCOD9150088
Probable space group: P 2/M
;
_chemical_formula_sum "Si O2"
_cell_formula_units_Z 28
_cell_length_a 9.911214
_cell_length_b 8.938066
_cell_length_c 27.377049
_cell_angle_alpha 90.000000
_cell_angle_beta 142.093631
_cell_angle_gamma 90.000000
_cell_volume 1490.009723
_symmetry_space_group_name_H-M "P 2/M"
_symmetry_group_IT_number 10
_symmetry_cell_setting 'monoclinic'
loop_
_space_group_symop_operation_xyz
x,y,z
-x,y,-z
-x,-y,-z
x,-y,z
loop_
_atom_site_type_symbol
_atom_site_label
_atom_site_fract_x
_atom_site_fract_y
_atom_site_fract_z
Si Si1 0.120049 0.680062 0.693106
Si Si2 0.028411 0.679376 0.136678
Si Si3 0.681322 0.319829 0.512114
Si Si4 0.500714 0.820587 0.258820
Si Si5 0.744442 0.179818 0.428952
Si Si6 0.821890 0.679256 0.181389
Si Si7 0.606704 0.828915 0.976165
O O1 0.142385 0.500000 0.695935
O O2 0.341286 0.756947 0.737901
O O3 0.073361 0.716240 0.736443
O O4 0.918599 0.726450 0.601011
O O5 0.040540 0.500000 0.138050
O O6 0.961346 0.723899 0.173367
O O7 0.831720 0.738318 0.046208
O O8 0.258985 0.751684 0.188617
O O9 0.500000 0.276427 0.500000
O O10 0.678673 0.500000 0.507193
O O11 0.642335 0.249738 0.448292
O O12 0.616164 0.777453 0.343280
O O13 0.490472 0.000000 0.253278
O O14 0.000000 0.227947 0.500000
O O15 0.741017 0.000000 0.431569
O O16 0.796102 0.500000 0.171096
O O17 0.581200 0.752395 0.109698
O O18 0.647207 0.000000 0.972979
O O19 0.500000 0.830008 0.000000
#
# Coordination Sequence:
#
# PCOD9150088 Si02
#       7
#     4   4   4   4   4   4   4
#     4  10  21  38  56  80 113 148 183 227 280 330
#     4  10  20  35  59  86 112 145 184 227 276 329
#     4  10  22  37  58  85 113 143 184 234 278 325
#     4  11  23  38  56  80 112 148 188 232 274 326
#     4  10  21  39  58  78 109 149 189 227 274 329
#     4   9  19  35  57  83 113 146 183 226 276 331
#     4   9  17  32  55  83 115 146 181 224 271 325
#
# _framework density 18.791823999999998
#
# number of rings (size 3 to 8) (size 9 to 14) (size 15 to 20)
#    0.000    2.143    1.429    1.286    2.000    4.571 
#    0.000    0.714    0.000    4.286    0.000    0.000 
#    0.000    0.000    0.000    0.000    0.000    0.000 
#
# Total GULP energy -156305.214055 kJ/mol
# GULP energy per Si atom -5582.329073 kJ/mol
# Density = 1.874905 g / cm^3
# Si number density = 18.791824 Si / 1000 Ang^3
#
#
#
# Elastic Constant Matrix: (Units=GPa)
#
#
# Indices 1 2 3 4 5 6 
#
# 1 62.9090 10.0552 -6.7484 0.0000 14.7064 0.0000
# 2 10.0552 18.2653 4.9927 0.0000 7.4263 0.0000
# 3 -6.7484 4.9927 28.5780 0.0000 15.9191 0.0000
# 4 0.0000 0.0000 0.0000 22.5114 0.0000 -5.2458
# 5 14.7064 7.4263 15.9191 0.0000 36.5878 0.0000
# 6 0.0000 0.0000 0.0000 -5.2458 0.0000 16.3262
#
#
#
# Elastic Compliance Matrix: (Units=1/GPa)
#
#
# Indices 1 2 3 4 5 6 
#
# 1 0.022209 -0.010881 0.014371 0.000000 -0.012971 0.000000
# 2 -0.010881 0.065518 -0.011937 0.000000 -0.003731 0.000000
# 3 0.014371 -0.011937 0.055883 0.000000 -0.027667 0.000000
# 4 0.000000 0.000000 0.000000 0.048017 0.000000 0.015428
# 5 -0.012971 -0.003731 -0.027667 0.000000 0.045340 0.000000
# 6 0.000000 0.000000 0.000000 0.015428 0.000000 0.066209
#
#
# Mechanical properties :
#
#
# Convention : Reuss Voigt Hill
#
# Bulk Modulus (GPa) = 7.89169 14.03903 10.96536
# Shear Modulus (GPa) = 13.80037 21.84860 17.82448
#
# Velocity S-wave (km/s) = 2.71289 3.41349 3.08315
# Velocity P-wave (km/s) = 3.74455 4.79822 4.30375
#
# Compressibility (1/GPa) = 0.12671563
#
# Stress axis : x y z
#
# Youngs Moduli (GPa) = 45.02706 15.26288 17.89462
#
# Poissons Ratio (x) = 0.16607 -0.25716
# Poissons Ratio (y) = 0.48992 0.21361
# Poissons Ratio (z) = -0.64706 0.18220
#
# Static dielectric constant tensor:
#      x y z
#    x 1.634690 0.000000 -0.005530 
#    y 0.000000 1.627170 0.000000 
#    z -0.005530 0.000000 1.636290 
# 
# From -- ./inp_files/36950.got.cif
#   From: 2010.05.17/outbox.cif.g08.bks.cpg/sg10_19_cif.got.tgz:36950.got - 2010.06.03 11:33:40.
