data_PCOD9150995
_publ_section_title
;
Structure prediction by ZEFSAII (Michael W. Deem and Ramdas Pophale) SiO2 
 PCOD9150995
Probable space group: P 2/M
;
_chemical_formula_sum "Si O2"
_cell_formula_units_Z 28
_cell_length_a 11.720131
_cell_length_b 8.055968
_cell_length_c 15.410130
_cell_angle_alpha 90.000000
_cell_angle_beta 62.476332
_cell_angle_gamma 90.000000
_cell_volume 1290.303834
_symmetry_space_group_name_H-M "P 2/M"
_symmetry_group_IT_number 10
_symmetry_cell_setting 'monoclinic'
loop_
_space_group_symop_operation_xyz
x,y,z
-x,y,-z
-x,-y,-z
x,-y,z
loop_
_atom_site_type_symbol
_atom_site_label
_atom_site_fract_x
_atom_site_fract_y
_atom_site_fract_z
Si Si1 0.417963 0.307201 0.109853
Si Si2 0.663802 0.309738 0.529376
Si Si3 0.621626 0.185476 0.162548
Si Si4 0.355254 0.688218 0.657583
Si Si5 0.876127 0.306042 0.786410
Si Si6 0.123040 0.693189 0.009002
Si Si7 0.789289 0.000000 0.564209
Si Si8 0.980013 0.000000 0.653028
O O1 0.396708 0.500000 0.093912
O O2 0.506954 0.296110 0.163753
O O3 0.272596 0.246468 0.173732
O O4 0.500000 0.233149 0.000000
O O5 0.710497 0.500000 0.526575
O O6 0.694802 0.255791 0.418957
O O7 0.509748 0.315688 0.592165
O O8 0.711702 0.169601 0.577329
O O9 0.665559 0.217461 0.245716
O O10 0.571941 0.000000 0.172622
O O11 0.746862 0.213062 0.060045
O O12 0.308412 0.500000 0.686397
O O13 0.890128 0.500000 0.751775
O O14 0.900686 0.303441 0.880564
O O15 0.967891 0.170598 0.710652
O O16 0.143672 0.500000 0.975882
O O17 0.000000 0.757056 0.000000
O O18 0.859326 0.000000 0.630472
O O19 0.896319 0.000000 0.451256
#
# Coordination Sequence:
#
# PCOD9150995 Si02
#       8
#     4   4   4   4   4   4   2   2
#     4  10  20  37  61  86 122 164 207 259 311 367
#     4   9  21  41  68  94 123 167 209 259 323 381
#     4  12  25  34  57  98 132 167 208 258 317 377
#     4   9  20  39  61  93 130 160 205 262 312 375
#     4  10  23  43  68  94 124 169 215 263 320 373
#     4  10  22  43  65  87 125 174 218 261 306 366
#     4  11  26  45  66  90 126 167 204 266 318 377
#     4  11  28  46  62  92 128 162 211 269 313 372
#
# _framework density 21.700316000000001
#
# number of rings (size 3 to 8) (size 9 to 14) (size 15 to 20)
#    0.000    1.857    1.429    2.143    6.000    3.429 
#    0.000    4.286    0.000    0.000    0.000    0.000 
#    0.000    0.000    0.000    0.000    0.000    0.000 
#
# Total GULP energy -156358.326315 kJ/mol
# GULP energy per Si atom -5584.225940 kJ/mol
# Density = 2.165093 g / cm^3
# Si number density = 21.700316 Si / 1000 Ang^3
#
#
#
# Elastic Constant Matrix: (Units=GPa)
#
#
# Indices 1 2 3 4 5 6 
#
# 1 58.3820 5.0703 -20.7216 0.0000 5.9647 0.0000
# 2 5.0703 67.0566 20.7197 0.0000 4.3183 0.0000
# 3 -20.7216 20.7197 56.0801 0.0000 4.6261 0.0000
# 4 0.0000 0.0000 0.0000 14.3424 0.0000 12.1094
# 5 5.9647 4.3183 4.6261 0.0000 16.0234 0.0000
# 6 0.0000 0.0000 0.0000 12.1094 0.0000 -17.6917
#
#
#
# Elastic Compliance Matrix: (Units=1/GPa)
#
#
# Indices 1 2 3 4 5 6 
#
# 1 0.022352 -0.004339 0.010707 0.000000 -0.010242 0.000000
# 2 -0.004339 0.017801 -0.008111 0.000000 -0.000841 0.000000
# 3 0.010707 -0.008111 0.025541 0.000000 -0.009174 0.000000
# 4 0.000000 0.000000 0.000000 0.044187 0.000000 0.030245
# 5 -0.010242 -0.000841 -0.009174 0.000000 0.069097 0.000000
# 6 0.000000 0.000000 0.000000 0.030245 0.000000 -0.035822
#
#
# Mechanical properties :
#
#
# Convention : Reuss Voigt Hill
#
# Bulk Modulus (GPa) = 16.07475 21.29507 18.68491
# Shear Modulus (GPa) = 29.87246 14.29817 22.08532
#
# Velocity S-wave (km/s) = 3.71427 2.56967 3.19367
# Velocity P-wave (km/s) = 5.08115 4.31727 4.71471
#
# Compressibility (1/GPa) = 0.06220938
#
# Stress axis : x y z
#
# Youngs Moduli (GPa) = 44.73854 56.17629 39.15224
#
# Poissons Ratio (x) = 0.24374 -0.41921
# Poissons Ratio (y) = 0.19412 0.31756
# Poissons Ratio (z) = -0.47902 0.45563
#
# Static dielectric constant tensor:
#      x y z
#    x 1.781810 0.000000 0.001200 
#    y 0.000000 1.792380 0.000000 
#    z 0.001200 0.000000 1.801640 
# 
# From -- ./inp_files/49445.got.cif
#   From: 2010.05.17/outbox.cif.g08.bks.cpg/sg10_25_cif.got.tgz:49445.got - 2010.06.03 11:33:40.
