data_PCOD9150671
_publ_section_title
;
Structure prediction by ZEFSAII (Michael W. Deem and Ramdas Pophale) SiO2 
 PCOD9150671
Probable space group: P 2/M
;
_chemical_formula_sum "Si O2"
_cell_formula_units_Z 24
_cell_length_a 24.581227
_cell_length_b 7.806788
_cell_length_c 12.769033
_cell_angle_alpha 90.000000
_cell_angle_beta 154.064752
_cell_angle_gamma 90.000000
_cell_volume 1071.687477
_symmetry_space_group_name_H-M "P 2/M"
_symmetry_group_IT_number 10
_symmetry_cell_setting 'monoclinic'
loop_
_space_group_symop_operation_xyz
x,y,z
-x,y,-z
-x,-y,-z
x,-y,z
loop_
_atom_site_type_symbol
_atom_site_label
_atom_site_fract_x
_atom_site_fract_y
_atom_site_fract_z
Si Si1 0.021140 0.798972 0.419862
Si Si2 0.492422 0.302254 0.825002
Si Si3 0.787105 0.709005 0.615019
Si Si4 0.175024 0.299223 0.092325
Si Si5 0.238411 0.708447 0.656237
Si Si6 0.450072 0.198622 0.523317
O O1 0.000000 0.728732 0.500000
O O2 0.160275 0.772659 0.619117
O O3 0.991632 0.000000 0.371647
O O4 0.932935 0.720286 0.178447
O O5 0.487166 0.500000 0.849045
O O6 0.356601 0.232327 0.618278
O O7 0.501189 0.290976 0.714705
O O8 0.618739 0.230347 0.091726
O O9 0.792022 0.500000 0.620555
O O10 0.854680 0.760133 0.839877
O O11 0.822977 0.763712 0.560376
O O12 0.206946 0.500000 0.156224
O O13 0.300730 0.209935 0.270588
O O14 0.238797 0.500000 0.660946
O O15 0.500000 0.268457 0.500000
O O16 0.488225 0.000000 0.596889
#
# Coordination Sequence:
#
# PCOD9150671 Si02
#       6
#     4   4   4   4   4   4
#     4  11  26  44  58  77 114 158 194 236 291 344
#     4   9  18  33  56  88 119 150 188 234 281 333
#     4   8  16  34  60  90 120 146 179 233 295 340
#     4  10  21  39  63  86 111 145 192 243 283 333
#     4  10  20  36  61  89 116 151 194 236 281 338
#     4  10  21  35  54  81 116 157 190 227 286 342
#
# _framework density 22.394589
#
# number of rings (size 3 to 8) (size 9 to 14) (size 15 to 20)
#    0.000    2.333    0.000    3.000    2.333    6.000 
#    0.000    7.500    0.000    5.000    0.000    0.000 
#    0.000    0.000    0.000    0.000    0.000    0.000 
#
# Total GULP energy -133979.173887 kJ/mol
# GULP energy per Si atom -5582.465579 kJ/mol
# Density = 2.234362 g / cm^3
# Si number density = 22.394589 Si / 1000 Ang^3
#
#
#
# Elastic Constant Matrix: (Units=GPa)
#
#
# Indices 1 2 3 4 5 6 
#
# 1 118.5835 1.7514 20.2683 0.0000 -34.5727 0.0000
# 2 1.7514 32.7695 -4.9995 0.0000 -5.6902 0.0000
# 3 20.2683 -4.9995 89.1776 0.0000 -21.1933 0.0000
# 4 0.0000 0.0000 0.0000 -55.7994 0.0000 64.1693
# 5 -34.5727 -5.6902 -21.1933 0.0000 26.1235 0.0000
# 6 0.0000 0.0000 0.0000 64.1693 0.0000 -30.3371
#
#
#
# Elastic Compliance Matrix: (Units=1/GPa)
#
#
# Indices 1 2 3 4 5 6 
#
# 1 0.014194 0.003200 0.001961 0.000000 0.021074 0.000000
# 2 0.003200 0.033784 0.004859 0.000000 0.015535 0.000000
# 3 0.001961 0.004859 0.014753 0.000000 0.015623 0.000000
# 4 0.000000 0.000000 0.000000 0.012511 0.000000 0.026463
# 5 0.021074 0.015535 0.015623 0.000000 0.082228 0.000000
# 6 0.000000 0.000000 0.000000 0.026463 0.000000 0.023011
#
#
# Mechanical properties :
#
#
# Convention : Reuss Voigt Hill
#
# Bulk Modulus (GPa) = 12.08144 30.50789 21.29466
# Shear Modulus (GPa) = 26.59140 2.89809 14.74475
#
# Velocity S-wave (km/s) = 3.44961 1.13882 2.56873
# Velocity P-wave (km/s) = 4.61226 3.92195 4.28104
#
# Compressibility (1/GPa) = 0.08277159
#
# Stress axis : x y z
#
# Youngs Moduli (GPa) = 70.45089 29.59977 67.78280
#
# Poissons Ratio (x) = -0.09471 -0.13296
# Poissons Ratio (y) = -0.22543 -0.32934
# Poissons Ratio (z) = -0.13819 -0.14382
#
# Static dielectric constant tensor:
#      x y z
#    x 1.832410 0.000000 -0.006440 
#    y 0.000000 1.829160 0.000000 
#    z -0.006440 0.000000 1.830350 
# 
# From -- ./inp_files/45157.got.cif
#   From: 2010.05.17/outbox.cif.g08.bks.cpg/sg10_23_cif.got.tgz:45157.got - 2010.06.03 11:33:40.
