data_PCOD9150351
_publ_section_title
;
Structure prediction by ZEFSAII (Michael W. Deem and Ramdas Pophale) SiO2 
 PCOD9150351
Probable space group: P 2/M
;
_chemical_formula_sum "Si O2"
_cell_formula_units_Z 28
_cell_length_a 14.885369
_cell_length_b 9.038885
_cell_length_c 13.002764
_cell_angle_alpha 90.000000
_cell_angle_beta 56.155089
_cell_angle_gamma 90.000000
_cell_volume 1453.031298
_symmetry_space_group_name_H-M "P 2/M"
_symmetry_group_IT_number 10
_symmetry_cell_setting 'monoclinic'
loop_
_space_group_symop_operation_xyz
x,y,z
-x,y,-z
-x,-y,-z
x,-y,z
loop_
_atom_site_type_symbol
_atom_site_label
_atom_site_fract_x
_atom_site_fract_y
_atom_site_fract_z
Si Si1 0.906274 0.175960 0.477855
Si Si2 0.324075 0.175012 0.271202
Si Si3 0.736753 0.828005 0.233167
Si Si4 0.904815 0.325023 0.259328
Si Si5 0.554109 0.823113 0.202172
Si Si6 0.118227 0.827149 0.065478
Si Si7 0.693886 0.676336 0.934752
O O1 0.789712 0.205825 0.602447
O O2 0.918227 0.267917 0.366662
O O3 0.000000 0.209571 0.500000
O O4 0.912537 0.000000 0.449991
O O5 0.426512 0.203286 0.279499
O O6 0.334773 0.267291 0.160174
O O7 0.326252 0.000000 0.242822
O O8 0.791267 0.730702 0.285711
O O9 0.619570 0.783070 0.263634
O O10 0.733814 0.000000 0.267535
O O11 0.814990 0.817503 0.083163
O O12 0.913630 0.500000 0.246854
O O13 0.002043 0.248344 0.134395
O O14 0.573298 0.000000 0.175450
O O15 0.608618 0.739182 0.071887
O O16 0.191265 0.745887 0.104200
O O17 0.106139 0.000000 0.099096
O O18 0.697993 0.500000 0.936803
#
# Coordination Sequence:
#
# PCOD9150351 Si02
#       7
#     4   4   4   4   4   4   4
#     4  10  22  40  61  82 106 142 187 230 272 323
#     4  10  20  36  58  81 107 146 194 236 274 321
#     4   9  19  36  57  80 108 144 185 228 273 323
#     4  12  24  36  55  83 114 146 179 223 280 336
#     4   9  19  36  57  81 110 146 189 233 273 320
#     4  10  20  36  58  82 111 148 187 227 270 321
#     4  11  21  32  52  85 120 149 178 221 280 338
#
# _framework density 19.270060999999998
#
# number of rings (size 3 to 8) (size 9 to 14) (size 15 to 20)
#    0.000    1.857    0.000    5.571    0.000    8.857 
#    0.000    0.714    0.000    4.286    0.000    0.000 
#    0.000    0.000    0.000    0.000    0.000    0.000 
#
# Total GULP energy -156463.267170 kJ/mol
# GULP energy per Si atom -5587.973828 kJ/mol
# Density = 1.922620 g / cm^3
# Si number density = 19.270061 Si / 1000 Ang^3
#
#
#
# Elastic Constant Matrix: (Units=GPa)
#
#
# Indices 1 2 3 4 5 6 
#
# 1 154.7540 57.0749 31.2447 0.0000 -8.6621 0.0000
# 2 57.0749 77.2337 25.5963 0.0000 -0.8275 0.0000
# 3 31.2447 25.5963 23.7373 0.0000 -3.4816 0.0000
# 4 0.0000 0.0000 0.0000 -1.5362 0.0000 -25.9120
# 5 -8.6621 -0.8275 -3.4816 0.0000 23.2257 0.0000
# 6 0.0000 0.0000 0.0000 -25.9120 0.0000 -59.2432
#
#
#
# Elastic Compliance Matrix: (Units=1/GPa)
#
#
# Indices 1 2 3 4 5 6 
#
# 1 0.009873 -0.004792 -0.007477 0.000000 0.002390 0.000000
# 2 -0.004792 0.022628 -0.018646 0.000000 -0.003776 0.000000
# 3 -0.007477 -0.018646 0.073179 0.000000 0.007517 0.000000
# 4 0.000000 0.000000 0.000000 0.102069 0.000000 -0.044643
# 5 0.002390 -0.003776 0.007517 0.000000 0.044940 0.000000
# 6 0.000000 0.000000 0.000000 -0.044643 0.000000 0.002647
#
#
# Mechanical properties :
#
#
# Convention : Reuss Voigt Hill
#
# Bulk Modulus (GPa) = 22.80581 53.72855 38.26718
# Shear Modulus (GPa) = 15.07010 1.94319 8.50665
#
# Velocity S-wave (km/s) = 2.79955 1.00528 2.10334
# Velocity P-wave (km/s) = 4.72340 5.41201 5.07939
#
# Compressibility (1/GPa) = 0.04384848
#
# Stress axis : x y z
#
# Youngs Moduli (GPa) = 101.28942 44.19236 13.66515
#
# Poissons Ratio (x) = 0.21178 0.10217
# Poissons Ratio (y) = 0.48540 0.25481
# Poissons Ratio (z) = 0.75734 0.82403
#
# Static dielectric constant tensor:
#      x y z
#    x 1.701440 0.000000 -0.009540 
#    y 0.000000 1.639550 0.000000 
#    z -0.009540 0.000000 1.648820 
# 
# From -- ./inp_files/49559.got.cif
#   From: 2010.05.17/outbox.cif.g08.bks.cpg/sg10_25_cif.got.tgz:49559.got - 2010.06.03 11:33:40.
