data_PCOD9150935
_publ_section_title
;
Structure prediction by ZEFSAII (Michael W. Deem and Ramdas Pophale) SiO2 
 PCOD9150935
Probable space group: P 2/M
;
_chemical_formula_sum "Si O2"
_cell_formula_units_Z 22
_cell_length_a 14.854705
_cell_length_b 8.011088
_cell_length_c 8.127611
_cell_angle_alpha 90.000000
_cell_angle_beta 100.331435
_cell_angle_gamma 90.000000
_cell_volume 951.523307
_symmetry_space_group_name_H-M "P 2/M"
_symmetry_group_IT_number 10
_symmetry_cell_setting 'monoclinic'
loop_
_space_group_symop_operation_xyz
x,y,z
-x,y,-z
-x,-y,-z
x,-y,z
loop_
_atom_site_type_symbol
_atom_site_label
_atom_site_fract_x
_atom_site_fract_y
_atom_site_fract_z
Si Si1 0.308892 0.696865 0.861475
Si Si2 0.500000 0.246780 0.000000
Si Si3 0.124124 0.690953 0.678741
Si Si4 0.761152 0.307374 0.790842
Si Si5 0.936526 0.809926 0.685732
Si Si6 0.435024 0.197770 0.324124
O O1 0.335127 0.500000 0.836463
O O2 0.227151 0.758679 0.719754
O O3 0.400413 0.806313 0.897969
O O4 0.262744 0.701337 0.025184
O O5 0.538834 0.303234 0.831619
O O6 0.131255 0.500000 0.736094
O O7 0.092072 0.700524 0.480441
O O8 0.042650 0.773246 0.756981
O O9 0.767405 0.500000 0.742078
O O10 0.858666 0.223542 0.792478
O O11 0.672021 0.228535 0.673986
O O12 0.930258 0.000000 0.628876
O O13 0.500000 0.236305 0.500000
O O14 0.446535 0.000000 0.285154
#
# Coordination Sequence:
#
# PCOD9150935 Si02
#       6
#     4   2   4   4   4   4
#     4   9  20  37  60  87 117 151 196 247 299 349
#     4  10  20  38  60  88 123 166 197 250 301 360
#     4  10  20  37  60  87 114 154 199 243 294 355
#     4  10  21  39  60  85 115 152 195 245 295 355
#     4  11  22  38  57  85 120 155 192 246 296 354
#     4  10  22  39  58  87 122 160 204 249 301 361
#
# _framework density 23.120822
#
# number of rings (size 3 to 8) (size 9 to 14) (size 15 to 20)
#    0.000    2.000    0.000    4.364    2.545    1.818 
#    0.000   13.636    0.000    0.000    0.000    0.000 
#    0.000    0.000    0.000    0.000    0.000    0.000 
#
# Total GULP energy -122488.477157 kJ/mol
# GULP energy per Si atom -5567.658053 kJ/mol
# Density = 2.306820 g / cm^3
# Si number density = 23.120822 Si / 1000 Ang^3
#
#
#
# Elastic Constant Matrix: (Units=GPa)
#
#
# Indices 1 2 3 4 5 6 
#
# 1 171.2813 23.3882 23.7448 0.0000 7.5297 0.0000
# 2 23.3882 65.6776 3.5428 0.0000 0.0311 0.0000
# 3 23.7448 3.5428 45.1475 0.0000 16.0402 0.0000
# 4 0.0000 0.0000 0.0000 -73.2804 0.0000 -24.6770
# 5 7.5297 0.0311 16.0402 0.0000 45.5691 0.0000
# 6 0.0000 0.0000 0.0000 -24.6770 0.0000 6.4978
#
#
#
# Elastic Compliance Matrix: (Units=1/GPa)
#
#
# Indices 1 2 3 4 5 6 
#
# 1 0.006592 -0.002168 -0.003326 0.000000 0.000083 0.000000
# 2 -0.002168 0.016012 -0.000274 0.000000 0.000444 0.000000
# 3 -0.003326 -0.000274 0.027116 0.000000 -0.008995 0.000000
# 4 0.000000 0.000000 0.000000 -0.005988 0.000000 -0.022741
# 5 0.000083 0.000444 -0.008995 0.000000 0.025097 0.000000
# 6 0.000000 0.000000 0.000000 -0.022741 0.000000 0.067532
#
#
# Mechanical properties :
#
#
# Convention : Reuss Voigt Hill
#
# Bulk Modulus (GPa) = 26.18884 42.60644 34.39764
# Shear Modulus (GPa) = 31.12810 11.18601 21.15706
#
# Velocity S-wave (km/s) = 3.67321 2.20195 3.02829
# Velocity P-wave (km/s) = 5.41678 4.99325 5.20932
#
# Compressibility (1/GPa) = 0.03818420
#
# Stress axis : x y z
#
# Youngs Moduli (GPa) = 151.70216 62.45127 36.87811
#
# Poissons Ratio (x) = 0.13539 0.12267
# Poissons Ratio (y) = 0.32889 0.01010
# Poissons Ratio (z) = 0.50461 0.01711
#
# Static dielectric constant tensor:
#      x y z
#    x 1.914650 0.000000 0.025400 
#    y 0.000000 1.892340 0.000000 
#    z 0.025400 0.000000 1.891630 
# 
# From -- ./inp_files/27312.got.cif
#   From: 2010.05.17/outbox.cif.g08.bks.cpg/sg10_14_cif.got.tgz:27312.got - 2010.06.03 11:33:40.
