data_PCOD9150420
_publ_section_title
;
Structure prediction by ZEFSAII (Michael W. Deem and Ramdas Pophale) SiO2 
 PCOD9150420
Probable space group: P 2/M
;
_chemical_formula_sum "Si O2"
_cell_formula_units_Z 32
_cell_length_a 7.692331
_cell_length_b 15.265074
_cell_length_c 12.014708
_cell_angle_alpha 90.000000
_cell_angle_beta 99.434656
_cell_angle_gamma 90.000000
_cell_volume 1391.731270
_symmetry_space_group_name_H-M "P 2/M"
_symmetry_group_IT_number 10
_symmetry_cell_setting 'monoclinic'
loop_
_space_group_symop_operation_xyz
x,y,z
-x,y,-z
-x,-y,-z
x,-y,z
loop_
_atom_site_type_symbol
_atom_site_label
_atom_site_fract_x
_atom_site_fract_y
_atom_site_fract_z
Si Si1 0.787688 0.094554 0.976095
Si Si2 0.325910 0.718679 0.051710
Si Si3 0.709386 0.903516 0.227326
Si Si4 0.762774 0.725948 0.576280
Si Si5 0.395888 0.904795 0.370740
Si Si6 0.175332 0.723166 0.662804
Si Si7 0.711192 0.599551 0.755355
Si Si8 0.867649 0.398576 0.147565
O O1 0.707385 0.099037 0.092950
O O2 0.728538 0.000000 0.922618
O O3 0.742092 0.186835 0.916440
O O4 0.000000 0.092099 0.000000
O O5 0.374412 0.658543 0.159758
O O6 0.500000 0.733965 0.000000
O O7 0.190216 0.664967 0.959078
O O8 0.530164 0.899160 0.280836
O O9 0.809103 0.816354 0.274582
O O10 0.787567 0.000000 0.263515
O O11 0.718553 0.817905 0.630095
O O12 0.717598 0.727256 0.441054
O O13 0.681720 0.645604 0.634788
O O14 0.971458 0.713064 0.610053
O O15 0.500000 0.906436 0.500000
O O16 0.303055 0.000000 0.353596
O O17 0.216796 0.644167 0.750751
O O18 0.653801 0.500000 0.751829
O O19 0.921393 0.602544 0.808913
O O20 0.816921 0.500000 0.121438
#
# Coordination Sequence:
#
# PCOD9150420 Si02
#       8
#     4   4   4   4   4   4   4   4
#     4  10  22  41  65  91 121 160 205 251 302 363
#     4  12  25  39  63  92 125 159 200 252 306 366
#     4  10  20  36  61  87 119 161 200 245 301 365
#     4  10  22  36  60  89 125 158 201 254 303 361
#     4  10  20  36  58  86 122 165 206 245 299 365
#     4  10  20  37  59  92 120 156 204 254 305 360
#     4  10  23  42  63  87 119 162 207 255 309 365
#     4  10  21  40  65  88 115 157 208 257 309 365
#
# _framework density 22.992944000000001
#
# number of rings (size 3 to 8) (size 9 to 14) (size 15 to 20)
#    0.000    1.750    2.500    1.500    3.500    3.250 
#    0.000    4.375    0.000    0.375    0.000    0.000 
#    0.000    0.000    0.000    0.000    0.000    0.000 
#
# Total GULP energy -178873.331660 kJ/mol
# GULP energy per Si atom -5589.791614 kJ/mol
# Density = 2.294061 g / cm^3
# Si number density = 22.992944 Si / 1000 Ang^3
#
#
#
# Elastic Constant Matrix: (Units=GPa)
#
#
# Indices 1 2 3 4 5 6 
#
# 1 51.8245 25.0473 14.9871 0.0000 -9.1191 0.0000
# 2 25.0473 193.6320 43.6369 0.0000 -5.4849 0.0000
# 3 14.9871 43.6369 95.3163 0.0000 -14.0812 0.0000
# 4 0.0000 0.0000 0.0000 30.9233 0.0000 -3.7311
# 5 -9.1191 -5.4849 -14.0812 0.0000 28.7201 0.0000
# 6 0.0000 0.0000 0.0000 -3.7311 0.0000 3.4020
#
#
#
# Elastic Compliance Matrix: (Units=1/GPa)
#
#
# Indices 1 2 3 4 5 6 
#
# 1 0.021872 -0.002322 -0.001526 0.000000 0.005753 0.000000
# 2 -0.002322 0.006006 -0.002506 0.000000 -0.000819 0.000000
# 3 -0.001526 -0.002506 0.012653 0.000000 0.005240 0.000000
# 4 0.000000 0.000000 0.000000 0.037270 0.000000 0.040875
# 5 0.005753 -0.000819 0.005240 0.000000 0.039059 0.000000
# 6 0.000000 0.000000 0.000000 0.040875 0.000000 0.338770
#
#
# Mechanical properties :
#
#
# Convention : Reuss Voigt Hill
#
# Bulk Modulus (GPa) = 35.94142 56.45727 46.19934
# Shear Modulus (GPa) = 10.46876 29.74917 20.10897
#
# Velocity S-wave (km/s) = 2.13610 3.60090 2.96052
# Velocity P-wave (km/s) = 4.66362 6.47272 5.64116
#
# Compressibility (1/GPa) = 0.02782306
#
# Stress axis : x y z
#
# Youngs Moduli (GPa) = 45.72067 166.49157 79.03541
#
# Poissons Ratio (x) = 0.38666 0.12060
# Poissons Ratio (y) = 0.10618 0.19803
# Poissons Ratio (z) = 0.06977 0.41715
#
# Static dielectric constant tensor:
#      x y z
#    x 1.876190 0.000000 0.002510 
#    y 0.000000 1.820390 0.000000 
#    z 0.002510 0.000000 1.892860 
# 
# From -- ./inp_files/42983.got.cif
#   From: 2010.05.17/outbox.cif.g08.bks.cpg/sg10_22_cif.got.tgz:42983.got - 2010.06.03 11:33:40.
