data_PCOD9150005
_publ_section_title
;
Structure prediction by ZEFSAII (Michael W. Deem and Ramdas Pophale) SiO2 
 PCOD9150005
Probable space group: P 2/M
;
_chemical_formula_sum "Si O2"
_cell_formula_units_Z 24
_cell_length_a 7.809220
_cell_length_b 17.116405
_cell_length_c 7.440936
_cell_angle_alpha 90.000000
_cell_angle_beta 89.217916
_cell_angle_gamma 90.000000
_cell_volume 994.505801
_symmetry_space_group_name_H-M "P 2/M"
_symmetry_group_IT_number 10
_symmetry_cell_setting 'monoclinic'
loop_
_space_group_symop_operation_xyz
x,y,z
-x,y,-z
-x,-y,-z
x,-y,z
loop_
_atom_site_type_symbol
_atom_site_label
_atom_site_fract_x
_atom_site_fract_y
_atom_site_fract_z
Si Si1 0.077435 0.752482 0.725998
Si Si2 0.687397 0.300046 0.972518
Si Si3 0.942186 0.916271 0.293950
Si Si4 0.339359 0.234297 0.398300
Si Si5 0.873614 0.414261 0.172279
Si Si6 0.531097 0.087475 0.214339
O O1 0.974082 0.833219 0.760282
O O2 0.189851 0.771239 0.547022
O O3 0.185667 0.749708 0.909013
O O4 0.057356 0.657843 0.710760
O O5 0.702264 0.383023 0.074446
O O6 0.722542 0.289195 0.763409
O O7 0.500000 0.268753 0.000000
O O8 0.735550 0.908995 0.260101
O O9 0.000000 0.922640 0.500000
O O10 0.995031 0.000000 0.209888
O O11 0.500000 0.272768 0.500000
O O12 0.578163 0.154329 0.682233
O O13 0.858879 0.500000 0.254228
O O14 0.000000 0.417666 0.000000
O O15 0.473279 0.000000 0.270127
O O16 0.500000 0.093482 0.000000
#
# Coordination Sequence:
#
# PCOD9150005 Si02
#       6
#     4   4   4   4   4   4
#     4  10  22  37  61  94 123 171 215 271 327 396
#     4  10  20  37  61  93 130 162 216 269 327 395
#     4  10  20  35  57  90 132 172 215 266 323 385
#     4  12  19  33  60  92 125 167 211 272 327 385
#     4   9  21  44  69  91 121 167 218 272 336 408
#     4  10  21  37  61  93 131 182 235 281 326 385
#
# _framework density 24.132591000000001
#
# number of rings (size 3 to 8) (size 9 to 14) (size 15 to 20)
#    1.000    0.833    3.333    1.500    0.000    2.667 
#    0.000    0.833    0.000    5.000    0.000    0.000 
#    0.000    0.000    0.000    0.000    0.000    0.000 
#
# Total GULP energy -133629.342109 kJ/mol
# GULP energy per Si atom -5567.889255 kJ/mol
# Density = 2.407766 g / cm^3
# Si number density = 24.132591 Si / 1000 Ang^3
#
#
#
# Elastic Constant Matrix: (Units=GPa)
#
#
# Indices 1 2 3 4 5 6 
#
# 1 64.6724 24.8993 24.2392 0.0000 16.6958 0.0000
# 2 24.8993 228.1628 36.6748 0.0000 7.8727 0.0000
# 3 24.2392 36.6748 132.9161 0.0000 17.5708 0.0000
# 4 0.0000 0.0000 0.0000 34.2659 0.0000 -1.1326
# 5 16.6958 7.8727 17.5708 0.0000 39.8191 0.0000
# 6 0.0000 0.0000 0.0000 -1.1326 0.0000 22.0468
#
#
#
# Elastic Compliance Matrix: (Units=1/GPa)
#
#
# Indices 1 2 3 4 5 6 
#
# 1 0.018501 -0.001454 -0.002108 0.000000 -0.006539 0.000000
# 2 -0.001454 0.004706 -0.001052 0.000000 0.000144 0.000000
# 3 -0.002108 -0.001052 0.008553 0.000000 -0.002682 0.000000
# 4 0.000000 0.000000 0.000000 0.029233 0.000000 0.001502
# 5 -0.006539 0.000144 -0.002682 0.000000 0.029011 0.000000
# 6 0.000000 0.000000 0.000000 0.001502 0.000000 0.045435
#
#
# Mechanical properties :
#
#
# Convention : Reuss Voigt Hill
#
# Bulk Modulus (GPa) = 44.38539 66.37533 55.38036
# Shear Modulus (GPa) = 32.85626 41.88889 37.37258
#
# Velocity S-wave (km/s) = 3.69384 4.17079 3.93954
# Velocity P-wave (km/s) = 6.05184 7.12447 6.60995
#
# Compressibility (1/GPa) = 0.02252994
#
# Stress axis : x y z
#
# Youngs Moduli (GPa) = 54.05151 212.50679 116.91971
#
# Poissons Ratio (x) = 0.30909 0.24648
# Poissons Ratio (y) = 0.07862 0.12302
# Poissons Ratio (z) = 0.11395 0.22360
#
# Static dielectric constant tensor:
#      x y z
#    x 2.135590 0.000000 -0.014130 
#    y 0.000000 1.996610 0.000000 
#    z -0.014130 0.000000 1.986830 
# 
# From -- ./inp_files/19303.got.cif
#   From: 2010.05.17/outbox.cif.g08.bks.cpg/sg10_10_cif.got.tgz:19303.got - 2010.06.03 11:33:40.
