data_PCOD9150744
_publ_section_title
;
Structure prediction by ZEFSAII (Michael W. Deem and Ramdas Pophale) SiO2 
 PCOD9150744
Probable space group: P 2/M
;
_chemical_formula_sum "Si O2"
_cell_formula_units_Z 25
_cell_length_a 14.986847
_cell_length_b 7.538562
_cell_length_c 16.105867
_cell_angle_alpha 90.000000
_cell_angle_beta 141.225873
_cell_angle_gamma 90.000000
_cell_volume 1139.546091
_symmetry_space_group_name_H-M "P 2/M"
_symmetry_group_IT_number 10
_symmetry_cell_setting 'monoclinic'
loop_
_space_group_symop_operation_xyz
x,y,z
-x,y,-z
-x,-y,-z
x,-y,z
loop_
_atom_site_type_symbol
_atom_site_label
_atom_site_fract_x
_atom_site_fract_y
_atom_site_fract_z
Si Si1 0.028160 0.214683 0.425591
Si Si2 0.651870 0.788551 0.359107
Si Si3 0.908644 0.715430 0.805031
Si Si4 0.607705 0.712107 0.508858
Si Si5 0.482936 0.796674 0.078848
Si Si6 0.835127 0.705245 0.130805
Si Si7 0.000000 0.000000 0.000000
O O1 0.186299 0.279059 0.516887
O O2 0.000000 0.267433 0.500000
O O3 0.911466 0.277501 0.275326
O O4 0.024461 0.000000 0.419570
O O5 0.574130 0.759716 0.389884
O O6 0.571227 0.717303 0.219470
O O7 0.662703 0.000000 0.356618
O O8 0.908763 0.500000 0.820689
O O9 0.769247 0.759998 0.649718
O O10 0.049839 0.763448 0.854255
O O11 0.911304 0.841564 0.886135
O O12 0.500000 0.783624 0.500000
O O13 0.601333 0.500000 0.508162
O O14 0.535329 0.000000 0.108207
O O15 0.500000 0.712947 0.000000
O O16 0.316343 0.799291 0.979960
O O17 0.804650 0.500000 0.092711
#
# Coordination Sequence:
#
# PCOD9150744 Si02
#       7
#     4   4   4   4   4   4   1
#     4  10  20  36  63  93 122 162 212 261 317 390
#     4  10  21  37  62  93 124 160 213 268 322 385
#     4  10  24  45  65  98 134 166 221 277 329 399
#     4  10  22  42  66  89 125 170 211 270 335 388
#     4  10  22  41  63  92 131 171 216 272 325 387
#     4  11  23  39  62  89 130 173 206 265 327 388
#     4  12  26  40  74  94 124 184 216 272 340 394
#
# _framework density 21.938559000000001
#
# number of rings (size 3 to 8) (size 9 to 14) (size 15 to 20)
#    0.000    1.760    1.600    1.680    3.360    5.440 
#    2.880    4.800    0.000    0.000    0.000    0.000 
#    0.000    0.000    0.000    0.000    0.000    0.000 
#
# Total GULP energy -139385.605634 kJ/mol
# GULP energy per Si atom -5575.424225 kJ/mol
# Density = 2.188863 g / cm^3
# Si number density = 21.938559 Si / 1000 Ang^3
#
#
#
# Elastic Constant Matrix: (Units=GPa)
#
#
# Indices 1 2 3 4 5 6 
#
# 1 69.5532 2.7760 6.3178 0.0000 -1.0251 0.0000
# 2 2.7760 62.2605 7.4269 0.0000 -3.2598 0.0000
# 3 6.3178 7.4269 106.3422 0.0000 -18.8027 0.0000
# 4 0.0000 0.0000 0.0000 12.1047 0.0000 -11.9775
# 5 -1.0251 -3.2598 -18.8027 0.0000 23.6837 0.0000
# 6 0.0000 0.0000 0.0000 -11.9775 0.0000 36.9577
#
#
#
# Elastic Compliance Matrix: (Units=1/GPa)
#
#
# Indices 1 2 3 4 5 6 
#
# 1 0.014474 -0.000551 -0.000842 0.000000 -0.000118 0.000000
# 2 -0.000551 0.016266 -0.000828 0.000000 0.001558 0.000000
# 3 -0.000842 -0.000828 0.011034 0.000000 0.008609 0.000000
# 4 0.000000 0.000000 0.000000 0.121611 0.000000 0.039413
# 5 -0.000118 0.001558 0.008609 0.000000 0.049268 0.000000
# 6 0.000000 0.000000 0.000000 0.039413 0.000000 0.039831
#
#
# Mechanical properties :
#
#
# Convention : Reuss Voigt Hill
#
# Bulk Modulus (GPa) = 26.78674 30.13305 28.45989
# Shear Modulus (GPa) = 18.56179 29.32489 23.94334
#
# Velocity S-wave (km/s) = 2.91190 3.66003 3.30719
# Velocity P-wave (km/s) = 4.85201 5.62371 5.25205
#
# Compressibility (1/GPa) = 0.03733190
#
# Stress axis : x y z
#
# Youngs Moduli (GPa) = 69.08821 61.47630 90.63139
#
# Poissons Ratio (x) = 0.03388 0.07634
# Poissons Ratio (y) = 0.03807 0.07503
# Poissons Ratio (z) = 0.05819 0.05089
#
# Static dielectric constant tensor:
#      x y z
#    x 1.817500 0.000000 -0.004290 
#    y 0.000000 1.832570 0.000000 
#    z -0.004290 0.000000 1.766230 
# 
# From -- ./inp_files/66734.got.cif
#   From: 2010.05.17/outbox.cif.g08.bks.cpg/sg10_34_cif.got.tgz:66734.got - 2010.06.03 11:33:40.
