data_PCOD9150601
_publ_section_title
;
Structure prediction by ZEFSAII (Michael W. Deem and Ramdas Pophale) SiO2 
 PCOD9150601
Probable space group: P 2/M
;
_chemical_formula_sum "Si O2"
_cell_formula_units_Z 32
_cell_length_a 29.097974
_cell_length_b 8.671007
_cell_length_c 11.585257
_cell_angle_alpha 90.000000
_cell_angle_beta 30.337498
_cell_angle_gamma 90.000000
_cell_volume 1476.416691
_symmetry_space_group_name_H-M "P 2/M"
_symmetry_group_IT_number 10
_symmetry_cell_setting 'monoclinic'
loop_
_space_group_symop_operation_xyz
x,y,z
-x,y,-z
-x,-y,-z
x,-y,z
loop_
_atom_site_type_symbol
_atom_site_label
_atom_site_fract_x
_atom_site_fract_y
_atom_site_fract_z
Si Si1 0.087994 0.814795 0.384380
Si Si2 0.897565 0.330256 0.185521
Si Si3 0.743695 0.322319 0.114578
Si Si4 0.823804 0.814979 0.576950
Si Si5 0.629377 0.823827 0.714769
Si Si6 0.631694 0.682554 0.962156
Si Si7 0.560233 0.185228 0.613749
Si Si8 0.816160 0.829478 0.171624
O O1 0.101895 0.766281 0.487718
O O2 0.000000 0.758360 0.500000
O O3 0.082040 0.000000 0.396188
O O4 0.185313 0.764765 0.121070
O O5 0.858667 0.500000 0.240982
O O6 0.846358 0.259163 0.405346
O O7 0.897144 0.217379 0.077629
O O8 0.000000 0.347280 0.000000
O O9 0.734143 0.500000 0.102211
O O10 0.644905 0.248829 0.355532
O O11 0.795260 0.299851 0.124553
O O12 0.824296 0.000000 0.567447
O O13 0.720690 0.759641 0.825674
O O14 0.573611 0.771484 0.721653
O O15 0.730422 0.832388 0.443355
O O16 0.602684 0.000000 0.804325
O O17 0.630232 0.724209 0.828199
O O18 0.635422 0.500000 0.969354
O O19 0.536745 0.750457 0.214856
O O20 0.563485 0.000000 0.603508
O O21 0.825801 0.000000 0.097374
#
# Coordination Sequence:
#
# PCOD9150601 Si02
#       8
#     4   4   4   4   4   4   4   4
#     4  10  24  47  72  96 120 159 215 267 315 377
#     4  11  24  39  58  90 130 164 203 258 321 380
#     4  11  23  40  64  95 130 163 206 263 322 374
#     4  11  24  43  66  92 125 168 215 261 313 383
#     4   9  18  33  54  83 120 164 209 251 299 364
#     4  12  23  35  57  89 128 167 207 261 317 375
#     4  10  21  38  61  88 124 169 215 260 305 372
#     4  10  20  36  60  87 122 167 211 252 303 372
#
# _framework density 21.674098000000001
#
# number of rings (size 3 to 8) (size 9 to 14) (size 15 to 20)
#    0.000    1.500    1.250    4.875    1.750    6.250 
#    0.000    0.625    0.000    3.750    0.000    0.000 
#    0.000    0.000    0.000    0.000    0.000    0.000 
#
# Total GULP energy -178659.657132 kJ/mol
# GULP energy per Si atom -5583.114285 kJ/mol
# Density = 2.162477 g / cm^3
# Si number density = 21.674098 Si / 1000 Ang^3
#
#
#
# Elastic Constant Matrix: (Units=GPa)
#
#
# Indices 1 2 3 4 5 6 
#
# 1 57.8692 11.7704 30.0431 0.0000 -22.1796 0.0000
# 2 11.7704 43.3670 -2.3400 0.0000 -10.0895 0.0000
# 3 30.0431 -2.3400 62.3984 0.0000 -12.6512 0.0000
# 4 0.0000 0.0000 0.0000 29.6807 0.0000 -1.9162
# 5 -22.1796 -10.0895 -12.6512 0.0000 27.1406 0.0000
# 6 0.0000 0.0000 0.0000 -1.9162 0.0000 18.8619
#
#
#
# Elastic Compliance Matrix: (Units=1/GPa)
#
#
# Indices 1 2 3 4 5 6 
#
# 1 0.031300 -0.004833 -0.011518 0.000000 0.018413 0.000000
# 2 -0.004833 0.026561 0.004996 0.000000 0.008253 0.000000
# 3 -0.011518 0.004996 0.022338 0.000000 0.002857 0.000000
# 4 0.000000 0.000000 0.000000 0.033914 0.000000 0.003445
# 5 0.018413 0.008253 0.002857 0.000000 0.056293 0.000000
# 6 0.000000 0.000000 0.000000 0.003445 0.000000 0.053367
#
#
# Mechanical properties :
#
#
# Convention : Reuss Voigt Hill
#
# Bulk Modulus (GPa) = 17.39446 26.95352 22.17399
# Shear Modulus (GPa) = 18.82201 23.41403 21.11802
#
# Velocity S-wave (km/s) = 2.95008 3.29032 3.12483
# Velocity P-wave (km/s) = 4.43247 5.18631 4.82414
#
# Compressibility (1/GPa) = 0.05748957
#
# Stress axis : x y z
#
# Youngs Moduli (GPa) = 31.94845 37.64989 44.76584
#
# Poissons Ratio (x) = 0.18196 0.51562
# Poissons Ratio (y) = 0.15441 -0.22366
# Poissons Ratio (z) = 0.36799 -0.18811
#
# Static dielectric constant tensor:
#      x y z
#    x 1.841670 0.000000 -0.007850 
#    y 0.000000 1.769130 0.000000 
#    z -0.007850 0.000000 1.836900 
# 
# From -- ./inp_files/58109.got.cif
#   From: 2010.05.17/outbox.cif.g08.bks.cpg/sg10_30_cif.got.tgz:58109.got - 2010.06.03 11:33:40.
