data_PCOD9150102
_publ_section_title
;
Structure prediction by ZEFSAII (Michael W. Deem and Ramdas Pophale) SiO2 
 PCOD9150102
Probable space group: P 2/M
;
_chemical_formula_sum "Si O2"
_cell_formula_units_Z 16
_cell_length_a 7.925059
_cell_length_b 8.186917
_cell_length_c 9.820633
_cell_angle_alpha 90.000000
_cell_angle_beta 75.952071
_cell_angle_gamma 90.000000
_cell_volume 618.124205
_symmetry_space_group_name_H-M "P 2/M"
_symmetry_group_IT_number 10
_symmetry_cell_setting 'monoclinic'
loop_
_space_group_symop_operation_xyz
x,y,z
-x,y,-z
-x,-y,-z
x,-y,z
loop_
_atom_site_type_symbol
_atom_site_label
_atom_site_fract_x
_atom_site_fract_y
_atom_site_fract_z
Si Si1 0.717891 0.000000 0.955843
Si Si2 0.597487 0.799205 0.668866
Si Si3 0.705543 0.329274 0.933567
Si Si4 0.000369 0.000000 0.668764
Si Si5 0.765751 0.309840 0.352155
O O1 0.770304 0.172956 0.004251
O O2 0.823177 0.000000 0.791453
O O3 0.500000 0.000000 0.000000
O O4 0.697402 0.718289 0.776155
O O5 0.404522 0.724176 0.705071
O O6 0.694949 0.732084 0.517505
O O7 0.577195 0.000000 0.662699
O O8 0.793342 0.500000 0.944499
O O9 0.500000 0.342125 0.000000
O O10 0.095292 0.166486 0.695108
O O11 0.000000 0.000000 0.500000
O O12 0.819586 0.500000 0.331294
#
# Coordination Sequence:
#
# PCOD9150102 Si02
#       5
#     2   4   4   2   4
#     4  10  22  39  59  83 119 161 201 248 305 365
#     4  11  18  35  61  88 125 162 197 246 304 371
#     4  10  20  35  59  88 115 152 203 250 293 354
#     4  12  24  38  59  91 124 158 203 258 308 363
#     4  11  22  37  58  88 124 161 198 246 309 366
#
# _framework density 25.884765999999999
#
# number of rings (size 3 to 8) (size 9 to 14) (size 15 to 20)
#    0.000    1.250    3.750    5.250    0.000    1.500 
#    0.000    0.000    0.000   12.000    0.000   15.750 
#    0.000    0.000    0.000    0.000    0.000    0.000 
#
# Total GULP energy -89202.970707 kJ/mol
# GULP energy per Si atom -5575.185669 kJ/mol
# Density = 2.582585 g / cm^3
# Si number density = 25.884766 Si / 1000 Ang^3
#
#
#
# Elastic Constant Matrix: (Units=GPa)
#
#
# Indices 1 2 3 4 5 6 
#
# 1 72.8393 34.4813 15.1633 0.0000 -16.4998 0.0000
# 2 34.4813 333.9275 -3.1914 0.0000 -4.2462 0.0000
# 3 15.1633 -3.1914 112.3552 0.0000 -12.0940 0.0000
# 4 0.0000 0.0000 0.0000 -74.2892 0.0000 103.5436
# 5 -16.4998 -4.2462 -12.0940 0.0000 33.9638 0.0000
# 6 0.0000 0.0000 0.0000 103.5436 0.0000 -121.9338
#
#
#
# Elastic Compliance Matrix: (Units=1/GPa)
#
#
# Indices 1 2 3 4 5 6 
#
# 1 0.016450 -0.001620 -0.001485 0.000000 0.007260 0.000000
# 2 -0.001620 0.003161 0.000277 0.000000 -0.000293 0.000000
# 3 -0.001485 0.000277 0.009395 0.000000 0.002659 0.000000
# 4 0.000000 0.000000 0.000000 0.073326 0.000000 0.062267
# 5 0.007260 -0.000293 0.002659 0.000000 0.033880 0.000000
# 6 0.000000 0.000000 0.000000 0.062267 0.000000 0.044674
#
#
# Mechanical properties :
#
#
# Convention : Reuss Voigt Hill
#
# Bulk Modulus (GPa) = 42.82841 68.00315 55.41578
# Shear Modulus (GPa) = 25.73013 -0.94060 12.39477
#
# Velocity S-wave (km/s) = 3.15624 -0.60346 2.19062
# Velocity P-wave (km/s) = 5.46481 5.08360 5.27765
#
# Compressibility (1/GPa) = 0.02334899
#
# Stress axis : x y z
#
# Youngs Moduli (GPa) = 60.79187 316.36517 106.44234
#
# Poissons Ratio (x) = 0.51265 0.15802
# Poissons Ratio (y) = 0.09851 -0.02947
# Poissons Ratio (z) = 0.09025 -0.08760
#
# Static dielectric constant tensor:
#      x y z
#    x 2.040220 0.000000 0.022710 
#    y 0.000000 2.130360 0.000000 
#    z 0.022710 0.000000 2.127700 
# 
# From -- ./inp_files/40539.got.cif
#   From: 2010.05.17/outbox.cif.g08.bks.cpg/sg10_21_cif.got.tgz:40539.got - 2010.06.03 11:33:40.
