data_PCOD9150667
_publ_section_title
;
Structure prediction by ZEFSAII (Michael W. Deem and Ramdas Pophale) SiO2 
 PCOD9150667
Probable space group: P 2/M
;
_chemical_formula_sum "Si O2"
_cell_formula_units_Z 28
_cell_length_a 26.862313
_cell_length_b 7.894997
_cell_length_c 8.723921
_cell_angle_alpha 90.000000
_cell_angle_beta 36.721909
_cell_angle_gamma 90.000000
_cell_volume 1106.263720
_symmetry_space_group_name_H-M "P 2/M"
_symmetry_group_IT_number 10
_symmetry_cell_setting 'monoclinic'
loop_
_space_group_symop_operation_xyz
x,y,z
-x,y,-z
-x,-y,-z
x,-y,z
loop_
_atom_site_type_symbol
_atom_site_label
_atom_site_fract_x
_atom_site_fract_y
_atom_site_fract_z
Si Si1 0.842109 0.806887 0.893883
Si Si2 0.051301 0.703632 0.095330
Si Si3 0.595957 0.305799 0.216053
Si Si4 0.220929 0.810394 0.523708
Si Si5 0.866790 0.690483 0.512255
Si Si6 0.341528 0.706282 0.604468
Si Si7 0.391783 0.310426 0.159142
O O1 0.850951 0.684381 0.730507
O O2 0.844467 0.000000 0.835984
O O3 0.918952 0.773800 0.816039
O O4 0.752630 0.770702 0.190577
O O5 0.047909 0.500000 0.108619
O O6 0.128080 0.763159 0.802928
O O7 0.960420 0.761933 0.268065
O O8 0.500000 0.316094 0.500000
O O9 0.629310 0.500000 0.114670
O O10 0.636334 0.236600 0.275502
O O11 0.594375 0.229206 0.045304
O O12 0.208540 0.795894 0.372586
O O13 0.291243 0.684467 0.402739
O O14 0.242230 0.000000 0.518678
O O15 0.864557 0.500000 0.453559
O O16 0.343994 0.500000 0.598337
O O17 0.401937 0.758325 0.310381
O O18 0.427997 0.500000 0.062889
#
# Coordination Sequence:
#
# PCOD9150667 Si02
#       7
#     4   4   4   4   4   4   4
#     4  12  24  38  59  87 119 156 203 259 309 361
#     4  11  23  40  60  83 115 158 205 252 311 376
#     4   9  19  36  60  94 127 153 197 257 304 355
#     4  12  24  38  59  87 119 156 203 259 309 361
#     4  11  24  40  59  82 115 160 205 256 314 374
#     4  10  20  36  61  88 120 165 207 248 305 371
#     4  10  20  36  61  88 120 165 207 248 305 371
#
# _framework density 25.310421999999999
#
# number of rings (size 3 to 8) (size 9 to 14) (size 15 to 20)
#    0.000    1.286    1.429    5.143    0.000    7.429 
#    0.000    2.857    0.000    1.714    0.000    2.000 
#    0.000    0.000    0.000    0.000    0.000    0.000 
#
# Total GULP energy -156276.627189 kJ/mol
# GULP energy per Si atom -5581.308114 kJ/mol
# Density = 2.525281 g / cm^3
# Si number density = 25.310422 Si / 1000 Ang^3
#
#
#
# Elastic Constant Matrix: (Units=GPa)
#
#
# Indices 1 2 3 4 5 6 
#
# 1 117.2109 9.9508 19.5803 0.0000 25.8758 0.0000
# 2 9.9508 77.8696 -0.6701 0.0000 0.3119 0.0000
# 3 19.5803 -0.6701 86.1647 0.0000 31.7115 0.0000
# 4 0.0000 0.0000 0.0000 -15.8567 0.0000 26.1847
# 5 25.8758 0.3119 31.7115 0.0000 47.3506 0.0000
# 6 0.0000 0.0000 0.0000 26.1847 0.0000 -0.4588
#
#
#
# Elastic Compliance Matrix: (Units=1/GPa)
#
#
# Indices 1 2 3 4 5 6 
#
# 1 0.009827 -0.001238 -0.000357 0.000000 -0.005123 0.000000
# 2 -0.001238 0.013000 0.000219 0.000000 0.000445 0.000000
# 3 -0.000357 0.000219 0.015417 0.000000 -0.010131 0.000000
# 4 0.000000 0.000000 0.000000 0.000676 0.000000 0.038600
# 5 -0.005123 0.000445 -0.010131 0.000000 0.030701 0.000000
# 6 0.000000 0.000000 0.000000 0.038600 0.000000 0.023375
#
#
# Mechanical properties :
#
#
# Convention : Reuss Voigt Hill
#
# Bulk Modulus (GPa) = 28.17600 37.66301 32.91951
# Shear Modulus (GPa) = 46.47653 23.03264 34.75459
#
# Velocity S-wave (km/s) = 4.28981 3.01990 3.70960
# Velocity P-wave (km/s) = 5.97436 5.20312 5.60203
#
# Compressibility (1/GPa) = 0.03549119
#
# Stress axis : x y z
#
# Youngs Moduli (GPa) = 101.75618 76.92109 64.86230
#
# Poissons Ratio (x) = 0.09526 0.02319
# Poissons Ratio (y) = 0.12601 -0.01420
# Poissons Ratio (z) = 0.03637 -0.01684
#
# Static dielectric constant tensor:
#      x y z
#    x 2.092480 0.000000 0.136990 
#    y 0.000000 1.917920 0.000000 
#    z 0.136990 0.000000 2.076770 
# 
# From -- ./inp_files/37068.got.cif
#   From: 2010.05.17/outbox.cif.g08.bks.cpg/sg10_19_cif.got.tgz:37068.got - 2010.06.03 11:33:40.
