data_PCOD9150566
_publ_section_title
;
Structure prediction by ZEFSAII (Michael W. Deem and Ramdas Pophale) SiO2 
 PCOD9150566
Probable space group: P 2/M
;
_chemical_formula_sum "Si O2"
_cell_formula_units_Z 32
_cell_length_a 14.602362
_cell_length_b 9.086281
_cell_length_c 21.397985
_cell_angle_alpha 90.000000
_cell_angle_beta 36.205115
_cell_angle_gamma 90.000000
_cell_volume 1676.998724
_symmetry_space_group_name_H-M "P 2/M"
_symmetry_group_IT_number 10
_symmetry_cell_setting 'monoclinic'
loop_
_space_group_symop_operation_xyz
x,y,z
-x,y,-z
-x,-y,-z
x,-y,z
loop_
_atom_site_type_symbol
_atom_site_label
_atom_site_fract_x
_atom_site_fract_y
_atom_site_fract_z
Si Si1 0.246872 0.168426 0.886955
Si Si2 0.865427 0.175634 0.919739
Si Si3 0.789144 0.172917 0.319323
Si Si4 0.441147 0.324856 0.962319
Si Si5 0.712108 0.174476 0.506636
Si Si6 0.154032 0.674182 0.454989
Si Si7 0.619683 0.674296 0.301798
Si Si8 0.417040 0.169257 0.231041
O O1 0.265602 0.266541 0.815495
O O2 0.417129 0.169242 0.825292
O O3 0.208414 0.000000 0.890109
O O4 0.137411 0.216644 0.004779
O O5 0.031692 0.198422 0.797032
O O6 0.829757 0.000000 0.937909
O O7 0.729678 0.261107 0.958410
O O8 0.754678 0.199102 0.410952
O O9 0.685885 0.273221 0.331672
O O10 0.754101 0.000000 0.325508
O O11 0.441567 0.500000 0.950572
O O12 0.553412 0.243170 0.851921
O O13 0.500000 0.298261 0.000000
O O14 0.839195 0.243071 0.482716
O O15 0.548211 0.250108 0.612518
O O16 0.698362 0.000000 0.525132
O O17 0.170538 0.500000 0.455734
O O18 0.296393 0.737319 0.336874
O O19 0.000000 0.701515 0.500000
O O20 0.604517 0.500000 0.306140
O O21 0.366230 0.000000 0.253556
#
# Coordination Sequence:
#
# PCOD9150566 Si02
#       8
#     4   4   4   4   4   4   4   4
#     4   9  18  35  60  86 114 150 193 244 296 350
#     4   9  20  39  61  86 116 154 201 251 302 354
#     4  10  23  42  62  86 120 159 201 253 305 358
#     4  10  21  36  57  86 120 158 196 241 300 359
#     4  11  23  41  64  88 118 159 206 252 300 356
#     4  11  24  40  60  89 123 157 194 244 306 362
#     4  12  24  37  60  90 120 158 202 248 304 366
#     4  10  20  36  60  85 112 152 198 245 293 347
#
# _framework density 19.081707999999999
#
# number of rings (size 3 to 8) (size 9 to 14) (size 15 to 20)
#    0.000    1.750    1.250    3.750    0.000    8.500 
#    0.000    5.000    0.000    0.000    0.000    0.000 
#    0.000    0.000    0.000    0.000    0.000    0.000 
#
# Total GULP energy -178823.474602 kJ/mol
# GULP energy per Si atom -5588.233581 kJ/mol
# Density = 1.903828 g / cm^3
# Si number density = 19.081708 Si / 1000 Ang^3
#
#
#
# Elastic Constant Matrix: (Units=GPa)
#
#
# Indices 1 2 3 4 5 6 
#
# 1 92.4322 75.5024 33.5347 0.0000 21.2496 0.0000
# 2 75.5024 94.0394 40.7170 0.0000 16.4500 0.0000
# 3 33.5347 40.7170 78.7119 0.0000 12.3979 0.0000
# 4 0.0000 0.0000 0.0000 1094.3205 0.0000 453.3473
# 5 21.2496 16.4500 12.3979 0.0000 26.9620 0.0000
# 6 0.0000 0.0000 0.0000 453.3473 0.0000 215.4993
#
#
#
# Elastic Compliance Matrix: (Units=1/GPa)
#
#
# Indices 1 2 3 4 5 6 
#
# 1 0.034349 -0.025779 0.000526 0.000000 -0.011585 0.000000
# 2 -0.025779 0.033851 -0.006981 0.000000 0.002874 0.000000
# 3 0.000526 -0.006981 0.016695 0.000000 -0.003833 0.000000
# 4 0.000000 0.000000 0.000000 0.007112 0.000000 -0.014961
# 5 -0.011585 0.002874 -0.003833 0.000000 0.046228 0.000000
# 6 0.000000 0.000000 0.000000 -0.014961 0.000000 0.036114
#
#
# Mechanical properties :
#
#
# Convention : Reuss Voigt Hill
#
# Bulk Modulus (GPa) = 48.95355 62.74350 55.84853
# Shear Modulus (GPa) = 20.35619 275.05164 147.70391
#
# Velocity S-wave (km/s) = 3.26972 12.01903 8.80761
# Velocity P-wave (km/s) = 6.32180 15.01873 11.52231
#
# Compressibility (1/GPa) = 0.02042753
#
# Stress axis : x y z
#
# Youngs Moduli (GPa) = 29.11332 29.54122 59.89790
#
# Poissons Ratio (x) = 0.76154 -0.03151
# Poissons Ratio (y) = 0.75051 0.41812
# Poissons Ratio (z) = -0.01531 0.20621
#
# Static dielectric constant tensor:
#      x y z
#    x 1.661260 0.000000 0.005150 
#    y 0.000000 1.637790 0.000000 
#    z 0.005150 0.000000 1.661270 
# 
# From -- ./inp_files/84717.got.cif
#   From: 2010.05.17/outbox.cif.g08.bks.cpg/sg10_43_cif.got.tgz:84717.got - 2010.06.03 11:33:40.
