data_PCOD9150408
_publ_section_title
;
Structure prediction by ZEFSAII (Michael W. Deem and Ramdas Pophale) SiO2 
 PCOD9150408
Probable space group: P 2/M
;
_chemical_formula_sum "Si O2"
_cell_formula_units_Z 24
_cell_length_a 25.438013
_cell_length_b 12.190570
_cell_length_c 9.259342
_cell_angle_alpha 90.000000
_cell_angle_beta 152.526547
_cell_angle_gamma 90.000000
_cell_volume 1324.665296
_symmetry_space_group_name_H-M "P 2/M"
_symmetry_group_IT_number 10
_symmetry_cell_setting 'monoclinic'
loop_
_space_group_symop_operation_xyz
x,y,z
-x,y,-z
-x,-y,-z
x,-y,z
loop_
_atom_site_type_symbol
_atom_site_label
_atom_site_fract_x
_atom_site_fract_y
_atom_site_fract_z
Si Si1 0.013747 0.372984 0.207047
Si Si2 0.628054 0.500000 0.761988
Si Si3 0.611207 0.875146 0.371669
Si Si4 0.551456 0.124332 0.782574
Si Si5 0.742248 0.694761 0.222538
Si Si6 0.762116 0.309170 0.611566
Si Si7 0.613459 0.500000 0.378915
O O1 0.030124 0.500000 0.295575
O O2 0.126227 0.300704 0.508051
O O3 0.000000 0.377190 0.000000
O O4 0.894784 0.324700 0.973197
O O5 0.500000 0.500000 0.500000
O O6 0.614603 0.500000 0.555786
O O7 0.686461 0.605649 0.979890
O O8 0.551454 0.827234 0.370314
O O9 0.708915 0.806816 0.530004
O O10 0.649039 0.000000 0.492843
O O11 0.500000 0.877133 0.000000
O O12 0.500000 0.115622 0.500000
O O13 0.576911 0.000000 0.898848
O O14 0.663662 0.197785 0.041602
O O15 0.747894 0.662223 0.406550
O O16 0.684945 0.394745 0.507265
O O17 0.500000 0.500000 0.000000
#
# Coordination Sequence:
#
# PCOD9150408 Si02
#       7
#     4   2   4   4   4   4   2
#     4   9  18  36  56  80 114 159 197 234 283 339
#     4  12  26  37  54  87 121 152 187 242 290 350
#     4  10  20  36  58  85 115 148 190 245 299 342
#     4  10  22  38  59  85 117 153 190 239 300 357
#     4  11  21  38  61  82 116 155 197 234 287 346
#     4  11  21  37  60  84 114 156 196 236 288 349
#     4  12  26  37  56  87 121 148 189 242 296 347
#
# _framework density 18.117785000000001
#
# number of rings (size 3 to 8) (size 9 to 14) (size 15 to 20)
#    0.000    1.500    3.333    2.500    4.667    0.000 
#    0.000    2.500    0.000    3.000    0.000    3.500 
#    0.000    0.000    0.000    0.000    0.000    0.000 
#
# Total GULP energy -133660.956378 kJ/mol
# GULP energy per Si atom -5569.206516 kJ/mol
# Density = 1.807655 g / cm^3
# Si number density = 18.117785 Si / 1000 Ang^3
#
#
#
# Elastic Constant Matrix: (Units=GPa)
#
#
# Indices 1 2 3 4 5 6 
#
# 1 117.6313 37.6679 66.1292 0.0000 10.7751 0.0000
# 2 37.6679 76.3117 42.6628 0.0000 21.3365 0.0000
# 3 66.1292 42.6628 108.5096 0.0000 25.5894 0.0000
# 4 0.0000 0.0000 0.0000 -30.6723 0.0000 -12.2798
# 5 10.7751 21.3365 25.5894 0.0000 40.1850 0.0000
# 6 0.0000 0.0000 0.0000 -12.2798 0.0000 25.8501
#
#
#
# Elastic Compliance Matrix: (Units=1/GPa)
#
#
# Indices 1 2 3 4 5 6 
#
# 1 0.013605 -0.003232 -0.007725 0.000000 0.002987 0.000000
# 2 -0.003232 0.018684 -0.003814 0.000000 -0.006625 0.000000
# 3 -0.007725 -0.003814 0.017012 0.000000 -0.006737 0.000000
# 4 0.000000 0.000000 0.000000 -0.027393 0.000000 -0.013013
# 5 0.002987 -0.006625 -0.006737 0.000000 0.031891 0.000000
# 6 0.000000 0.000000 0.000000 -0.013013 0.000000 0.032503
#
#
# Mechanical properties :
#
#
# Convention : Reuss Voigt Hill
#
# Bulk Modulus (GPa) = 50.61012 66.15250 58.38131
# Shear Modulus (GPa) = 40.83901 17.47207 29.15554
#
# Velocity S-wave (km/s) = 4.75287 3.10878 4.01586
# Velocity P-wave (km/s) = 7.62327 7.03404 7.33458
#
# Compressibility (1/GPa) = 0.01975889
#
# Stress axis : x y z
#
# Youngs Moduli (GPa) = 73.49996 53.52140 58.78187
#
# Poissons Ratio (x) = 0.17299 0.45411
# Poissons Ratio (y) = 0.23756 0.22419
# Poissons Ratio (z) = 0.56781 0.20413
#
# Static dielectric constant tensor:
#      x y z
#    x 1.688480 0.000000 -0.011850 
#    y 0.000000 1.646570 0.000000 
#    z -0.011850 0.000000 1.638440 
# 
# From -- ./inp_files/36211.got.cif
#   From: 2010.05.17/outbox.cif.g08.bks.cpg/sg10_19_cif.got.tgz:36211.got - 2010.06.03 11:33:40.
