data_PCOD9150072
_publ_section_title
;
Structure prediction by ZEFSAII (Michael W. Deem and Ramdas Pophale) SiO2 
 PCOD9150072
Probable space group: P 2/M
;
_chemical_formula_sum "Si O2"
_cell_formula_units_Z 32
_cell_length_a 12.487532
_cell_length_b 8.959069
_cell_length_c 31.082268
_cell_angle_alpha 90.000000
_cell_angle_beta 26.964126
_cell_angle_gamma 90.000000
_cell_volume 1576.757387
_symmetry_space_group_name_H-M "P 2/M"
_symmetry_group_IT_number 10
_symmetry_cell_setting 'monoclinic'
loop_
_space_group_symop_operation_xyz
x,y,z
-x,y,-z
-x,-y,-z
x,-y,z
loop_
_atom_site_type_symbol
_atom_site_label
_atom_site_fract_x
_atom_site_fract_y
_atom_site_fract_z
Si Si1 0.924813 0.676736 0.740838
Si Si2 0.363072 0.670920 0.854670
Si Si3 0.801773 0.672347 0.630322
Si Si4 0.531357 0.825535 0.313681
Si Si5 0.892578 0.177554 0.410777
Si Si6 0.435741 0.176616 0.918602
Si Si7 0.373016 0.173487 0.619581
Si Si8 0.042403 0.322431 0.890536
O O1 0.894751 0.500000 0.750622
O O2 0.975979 0.737549 0.674534
O O3 0.152762 0.725189 0.686380
O O4 0.685854 0.754128 0.842585
O O5 0.347476 0.500000 0.876904
O O6 0.583036 0.676974 0.742799
O O7 0.401955 0.779892 0.880370
O O8 0.137865 0.701872 0.905163
O O9 0.869814 0.500000 0.600264
O O10 0.693839 0.741297 0.625696
O O11 0.004925 0.766359 0.580579
O O12 0.558961 0.814371 0.354788
O O13 0.764864 0.754122 0.208919
O O14 0.515379 0.000000 0.307482
O O15 0.613715 0.209306 0.508203
O O16 0.927428 0.000000 0.394411
O O17 0.434816 0.000000 0.924342
O O18 0.214404 0.251518 0.021700
O O19 0.310985 0.000000 0.632522
O O20 0.040693 0.500000 0.883973
#
# Coordination Sequence:
#
# PCOD9150072 Si02
#       8
#     4   4   4   4   4   4   4   4
#     4  12  25  41  62  89 122 156 197 250 304 357
#     4   9  18  33  53  81 121 159 191 236 295 350
#     4  10  20  35  58  89 126 161 196 244 298 352
#     4  10  21  40  63  87 121 160 203 247 293 353
#     4  11  22  39  64  91 121 156 198 246 302 362
#     4  12  23  35  57  87 119 156 199 243 293 357
#     4  10  24  44  64  87 117 158 203 251 301 352
#     4  10  21  37  58  85 121 158 196 244 295 351
#
# _framework density 20.294813999999999
#
# number of rings (size 3 to 8) (size 9 to 14) (size 15 to 20)
#    0.000    1.500    1.250    5.250    0.000    8.000 
#    0.000    3.125    0.000    3.750    0.000    0.000 
#    0.000    0.000    0.000    0.000    0.000    0.000 
#
# Total GULP energy -179008.490967 kJ/mol
# GULP energy per Si atom -5594.015343 kJ/mol
# Density = 2.024862 g / cm^3
# Si number density = 20.294814 Si / 1000 Ang^3
#
#
#
# Elastic Constant Matrix: (Units=GPa)
#
#
# Indices 1 2 3 4 5 6 
#
# 1 61.7262 35.4746 18.5548 0.0000 -22.8108 0.0000
# 2 35.4746 102.8627 23.9755 0.0000 -19.0102 0.0000
# 3 18.5548 23.9755 56.8318 0.0000 -21.0284 0.0000
# 4 0.0000 0.0000 0.0000 21.9486 0.0000 -1.9305
# 5 -22.8108 -19.0102 -21.0284 0.0000 31.2966 0.0000
# 6 0.0000 0.0000 0.0000 -1.9305 0.0000 41.8334
#
#
#
# Elastic Compliance Matrix: (Units=1/GPa)
#
#
# Indices 1 2 3 4 5 6 
#
# 1 0.025016 -0.005880 -0.000349 0.000000 0.014428 0.000000
# 2 -0.005880 0.012697 -0.002886 0.000000 0.001488 0.000000
# 3 -0.000349 -0.002886 0.024201 0.000000 0.014254 0.000000
# 4 0.000000 0.000000 0.000000 0.045747 0.000000 0.002111
# 5 0.014428 0.001488 0.014254 0.000000 0.052949 0.000000
# 6 0.000000 0.000000 0.000000 0.002111 0.000000 0.024002
#
#
# Mechanical properties :
#
#
# Convention : Reuss Voigt Hill
#
# Bulk Modulus (GPa) = 22.89110 41.93670 32.41390
# Shear Modulus (GPa) = 22.99873 28.57677 25.78775
#
# Velocity S-wave (km/s) = 3.37000 3.75651 3.56849
# Velocity P-wave (km/s) = 5.14260 6.28680 5.74326
#
# Compressibility (1/GPa) = 0.04368511
#
# Stress axis : x y z
#
# Youngs Moduli (GPa) = 39.97407 78.75761 41.32003
#
# Poissons Ratio (x) = 0.46308 0.01440
# Poissons Ratio (y) = 0.23504 0.11927
# Poissons Ratio (z) = 0.01393 0.22733
#
# Static dielectric constant tensor:
#      x y z
#    x 1.719980 0.000000 -0.003220 
#    y 0.000000 1.677540 0.000000 
#    z -0.003220 0.000000 1.736620 
# 
# From -- ./inp_files/94965.got.cif
#   From: 2010.05.17/outbox.cif.g08.bks.cpg/sg10_48_cif.got.tgz:94965.got - 2010.06.03 11:33:40.
