data_PCOD9150429
_publ_section_title
;
Structure prediction by ZEFSAII (Michael W. Deem and Ramdas Pophale) SiO2 
 PCOD9150429
Probable space group: P 2/M
;
_chemical_formula_sum "Si O2"
_cell_formula_units_Z 22
_cell_length_a 7.987270
_cell_length_b 10.406397
_cell_length_c 14.050444
_cell_angle_alpha 90.000000
_cell_angle_beta 86.696241
_cell_angle_gamma 90.000000
_cell_volume 1165.913746
_symmetry_space_group_name_H-M "P 2/M"
_symmetry_group_IT_number 10
_symmetry_cell_setting 'monoclinic'
loop_
_space_group_symop_operation_xyz
x,y,z
-x,y,-z
-x,-y,-z
x,-y,z
loop_
_atom_site_type_symbol
_atom_site_label
_atom_site_fract_x
_atom_site_fract_y
_atom_site_fract_z
Si Si1 0.132591 0.142934 0.201516
Si Si2 0.000000 0.795103 0.000000
Si Si3 0.605258 0.647167 0.400833
Si Si4 0.340694 0.350076 0.947845
Si Si5 0.586008 0.351300 0.778731
Si Si6 0.907442 0.849180 0.400412
O O1 0.272765 0.253420 0.192211
O O2 0.036152 0.141416 0.102621
O O3 0.021012 0.166674 0.300611
O O4 0.207656 0.000000 0.210869
O O5 0.167496 0.715381 0.974456
O O6 0.500000 0.649588 0.500000
O O7 0.667940 0.500000 0.382452
O O8 0.465012 0.675309 0.326590
O O9 0.754024 0.749984 0.397243
O O10 0.325081 0.500000 0.973396
O O11 0.408845 0.338796 0.839206
O O12 0.500000 0.295860 0.000000
O O13 0.640969 0.500000 0.789597
O O14 0.000000 0.827044 0.500000
O O15 0.854822 0.000000 0.402666
#
# Coordination Sequence:
#
# PCOD9150429 Si02
#       6
#     4   2   4   4   4   4
#     4  11  24  40  59  87 122 157 201 250 301 362
#     4  12  22  38  62  86 123 166 197 250 315 358
#     4  10  21  37  59  89 121 152 192 248 306 361
#     4  10  20  36  58  88 119 152 202 250 293 359
#     4  10  21  39  60  86 120 155 200 249 297 361
#     4  10  22  40  61  86 117 155 202 249 293 358
#
# _framework density 18.869319999999998
#
# number of rings (size 3 to 8) (size 9 to 14) (size 15 to 20)
#    0.000    1.636    1.818    2.727    0.000    2.909 
#    0.000    2.727    0.000    0.000    0.000    0.000 
#    0.000    0.000    0.000    0.000    0.000    0.000 
#
# Total GULP energy -122563.491367 kJ/mol
# GULP energy per Si atom -5571.067789 kJ/mol
# Density = 1.882637 g / cm^3
# Si number density = 18.869320 Si / 1000 Ang^3
#
#
#
# Elastic Constant Matrix: (Units=GPa)
#
#
# Indices 1 2 3 4 5 6 
#
# 1 106.4196 83.5813 37.9247 0.0000 -4.4489 0.0000
# 2 83.5813 116.5276 27.5960 0.0000 2.6919 0.0000
# 3 37.9247 27.5960 125.7858 0.0000 24.3173 0.0000
# 4 0.0000 0.0000 0.0000 20.1720 0.0000 2.7249
# 5 -4.4489 2.6919 24.3173 0.0000 15.2276 0.0000
# 6 0.0000 0.0000 0.0000 2.7249 0.0000 22.3196
#
#
#
# Elastic Compliance Matrix: (Units=1/GPa)
#
#
# Indices 1 2 3 4 5 6 
#
# 1 0.029245 -0.019256 -0.009985 0.000000 0.027894 0.000000
# 2 -0.019256 0.021786 0.004135 0.000000 -0.016080 0.000000
# 3 -0.009985 0.004135 0.015564 0.000000 -0.028502 0.000000
# 4 0.000000 0.000000 0.000000 0.050405 0.000000 -0.006154
# 5 0.027894 -0.016080 -0.028502 0.000000 0.122178 0.000000
# 6 0.000000 0.000000 0.000000 -0.006154 0.000000 0.045555
#
#
# Mechanical properties :
#
#
# Convention : Reuss Voigt Hill
#
# Bulk Modulus (GPa) = 61.04642 71.88187 66.46414
# Shear Modulus (GPa) = 14.68836 24.85258 19.77047
#
# Velocity S-wave (km/s) = 2.79305 3.63311 3.24042
# Velocity P-wave (km/s) = 6.54400 7.46837 7.02142
#
# Compressibility (1/GPa) = 0.01638098
#
# Stress axis : x y z
#
# Youngs Moduli (GPa) = 34.19391 45.90182 64.25234
#
# Poissons Ratio (x) = 0.88389 0.64159
# Poissons Ratio (y) = 0.65844 -0.26567
# Poissons Ratio (z) = 0.34144 -0.18980
#
# Static dielectric constant tensor:
#      x y z
#    x 1.610040 0.000000 0.017020 
#    y 0.000000 1.649200 0.000000 
#    z 0.017020 0.000000 1.787610 
# 
# From -- ./inp_files/60172.got.cif
#   From: 2010.05.17/outbox.cif.g08.bks.cpg/sg10_31_cif.got.tgz:60172.got - 2010.06.03 11:33:40.
