data_PCOD9150766
_publ_section_title
;
Structure prediction by ZEFSAII (Michael W. Deem and Ramdas Pophale) SiO2 
 PCOD9150766
Probable space group: P 2/M
;
_chemical_formula_sum "Si O2"
_cell_formula_units_Z 28
_cell_length_a 8.197719
_cell_length_b 13.688704
_cell_length_c 12.793151
_cell_angle_alpha 90.000000
_cell_angle_beta 123.141644
_cell_angle_gamma 90.000000
_cell_volume 1202.057293
_symmetry_space_group_name_H-M "P 2/M"
_symmetry_group_IT_number 10
_symmetry_cell_setting 'monoclinic'
loop_
_space_group_symop_operation_xyz
x,y,z
-x,y,-z
-x,-y,-z
x,-y,z
loop_
_atom_site_type_symbol
_atom_site_label
_atom_site_fract_x
_atom_site_fract_y
_atom_site_fract_z
Si Si1 0.903070 0.806053 0.699124
Si Si2 0.475269 0.000000 0.866260
Si Si3 0.985505 0.000000 0.370666
Si Si4 0.189699 0.389833 0.022331
Si Si5 0.152821 0.388001 0.455647
Si Si6 0.423060 0.610659 0.728606
Si Si7 0.196659 0.108278 0.134975
Si Si8 0.314807 0.742814 0.880986
O O1 0.875190 0.701821 0.632762
O O2 0.775632 0.819907 0.758324
O O3 0.900578 0.901953 0.626349
O O4 0.126842 0.808496 0.815725
O O5 0.605477 0.089661 0.861580
O O6 0.246899 0.000000 0.748482
O O7 0.500000 0.000000 0.000000
O O8 0.000000 0.000000 0.500000
O O9 0.139540 0.500000 0.976181
O O10 0.349491 0.389046 0.168456
O O11 0.273578 0.343256 0.948580
O O12 0.000000 0.339151 0.000000
O O13 0.137219 0.500000 0.408708
O O14 0.358082 0.376210 0.587487
O O15 0.000000 0.380141 0.500000
O O16 0.354086 0.500000 0.735063
O O17 0.341700 0.693343 0.777654
O O18 0.154552 0.000000 0.166904
O O19 0.000000 0.128944 0.000000
O O20 0.500000 0.790408 0.000000
#
# Coordination Sequence:
#
# PCOD9150766 Si02
#       8
#     4   2   2   4   4   4   4   4
#     4  12  23  42  68 101 148 185 232 297 366 430
#     4  10  20  45  81 111 136 181 243 294 363 444
#     4  12  27  43  71 105 144 185 240 308 361 430
#     4   9  18  34  58  88 129 176 225 294 368 423
#     4  10  20  36  66 102 140 194 253 301 346 417
#     4   9  17  34  61  90 126 174 242 301 344 412
#     4   9  20  42  72 106 142 181 222 293 368 435
#     4  10  21  34  56  94 132 174 231 288 357 419
#
# _framework density 23.293399999999998
#
# number of rings (size 3 to 8) (size 9 to 14) (size 15 to 20)
#    0.429    1.571    2.143    1.714    0.000    4.571 
#    0.000    2.857    3.143    0.429    0.000    5.000 
#    0.000    0.571    0.000    0.000    0.000    0.000 
#
# Total GULP energy -156284.945638 kJ/mol
# GULP energy per Si atom -5581.605201 kJ/mol
# Density = 2.324038 g / cm^3
# Si number density = 23.293400 Si / 1000 Ang^3
#
#
#
# Elastic Constant Matrix: (Units=GPa)
#
#
# Indices 1 2 3 4 5 6 
#
# 1 72.5391 35.9936 30.5556 0.0000 -17.9548 0.0000
# 2 35.9936 154.0244 51.2862 0.0000 -33.1025 0.0000
# 3 30.5556 51.2862 108.5016 0.0000 -16.3336 0.0000
# 4 0.0000 0.0000 0.0000 46.9691 0.0000 -23.0626
# 5 -17.9548 -33.1025 -16.3336 0.0000 29.4811 0.0000
# 6 0.0000 0.0000 0.0000 -23.0626 0.0000 17.7650
#
#
#
# Elastic Compliance Matrix: (Units=1/GPa)
#
#
# Indices 1 2 3 4 5 6 
#
# 1 0.017678 -0.001503 -0.003165 0.000000 0.007325 0.000000
# 2 -0.001503 0.009567 -0.002858 0.000000 0.008243 0.000000
# 3 -0.003165 -0.002858 0.011658 0.000000 0.001322 0.000000
# 4 0.000000 0.000000 0.000000 0.058723 0.000000 0.076234
# 5 0.007325 0.008243 0.001322 0.000000 0.048370 0.000000
# 6 0.000000 0.000000 0.000000 0.076234 0.000000 0.155257
#
#
# Mechanical properties :
#
#
# Convention : Reuss Voigt Hill
#
# Bulk Modulus (GPa) = 41.92791 63.41509 52.67150
# Shear Modulus (GPa) = 15.42003 33.32503 24.37253
#
# Velocity S-wave (km/s) = 2.57571 3.78652 3.23821
# Velocity P-wave (km/s) = 5.18505 6.81179 6.05331
#
# Compressibility (1/GPa) = 0.02385046
#
# Stress axis : x y z
#
# Youngs Moduli (GPa) = 56.56826 104.52659 85.78007
#
# Poissons Ratio (x) = 0.15709 0.27152
# Poissons Ratio (y) = 0.08501 0.24515
# Poissons Ratio (z) = 0.17905 0.29873
#
# Static dielectric constant tensor:
#      x y z
#    x 1.956620 0.000000 0.024320 
#    y 0.000000 1.954380 0.000000 
#    z 0.024320 0.000000 1.867140 
# 
# From -- ./inp_files/43072.got.cif
#   From: 2010.05.17/outbox.cif.g08.bks.cpg/sg10_22_cif.got.tgz:43072.got - 2010.06.03 11:33:40.
