data_PCOD9150395
_publ_section_title
;
Structure prediction by ZEFSAII (Michael W. Deem and Ramdas Pophale) SiO2 
 PCOD9150395
Probable space group: P 2/M
;
_chemical_formula_sum "Si O2"
_cell_formula_units_Z 24
_cell_length_a 17.213647
_cell_length_b 15.457158
_cell_length_c 10.008744
_cell_angle_alpha 90.000000
_cell_angle_beta 155.724634
_cell_angle_gamma 90.000000
_cell_volume 1094.846745
_symmetry_space_group_name_H-M "P 2/M"
_symmetry_group_IT_number 10
_symmetry_cell_setting 'monoclinic'
loop_
_space_group_symop_operation_xyz
x,y,z
-x,y,-z
-x,-y,-z
x,-y,z
loop_
_atom_site_type_symbol
_atom_site_label
_atom_site_fract_x
_atom_site_fract_y
_atom_site_fract_z
Si Si1 0.898361 0.328028 0.696973
Si Si2 0.544997 0.691894 0.303513
Si Si3 0.811447 0.810968 0.901713
Si Si4 0.667643 0.000000 0.964073
Si Si5 0.530016 0.500000 0.270772
Si Si6 0.766296 0.000000 0.812536
Si Si7 0.776466 0.185681 0.152435
Si Si8 0.182297 0.500000 0.522408
O O1 0.676237 0.317335 0.378132
O O2 0.931942 0.411141 0.657147
O O3 0.000000 0.344588 0.000000
O O4 0.995360 0.242680 0.793714
O O5 0.666535 0.756679 0.585302
O O6 0.531400 0.594330 0.341321
O O7 0.343872 0.737703 0.970666
O O8 0.847015 0.906805 0.901267
O O9 0.724954 0.816133 0.913866
O O10 0.723647 0.910224 0.122681
O O11 0.772376 0.000000 0.984278
O O12 0.447675 0.000000 0.579023
O O13 0.710384 0.500000 0.453464
O O14 0.343152 0.500000 0.885746
O O15 0.000000 0.197862 0.500000
#
# Coordination Sequence:
#
# PCOD9150395 Si02
#       8
#     4   4   4   2   2   2   4   2
#     4   9  19  34  57  85 112 143 189 230 272 333
#     4  10  20  38  56  80 113 145 188 228 275 329
#     4  10  20  36  58  84 113 148 183 232 277 327
#     4   9  17  34  57  79 104 150 188 227 265 332
#     4   9  20  34  57  81 108 150 189 230 268 339
#     4   9  16  32  58  82 108 146 191 219 268 338
#     4  11  22  35  57  84 112 143 188 233 279 330
#     4   9  17  34  57  80 110 149 189 223 279 324
#
# _framework density 21.920876
#
# number of rings (size 3 to 8) (size 9 to 14) (size 15 to 20)
#    0.000    2.333    1.667    1.000    2.333    2.000 
#    0.000    7.500    0.000    0.000    0.000    4.667 
#    0.000    0.000    0.000    0.000    0.000    0.000 
#
# Total GULP energy -133912.253988 kJ/mol
# GULP energy per Si atom -5579.677250 kJ/mol
# Density = 2.187098 g / cm^3
# Si number density = 21.920876 Si / 1000 Ang^3
#
#
#
# Elastic Constant Matrix: (Units=GPa)
#
#
# Indices 1 2 3 4 5 6 
#
# 1 21.7702 27.4803 3.8050 0.0000 4.7614 0.0000
# 2 27.4803 242.8299 52.7251 0.0000 25.0050 0.0000
# 3 3.8050 52.7251 66.6090 0.0000 19.1659 0.0000
# 4 0.0000 0.0000 0.0000 32.9792 0.0000 10.7004
# 5 4.7614 25.0050 19.1659 0.0000 29.5439 0.0000
# 6 0.0000 0.0000 0.0000 10.7004 0.0000 19.0042
#
#
#
# Elastic Compliance Matrix: (Units=1/GPa)
#
#
# Indices 1 2 3 4 5 6 
#
# 1 0.054595 -0.006363 0.003566 0.000000 -0.005726 0.000000
# 2 -0.006363 0.005816 -0.003835 0.000000 -0.001409 0.000000
# 3 0.003566 -0.003835 0.020995 0.000000 -0.010949 0.000000
# 4 0.000000 0.000000 0.000000 0.037100 0.000000 -0.020889
# 5 -0.005726 -0.001409 -0.010949 0.000000 0.043067 0.000000
# 6 0.000000 0.000000 0.000000 -0.020889 0.000000 0.064382
#
#
# Mechanical properties :
#
#
# Convention : Reuss Voigt Hill
#
# Bulk Modulus (GPa) = 14.67513 55.46999 35.07256
# Shear Modulus (GPa) = 19.08887 32.78538 25.93713
#
# Velocity S-wave (km/s) = 2.95415 3.87152 3.44352
# Velocity P-wave (km/s) = 4.28312 6.73383 5.64312
#
# Compressibility (1/GPa) = 0.06814248
#
# Stress axis : x y z
#
# Youngs Moduli (GPa) = 18.31660 171.94225 47.62998
#
# Poissons Ratio (x) = 1.09405 -0.16983
# Poissons Ratio (y) = 0.11655 0.18265
# Poissons Ratio (z) = -0.06531 0.65934
#
# Static dielectric constant tensor:
#      x y z
#    x 1.818580 0.000000 -0.013160 
#    y 0.000000 1.877130 0.000000 
#    z -0.013160 0.000000 1.839660 
# 
# From -- ./inp_files/56074.got.cif
#   From: 2010.05.17/outbox.cif.g08.bks.cpg/sg10_29_cif.got.tgz:56074.got - 2010.06.03 11:33:40.
