data_PCOD9150699
_publ_section_title
;
Structure prediction by ZEFSAII (Michael W. Deem and Ramdas Pophale) SiO2 
 PCOD9150699
Probable space group: P 2/M
;
_chemical_formula_sum "Si O2"
_cell_formula_units_Z 32
_cell_length_a 15.145035
_cell_length_b 17.482448
_cell_length_c 11.405687
_cell_angle_alpha 90.000000
_cell_angle_beta 29.029932
_cell_angle_gamma 90.000000
_cell_volume 1465.460970
_symmetry_space_group_name_H-M "P 2/M"
_symmetry_group_IT_number 10
_symmetry_cell_setting 'monoclinic'
loop_
_space_group_symop_operation_xyz
x,y,z
-x,y,-z
-x,-y,-z
x,-y,z
loop_
_atom_site_type_symbol
_atom_site_label
_atom_site_fract_x
_atom_site_fract_y
_atom_site_fract_z
Si Si1 0.741184 0.149804 0.900414
Si Si2 0.832185 0.861215 0.548071
Si Si3 0.261847 0.307660 0.424300
Si Si4 0.908460 0.876529 0.217587
Si Si5 0.461129 0.087267 0.408754
Si Si6 0.216831 0.589276 0.256358
Si Si7 0.376636 0.313094 0.872579
Si Si8 0.921809 0.711029 0.962650
O O1 0.723019 0.115180 0.790700
O O2 0.678199 0.236968 0.989951
O O3 0.956971 0.151968 0.666555
O O4 0.629595 0.104772 0.128763
O O5 0.743822 0.780641 0.611575
O O6 0.860127 0.912085 0.399588
O O7 0.293659 0.360859 0.275149
O O8 0.061763 0.324228 0.706634
O O9 0.406904 0.317664 0.360469
O O10 0.704458 0.854423 0.417092
O O11 0.036203 0.802650 0.089249
O O12 0.000000 0.917215 0.000000
O O13 0.500000 0.091900 0.500000
O O14 0.399758 0.000000 0.458043
O O15 0.250373 0.500000 0.237929
O O16 0.298580 0.616859 0.038296
O O17 0.000000 0.602778 0.500000
O O18 0.278250 0.304795 0.859779
O O19 0.000000 0.687703 0.000000
#
# Coordination Sequence:
#
# PCOD9150699 Si02
#       8
#     4   4   4   4   4   4   4   4
#     4  11  20  38  65  87 129 167 210 267 328 386
#     4  10  20  36  61  95 123 164 208 268 326 384
#     4  11  21  36  59  95 134 164 213 266 329 386
#     4  10  20  39  62  88 124 163 212 267 324 392
#     4  11  26  43  62  92 129 169 217 270 331 404
#     4  11  22  39  64  96 138 179 214 262 327 394
#     4  12  22  36  65  93 130 169 210 279 325 383
#     4  10  22  39  59  91 127 162 218 276 324 383
#
# _framework density 21.836131999999999
#
# number of rings (size 3 to 8) (size 9 to 14) (size 15 to 20)
#    0.000    1.250    5.000    2.625    1.750    3.250 
#    0.000    3.125    0.000    1.500    0.000    1.750 
#    0.000    0.000    0.000    0.000    0.000    0.000 
#
# Total GULP energy -178360.463427 kJ/mol
# GULP energy per Si atom -5573.764482 kJ/mol
# Density = 2.178643 g / cm^3
# Si number density = 21.836132 Si / 1000 Ang^3
#
#
#
# Elastic Constant Matrix: (Units=GPa)
#
#
# Indices 1 2 3 4 5 6 
#
# 1 153.0777 35.6511 45.2781 0.0000 7.3527 0.0000
# 2 35.6511 62.8038 18.6128 0.0000 0.9429 0.0000
# 3 45.2781 18.6128 91.4656 0.0000 12.9019 0.0000
# 4 0.0000 0.0000 0.0000 -2.3677 0.0000 6.4363
# 5 7.3527 0.9429 12.9019 0.0000 58.6724 0.0000
# 6 0.0000 0.0000 0.0000 6.4363 0.0000 20.0498
#
#
#
# Elastic Compliance Matrix: (Units=1/GPa)
#
#
# Indices 1 2 3 4 5 6 
#
# 1 0.008420 -0.003779 -0.003363 0.000000 -0.000255 0.000000
# 2 -0.003779 0.018655 -0.002012 0.000000 0.000616 0.000000
# 3 -0.003363 -0.002012 0.013358 0.000000 -0.002484 0.000000
# 4 0.000000 0.000000 0.000000 -0.225538 0.000000 0.072401
# 5 -0.000255 0.000616 -0.002484 0.000000 0.017612 0.000000
# 6 0.000000 0.000000 0.000000 0.072401 0.000000 0.026634
#
#
# Mechanical properties :
#
#
# Convention : Reuss Voigt Hill
#
# Bulk Modulus (GPa) = 45.20087 56.27010 50.73549
# Shear Modulus (GPa) = -43.41172 29.12459 -7.14357
#
# Velocity S-wave (km/s) = -4.46361 3.65606 -1.81068
# Velocity P-wave (km/s) = 2.41250 6.60663 4.34899
#
# Compressibility (1/GPa) = 0.02212347
#
# Stress axis : x y z
#
# Youngs Moduli (GPa) = 118.76876 53.60510 74.86315
#
# Poissons Ratio (x) = 0.20257 0.25177
# Poissons Ratio (y) = 0.44883 0.15065
# Poissons Ratio (z) = 0.39942 0.10788
#
# Static dielectric constant tensor:
#      x y z
#    x 2.049270 0.000000 0.001870 
#    y 0.000000 1.778800 0.000000 
#    z 0.001870 0.000000 1.824780 
# 
# From -- ./inp_files/51948.got.cif
#   From: 2010.05.17/outbox.cif.g08.bks.cpg/sg10_26_cif.got.tgz:51948.got - 2010.06.03 11:33:40.
