data_PCOD9150646
_publ_section_title
;
Structure prediction by ZEFSAII (Michael W. Deem and Ramdas Pophale) SiO2 
 PCOD9150646
Probable space group: P 2/M
;
_chemical_formula_sum "Si O2"
_cell_formula_units_Z 28
_cell_length_a 18.556422
_cell_length_b 15.377023
_cell_length_c 8.597982
_cell_angle_alpha 90.000000
_cell_angle_beta 145.742676
_cell_angle_gamma 90.000000
_cell_volume 1381.027895
_symmetry_space_group_name_H-M "P 2/M"
_symmetry_group_IT_number 10
_symmetry_cell_setting 'monoclinic'
loop_
_space_group_symop_operation_xyz
x,y,z
-x,y,-z
-x,-y,-z
x,-y,z
loop_
_atom_site_type_symbol
_atom_site_label
_atom_site_fract_x
_atom_site_fract_y
_atom_site_fract_z
Si Si1 0.920612 0.402672 0.015206
Si Si2 0.017579 0.237115 0.709667
Si Si3 0.647163 0.903215 0.211813
Si Si4 0.273391 0.269141 0.758171
Si Si5 0.421059 0.600570 0.203793
Si Si6 0.867365 0.901066 0.860997
Si Si7 0.347715 0.403079 0.624825
O O1 0.965316 0.500000 0.134472
O O2 0.934595 0.334640 0.177028
O O3 0.773017 0.404565 0.704677
O O4 0.000000 0.376635 0.000000
O O5 0.874369 0.244265 0.522251
O O6 0.000000 0.212450 0.500000
O O7 0.108490 0.170925 0.964518
O O8 0.658318 0.823686 0.113415
O O9 0.745828 0.884911 0.530913
O O10 0.682464 0.000000 0.216083
O O11 0.500000 0.905663 0.000000
O O12 0.320527 0.325220 0.694461
O O13 0.308920 0.331793 0.964881
O O14 0.500000 0.621260 0.500000
O O15 0.377492 0.500000 0.138021
O O16 0.524251 0.606860 0.246986
O O17 0.853147 0.000000 0.896899
O O18 0.000000 0.899400 0.000000
O O19 0.348529 0.500000 0.701959
#
# Coordination Sequence:
#
# PCOD9150646 Si02
#       7
#     4   4   4   4   4   4   4
#     4  10  20  37  59  82 113 155 202 255 307 362
#     4  12  26  38  56  91 126 161 206 254 306 374
#     4  10  21  38  66 100 122 147 198 258 309 360
#     4  12  22  38  60  87 117 161 203 255 303 362
#     4  10  23  40  58  85 121 162 207 253 305 367
#     4  10  20  41  69  89 117 162 207 254 306 366
#     4  10  20  36  61  86 111 151 206 253 298 361
#
# _framework density 20.274754000000001
#
# number of rings (size 3 to 8) (size 9 to 14) (size 15 to 20)
#    0.000    1.429    2.857    3.000    2.000    2.286 
#    0.000    0.000    0.000    0.429    0.000    0.000 
#    0.000    0.000    0.000    0.000    0.000    0.000 
#
# Total GULP energy -156301.297433 kJ/mol
# GULP energy per Si atom -5582.189194 kJ/mol
# Density = 2.022861 g / cm^3
# Si number density = 20.274754 Si / 1000 Ang^3
#
#
#
# Elastic Constant Matrix: (Units=GPa)
#
#
# Indices 1 2 3 4 5 6 
#
# 1 28.0841 21.8922 9.3661 0.0000 0.7505 0.0000
# 2 21.8922 124.6693 40.2411 0.0000 -15.9521 0.0000
# 3 9.3661 40.2411 94.7252 0.0000 8.6327 0.0000
# 4 0.0000 0.0000 0.0000 22.9062 0.0000 -9.9510
# 5 0.7505 -15.9521 8.6327 0.0000 32.1539 0.0000
# 6 0.0000 0.0000 0.0000 -9.9510 0.0000 -0.2255
#
#
#
# Elastic Compliance Matrix: (Units=1/GPa)
#
#
# Indices 1 2 3 4 5 6 
#
# 1 0.041991 -0.007864 -0.000375 0.000000 -0.004781 0.000000
# 2 -0.007864 0.011966 -0.004985 0.000000 0.007458 0.000000
# 3 -0.000375 -0.004985 0.013261 0.000000 -0.006025 0.000000
# 4 0.000000 0.000000 0.000000 0.002164 0.000000 -0.095511
# 5 -0.004781 0.007458 -0.006025 0.000000 0.036530 0.000000
# 6 0.000000 0.000000 0.000000 -0.095511 0.000000 -0.219858
#
#
# Mechanical properties :
#
#
# Convention : Reuss Voigt Hill
#
# Bulk Modulus (GPa) = 24.52943 43.38639 33.95791
# Shear Modulus (GPa) = -67.65220 22.69889 -22.47666
#
# Velocity S-wave (km/s) = -5.78275 3.34962 -3.33318
# Velocity P-wave (km/s) = 5.69755 6.03371 1.40419
#
# Compressibility (1/GPa) = 0.04076735
#
# Stress axis : x y z
#
# Youngs Moduli (GPa) = 23.81486 83.57187 75.40954
#
# Poissons Ratio (x) = 0.65723 0.02830
# Poissons Ratio (y) = 0.18729 0.37595
# Poissons Ratio (z) = 0.00894 0.41664
#
# Static dielectric constant tensor:
#      x y z
#    x 1.747900 0.000000 0.018630 
#    y 0.000000 1.767420 0.000000 
#    z 0.018630 0.000000 1.743490 
# 
# From -- ./inp_files/35256.got.cif
#   From: 2010.05.17/outbox.cif.g08.bks.cpg/sg10_18_cif.got.tgz:35256.got - 2010.06.03 11:33:40.
