data_PCOD9150127
_publ_section_title
;
Structure prediction by ZEFSAII (Michael W. Deem and Ramdas Pophale) SiO2 
 PCOD9150127
Probable space group: P 2/M
;
_chemical_formula_sum "Si O2"
_cell_formula_units_Z 28
_cell_length_a 21.740031
_cell_length_b 7.632705
_cell_length_c 15.004470
_cell_angle_alpha 90.000000
_cell_angle_beta 29.290010
_cell_angle_gamma 90.000000
_cell_volume 1218.071338
_symmetry_space_group_name_H-M "P 2/M"
_symmetry_group_IT_number 10
_symmetry_cell_setting 'monoclinic'
loop_
_space_group_symop_operation_xyz
x,y,z
-x,y,-z
-x,-y,-z
x,-y,z
loop_
_atom_site_type_symbol
_atom_site_label
_atom_site_fract_x
_atom_site_fract_y
_atom_site_fract_z
Si Si1 0.109771 0.700903 0.925500
Si Si2 0.929612 0.787912 0.825495
Si Si3 0.755476 0.787342 0.893434
Si Si4 0.370706 0.704555 0.207088
Si Si5 0.596031 0.792097 0.455119
Si Si6 0.473069 0.212678 0.260723
Si Si7 0.119503 0.800867 0.438398
O O1 0.124663 0.500000 0.877984
O O2 0.253163 0.772434 0.747500
O O3 0.061906 0.712147 0.087398
O O4 0.000000 0.779159 0.000000
O O5 0.800486 0.747471 0.936361
O O6 0.032604 0.721096 0.624717
O O7 0.939273 0.000000 0.822380
O O8 0.853410 0.724478 0.694022
O O9 0.755718 0.000000 0.885304
O O10 0.613911 0.726654 0.057849
O O11 0.355579 0.500000 0.204167
O O12 0.380324 0.726632 0.300667
O O13 0.256448 0.804818 0.308684
O O14 0.500000 0.768144 0.000000
O O15 0.500000 0.722702 0.500000
O O16 0.561491 0.724183 0.597121
O O17 0.572031 0.000000 0.488352
O O18 0.472625 0.000000 0.260955
O O19 0.072598 0.000000 0.487347
#
# Coordination Sequence:
#
# PCOD9150127 Si02
#       7
#     4   4   4   4   4   4   4
#     4  11  26  45  62  86 125 171 210 252 308 369
#     4  10  21  38  63  91 117 151 198 249 300 351
#     4   9  17  34  60  91 123 150 183 237 297 353
#     4  11  23  37  53  79 119 162 199 239 286 342
#     4  10  22  42  69  98 123 152 202 266 320 367
#     4  10  20  35  61  90 117 151 192 241 299 354
#     4  10  20  35  60  89 118 153 194 240 294 354
#
# _framework density 22.987159999999999
#
# number of rings (size 3 to 8) (size 9 to 14) (size 15 to 20)
#    0.000    1.857    1.429    2.143    2.000    7.143 
#    0.000    2.857    0.000    1.714    0.000    0.000 
#    0.000    0.000    0.000    0.000    0.000    0.000 
#
# Total GULP energy -156372.814919 kJ/mol
# GULP energy per Si atom -5584.743390 kJ/mol
# Density = 2.293484 g / cm^3
# Si number density = 22.987160 Si / 1000 Ang^3
#
#
#
# Elastic Constant Matrix: (Units=GPa)
#
#
# Indices 1 2 3 4 5 6 
#
# 1 174.7869 -3.0900 48.7954 0.0000 11.3013 0.0000
# 2 -3.0900 46.4370 -4.9446 0.0000 -3.4469 0.0000
# 3 48.7954 -4.9446 94.7824 0.0000 10.5912 0.0000
# 4 0.0000 0.0000 0.0000 -18.2421 0.0000 -2.2936
# 5 11.3013 -3.4469 10.5912 0.0000 41.3302 0.0000
# 6 0.0000 0.0000 0.0000 -2.2936 0.0000 17.0380
#
#
#
# Elastic Compliance Matrix: (Units=1/GPa)
#
#
# Indices 1 2 3 4 5 6 
#
# 1 0.006720 0.000018 -0.003349 0.000000 -0.000978 0.000000
# 2 0.000018 0.021753 0.000951 0.000000 0.001566 0.000000
# 3 -0.003349 0.000951 0.012573 0.000000 -0.002227 0.000000
# 4 0.000000 0.000000 0.000000 -0.053906 0.000000 -0.007257
# 5 -0.000978 0.001566 -0.002227 0.000000 0.025164 0.000000
# 6 0.000000 0.000000 0.000000 -0.007257 0.000000 0.057716
#
#
# Mechanical properties :
#
#
# Convention : Reuss Voigt Hill
#
# Bulk Modulus (GPa) = 27.55979 44.16978 35.86479
# Shear Modulus (GPa) = 57.55325 26.37492 41.96408
#
# Velocity S-wave (km/s) = 5.00914 3.39097 4.27727
# Velocity P-wave (km/s) = 6.74319 5.88118 6.32688
#
# Compressibility (1/GPa) = 0.03628474
#
# Stress axis : x y z
#
# Youngs Moduli (GPa) = 148.81388 45.97028 79.53452
#
# Poissons Ratio (x) = -0.00082 0.26638
# Poissons Ratio (y) = -0.00267 -0.07561
# Poissons Ratio (z) = 0.49842 -0.04370
#
# Static dielectric constant tensor:
#      x y z
#    x 1.844820 0.000000 -0.008220 
#    y 0.000000 1.868610 0.000000 
#    z -0.008220 0.000000 1.862540 
# 
# From -- ./inp_files/49643.got.cif
#   From: 2010.05.17/outbox.cif.g08.bks.cpg/sg10_25_cif.got.tgz:49643.got - 2010.06.03 11:33:40.
