data_PCOD9150598
_publ_section_title
;
Structure prediction by ZEFSAII (Michael W. Deem and Ramdas Pophale) SiO2 
 PCOD9150598
Probable space group: P 2/M
;
_chemical_formula_sum "Si O2"
_cell_formula_units_Z 32
_cell_length_a 25.372117
_cell_length_b 7.697162
_cell_length_c 15.706899
_cell_angle_alpha 90.000000
_cell_angle_beta 27.696437
_cell_angle_gamma 90.000000
_cell_volume 1425.711795
_symmetry_space_group_name_H-M "P 2/M"
_symmetry_group_IT_number 10
_symmetry_cell_setting 'monoclinic'
loop_
_space_group_symop_operation_xyz
x,y,z
-x,y,-z
-x,-y,-z
x,-y,z
loop_
_atom_site_type_symbol
_atom_site_label
_atom_site_fract_x
_atom_site_fract_y
_atom_site_fract_z
Si Si1 0.620374 0.790725 0.863625
Si Si2 0.018200 0.709571 0.378528
Si Si3 0.615356 0.701237 0.377931
Si Si4 0.672663 0.199504 0.483367
Si Si5 0.139021 0.291843 0.547443
Si Si6 0.267203 0.793514 0.955816
Si Si7 0.917161 0.700771 0.189418
Si Si8 0.425523 0.212513 0.883642
O O1 0.727753 0.741031 0.653785
O O2 0.616176 0.000000 0.870564
O O3 0.500000 0.728022 0.000000
O O4 0.630882 0.732409 0.946943
O O5 0.008675 0.500000 0.395079
O O6 0.926040 0.775416 0.442652
O O7 0.000000 0.776322 0.500000
O O8 0.142391 0.755117 0.167662
O O9 0.500000 0.771770 0.500000
O O10 0.595123 0.500000 0.429445
O O11 0.650332 0.794268 0.414174
O O12 0.708185 0.712906 0.171124
O O13 0.788164 0.295169 0.340722
O O14 0.556708 0.267726 0.691356
O O15 0.687601 0.000000 0.489599
O O16 0.124715 0.500000 0.570070
O O17 0.087677 0.221211 0.708962
O O18 0.282326 0.000000 0.925598
O O19 0.356656 0.729160 0.899091
O O20 0.954241 0.500000 0.146272
O O21 0.000000 0.780933 0.000000
O O22 0.426010 0.000000 0.880793
#
# Coordination Sequence:
#
# PCOD9150598 Si02
#       8
#     4   4   4   4   4   4   4   4
#     4  10  20  36  60  87 116 152 195 241 298 360
#     4  10  22  40  61  88 123 162 205 254 306 361
#     4  11  23  39  60  89 124 162 201 243 300 368
#     4  11  22  39  63  89 121 155 198 253 304 355
#     4  10  22  40  60  85 119 158 200 251 304 355
#     4  11  22  37  59  87 120 158 203 248 302 360
#     4  10  23  42  61  83 116 161 206 251 305 362
#     4   9  19  35  56  85 121 154 185 240 305 357
#
# _framework density 22.444928999999998
#
# number of rings (size 3 to 8) (size 9 to 14) (size 15 to 20)
#    0.000    1.750    1.250    2.625    1.750    3.250 
#    0.000    1.875    0.000    0.000    0.000    0.000 
#    0.000    0.000    0.000    0.000    0.000    0.000 
#
# Total GULP energy -178939.801613 kJ/mol
# GULP energy per Si atom -5591.868800 kJ/mol
# Density = 2.239384 g / cm^3
# Si number density = 22.444929 Si / 1000 Ang^3
#
#
#
# Elastic Constant Matrix: (Units=GPa)
#
#
# Indices 1 2 3 4 5 6 
#
# 1 94.5301 9.3695 38.4064 0.0000 14.1098 0.0000
# 2 9.3695 39.7151 -4.1553 0.0000 3.6159 0.0000
# 3 38.4064 -4.1553 146.4197 0.0000 17.6184 0.0000
# 4 0.0000 0.0000 0.0000 16.7117 0.0000 5.2069
# 5 14.1098 3.6159 17.6184 0.0000 43.0165 0.0000
# 6 0.0000 0.0000 0.0000 5.2069 0.0000 -4.1846
#
#
#
# Elastic Compliance Matrix: (Units=1/GPa)
#
#
# Indices 1 2 3 4 5 6 
#
# 1 0.012508 -0.003034 -0.003055 0.000000 -0.002597 0.000000
# 2 -0.003034 0.026257 0.001774 0.000000 -0.001939 0.000000
# 3 -0.003055 0.001774 0.007972 0.000000 -0.002412 0.000000
# 4 0.000000 0.000000 0.000000 0.043120 0.000000 0.053656
# 5 -0.002597 -0.001939 -0.002412 0.000000 0.025250 0.000000
# 6 0.000000 0.000000 0.000000 0.053656 0.000000 -0.172209
#
#
# Mechanical properties :
#
#
# Convention : Reuss Voigt Hill
#
# Bulk Modulus (GPa) = 26.24112 40.87847 33.55979
# Shear Modulus (GPa) = -139.77874 26.91168 -56.43353
#
# Velocity S-wave (km/s) = -7.90010 3.46643 -5.01973
# Velocity P-wave (km/s) = 8.45569 5.85438 4.31421
#
# Compressibility (1/GPa) = 0.03810813
#
# Stress axis : x y z
#
# Youngs Moduli (GPa) = 79.94902 38.08471 125.44690
#
# Poissons Ratio (x) = 0.11555 0.38318
# Poissons Ratio (y) = 0.24257 -0.22258
# Poissons Ratio (z) = 0.24421 -0.06757
#
# Static dielectric constant tensor:
#      x y z
#    x 1.824670 0.000000 0.018390 
#    y 0.000000 1.834850 0.000000 
#    z 0.018390 0.000000 1.794450 
# 
# From -- ./inp_files/71488.got.cif
#   From: 2010.05.17/outbox.cif.g08.bks.cpg/sg10_36_cif.got.tgz:71488.got - 2010.06.03 11:33:40.
