data_PCOD9150588
_publ_section_title
;
Structure prediction by ZEFSAII (Michael W. Deem and Ramdas Pophale) SiO2 
 PCOD9150588
Probable space group: P 2/M
;
_chemical_formula_sum "Si O2"
_cell_formula_units_Z 28
_cell_length_a 8.603364
_cell_length_b 33.676513
_cell_length_c 5.025650
_cell_angle_alpha 90.000000
_cell_angle_beta 65.039388
_cell_angle_gamma 90.000000
_cell_volume 1320.086713
_symmetry_space_group_name_H-M "P 2/M"
_symmetry_group_IT_number 10
_symmetry_cell_setting 'monoclinic'
loop_
_space_group_symop_operation_xyz
x,y,z
-x,y,-z
-x,-y,-z
x,-y,z
loop_
_atom_site_type_symbol
_atom_site_label
_atom_site_fract_x
_atom_site_fract_y
_atom_site_fract_z
Si Si1 0.880923 0.679313 0.829973
Si Si2 0.875587 0.043799 0.840554
Si Si3 0.621235 0.748481 0.163611
Si Si4 0.316664 0.831887 0.769216
Si Si5 0.708668 0.455254 0.333004
Si Si6 0.292673 0.404454 0.167568
Si Si7 0.205106 0.121681 0.349442
O O1 0.794202 0.637455 0.821597
O O2 0.000000 0.692498 0.500000
O O3 0.736075 0.711736 0.993865
O O4 0.000000 0.674500 0.000000
O O5 0.754748 0.078736 0.814573
O O6 0.000000 0.038892 0.500000
O O7 0.799333 0.000000 0.957000
O O8 0.000000 0.054922 0.000000
O O9 0.500000 0.737596 0.500000
O O10 0.739917 0.785918 0.167840
O O11 0.500000 0.760416 0.000000
O O12 0.500000 0.826735 0.500000
O O13 0.242990 0.865455 0.623901
O O14 0.294968 0.848206 0.081630
O O15 0.500000 0.457139 0.500000
O O16 0.771975 0.500000 0.331215
O O17 0.759795 0.423086 0.514358
O O18 0.755357 0.437412 0.015616
O O19 0.500000 0.399569 0.000000
O O20 0.000000 0.125003 0.500000
#
# Coordination Sequence:
#
# PCOD9150588 Si02
#       7
#     4   4   4   4   4   4   4
#     4  12  26  42  63  93 126 157 195 252 310 354
#     4   9  17  31  53  84 119 155 200 250 293 338
#     4  11  24  45  67  87 115 157 205 242 291 367
#     4  11  23  40  60  86 120 157 191 239 303 363
#     4   9  17  31  56  89 117 148 201 257 289 325
#     4  10  20  36  60  86 118 160 200 240 293 359
#     4  11  21  36  60  89 118 154 201 248 292 346
#
# _framework density 21.210729000000001
#
# number of rings (size 3 to 8) (size 9 to 14) (size 15 to 20)
#    0.000    1.571    0.000    6.857    0.000    5.143 
#    0.000    0.000    0.000   11.143    0.000    0.000 
#    0.000    0.000    0.000    0.000    0.000    0.000 
#
# Total GULP energy -156150.246311 kJ/mol
# GULP energy per Si atom -5576.794511 kJ/mol
# Density = 2.116245 g / cm^3
# Si number density = 21.210729 Si / 1000 Ang^3
#
#
#
# Elastic Constant Matrix: (Units=GPa)
#
#
# Indices 1 2 3 4 5 6 
#
# 1 52.0951 36.5064 19.8416 0.0000 24.1067 0.0000
# 2 36.5064 156.1424 15.5034 0.0000 -3.1524 0.0000
# 3 19.8416 15.5034 102.0319 0.0000 15.4913 0.0000
# 4 0.0000 0.0000 0.0000 22.7327 0.0000 8.6366
# 5 24.1067 -3.1524 15.4913 0.0000 33.9349 0.0000
# 6 0.0000 0.0000 0.0000 8.6366 0.0000 29.9405
#
#
#
# Elastic Compliance Matrix: (Units=1/GPa)
#
#
# Indices 1 2 3 4 5 6 
#
# 1 0.039828 -0.009687 -0.001978 0.000000 -0.028290 0.000000
# 2 -0.009687 0.008899 -0.000686 0.000000 0.008021 0.000000
# 3 -0.001978 -0.000686 0.010837 0.000000 -0.003606 0.000000
# 4 0.000000 0.000000 0.000000 0.049404 0.000000 -0.014251
# 5 -0.028290 0.008021 -0.003606 0.000000 0.051956 0.000000
# 6 0.000000 0.000000 0.000000 -0.014251 0.000000 0.037510
#
#
# Mechanical properties :
#
#
# Convention : Reuss Voigt Hill
#
# Bulk Modulus (GPa) = 28.68419 50.44136 39.56277
# Shear Modulus (GPa) = 21.29855 33.21614 27.25734
#
# Velocity S-wave (km/s) = 3.17225 3.96157 3.58868
# Velocity P-wave (km/s) = 5.19330 6.69015 5.98868
#
# Compressibility (1/GPa) = 0.03486241
#
# Stress axis : x y z
#
# Youngs Moduli (GPa) = 25.10791 112.36892 92.27417
#
# Poissons Ratio (x) = 1.08848 0.18253
# Poissons Ratio (y) = 0.24321 0.06333
# Poissons Ratio (z) = 0.04967 0.07712
#
# Static dielectric constant tensor:
#      x y z
#    x 1.817620 0.000000 0.011160 
#    y 0.000000 1.830640 0.000000 
#    z 0.011160 0.000000 1.717510 
# 
# From -- ./inp_files/5493.got.cif
#   From: 2010.05.17/outbox.cif.g08.bks.cpg/sg10_3_cif.got.tgz:5493.got - 2010.06.03 11:33:40.
