data_PCOD9150146
_publ_section_title
;
Structure prediction by ZEFSAII (Michael W. Deem and Ramdas Pophale) SiO2 
 PCOD9150146
Probable space group: P 2/M
;
_chemical_formula_sum "Si O2"
_cell_formula_units_Z 18
_cell_length_a 7.878587
_cell_length_b 19.429446
_cell_length_c 5.524524
_cell_angle_alpha 90.000000
_cell_angle_beta 59.874976
_cell_angle_gamma 90.000000
_cell_volume 731.451836
_symmetry_space_group_name_H-M "P 2/M"
_symmetry_group_IT_number 10
_symmetry_cell_setting 'monoclinic'
loop_
_space_group_symop_operation_xyz
x,y,z
-x,y,-z
-x,-y,-z
x,-y,z
loop_
_atom_site_type_symbol
_atom_site_label
_atom_site_fract_x
_atom_site_fract_y
_atom_site_fract_z
Si Si1 0.215542 0.077907 0.221709
Si Si2 0.238747 0.579623 0.818038
Si Si3 0.326197 0.794942 0.434813
Si Si4 0.237412 0.653165 0.316113
Si Si5 0.000000 0.839479 0.000000
O O1 0.337824 0.131529 0.293346
O O2 0.165258 0.112297 0.001597
O O3 0.000000 0.075299 0.500000
O O4 0.286546 0.000000 0.154882
O O5 0.298777 0.500000 0.777138
O O6 0.298610 0.615904 0.523526
O O7 0.299269 0.616985 0.022739
O O8 0.000000 0.580626 0.000000
O O9 0.500000 0.785884 0.500000
O O10 0.310862 0.731381 0.266256
O O11 0.116726 0.794815 0.723804
O O12 0.000000 0.652494 0.500000
#
# Coordination Sequence:
#
# PCOD9150146 Si02
#       5
#     4   4   4   4   2
#     4   9  19  38  63  91 123 162 211 264 322 383
#     4   9  18  33  59  93 125 163 214 266 323 388
#     4  11  25  40  60  92 127 167 215 263 319 386
#     4  10  20  35  61  89 129 168 213 268 323 384
#     4  10  21  40  66  86 123 164 212 266 323 384
#
# _framework density 24.608592999999999
#
# number of rings (size 3 to 8) (size 9 to 14) (size 15 to 20)
#    0.000    2.222    0.000    3.000    7.778    4.889 
#    0.000    1.111    0.000    4.000    0.000    0.000 
#    0.000    0.000    0.000    0.000    0.000    0.000 
#
# Total GULP energy -100867.141768 kJ/mol
# GULP energy per Si atom -5603.730098 kJ/mol
# Density = 2.455258 g / cm^3
# Si number density = 24.608593 Si / 1000 Ang^3
#
#
#
# Elastic Constant Matrix: (Units=GPa)
#
#
# Indices 1 2 3 4 5 6 
#
# 1 120.8394 49.5054 49.2661 0.0000 18.6210 0.0000
# 2 49.5054 166.1360 64.9371 0.0000 26.0110 0.0000
# 3 49.2661 64.9371 152.0624 0.0000 5.1987 0.0000
# 4 0.0000 0.0000 0.0000 10.5337 0.0000 22.7682
# 5 18.6210 26.0110 5.1987 0.0000 56.1048 0.0000
# 6 0.0000 0.0000 0.0000 22.7682 0.0000 -13.2166
#
#
#
# Elastic Compliance Matrix: (Units=1/GPa)
#
#
# Indices 1 2 3 4 5 6 
#
# 1 0.010392 -0.001722 -0.002549 0.000000 -0.002414 0.000000
# 2 -0.001722 0.008081 -0.002793 0.000000 -0.002916 0.000000
# 3 -0.002549 -0.002793 0.008549 0.000000 0.001349 0.000000
# 4 0.000000 0.000000 0.000000 0.020098 0.000000 0.034623
# 5 -0.002414 -0.002916 0.001349 0.000000 0.019852 0.000000
# 6 0.000000 0.000000 0.000000 0.034623 0.000000 -0.016018
#
#
# Mechanical properties :
#
#
# Convention : Reuss Voigt Hill
#
# Bulk Modulus (GPa) = 77.56176 85.16167 81.36172
# Shear Modulus (GPa) = 72.06718 29.03966 50.55342
#
# Velocity S-wave (km/s) = 5.41747 3.43893 4.53736
# Velocity P-wave (km/s) = 8.40943 7.10281 7.78359
#
# Compressibility (1/GPa) = 0.01289295
#
# Stress axis : x y z
#
# Youngs Moduli (GPa) = 96.22492 123.75252 116.97704
#
# Poissons Ratio (x) = 0.21315 0.29816
# Poissons Ratio (y) = 0.16574 0.32672
# Poissons Ratio (z) = 0.24526 0.34565
#
# Static dielectric constant tensor:
#      x y z
#    x 1.972080 0.000000 -0.002890 
#    y 0.000000 1.883060 0.000000 
#    z -0.002890 0.000000 1.946560 
# 
# From -- ./inp_files/4038.got.cif
#   From: 2010.05.17/outbox.cif.g08.bks.cpg/sg10_3_cif.got.tgz:4038.got - 2010.06.03 11:33:40.
