data_PCOD9150302
_publ_section_title
;
Structure prediction by ZEFSAII (Michael W. Deem and Ramdas Pophale) SiO2 
 PCOD9150302
Probable space group: P 2/M
;
_chemical_formula_sum "Si O2"
_cell_formula_units_Z 32
_cell_length_a 12.638597
_cell_length_b 16.902815
_cell_length_c 15.930499
_cell_angle_alpha 90.000000
_cell_angle_beta 29.346854
_cell_angle_gamma 90.000000
_cell_volume 1667.892037
_symmetry_space_group_name_H-M "P 2/M"
_symmetry_group_IT_number 10
_symmetry_cell_setting 'monoclinic'
loop_
_space_group_symop_operation_xyz
x,y,z
-x,y,-z
-x,-y,-z
x,-y,z
loop_
_atom_site_type_symbol
_atom_site_label
_atom_site_fract_x
_atom_site_fract_y
_atom_site_fract_z
Si Si1 0.816301 0.588749 0.934172
Si Si2 0.427341 0.087743 0.953245
Si Si3 0.248428 0.306375 0.173667
Si Si4 0.016000 0.181564 0.211907
Si Si5 0.227680 0.786713 0.348883
Si Si6 0.687386 0.586230 0.439230
Si Si7 0.628431 0.753958 0.565448
Si Si8 0.177081 0.724143 0.943497
O O1 0.736225 0.500000 0.004695
O O2 0.779042 0.614140 0.862501
O O3 0.075723 0.589983 0.765713
O O4 0.732497 0.654077 0.058201
O O5 0.572259 0.156794 0.812657
O O6 0.473417 0.000000 0.887196
O O7 0.500000 0.088140 0.000000
O O8 0.172729 0.106965 0.118065
O O9 0.120693 0.244200 0.204871
O O10 0.196905 0.286977 0.305905
O O11 0.500000 0.288400 0.000000
O O12 0.763310 0.186912 0.411364
O O13 0.062648 0.215369 0.087035
O O14 0.269416 0.760570 0.413697
O O15 0.000000 0.832364 0.500000
O O16 0.500000 0.588556 0.500000
O O17 0.673705 0.500000 0.492289
O O18 0.662852 0.664636 0.510068
O O19 0.372921 0.763650 0.756699
O O20 0.000000 0.693642 0.000000
#
# Coordination Sequence:
#
# PCOD9150302 Si02
#       8
#     4   4   4   4   4   4   4   4
#     4  10  21  38  54  79 120 157 197 251 307 354
#     4  11  21  37  61  90 127 161 189 240 305 359
#     4  11  18  34  57  77 113 158 199 241 285 344
#     4  11  20  40  58  87 119 153 197 242 295 357
#     4  12  19  33  57  90 124 156 204 243 284 356
#     4  10  20  36  57  82 116 154 196 257 312 344
#     4  12  22  35  63  87 117 160 202 246 297 355
#     4  11  23  37  61  90 112 150 204 254 299 352
#
# _framework density 19.185894000000001
#
# number of rings (size 3 to 8) (size 9 to 14) (size 15 to 20)
#    0.000    1.000    7.500    1.500    0.000    1.250 
#    0.000    1.250    0.000    2.625    0.000    0.875 
#    0.000    0.000    0.000    0.000    0.000    0.000 
#
# Total GULP energy -178257.342928 kJ/mol
# GULP energy per Si atom -5570.541966 kJ/mol
# Density = 1.914223 g / cm^3
# Si number density = 19.185894 Si / 1000 Ang^3
#
#
#
# Elastic Constant Matrix: (Units=GPa)
#
#
# Indices 1 2 3 4 5 6 
#
# 1 42.5858 34.0221 21.6190 0.0000 2.4127 0.0000
# 2 34.0221 65.4766 18.4219 0.0000 6.8337 0.0000
# 3 21.6190 18.4219 119.4583 0.0000 -5.0827 0.0000
# 4 0.0000 0.0000 0.0000 2.9976 0.0000 -5.9145
# 5 2.4127 6.8337 -5.0827 0.0000 16.7718 0.0000
# 6 0.0000 0.0000 0.0000 -5.9145 0.0000 13.1546
#
#
#
# Elastic Compliance Matrix: (Units=1/GPa)
#
#
# Indices 1 2 3 4 5 6 
#
# 1 0.042324 -0.020868 -0.004395 0.000000 0.001082 0.000000
# 2 -0.020868 0.027201 -0.000772 0.000000 -0.008315 0.000000
# 3 -0.004395 -0.000772 0.009448 0.000000 0.003810 0.000000
# 4 0.000000 0.000000 0.000000 2.954943 0.000000 1.328579
# 5 0.001082 -0.008315 0.003810 0.000000 0.064011 0.000000
# 6 0.000000 0.000000 0.000000 1.328579 0.000000 0.673365
#
#
# Mechanical properties :
#
#
# Convention : Reuss Voigt Hill
#
# Bulk Modulus (GPa) = 37.17248 41.73852 39.45550
# Shear Modulus (GPa) = 1.30469 16.81533 9.06001
#
# Velocity S-wave (km/s) = 0.82553 2.96369 2.17543
# Velocity P-wave (km/s) = 4.50840 5.78907 5.18840
#
# Compressibility (1/GPa) = 0.02690162
#
# Stress axis : x y z
#
# Youngs Moduli (GPa) = 23.62750 36.76363 105.84568
#
# Poissons Ratio (x) = 0.76718 0.46523
# Poissons Ratio (y) = 0.49306 0.08170
# Poissons Ratio (z) = 0.10385 0.02838
#
# Static dielectric constant tensor:
#      x y z
#    x 1.613340 0.000000 -0.029890 
#    y 0.000000 1.682570 0.000000 
#    z -0.029890 0.000000 1.767080 
# 
# From -- ./inp_files/65392.got.cif
#   From: 2010.05.17/outbox.cif.g08.bks.cpg/sg10_33_cif.got.tgz:65392.got - 2010.06.03 11:33:40.
