data_PCOD9150059
_publ_section_title
;
Structure prediction by ZEFSAII (Michael W. Deem and Ramdas Pophale) SiO2 
 PCOD9150059
Probable space group: P 2/M
;
_chemical_formula_sum "Si O2"
_cell_formula_units_Z 24
_cell_length_a 20.078825
_cell_length_b 14.599617
_cell_length_c 11.448532
_cell_angle_alpha 90.000000
_cell_angle_beta 160.360491
_cell_angle_gamma 90.000000
_cell_volume 1127.975041
_symmetry_space_group_name_H-M "P 2/M"
_symmetry_group_IT_number 10
_symmetry_cell_setting 'monoclinic'
loop_
_space_group_symop_operation_xyz
x,y,z
-x,y,-z
-x,-y,-z
x,-y,z
loop_
_atom_site_type_symbol
_atom_site_label
_atom_site_fract_x
_atom_site_fract_y
_atom_site_fract_z
Si Si1 0.673543 0.692734 0.538557
Si Si2 0.220643 0.000000 0.818918
Si Si3 0.738013 0.000000 0.387090
Si Si4 0.836348 0.500000 0.088562
Si Si5 0.636568 0.187731 0.840081
Si Si6 0.459415 0.500000 0.625985
Si Si7 0.264220 0.796481 0.589340
Si Si8 0.043519 0.301401 0.766809
O O1 0.486944 0.751049 0.274647
O O2 0.594812 0.590226 0.392446
O O3 0.764221 0.736012 0.572847
O O4 0.825698 0.694539 0.898118
O O5 0.000000 0.000000 0.500000
O O6 0.212326 0.000000 0.666755
O O7 0.323607 0.090729 0.036540
O O8 0.807279 0.901431 0.549399
O O9 0.500000 0.000000 0.000000
O O10 0.681905 0.500000 0.941655
O O11 0.687254 0.500000 0.729856
O O12 0.961108 0.405977 0.286987
O O13 0.500000 0.176188 0.500000
O O14 0.833107 0.240155 0.121128
O O15 0.153931 0.749655 0.516772
O O16 0.500000 0.799406 0.000000
#
# Coordination Sequence:
#
# PCOD9150059 Si02
#       8
#     4   2   2   2   4   2   4   4
#     4  10  20  36  61  88 115 148 192 238 284 341
#     4  12  23  37  58  83 112 153 196 234 283 352
#     4  10  22  41  59  75 105 159 201 230 276 342
#     4   9  16  33  61  88 118 150 185 228 285 354
#     4  10  20  35  58  88 116 142 185 247 296 331
#     4   9  16  33  61  90 114 150 189 230 285 344
#     4  11  23  40  58  81 115 156 200 237 282 341
#     4  10  20  36  60  89 117 148 188 236 290 339
#
# _framework density 21.277066999999999
#
# number of rings (size 3 to 8) (size 9 to 14) (size 15 to 20)
#    0.000    1.833    1.667    3.750    0.000    0.667 
#    0.000    7.500    0.000    1.000    0.000    0.000 
#    0.000    0.000    0.000    0.000    0.000    0.000 
#
# Total GULP energy -134203.661900 kJ/mol
# GULP energy per Si atom -5591.819246 kJ/mol
# Density = 2.122864 g / cm^3
# Si number density = 21.277067 Si / 1000 Ang^3
#
#
#
# Elastic Constant Matrix: (Units=GPa)
#
#
# Indices 1 2 3 4 5 6 
#
# 1 90.6280 44.9576 20.3724 0.0000 22.1936 0.0000
# 2 44.9576 211.7446 35.4864 0.0000 13.4105 0.0000
# 3 20.3724 35.4864 57.2115 0.0000 14.8945 0.0000
# 4 0.0000 0.0000 0.0000 6.1920 0.0000 13.8450
# 5 22.1936 13.4105 14.8945 0.0000 39.1157 0.0000
# 6 0.0000 0.0000 0.0000 13.8450 0.0000 79.5822
#
#
#
# Elastic Compliance Matrix: (Units=1/GPa)
#
#
# Indices 1 2 3 4 5 6 
#
# 1 0.014201 -0.002275 -0.001944 0.000000 -0.006537 0.000000
# 2 -0.002275 0.005649 -0.002803 0.000000 0.000422 0.000000
# 3 -0.001944 -0.002803 0.021504 0.000000 -0.006125 0.000000
# 4 0.000000 0.000000 0.000000 0.264316 0.000000 -0.045983
# 5 -0.006537 0.000422 -0.006125 0.000000 0.031462 0.000000
# 6 0.000000 0.000000 0.000000 -0.045983 0.000000 0.020565
#
#
# Mechanical properties :
#
#
# Convention : Reuss Voigt Hill
#
# Bulk Modulus (GPa) = 36.61747 62.35744 49.48745
# Shear Modulus (GPa) = 13.12871 42.22915 27.67893
#
# Velocity S-wave (km/s) = 2.48671 4.45986 3.61069
# Velocity P-wave (km/s) = 5.04898 7.47606 6.37901
#
# Compressibility (1/GPa) = 0.02730937
#
# Stress axis : x y z
#
# Youngs Moduli (GPa) = 70.41977 177.02631 46.50206
#
# Poissons Ratio (x) = 0.40279 0.09038
# Poissons Ratio (y) = 0.16023 0.13036
# Poissons Ratio (z) = 0.13686 0.49628
#
# Static dielectric constant tensor:
#      x y z
#    x 1.726350 0.000000 -0.024020 
#    y 0.000000 1.737780 0.000000 
#    z -0.024020 0.000000 1.820860 
# 
# From -- ./inp_files/56077.got.cif
#   From: 2010.05.17/outbox.cif.g08.bks.cpg/sg10_29_cif.got.tgz:56077.got - 2010.06.03 11:33:40.
