data_PCOD9150182
_publ_section_title
;
Structure prediction by ZEFSAII (Michael W. Deem and Ramdas Pophale) SiO2 
 PCOD9150182
Probable space group: P 2/M
;
_chemical_formula_sum "Si O2"
_cell_formula_units_Z 32
_cell_length_a 24.449934
_cell_length_b 7.712205
_cell_length_c 26.022857
_cell_angle_alpha 90.000000
_cell_angle_beta 17.459095
_cell_angle_gamma 90.000000
_cell_volume 1472.205522
_symmetry_space_group_name_H-M "P 2/M"
_symmetry_group_IT_number 10
_symmetry_cell_setting 'monoclinic'
loop_
_space_group_symop_operation_xyz
x,y,z
-x,y,-z
-x,-y,-z
x,-y,z
loop_
_atom_site_type_symbol
_atom_site_label
_atom_site_fract_x
_atom_site_fract_y
_atom_site_fract_z
Si Si1 0.686749 0.198971 0.686445
Si Si2 0.383504 0.787992 0.877150
Si Si3 0.199089 0.288287 0.799492
Si Si4 0.686203 0.300255 0.801564
Si Si5 0.407854 0.707402 0.511172
Si Si6 0.652334 0.208316 0.552211
Si Si7 0.960383 0.204443 0.760604
Si Si8 0.915610 0.695465 0.687885
O O1 0.517629 0.258363 0.803984
O O2 0.656228 0.208181 0.774527
O O3 0.868286 0.303287 0.511942
O O4 0.725531 0.000000 0.636191
O O5 0.477489 0.727416 0.740627
O O6 0.374415 0.000000 0.884583
O O7 0.183671 0.722172 0.069808
O O8 0.191571 0.500000 0.807105
O O9 0.382340 0.233558 0.666645
O O10 0.261489 0.233462 0.685681
O O11 0.000000 0.230374 0.000000
O O12 0.739361 0.500000 0.741582
O O13 0.832803 0.223807 0.710224
O O14 0.500000 0.300876 0.000000
O O15 0.414129 0.500000 0.511088
O O16 0.350939 0.750958 0.504690
O O17 0.836980 0.276001 0.413517
O O18 0.649450 0.000000 0.560130
O O19 0.881529 0.223881 0.773933
O O20 0.975930 0.000000 0.756187
O O21 0.841572 0.500000 0.756068
#
# Coordination Sequence:
#
# PCOD9150182 Si02
#       8
#     4   4   4   4   4   4   4   4
#     4  11  21  36  57  79 103 136 182 225 268 328
#     4   9  19  36  56  78 103 138 182 224 268 321
#     4   8  15  31  54  78 109 146 179 219 266 306
#     4  10  22  38  53  75 108 139 170 219 283 338
#     4   9  18  32  53  81 107 139 185 223 257 309
#     4  10  20  36  54  77 112 146 176 218 275 320
#     4  10  20  37  59  77 102 141 184 225 267 321
#     4  11  22  36  55  78 106 137 173 219 277 335
#
# _framework density 21.736097000000001
#
# number of rings (size 3 to 8) (size 9 to 14) (size 15 to 20)
#    0.000    2.250    1.250    2.625    0.000    4.250 
#    0.000    2.500    0.000    0.750    0.000    0.000 
#    0.000    0.000    0.000    0.000    0.000    0.000 
#
# Total GULP energy -178538.187183 kJ/mol
# GULP energy per Si atom -5579.318349 kJ/mol
# Density = 2.168662 g / cm^3
# Si number density = 21.736097 Si / 1000 Ang^3
#
#
#
# Elastic Constant Matrix: (Units=GPa)
#
#
# Indices 1 2 3 4 5 6 
#
# 1 88.8681 -3.3966 21.2700 0.0000 26.2130 0.0000
# 2 -3.3966 32.2898 7.7665 0.0000 -2.6259 0.0000
# 3 21.2700 7.7665 121.9970 0.0000 25.3998 0.0000
# 4 0.0000 0.0000 0.0000 10.9860 0.0000 6.5994
# 5 26.2130 -2.6259 25.3998 0.0000 25.2863 0.0000
# 6 0.0000 0.0000 0.0000 6.5994 0.0000 20.2079
#
#
#
# Elastic Compliance Matrix: (Units=1/GPa)
#
#
# Indices 1 2 3 4 5 6 
#
# 1 0.016279 0.000068 0.000847 0.000000 -0.017719 0.000000
# 2 0.000068 0.032368 -0.003487 0.000000 0.006793 0.000000
# 3 0.000847 -0.003487 0.010785 0.000000 -0.012073 0.000000
# 4 0.000000 0.000000 0.000000 0.113240 0.000000 -0.036982
# 5 -0.017719 0.006793 -0.012073 0.000000 0.070748 0.000000
# 6 0.000000 0.000000 0.000000 -0.036982 0.000000 0.061563
#
#
# Mechanical properties :
#
#
# Convention : Reuss Voigt Hill
#
# Bulk Modulus (GPa) = 18.42062 32.71497 25.56779
# Shear Modulus (GPa) = 15.23350 25.79704 20.51527
#
# Velocity S-wave (km/s) = 2.65021 3.44878 3.07552
# Velocity P-wave (km/s) = 4.22586 5.56259 4.93965
#
# Compressibility (1/GPa) = 0.05428700
#
# Stress axis : x y z
#
# Youngs Moduli (GPa) = 61.42845 30.89488 92.72215
#
# Poissons Ratio (x) = -0.00210 -0.07849
# Poissons Ratio (y) = -0.00417 0.32331
# Poissons Ratio (z) = -0.05200 0.10772
#
# Static dielectric constant tensor:
#      x y z
#    x 1.792970 0.000000 0.000460 
#    y 0.000000 1.804480 0.000000 
#    z 0.000460 0.000000 1.812140 
# 
# From -- ./inp_files/90622.got.cif
#   From: 2010.05.17/outbox.cif.g08.bks.cpg/sg10_46_cif.got.tgz:90622.got - 2010.06.03 11:33:40.
