data_PCOD9150337
_publ_section_title
;
Structure prediction by ZEFSAII (Michael W. Deem and Ramdas Pophale) SiO2 
 PCOD9150337
Probable space group: P 2/M
;
_chemical_formula_sum "Si O2"
_cell_formula_units_Z 28
_cell_length_a 12.763409
_cell_length_b 8.711643
_cell_length_c 15.362358
_cell_angle_alpha 90.000000
_cell_angle_beta 74.215852
_cell_angle_gamma 90.000000
_cell_volume 1643.736105
_symmetry_space_group_name_H-M "P 2/M"
_symmetry_group_IT_number 10
_symmetry_cell_setting 'monoclinic'
loop_
_space_group_symop_operation_xyz
x,y,z
-x,y,-z
-x,-y,-z
x,-y,z
loop_
_atom_site_type_symbol
_atom_site_label
_atom_site_fract_x
_atom_site_fract_y
_atom_site_fract_z
Si Si1 0.762348 0.184739 0.582466
Si Si2 0.085484 0.682872 0.096303
Si Si3 0.700804 0.682982 0.273575
Si Si4 0.872829 0.316875 0.387226
Si Si5 0.147927 0.817136 0.903037
Si Si6 0.896087 0.183097 0.722593
Si Si7 0.514480 0.815233 0.598191
O O1 0.831009 0.263868 0.490641
O O2 0.811765 0.223016 0.665177
O O3 0.635792 0.226857 0.600926
O O4 0.771023 0.000000 0.568840
O O5 0.084794 0.500000 0.088851
O O6 0.126858 0.735439 0.180798
O O7 0.961507 0.743725 0.113644
O O8 0.150611 0.755941 0.001061
O O9 0.703898 0.500000 0.261196
O O10 0.780119 0.721924 0.337049
O O11 0.751206 0.763900 0.177846
O O12 0.580611 0.738228 0.324933
O O13 0.889576 0.500000 0.381664
O O14 0.984541 0.234596 0.336338
O O15 0.136877 0.000000 0.905046
O O16 0.895136 0.000000 0.735594
O O17 0.500000 0.772232 0.500000
O O18 0.503224 0.000000 0.606642
#
# Coordination Sequence:
#
# PCOD9150337 Si02
#       7
#     4   4   4   4   4   4   4
#     4  10  22  38  55  78 109 147 190 233 272 322
#     4  11  21  35  55  81 114 144 177 224 275 326
#     4  11  22  35  54  82 115 145 179 227 277 321
#     4  11  22  34  52  79 113 148 183 225 276 328
#     4  11  21  35  57  83 110 144 182 221 272 328
#     4  11  22  36  55  79 111 149 187 225 273 330
#     4  10  20  36  58  79 105 143 189 232 273 321
#
# _framework density 17.034364
#
# number of rings (size 3 to 8) (size 9 to 14) (size 15 to 20)
#    0.000    1.286    2.857    5.143    0.000    4.857 
#    0.000    0.000    0.000    0.857    0.000    6.000 
#    0.000    0.000    0.000    0.000    0.000    0.000 
#
# Total GULP energy -156501.738571 kJ/mol
# GULP energy per Si atom -5589.347806 kJ/mol
# Density = 1.699559 g / cm^3
# Si number density = 17.034364 Si / 1000 Ang^3
#
#
#
# Elastic Constant Matrix: (Units=GPa)
#
#
# Indices 1 2 3 4 5 6 
#
# 1 66.8491 25.1539 42.1555 0.0000 10.4226 0.0000
# 2 25.1539 69.2079 46.3979 0.0000 3.6004 0.0000
# 3 42.1555 46.3979 131.6887 0.0000 1.5716 0.0000
# 4 0.0000 0.0000 0.0000 43.7168 0.0000 -13.4953
# 5 10.4226 3.6004 1.5716 0.0000 23.5536 0.0000
# 6 0.0000 0.0000 0.0000 -13.4953 0.0000 27.6619
#
#
#
# Elastic Compliance Matrix: (Units=1/GPa)
#
#
# Indices 1 2 3 4 5 6 
#
# 1 0.020998 -0.003609 -0.005350 0.000000 -0.008383 0.000000
# 2 -0.003609 0.019680 -0.005766 0.000000 -0.001027 0.000000
# 3 -0.005350 -0.005766 0.011308 0.000000 0.002494 0.000000
# 4 0.000000 0.000000 0.000000 0.026930 0.000000 0.013138
# 5 -0.008383 -0.001027 0.002494 0.000000 0.046156 0.000000
# 6 0.000000 0.000000 0.000000 0.013138 0.000000 0.042561
#
#
# Mechanical properties :
#
#
# Convention : Reuss Voigt Hill
#
# Bulk Modulus (GPa) = 44.37459 55.01781 49.69620
# Shear Modulus (GPa) = 24.43836 29.25567 26.84702
#
# Velocity S-wave (km/s) = 3.79179 4.14871 3.97426
# Velocity P-wave (km/s) = 6.72880 7.43756 7.09204
#
# Compressibility (1/GPa) = 0.02253542
#
# Stress axis : x y z
#
# Youngs Moduli (GPa) = 47.62389 50.81266 88.43092
#
# Poissons Ratio (x) = 0.18337 0.47312
# Poissons Ratio (y) = 0.17187 0.50993
# Poissons Ratio (z) = 0.25480 0.29301
#
# Static dielectric constant tensor:
#      x y z
#    x 1.554690 0.000000 0.012560 
#    y 0.000000 1.571440 0.000000 
#    z 0.012560 0.000000 1.564870 
# 
# From -- ./inp_files/49184.got.cif
#   From: 2010.05.17/outbox.cif.g08.bks.cpg/sg10_25_cif.got.tgz:49184.got - 2010.06.03 11:33:40.
