data_PCOD9150042
_publ_section_title
;
Structure prediction by ZEFSAII (Michael W. Deem and Ramdas Pophale) SiO2 
 PCOD9150042
Probable space group: P 2/M
;
_chemical_formula_sum "Si O2"
_cell_formula_units_Z 28
_cell_length_a 22.323242
_cell_length_b 7.423395
_cell_length_c 20.856880
_cell_angle_alpha 90.000000
_cell_angle_beta 159.432245
_cell_angle_gamma 90.000000
_cell_volume 1214.243034
_symmetry_space_group_name_H-M "P 2/M"
_symmetry_group_IT_number 10
_symmetry_cell_setting 'monoclinic'
loop_
_space_group_symop_operation_xyz
x,y,z
-x,y,-z
-x,-y,-z
x,-y,z
loop_
_atom_site_type_symbol
_atom_site_label
_atom_site_fract_x
_atom_site_fract_y
_atom_site_fract_z
Si Si1 0.961375 0.795058 0.530541
Si Si2 0.207932 0.284053 0.276685
Si Si3 0.193120 0.281174 0.985676
Si Si4 0.795537 0.716089 0.864717
Si Si5 0.288977 0.282180 0.940593
Si Si6 0.652270 0.290940 0.310925
Si Si7 0.206545 0.720567 0.414211
O O1 0.810606 0.715184 0.421957
O O2 0.000000 0.710974 0.500000
O O3 0.132791 0.792094 0.743868
O O4 0.906468 0.000000 0.463706
O O5 0.236356 0.500000 0.304310
O O6 0.268797 0.213932 0.268492
O O7 0.272454 0.218858 0.410400
O O8 0.001777 0.258713 0.071609
O O9 0.200275 0.500000 0.994872
O O10 0.278284 0.227835 0.004654
O O11 0.993409 0.231745 0.781162
O O12 0.264207 0.217171 0.125614
O O13 0.766618 0.500000 0.834954
O O14 0.268029 0.500000 0.915843
O O15 0.475571 0.222524 0.104789
O O16 0.615956 0.500000 0.288145
O O17 0.701847 0.213077 0.430003
O O18 0.212123 0.500000 0.419395
#
# Coordination Sequence:
#
# PCOD9150042 Si02
#       7
#     4   4   4   4   4   4   4
#     4  11  25  43  61  81 108 141 174 214 265 321
#     4   7   9  13  25  51  88 130 172 208 247 299
#     4   8  12  21  40  65  97 136 174 214 258 303
#     4   7   9  13  25  51  88 130 172 208 247 299
#     4  10  20  35  58  86 113 142 178 220 265 315
#     4  10  20  35  58  86 113 142 178 220 265 315
#     4   8  12  21  40  65  97 136 174 214 258 303
#
# _framework density 23.059633000000002
#
# number of rings (size 3 to 8) (size 9 to 14) (size 15 to 20)
#    0.000    3.286    1.429    3.000    0.000    2.286 
#    0.000    2.857    0.000    0.857    0.000    6.000 
#    0.000    2.286    0.000    2.571    0.000    2.857 
#
# Total GULP energy -156102.049170 kJ/mol
# GULP energy per Si atom -5575.073185 kJ/mol
# Density = 2.300715 g / cm^3
# Si number density = 23.059633 Si / 1000 Ang^3
#
#
#
# Elastic Constant Matrix: (Units=GPa)
#
#
# Indices 1 2 3 4 5 6 
#
# 1 127.3608 -5.7237 70.2681 0.0000 -32.6581 0.0000
# 2 -5.7237 65.2161 -6.3604 0.0000 -1.4230 0.0000
# 3 70.2681 -6.3604 60.6948 0.0000 22.7240 0.0000
# 4 0.0000 0.0000 0.0000 7.8310 0.0000 -13.3506
# 5 -32.6581 -1.4230 22.7240 0.0000 12.7626 0.0000
# 6 0.0000 0.0000 0.0000 -13.3506 0.0000 14.3347
#
#
#
# Elastic Compliance Matrix: (Units=1/GPa)
#
#
# Indices 1 2 3 4 5 6 
#
# 1 -0.001291 0.000299 0.008249 0.000000 -0.017958 0.000000
# 2 0.000299 0.015475 0.001026 0.000000 0.000664 0.000000
# 3 0.008249 0.001026 -0.002738 0.000000 0.026099 0.000000
# 4 0.000000 0.000000 0.000000 -0.217249 0.000000 -0.202334
# 5 -0.017958 0.000664 0.026099 0.000000 -0.013993 0.000000
# 6 0.000000 0.000000 0.000000 -0.202334 0.000000 -0.118682
#
#
# Mechanical properties :
#
#
# Convention : Reuss Voigt Hill
#
# Bulk Modulus (GPa) = 32.68465 41.07107 36.87786
# Shear Modulus (GPa) = -14.39133 19.99151 2.80009
#
# Velocity S-wave (km/s) = -2.50089 2.94759 1.10314
# Velocity P-wave (km/s) = 2.42187 5.42530 4.20115
#
# Compressibility (1/GPa) = 0.03059540
#
# Stress axis : x y z
#
# Youngs Moduli (GPa) = -774.64588 64.62243 -365.19078
#
# Poissons Ratio (x) = -0.01935 3.01255
# Poissons Ratio (y) = 0.23193 0.37484
# Poissons Ratio (z) = 6.39024 -0.06633
#
# Static dielectric constant tensor:
#      x y z
#    x 1.894480 0.000000 -0.008750 
#    y 0.000000 1.931620 0.000000 
#    z -0.008750 0.000000 1.849380 
# 
# From -- ./inp_files/86517.got.cif
#   From: 2010.05.17/outbox.cif.g08.bks.cpg/sg10_44_cif.got.tgz:86517.got - 2010.06.03 11:33:40.
