data_PCOD9150712
_publ_section_title
;
Structure prediction by ZEFSAII (Michael W. Deem and Ramdas Pophale) SiO2 
 PCOD9150712
Probable space group: P 2/M
;
_chemical_formula_sum "Si O2"
_cell_formula_units_Z 28
_cell_length_a 27.274629
_cell_length_b 7.584534
_cell_length_c 10.260862
_cell_angle_alpha 90.000000
_cell_angle_beta 142.236250
_cell_angle_gamma 90.000000
_cell_volume 1299.905429
_symmetry_space_group_name_H-M "P 2/M"
_symmetry_group_IT_number 10
_symmetry_cell_setting 'monoclinic'
loop_
_space_group_symop_operation_xyz
x,y,z
-x,y,-z
-x,-y,-z
x,-y,z
loop_
_atom_site_type_symbol
_atom_site_label
_atom_site_fract_x
_atom_site_fract_y
_atom_site_fract_z
Si Si1 0.933992 0.213326 0.758767
Si Si2 0.933275 0.215895 0.461859
Si Si3 0.300121 0.293390 0.373022
Si Si4 0.365060 0.201984 0.016672
Si Si5 0.482994 0.214087 0.815571
Si Si6 0.246491 0.707345 0.540383
Si Si7 0.244879 0.795100 0.973574
O O1 0.952032 0.268979 0.649071
O O2 0.845114 0.270552 0.611231
O O3 0.934316 0.000000 0.761228
O O4 0.000000 0.276034 0.000000
O O5 0.000000 0.275608 0.500000
O O6 0.933215 0.000000 0.457398
O O7 0.843681 0.277836 0.238263
O O8 0.281231 0.500000 0.324948
O O9 0.395138 0.268762 0.586596
O O10 0.261767 0.223771 0.426624
O O11 0.267598 0.211713 0.172119
O O12 0.304320 0.203258 0.766758
O O13 0.384536 0.000000 0.094988
O O14 0.447612 0.279889 0.135679
O O15 0.315231 0.284120 0.031334
O O16 0.486029 0.000000 0.823271
O O17 0.500000 0.272548 0.000000
O O18 0.267374 0.500000 0.585450
O O19 0.239816 0.000000 0.921526
#
# Coordination Sequence:
#
# PCOD9150712 Si02
#       7
#     4   4   4   4   4   4   4
#     4  10  21  37  61  90 117 148 193 245 290 340
#     4   9  18  34  57  88 118 145 185 237 292 342
#     4  11  25  40  56  84 122 158 197 239 285 351
#     4  10  20  38  63  89 115 148 196 246 291 346
#     4  10  20  36  62  90 115 148 194 247 296 343
#     4  11  23  38  58  84 119 160 195 236 288 347
#     4  10  21  38  61  85 117 155 192 242 292 343
#
# _framework density 21.540030000000002
#
# number of rings (size 3 to 8) (size 9 to 14) (size 15 to 20)
#    0.000    1.857    2.857    0.857    2.000    4.000 
#    0.000    2.857    0.000    0.857    0.000    0.000 
#    0.000    0.000    0.000    0.000    0.000    0.000 
#
# Total GULP energy -156464.691018 kJ/mol
# GULP energy per Si atom -5588.024679 kJ/mol
# Density = 2.149100 g / cm^3
# Si number density = 21.540030 Si / 1000 Ang^3
#
#
#
# Elastic Constant Matrix: (Units=GPa)
#
#
# Indices 1 2 3 4 5 6 
#
# 1 188.9869 -1.9649 51.2982 0.0000 -9.9024 0.0000
# 2 -1.9649 50.3176 -11.8854 0.0000 -1.4163 0.0000
# 3 51.2982 -11.8854 98.6174 0.0000 -14.2222 0.0000
# 4 0.0000 0.0000 0.0000 58.8899 0.0000 14.2964
# 5 -9.9024 -1.4163 -14.2222 0.0000 34.3408 0.0000
# 6 0.0000 0.0000 0.0000 14.2964 0.0000 10.5172
#
#
#
# Elastic Compliance Matrix: (Units=1/GPa)
#
#
# Indices 1 2 3 4 5 6 
#
# 1 0.006181 -0.000506 -0.003214 0.000000 0.000430 0.000000
# 2 -0.000506 0.020625 0.003032 0.000000 0.001960 0.000000
# 3 -0.003214 0.003032 0.012828 0.000000 0.004511 0.000000
# 4 0.000000 0.000000 0.000000 0.025344 0.000000 -0.034451
# 5 0.000430 0.001960 0.004511 0.000000 0.031193 0.000000
# 6 0.000000 0.000000 0.000000 -0.034451 0.000000 0.141913
#
#
# Mechanical properties :
#
#
# Convention : Reuss Voigt Hill
#
# Bulk Modulus (GPa) = 26.13849 45.86863 36.00356
# Shear Modulus (GPa) = 19.82442 40.78119 30.30281
#
# Velocity S-wave (km/s) = 3.03702 4.35590 3.75482
# Velocity P-wave (km/s) = 4.94562 6.82930 5.96232
#
# Compressibility (1/GPa) = 0.03825775
#
# Stress axis : x y z
#
# Youngs Moduli (GPa) = 161.78353 48.48424 77.95445
#
# Poissons Ratio (x) = 0.02452 0.25056
# Poissons Ratio (y) = 0.08182 -0.23632
# Poissons Ratio (z) = 0.51999 -0.14698
#
# Static dielectric constant tensor:
#      x y z
#    x 1.782100 0.000000 -0.006030 
#    y 0.000000 1.738260 0.000000 
#    z -0.006030 0.000000 1.714290 
# 
# From -- ./inp_files/37042.got.cif
#   From: 2010.05.17/outbox.cif.g08.bks.cpg/sg10_19_cif.got.tgz:37042.got - 2010.06.03 11:33:40.
