data_PCOD9150846
_publ_section_title
;
Structure prediction by ZEFSAII (Michael W. Deem and Ramdas Pophale) SiO2 
 PCOD9150846
Probable space group: P 2/M
;
_chemical_formula_sum "Si O2"
_cell_formula_units_Z 29
_cell_length_a 27.956650
_cell_length_b 13.750704
_cell_length_c 22.286937
_cell_angle_alpha 90.000000
_cell_angle_beta 11.455809
_cell_angle_gamma 90.000000
_cell_volume 1701.633821
_symmetry_space_group_name_H-M "P 2/M"
_symmetry_group_IT_number 10
_symmetry_cell_setting 'monoclinic'
loop_
_space_group_symop_operation_xyz
x,y,z
-x,y,-z
-x,-y,-z
x,-y,z
loop_
_atom_site_type_symbol
_atom_site_label
_atom_site_fract_x
_atom_site_fract_y
_atom_site_fract_z
Si Si1 0.340597 0.886334 0.343277
Si Si2 0.796992 0.829083 0.203024
Si Si3 0.051286 0.737583 0.777108
Si Si4 0.810235 0.235158 0.784610
Si Si5 0.480151 0.615003 0.779795
Si Si6 0.076399 0.886335 0.239682
Si Si7 0.500000 0.000000 0.500000
Si Si8 0.364950 0.262481 0.806654
O O1 0.194449 0.832481 0.576061
O O2 0.172119 0.878402 0.491764
O O3 0.376628 0.000000 0.312202
O O4 0.590250 0.829803 0.029770
O O5 0.603288 0.765299 0.477640
O O6 0.654622 0.915109 0.345445
O O7 0.926905 0.765392 0.992160
O O8 0.000000 0.863989 0.000000
O O9 0.250521 0.654391 0.539001
O O10 0.847940 0.713672 0.978075
O O11 0.929356 0.170135 0.690693
O O12 0.000000 0.258660 0.500000
O O13 0.693182 0.329071 0.960212
O O14 0.463071 0.500000 0.805456
O O15 0.408592 0.654312 0.801902
O O16 0.132337 0.000000 0.178730
O O17 0.276704 0.832424 0.952766
#
# Coordination Sequence:
#
# PCOD9150846 Si02
#       8
#     4   4   4   4   4   4   1   4
#     4   9  19  33  53  79 111 153 190 220 264 332
#     4  12  23  37  55  87 122 161 201 233 268 315
#     4  10  20  37  59  80 117 152 190 241 284 328
#     4  10  21  37  55  81 112 140 174 229 289 342
#     4  10  22  41  63  84 103 139 190 241 296 351
#     4   9  19  33  53  79 111 153 190 220 264 332
#     4  12  26  36  52  90 126 172 196 232 264 322
#     4  10  20  37  59  80 117 152 190 241 284 328
#
# _framework density 17.042445000000001
#
# number of rings (size 3 to 8) (size 9 to 14) (size 15 to 20)
#    0.000    1.931    2.759    0.621    1.931    2.483 
#    0.000    2.759    0.000    1.655    0.000    7.724 
#    0.000    0.000    0.000    0.000    0.000    0.000 
#
# Total GULP energy -161598.742044 kJ/mol
# GULP energy per Si atom -5572.370415 kJ/mol
# Density = 1.700366 g / cm^3
# Si number density = 17.042445 Si / 1000 Ang^3
#
#
#
# Elastic Constant Matrix: (Units=GPa)
#
#
# Indices 1 2 3 4 5 6 
#
# 1 113.9960 68.3757 80.6545 0.0000 -1.8197 0.0000
# 2 68.3757 157.3074 66.7577 0.0000 -2.4153 0.0000
# 3 80.6545 66.7577 117.5515 0.0000 9.1133 0.0000
# 4 0.0000 0.0000 0.0000 4.9912 0.0000 -16.1898
# 5 -1.8197 -2.4153 9.1133 0.0000 35.3685 0.0000
# 6 0.0000 0.0000 0.0000 -16.1898 0.0000 14.1596
#
#
#
# Elastic Compliance Matrix: (Units=1/GPa)
#
#
# Indices 1 2 3 4 5 6 
#
# 1 0.018832 -0.003328 -0.011315 0.000000 0.003657 0.000000
# 2 -0.003328 0.009082 -0.002968 0.000000 0.001214 0.000000
# 3 -0.011315 -0.002968 0.018384 0.000000 -0.005522 0.000000
# 4 0.000000 0.000000 0.000000 -0.073966 0.000000 -0.084571
# 5 0.003657 0.001214 -0.005522 0.000000 0.029968 0.000000
# 6 0.000000 0.000000 0.000000 -0.084571 0.000000 -0.026073
#
#
# Mechanical properties :
#
#
# Convention : Reuss Voigt Hill
#
# Bulk Modulus (GPa) = 90.28489 91.15897 90.72193
# Shear Modulus (GPa) = 330.23173 22.44166 176.33670
#
# Velocity S-wave (km/s) = 13.93524 3.63272 10.18301
# Velocity P-wave (km/s) = 17.66388 8.43807 13.84221
#
# Compressibility (1/GPa) = 0.01107605
#
# Stress axis : x y z
#
# Youngs Moduli (GPa) = 53.10107 110.11040 54.39489
#
# Poissons Ratio (x) = 0.36641 0.61546
# Poissons Ratio (y) = 0.17670 0.16147
# Poissons Ratio (z) = 0.60083 0.32686
#
# Static dielectric constant tensor:
#      x y z
#    x 1.581560 0.000000 -0.013720 
#    y 0.000000 1.535780 0.000000 
#    z -0.013720 0.000000 1.573910 
# 
# From -- ./inp_files/91461.got.cif
#   From: 2010.05.17/outbox.cif.g08.bks.cpg/sg10_46_cif.got.tgz:91461.got - 2010.06.03 11:33:40.
