data_PCOD9150957
_publ_section_title
;
Structure prediction by ZEFSAII (Michael W. Deem and Ramdas Pophale) SiO2 
 PCOD9150957
Probable space group: P 2/M
;
_chemical_formula_sum "Si O2"
_cell_formula_units_Z 20
_cell_length_a 22.111231
_cell_length_b 8.621544
_cell_length_c 13.534615
_cell_angle_alpha 90.000000
_cell_angle_beta 158.799785
_cell_angle_gamma 90.000000
_cell_volume 933.052346
_symmetry_space_group_name_H-M "P 2/M"
_symmetry_group_IT_number 10
_symmetry_cell_setting 'monoclinic'
loop_
_space_group_symop_operation_xyz
x,y,z
-x,y,-z
-x,-y,-z
x,-y,z
loop_
_atom_site_type_symbol
_atom_site_label
_atom_site_fract_x
_atom_site_fract_y
_atom_site_fract_z
Si Si1 0.820522 0.185393 0.181818
Si Si2 0.726789 0.819714 0.380727
Si Si3 0.074850 0.182865 0.011158
Si Si4 0.692885 0.315845 0.787049
Si Si5 0.442025 0.681625 0.065704
O O1 0.667455 0.258119 0.010265
O O2 0.000000 0.236114 0.500000
O O3 0.812641 0.000000 0.178931
O O4 0.796340 0.234179 0.031823
O O5 0.668911 0.715203 0.201361
O O6 0.696023 0.000000 0.308593
O O7 0.612523 0.773435 0.300591
O O8 0.919727 0.802679 0.699774
O O9 0.229917 0.270682 0.200624
O O10 0.115203 0.000000 0.084487
O O11 0.000000 0.241610 0.000000
O O12 0.500000 0.266801 0.500000
O O13 0.701863 0.500000 0.815188
O O14 0.476769 0.500000 0.128688
#
# Coordination Sequence:
#
# PCOD9150957 Si02
#       5
#     4   4   4   4   4
#     4  11  24  42  66  93 124 167 217 266 320 382
#     4  10  20  37  60  89 125 162 211 261 308 374
#     4  10  23  42  65  93 123 165 217 262 310 373
#     4  11  26  45  65  97 135 172 214 264 324 390
#     4  11  22  36  59  91 126 162 204 258 320 379
#
# _framework density 21.435025
#
# number of rings (size 3 to 8) (size 9 to 14) (size 15 to 20)
#    0.000    1.400    0.000    6.000    2.800   10.000 
#    0.000    0.000    0.000    0.000    0.000    0.000 
#    0.000    0.000    0.000    0.000    0.000    0.000 
#
# Total GULP energy -111897.367321 kJ/mol
# GULP energy per Si atom -5594.868366 kJ/mol
# Density = 2.138624 g / cm^3
# Si number density = 21.435025 Si / 1000 Ang^3
#
#
#
# Elastic Constant Matrix: (Units=GPa)
#
#
# Indices 1 2 3 4 5 6 
#
# 1 117.8107 6.1272 20.7085 0.0000 24.1289 0.0000
# 2 6.1272 48.1644 13.3143 0.0000 7.8597 0.0000
# 3 20.7085 13.3143 70.2954 0.0000 14.8886 0.0000
# 4 0.0000 0.0000 0.0000 35.5352 0.0000 39.0567
# 5 24.1289 7.8597 14.8886 0.0000 32.9940 0.0000
# 6 0.0000 0.0000 0.0000 39.0567 0.0000 240.0129
#
#
#
# Elastic Compliance Matrix: (Units=1/GPa)
#
#
# Indices 1 2 3 4 5 6 
#
# 1 0.010140 0.000256 -0.001606 0.000000 -0.006752 0.000000
# 2 0.000256 0.022332 -0.003470 0.000000 -0.003941 0.000000
# 3 -0.001606 -0.003470 0.016510 0.000000 -0.005449 0.000000
# 4 0.000000 0.000000 0.000000 0.034270 0.000000 -0.005577
# 5 -0.006752 -0.003941 -0.005449 0.000000 0.038644 0.000000
# 6 0.000000 0.000000 0.000000 -0.005577 0.000000 0.005074
#
#
# Mechanical properties :
#
#
# Convention : Reuss Voigt Hill
#
# Bulk Modulus (GPa) = 25.41840 35.17451 30.29646
# Shear Modulus (GPa) = 33.39448 74.78311 54.08880
#
# Velocity S-wave (km/s) = 3.95136 5.91304 5.02878
# Velocity P-wave (km/s) = 5.71854 7.94129 6.91975
#
# Compressibility (1/GPa) = 0.03934157
#
# Stress axis : x y z
#
# Youngs Moduli (GPa) = 98.61959 44.77855 60.56875
#
# Poissons Ratio (x) = -0.01145 0.09725
# Poissons Ratio (y) = -0.02522 0.21020
# Poissons Ratio (z) = 0.15834 0.15540
#
# Static dielectric constant tensor:
#      x y z
#    x 1.810350 0.000000 -0.008030 
#    y 0.000000 1.720040 0.000000 
#    z -0.008030 0.000000 1.776550 
# 
# From -- ./inp_files/57950.got.cif
#   From: 2010.05.17/outbox.cif.g08.bks.cpg/sg10_29_cif.got.tgz:57950.got - 2010.06.03 11:33:40.
