data_PCOD9150368
_publ_section_title
;
Structure prediction by ZEFSAII (Michael W. Deem and Ramdas Pophale) SiO2 
 PCOD9150368
Probable space group: P 2/M
;
_chemical_formula_sum "Si O2"
_cell_formula_units_Z 22
_cell_length_a 5.332837
_cell_length_b 26.507733
_cell_length_c 8.088402
_cell_angle_alpha 90.000000
_cell_angle_beta 109.274418
_cell_angle_gamma 90.000000
_cell_volume 1079.299294
_symmetry_space_group_name_H-M "P 2/M"
_symmetry_group_IT_number 10
_symmetry_cell_setting 'monoclinic'
loop_
_space_group_symop_operation_xyz
x,y,z
-x,y,-z
-x,-y,-z
x,-y,z
loop_
_atom_site_type_symbol
_atom_site_label
_atom_site_fract_x
_atom_site_fract_y
_atom_site_fract_z
Si Si1 0.191860 0.274954 0.883871
Si Si2 0.105748 0.616409 0.711232
Si Si3 0.605785 0.891393 0.711312
Si Si4 0.894237 0.166389 0.288729
Si Si5 0.691842 0.000000 0.883840
Si Si6 0.392628 0.441867 0.285524
O O1 0.136144 0.326120 0.772413
O O2 0.135622 0.223950 0.771535
O O3 0.500000 0.274859 0.000000
O O4 0.000000 0.274875 0.000000
O O5 0.385954 0.587442 0.770999
O O6 0.000000 0.615296 0.500000
O O7 0.885564 0.587380 0.770999
O O8 0.500000 0.890209 0.500000
O O9 0.386560 0.862447 0.772505
O O10 0.635811 0.948928 0.771866
O O11 0.886533 0.862537 0.772507
O O12 0.000000 0.165137 0.500000
O O13 0.500000 0.000000 0.000000
O O14 0.000000 0.000000 0.000000
O O15 0.500000 0.442202 0.500000
O O16 0.364270 0.500000 0.228543
#
# Coordination Sequence:
#
# PCOD9150368 Si02
#       6
#     4   4   4   4   2   4
#     4  12  25  39  58  84 117 152 186 233 287 340
#     4  10  20  36  58  82 112 148 187 231 278 337
#     4  10  22  41  63  86 116 153 193 237 284 337
#     4  10  22  41  64  87 112 149 196 240 284 337
#     4  12  25  38  59  90 124 158 192 234 281 336
#     4   9  17  31  56  87 111 138 185 240 283 322
#
# _framework density 20.383593999999999
#
# number of rings (size 3 to 8) (size 9 to 14) (size 15 to 20)
#    0.000    1.636    0.000    4.636    0.000    6.545 
#    0.000   10.909    0.000   10.909    0.000    0.000 
#    0.000    0.000    0.000    0.000    0.000    0.000 
#
# Total GULP energy -123097.017253 kJ/mol
# GULP energy per Si atom -5595.318966 kJ/mol
# Density = 2.033720 g / cm^3
# Si number density = 20.383594 Si / 1000 Ang^3
#
#
#
# Elastic Constant Matrix: (Units=GPa)
#
#
# Indices 1 2 3 4 5 6 
#
# 1 230.8851 115.4854 36.9967 0.0000 0.4887 0.0000
# 2 115.4854 236.2617 29.8383 0.0000 -0.0517 0.0000
# 3 36.9967 29.8383 34.8843 0.0000 -0.1778 0.0000
# 4 0.0000 0.0000 0.0000 -91.6712 0.0000 0.6358
# 5 0.4887 -0.0517 -0.1778 0.0000 -1.7086 0.0000
# 6 0.0000 0.0000 0.0000 0.6358 0.0000 43.2045
#
#
#
# Elastic Compliance Matrix: (Units=1/GPa)
#
#
# Indices 1 2 3 4 5 6 
#
# 1 0.006308 -0.002511 -0.004530 0.000000 0.002351 0.000000
# 2 -0.002511 0.005744 -0.002254 0.000000 -0.000657 0.000000
# 3 -0.004530 -0.002254 0.035374 0.000000 -0.004909 0.000000
# 4 0.000000 0.000000 0.000000 -0.010907 0.000000 0.000161
# 5 0.002351 -0.000657 -0.004909 0.000000 -0.584065 0.000000
# 6 0.000000 0.000000 0.000000 0.000161 0.000000 0.023143
#
#
# Mechanical properties :
#
#
# Convention : Reuss Voigt Hill
#
# Bulk Modulus (GPa) = 34.67898 96.29689 65.48794
# Shear Modulus (GPa) = -10.07658 11.27898 0.60120
#
# Velocity S-wave (km/s) = -2.22580 2.35486 0.54368
# Velocity P-wave (km/s) = 3.23180 7.39856 5.70891
#
# Compressibility (1/GPa) = 0.02883591
#
# Stress axis : x y z
#
# Youngs Moduli (GPa) = 158.53086 174.08431 28.26936
#
# Poissons Ratio (x) = 0.43707 0.12807
# Poissons Ratio (y) = 0.39802 0.06372
# Poissons Ratio (z) = 0.71821 0.39240
#
# Static dielectric constant tensor:
#      x y z
#    x 1.698810 0.000000 -0.000050 
#    y 0.000000 1.663010 0.000000 
#    z -0.000050 0.000000 1.719470 
# 
# From -- ./inp_files/15593.got.cif
#   From: 2010.05.17/outbox.cif.g08.bks.cpg/sg10_8_cif.got.tgz:15593.got - 2010.06.03 11:33:40.
