data_PCOD9150956
_publ_section_title
;
Structure prediction by ZEFSAII (Michael W. Deem and Ramdas Pophale) SiO2 
 PCOD9150956
Probable space group: P 2/M
;
_chemical_formula_sum "Si O2"
_cell_formula_units_Z 32
_cell_length_a 5.485392
_cell_length_b 8.858861
_cell_length_c 31.783837
_cell_angle_alpha 90.000000
_cell_angle_beta 83.646202
_cell_angle_gamma 90.000000
_cell_volume 1535.026907
_symmetry_space_group_name_H-M "P 2/M"
_symmetry_group_IT_number 10
_symmetry_cell_setting 'monoclinic'
loop_
_space_group_symop_operation_xyz
x,y,z
-x,y,-z
-x,-y,-z
x,-y,z
loop_
_atom_site_type_symbol
_atom_site_label
_atom_site_fract_x
_atom_site_fract_y
_atom_site_fract_z
Si Si1 0.968545 0.822672 0.050871
Si Si2 0.376235 0.183447 0.182071
Si Si3 0.807750 0.168809 0.471156
Si Si4 0.154422 0.183361 0.769700
Si Si5 0.421573 0.334174 0.590747
Si Si6 0.179723 0.162574 0.388260
Si Si7 0.835028 0.825241 0.325562
Si Si8 0.555473 0.318529 0.911768
O O1 0.208203 0.746068 0.067364
O O2 0.708075 0.746191 0.067652
O O3 0.960780 0.000000 0.063612
O O4 0.000000 0.814838 0.000000
O O5 0.606831 0.225122 0.207559
O O6 0.411856 0.261805 0.136599
O O7 0.109407 0.226833 0.205866
O O8 0.379190 0.000000 0.177220
O O9 0.949687 0.152337 0.423807
O O10 0.000000 0.239208 0.500000
O O11 0.582028 0.255901 0.455237
O O12 0.755009 0.000000 0.488029
O O13 0.175197 0.236905 0.721055
O O14 0.150836 0.000000 0.768248
O O15 0.322596 0.500000 0.587460
O O16 0.700674 0.315513 0.598939
O O17 0.309769 0.262719 0.635677
O O18 0.106061 0.170154 0.341064
O O19 0.312794 0.000000 0.393315
O O20 0.752931 0.000000 0.325972
O O21 0.553447 0.500000 0.914585
#
# Coordination Sequence:
#
# PCOD9150956 Si02
#       8
#     4   4   4   4   4   4   4   4
#     4  11  24  43  68  97 129 171 224 276 326 384
#     4  10  20  37  60  89 122 162 210 257 311 373
#     4   9  19  37  58  78 100 132 178 226 270 323
#     4   9  19  34  60  90 114 148 204 263 305 354
#     4  11  22  34  51  77 110 144 176 215 276 345
#     4   9  18  33  55  78 103 136 176 225 276 330
#     4   9  19  36  58  81 105 139 186 240 285 331
#     4  12  25  41  64  95 135 176 215 267 330 393
#
# _framework density 20.846540999999998
#
# number of rings (size 3 to 8) (size 9 to 14) (size 15 to 20)
#    0.000    2.000    0.000    4.500    1.750    6.250 
#    0.000    3.750    0.000    0.000    0.000    0.000 
#    0.000    0.000    0.000    0.000    0.000    0.000 
#
# Total GULP energy -178195.527978 kJ/mol
# GULP energy per Si atom -5568.610249 kJ/mol
# Density = 2.079909 g / cm^3
# Si number density = 20.846541 Si / 1000 Ang^3
#
#
#
# Elastic Constant Matrix: (Units=GPa)
#
#
# Indices 1 2 3 4 5 6 
#
# 1 130.8720 30.4576 59.0157 0.0000 13.1054 0.0000
# 2 30.4576 64.6123 33.6067 0.0000 10.2127 0.0000
# 3 59.0157 33.6067 133.9871 0.0000 19.8790 0.0000
# 4 0.0000 0.0000 0.0000 -0.5293 0.0000 7.9952
# 5 13.1054 10.2127 19.8790 0.0000 36.3214 0.0000
# 6 0.0000 0.0000 0.0000 7.9952 0.0000 47.3743
#
#
#
# Elastic Compliance Matrix: (Units=1/GPa)
#
#
# Indices 1 2 3 4 5 6 
#
# 1 0.009974 -0.002698 -0.003586 0.000000 -0.000877 0.000000
# 2 -0.002698 0.018792 -0.003141 0.000000 -0.002592 0.000000
# 3 -0.003586 -0.003141 0.010348 0.000000 -0.003486 0.000000
# 4 0.000000 0.000000 0.000000 -0.532311 0.000000 0.089836
# 5 -0.000877 -0.002592 -0.003486 0.000000 0.030485 0.000000
# 6 0.000000 0.000000 0.000000 0.089836 0.000000 0.005947
#
#
# Mechanical properties :
#
#
# Convention : Reuss Voigt Hill
#
# Bulk Modulus (GPa) = 49.34725 63.95903 56.65314
# Shear Modulus (GPa) = -11.59661 30.39271 9.39805
#
# Velocity S-wave (km/s) = -2.36113 3.82242 2.12556
# Velocity P-wave (km/s) = 4.03607 7.08722 5.76708
#
# Compressibility (1/GPa) = 0.02026456
#
# Stress axis : x y z
#
# Youngs Moduli (GPa) = 100.26126 53.21496 96.63659
#
# Poissons Ratio (x) = 0.14355 0.34657
# Poissons Ratio (y) = 0.27046 0.30350
# Poissons Ratio (z) = 0.35957 0.16713
#
# Static dielectric constant tensor:
#      x y z
#    x 1.932790 0.000000 0.011200 
#    y 0.000000 2.292110 0.000000 
#    z 0.011200 0.000000 1.712960 
# 
# From -- ./inp_files/94344.got.cif
#   From: 2010.05.17/outbox.cif.g08.bks.cpg/sg10_48_cif.got.tgz:94344.got - 2010.06.03 11:33:40.
