data_PCOD9150096
_publ_section_title
;
Structure prediction by ZEFSAII (Michael W. Deem and Ramdas Pophale) SiO2 
 PCOD9150096
Probable space group: P 2/M
;
_chemical_formula_sum "Si O2"
_cell_formula_units_Z 28
_cell_length_a 12.654494
_cell_length_b 9.617171
_cell_length_c 13.398301
_cell_angle_alpha 90.000000
_cell_angle_beta 62.356258
_cell_angle_gamma 90.000000
_cell_volume 1444.447816
_symmetry_space_group_name_H-M "P 2/M"
_symmetry_group_IT_number 10
_symmetry_cell_setting 'monoclinic'
loop_
_space_group_symop_operation_xyz
x,y,z
-x,y,-z
-x,-y,-z
x,-y,z
loop_
_atom_site_type_symbol
_atom_site_label
_atom_site_fract_x
_atom_site_fract_y
_atom_site_fract_z
Si Si1 0.669209 0.661251 0.208407
Si Si2 0.134732 0.166871 0.178537
Si Si3 0.109047 0.348144 0.376784
Si Si4 0.254131 0.347589 0.507736
Si Si5 0.632623 0.337527 0.986197
Si Si6 0.528865 0.849608 0.602291
Si Si7 0.906139 0.336243 0.224926
O O1 0.653804 0.500000 0.244787
O O2 0.644018 0.669906 0.101356
O O3 0.571522 0.755481 0.304121
O O4 0.801960 0.699870 0.190403
O O5 0.114514 0.220900 0.300122
O O6 0.024089 0.240875 0.168570
O O7 0.133655 0.000000 0.168633
O O8 0.262515 0.235590 0.096254
O O9 0.100653 0.500000 0.327596
O O10 0.213273 0.355115 0.411146
O O11 0.000000 0.336893 0.500000
O O12 0.306110 0.500000 0.511222
O O13 0.346160 0.225402 0.461085
O O14 0.154189 0.323082 0.637444
O O15 0.656259 0.500000 0.947125
O O16 0.500000 0.304692 0.000000
O O17 0.500000 0.866447 0.500000
O O18 0.534441 0.000000 0.650406
O O19 0.936161 0.500000 0.197685
#
# Coordination Sequence:
#
# PCOD9150096 Si02
#       7
#     4   4   4   4   4   4   4
#     4  10  22  41  67  93 117 160 217 265 306 353
#     4  12  26  41  62  93 129 166 201 249 314 376
#     4  10  20  38  62  89 121 162 208 251 302 357
#     4  10  20  35  59  87 121 164 207 256 301 353
#     4  10  24  47  70  91 118 157 209 262 308 362
#     4  11  23  36  55  89 133 170 196 240 311 378
#     4  10  20  39  65  92 123 159 209 262 302 358
#
# _framework density 19.384571000000001
#
# number of rings (size 3 to 8) (size 9 to 14) (size 15 to 20)
#    0.000    1.571    2.857    1.714    2.000    4.000 
#    0.000    2.857    0.000    0.000    0.000    0.000 
#    0.000    0.000    0.000    0.000    0.000    0.000 
#
# Total GULP energy -156033.990043 kJ/mol
# GULP energy per Si atom -5572.642502 kJ/mol
# Density = 1.934045 g / cm^3
# Si number density = 19.384571 Si / 1000 Ang^3
#
#
#
# Elastic Constant Matrix: (Units=GPa)
#
#
# Indices 1 2 3 4 5 6 
#
# 1 96.8417 64.4102 34.8352 0.0000 -6.0011 0.0000
# 2 64.4102 140.7778 53.4176 0.0000 -28.5933 0.0000
# 3 34.8352 53.4176 52.7284 0.0000 -10.3670 0.0000
# 4 0.0000 0.0000 0.0000 3.9106 0.0000 27.7911
# 5 -6.0011 -28.5933 -10.3670 0.0000 32.6802 0.0000
# 6 0.0000 0.0000 0.0000 27.7911 0.0000 -34.9287
#
#
#
# Elastic Compliance Matrix: (Units=1/GPa)
#
#
# Indices 1 2 3 4 5 6 
#
# 1 0.016062 -0.006262 -0.005082 0.000000 -0.004141 0.000000
# 2 -0.006262 0.015602 -0.009824 0.000000 0.009385 0.000000
# 3 -0.005082 -0.009824 0.032424 0.000000 0.000757 0.000000
# 4 0.000000 0.000000 0.000000 0.038428 0.000000 0.030575
# 5 -0.004141 0.009385 0.000757 0.000000 0.038290 0.000000
# 6 0.000000 0.000000 0.000000 0.030575 0.000000 -0.004302
#
#
# Mechanical properties :
#
#
# Convention : Reuss Voigt Hill
#
# Bulk Modulus (GPa) = 45.97214 66.18599 56.07907
# Shear Modulus (GPa) = 26.86844 9.51140 18.18992
#
# Velocity S-wave (km/s) = 3.72704 2.21751 3.06661
# Velocity P-wave (km/s) = 6.50296 6.38547 6.44448
#
# Compressibility (1/GPa) = 0.02175230
#
# Stress axis : x y z
#
# Youngs Moduli (GPa) = 62.25722 64.09373 30.84122
#
# Poissons Ratio (x) = 0.40134 0.15675
# Poissons Ratio (y) = 0.38984 0.30299
# Poissons Ratio (z) = 0.31641 0.62967
#
# Static dielectric constant tensor:
#      x y z
#    x 2.128520 0.000000 0.078480 
#    y 0.000000 1.570380 0.000000 
#    z 0.078480 0.000000 1.682170 
# 
# From -- ./inp_files/63621.got.cif
#   From: 2010.05.17/outbox.cif.g08.bks.cpg/sg10_32_cif.got.tgz:63621.got - 2010.06.03 11:33:40.
