data_PCOD9150074
_publ_section_title
;
Structure prediction by ZEFSAII (Michael W. Deem and Ramdas Pophale) SiO2 
 PCOD9150074
Probable space group: P 2/M
;
_chemical_formula_sum "Si O2"
_cell_formula_units_Z 32
_cell_length_a 13.711598
_cell_length_b 14.412213
_cell_length_c 8.944146
_cell_angle_alpha 90.000000
_cell_angle_beta 111.226716
_cell_angle_gamma 90.000000
_cell_volume 1647.577282
_symmetry_space_group_name_H-M "P 2/M"
_symmetry_group_IT_number 10
_symmetry_cell_setting 'monoclinic'
loop_
_space_group_symop_operation_xyz
x,y,z
-x,y,-z
-x,-y,-z
x,-y,z
loop_
_atom_site_type_symbol
_atom_site_label
_atom_site_fract_x
_atom_site_fract_y
_atom_site_fract_z
Si Si1 0.807388 0.282800 0.222500
Si Si2 0.618428 0.703029 0.622179
Si Si3 0.878173 0.107897 0.410156
Si Si4 0.008386 0.607300 0.827131
Si Si5 0.312584 0.892775 0.484302
Si Si6 0.408418 0.702456 0.068639
Si Si7 0.496897 0.100288 0.177877
Si Si8 0.203665 0.609752 0.471234
O O1 0.830278 0.174900 0.260347
O O2 0.805650 0.332412 0.382197
O O3 0.900407 0.328034 0.181517
O O4 0.696839 0.295704 0.083303
O O5 0.500000 0.703285 0.500000
O O6 0.659751 0.809624 0.613565
O O7 0.615460 0.655467 0.785307
O O8 0.693958 0.642477 0.559583
O O9 0.804146 0.119828 0.514397
O O10 0.000000 0.132177 0.500000
O O11 0.872142 0.000000 0.365078
O O12 0.034049 0.500000 0.804631
O O13 0.898481 0.628715 0.686645
O O14 0.000000 0.615543 0.000000
O O15 0.394303 0.886210 0.670735
O O16 0.321769 0.000000 0.435485
O O17 0.436564 0.803521 0.153361
O O18 0.500000 0.676154 0.000000
O O19 0.454990 0.000000 0.208534
O O20 0.500000 0.092046 0.000000
O O21 0.206953 0.500000 0.504894
#
# Coordination Sequence:
#
# PCOD9150074 Si02
#       8
#     4   4   4   4   4   4   4   4
#     4  12  22  38  65  93 123 166 209 255 305 371
#     4  12  23  40  63  90 124 161 203 257 315 373
#     4  10  20  35  58  90 125 162 203 247 300 363
#     4  10  22  42  67  96 126 158 205 263 314 364
#     4  10  20  36  59  91 125 163 210 257 305 365
#     4  11  23  38  57  87 124 164 200 250 309 371
#     4   9  17  31  54  84 120 157 200 251 301 351
#     4  11  24  42  66  94 123 158 204 258 313 369
#
# _framework density 19.422457999999999
#
# number of rings (size 3 to 8) (size 9 to 14) (size 15 to 20)
#    0.000    1.375    2.500    4.500    0.000    3.500 
#    0.000    0.625    0.000    3.000    0.000    0.000 
#    0.000    0.000    0.000    0.000    0.000    0.000 
#
# Total GULP energy -178448.924635 kJ/mol
# GULP energy per Si atom -5576.528895 kJ/mol
# Density = 1.937825 g / cm^3
# Si number density = 19.422458 Si / 1000 Ang^3
#
#
#
# Elastic Constant Matrix: (Units=GPa)
#
#
# Indices 1 2 3 4 5 6 
#
# 1 104.0651 19.6991 28.1141 0.0000 7.5565 0.0000
# 2 19.6991 22.5459 8.4896 0.0000 6.3321 0.0000
# 3 28.1141 8.4896 76.8123 0.0000 4.2886 0.0000
# 4 0.0000 0.0000 0.0000 20.9613 0.0000 1.7890
# 5 7.5565 6.3321 4.2886 0.0000 31.3185 0.0000
# 6 0.0000 0.0000 0.0000 1.7890 0.0000 14.0311
#
#
#
# Elastic Compliance Matrix: (Units=1/GPa)
#
#
# Indices 1 2 3 4 5 6 
#
# 1 0.012352 -0.009316 -0.003457 0.000000 -0.000623 0.000000
# 2 -0.009316 0.055798 -0.002270 0.000000 -0.008723 0.000000
# 3 -0.003457 -0.002270 0.014574 0.000000 -0.000703 0.000000
# 4 0.000000 0.000000 0.000000 0.048232 0.000000 -0.006150
# 5 -0.000623 -0.008723 -0.000703 0.000000 0.033940 0.000000
# 6 0.000000 0.000000 0.000000 -0.006150 0.000000 0.072054
#
#
# Mechanical properties :
#
#
# Convention : Reuss Voigt Hill
#
# Bulk Modulus (GPa) = 18.99731 35.11434 27.05582
# Shear Modulus (GPa) = 17.56963 23.07021 20.31992
#
# Velocity S-wave (km/s) = 3.01093 3.45020 3.23802
# Velocity P-wave (km/s) = 4.67867 5.83013 5.28584
#
# Compressibility (1/GPa) = 0.05263904
#
# Stress axis : x y z
#
# Youngs Moduli (GPa) = 80.95952 17.92171 68.61514
#
# Poissons Ratio (x) = 0.16695 0.23717
# Poissons Ratio (y) = 0.75419 0.15579
# Poissons Ratio (z) = 0.27984 0.04069
#
# Static dielectric constant tensor:
#      x y z
#    x 1.739340 0.000000 -0.084680 
#    y 0.000000 1.753460 0.000000 
#    z -0.084680 0.000000 1.726990 
# 
# From -- ./inp_files/29531.got.cif
#   From: 2010.05.17/outbox.cif.g08.bks.cpg/sg10_15_cif.got.tgz:29531.got - 2010.06.03 11:33:40.
