data_PCOD9150345
_publ_section_title
;
Structure prediction by ZEFSAII (Michael W. Deem and Ramdas Pophale) SiO2 
 PCOD9150345
Probable space group: P 2/M
;
_chemical_formula_sum "Si O2"
_cell_formula_units_Z 28
_cell_length_a 19.546102
_cell_length_b 7.422654
_cell_length_c 19.944195
_cell_angle_alpha 90.000000
_cell_angle_beta 158.253807
_cell_angle_gamma 90.000000
_cell_volume 1072.059988
_symmetry_space_group_name_H-M "P 2/M"
_symmetry_group_IT_number 10
_symmetry_cell_setting 'monoclinic'
loop_
_space_group_symop_operation_xyz
x,y,z
-x,y,-z
-x,-y,-z
x,-y,z
loop_
_atom_site_type_symbol
_atom_site_label
_atom_site_fract_x
_atom_site_fract_y
_atom_site_fract_z
Si Si1 0.218696 0.719272 0.341554
Si Si2 0.223518 0.296549 0.199716
Si Si3 0.269504 0.795403 0.731379
Si Si4 0.416809 0.719051 0.655692
Si Si5 0.329815 0.297570 0.936330
Si Si6 0.065350 0.287961 0.415598
Si Si7 0.200478 0.720851 0.029674
O O1 0.211684 0.500000 0.330077
O O2 0.273439 0.784873 0.317157
O O3 0.359492 0.764675 0.527717
O O4 0.011096 0.776272 0.173997
O O5 0.302561 0.500000 0.269159
O O6 0.251361 0.217718 0.151669
O O7 0.000000 0.310461 0.000000
O O8 0.292986 0.692904 0.822352
O O9 0.117652 0.728776 0.541274
O O10 0.230196 0.000000 0.714327
O O11 0.469636 0.789433 0.876818
O O12 0.415199 0.500000 0.660207
O O13 0.244663 0.787631 0.541944
O O14 0.627658 0.776586 0.860250
O O15 0.350528 0.500000 0.982322
O O16 0.137147 0.214518 0.786029
O O17 0.052462 0.500000 0.387242
O O18 0.197822 0.500000 0.027323
#
# Coordination Sequence:
#
# PCOD9150345 Si02
#       7
#     4   4   4   4   4   4   4
#     4   8  13  21  32  48  74 109 152 198 237 277
#     4   7  10  17  29  46  69 102 146 193 239 281
#     4  11  22  36  57  82 105 130 165 209 253 297
#     4   9  17  26  37  57  83 118 163 197 229 281
#     4  10  20  36  58  81 106 134 165 204 250 299
#     4  10  21  35  51  74 105 139 172 206 247 297
#     4   8  13  21  33  49  74 109 150 198 241 279
#
# _framework density 26.117940999999998
#
# number of rings (size 3 to 8) (size 9 to 14) (size 15 to 20)
#    0.000    3.000    0.000    4.714    0.000    4.571 
#    0.000    7.143    0.000    0.000    0.000    0.000 
#    0.000    0.000    0.000    2.571    0.000   20.571 
#
# Total GULP energy -156413.781520 kJ/mol
# GULP energy per Si atom -5586.206483 kJ/mol
# Density = 2.605850 g / cm^3
# Si number density = 26.117941 Si / 1000 Ang^3
#
#
#
# Elastic Constant Matrix: (Units=GPa)
#
#
# Indices 1 2 3 4 5 6 
#
# 1 53.5729 -5.7461 43.1134 0.0000 24.3121 0.0000
# 2 -5.7461 83.7432 1.2999 0.0000 11.2639 0.0000
# 3 43.1134 1.2999 162.5747 0.0000 26.3932 0.0000
# 4 0.0000 0.0000 0.0000 16.3629 0.0000 6.2702
# 5 24.3121 11.2639 26.3932 0.0000 49.8988 0.0000
# 6 0.0000 0.0000 0.0000 6.2702 0.0000 -46.6136
#
#
#
# Elastic Compliance Matrix: (Units=1/GPa)
#
#
# Indices 1 2 3 4 5 6 
#
# 1 0.029186 0.003704 -0.005825 0.000000 -0.011975 0.000000
# 2 0.003704 0.012807 -0.000353 0.000000 -0.004509 0.000000
# 3 -0.005825 -0.000353 0.007904 0.000000 -0.001263 0.000000
# 4 0.000000 0.000000 0.000000 0.058118 0.000000 0.007818
# 5 -0.011975 -0.004509 -0.001263 0.000000 0.027561 0.000000
# 6 0.000000 0.000000 0.000000 0.007818 0.000000 -0.020401
#
#
# Mechanical properties :
#
#
# Convention : Reuss Voigt Hill
#
# Bulk Modulus (GPa) = 22.24768 41.91392 32.08080
# Shear Modulus (GPa) = 37.00800 21.34452 29.17626
#
# Velocity S-wave (km/s) = 3.76833 2.86184 3.34593
# Velocity P-wave (km/s) = 5.24122 5.19643 5.21888
#
# Compressibility (1/GPa) = 0.04494851
#
# Stress axis : x y z
#
# Youngs Moduli (GPa) = 34.26313 78.07997 126.52364
#
# Poissons Ratio (x) = -0.28919 0.73705
# Poissons Ratio (y) = -0.12690 0.04461
# Poissons Ratio (z) = 0.19960 0.02753
#
# Static dielectric constant tensor:
#      x y z
#    x 2.143140 0.000000 0.034230 
#    y 0.000000 2.083340 0.000000 
#    z 0.034230 0.000000 2.005390 
# 
# From -- ./inp_files/90525.got.cif
#   From: 2010.05.17/outbox.cif.g08.bks.cpg/sg10_46_cif.got.tgz:90525.got - 2010.06.03 11:33:40.
