data_PCOD9150014
_publ_section_title
;
Structure prediction by ZEFSAII (Michael W. Deem and Ramdas Pophale) SiO2 
 PCOD9150014
Probable space group: P 2/M
;
_chemical_formula_sum "Si O2"
_cell_formula_units_Z 28
_cell_length_a 15.213717
_cell_length_b 21.669532
_cell_length_c 8.653469
_cell_angle_alpha 90.000000
_cell_angle_beta 31.439570
_cell_angle_gamma 90.000000
_cell_volume 1488.030563
_symmetry_space_group_name_H-M "P 2/M"
_symmetry_group_IT_number 10
_symmetry_cell_setting 'monoclinic'
loop_
_space_group_symop_operation_xyz
x,y,z
-x,y,-z
-x,-y,-z
x,-y,z
loop_
_atom_site_type_symbol
_atom_site_label
_atom_site_fract_x
_atom_site_fract_y
_atom_site_fract_z
Si Si1 0.820906 0.133373 0.332221
Si Si2 0.182930 0.427580 0.660661
Si Si3 0.182930 0.427580 0.290550
Si Si4 0.500000 0.215490 0.812881
Si Si5 0.179094 0.866627 0.294940
Si Si6 0.500000 0.646737 0.684001
Si Si7 0.303717 0.000000 0.106143
Si Si8 0.696283 0.000000 0.517295
O O1 0.665840 0.176898 0.518582
O O2 0.825847 0.132775 0.511230
O O3 0.783312 0.063231 0.335061
O O4 0.000000 0.154400 0.000000
O O5 0.208296 0.500000 0.662601
O O6 0.182212 0.422255 0.476682
O O7 0.334379 0.387786 0.501313
O O8 0.000000 0.409075 0.000000
O O9 0.208296 0.500000 0.212510
O O10 0.000000 0.409075 0.500000
O O11 0.334379 0.387786 0.995550
O O12 0.500000 0.283092 0.742158
O O13 0.500000 0.220135 0.000000
O O14 0.334160 0.176898 0.016103
O O15 0.000000 0.845600 0.500000
O O16 0.216688 0.936769 0.184996
O O17 0.500000 0.644636 0.500000
O O18 0.301390 0.000000 0.297915
O O19 0.500000 0.000000 0.766119
#
# Coordination Sequence:
#
# PCOD9150014 Si02
#       8
#     4   4   4   4   4   4   2   2
#     4  10  20  35  58  83 109 144 185 233 286 344
#     4  10  21  39  64  93 123 154 191 238 290 345
#     4  10  21  39  64  93 123 154 191 238 290 345
#     4  10  22  40  57  76 108 154 198 235 282 343
#     4  10  20  35  58  83 109 144 185 233 286 344
#     4  12  25  39  59  86 119 159 200 243 290 342
#     4   9  15  30  57  84 109 140 183 227 278 346
#     4   9  15  30  57  84 109 140 183 227 278 346
#
# _framework density 18.816817
#
# number of rings (size 3 to 8) (size 9 to 14) (size 15 to 20)
#    0.000    1.857    1.429    3.000    0.000    5.714 
#    0.000    2.857    0.000    0.857    0.000    0.000 
#    0.000    0.000    0.000    0.000    0.000    0.000 
#
# Total GULP energy -156445.754178 kJ/mol
# GULP energy per Si atom -5587.348363 kJ/mol
# Density = 1.877399 g / cm^3
# Si number density = 18.816817 Si / 1000 Ang^3
#
#
#
# Elastic Constant Matrix: (Units=GPa)
#
#
# Indices 1 2 3 4 5 6 
#
# 1 73.5188 63.5219 54.3279 0.0000 -35.0868 0.0000
# 2 63.5219 138.0917 99.3980 0.0000 -26.8911 0.0000
# 3 54.3279 99.3980 171.4816 0.0000 -38.3416 0.0000
# 4 0.0000 0.0000 0.0000 -15.5182 0.0000 17.6426
# 5 -35.0868 -26.8911 -38.3416 0.0000 35.4402 0.0000
# 6 0.0000 0.0000 0.0000 17.6426 0.0000 8.0183
#
#
#
# Elastic Compliance Matrix: (Units=1/GPa)
#
#
# Indices 1 2 3 4 5 6 
#
# 1 0.037248 -0.013113 0.002402 0.000000 0.029525 0.000000
# 2 -0.013113 0.017169 -0.007634 0.000000 -0.008214 0.000000
# 3 0.002402 -0.007634 0.011518 0.000000 0.009047 0.000000
# 4 0.000000 0.000000 0.000000 -0.018404 0.000000 0.040493
# 5 0.029525 -0.008214 0.009047 0.000000 0.061002 0.000000
# 6 0.000000 0.000000 0.000000 0.040493 0.000000 0.035617
#
#
# Mechanical properties :
#
#
# Convention : Reuss Voigt Hill
#
# Bulk Modulus (GPa) = 34.19455 90.84308 62.51881
# Shear Modulus (GPa) = 26.23428 16.64436 21.43932
#
# Velocity S-wave (km/s) = 3.73794 2.97736 3.37912
# Velocity P-wave (km/s) = 6.06971 7.75899 6.96575
#
# Compressibility (1/GPa) = 0.02924442
#
# Stress axis : x y z
#
# Youngs Moduli (GPa) = 26.84695 58.24438 86.81806
#
# Poissons Ratio (x) = 0.76378 -0.20852
# Poissons Ratio (y) = 0.35205 0.66277
# Poissons Ratio (z) = -0.06448 0.44464
#
# Static dielectric constant tensor:
#      x y z
#    x 1.631090 0.000000 0.002520 
#    y 0.000000 1.635910 0.000000 
#    z 0.002520 0.000000 1.627730 
# 
# From -- ./inp_files/30440.got.cif
#   From: 2010.05.17/outbox.cif.g08.bks.cpg/sg10_16_cif.got.tgz:30440.got - 2010.06.03 11:33:40.
