data_PCOD9150013
_publ_section_title
;
Structure prediction by ZEFSAII (Michael W. Deem and Ramdas Pophale) SiO2 
 PCOD9150013
Probable space group: P 2/M
;
_chemical_formula_sum "Si O2"
_cell_formula_units_Z 28
_cell_length_a 14.330367
_cell_length_b 7.577503
_cell_length_c 19.376374
_cell_angle_alpha 90.000000
_cell_angle_beta 144.149721
_cell_angle_gamma 90.000000
_cell_volume 1232.276916
_symmetry_space_group_name_H-M "P 2/M"
_symmetry_group_IT_number 10
_symmetry_cell_setting 'monoclinic'
loop_
_space_group_symop_operation_xyz
x,y,z
-x,y,-z
-x,-y,-z
x,-y,z
loop_
_atom_site_type_symbol
_atom_site_label
_atom_site_fract_x
_atom_site_fract_y
_atom_site_fract_z
Si Si1 0.645732 0.702184 0.545359
Si Si2 0.169710 0.286520 0.073399
Si Si3 0.954428 0.298164 0.399662
Si Si4 0.610552 0.207335 0.224121
Si Si5 0.481707 0.207346 0.677194
Si Si6 0.017637 0.717743 0.288220
Si Si7 0.264965 0.287289 0.977276
O O1 0.500000 0.786284 0.500000
O O2 0.659134 0.500000 0.578727
O O3 0.597867 0.703097 0.436167
O O4 0.823391 0.777334 0.655851
O O5 0.167445 0.500000 0.072638
O O6 0.327076 0.230931 0.209323
O O7 0.198966 0.227936 0.012266
O O8 0.000000 0.224644 0.000000
O O9 0.014579 0.500000 0.437923
O O10 0.763291 0.297655 0.282797
O O11 0.020521 0.219579 0.368907
O O12 0.000000 0.213609 0.500000
O O13 0.577134 0.272531 0.282713
O O14 0.645009 0.000000 0.249005
O O15 0.448215 0.231527 0.084356
O O16 0.445806 0.000000 0.651621
O O17 0.019038 0.500000 0.290021
O O18 0.855776 0.773205 0.153863
O O19 0.263477 0.500000 0.976171
#
# Coordination Sequence:
#
# PCOD9150013 Si02
#       7
#     4   4   4   4   4   4   4
#     4  10  21  36  59  84 110 144 184 231 277 324
#     4   9  18  31  54  81 103 136 184 232 272 320
#     4  10  20  35  58  83 109 143 184 227 273 328
#     4  10  21  37  56  80 111 145 185 227 272 325
#     4  10  21  36  53  76 110 146 180 222 273 331
#     4   9  19  35  55  83 112 140 179 229 280 328
#     4   9  18  34  55  78 110 144 179 225 276 329
#
# _framework density 22.722166000000001
#
# number of rings (size 3 to 8) (size 9 to 14) (size 15 to 20)
#    0.000    2.429    0.000    1.714    2.000    4.286 
#    0.000    5.000    0.000    0.000    0.000    0.000 
#    0.000    0.000    0.000    0.000    0.000    0.000 
#
# Total GULP energy -156428.454156 kJ/mol
# GULP energy per Si atom -5586.730506 kJ/mol
# Density = 2.267045 g / cm^3
# Si number density = 22.722166 Si / 1000 Ang^3
#
#
#
# Elastic Constant Matrix: (Units=GPa)
#
#
# Indices 1 2 3 4 5 6 
#
# 1 73.8038 -1.3629 33.8201 0.0000 23.5224 0.0000
# 2 -1.3629 57.6281 -4.9779 0.0000 -1.2822 0.0000
# 3 33.8201 -4.9779 96.1868 0.0000 3.3099 0.0000
# 4 0.0000 0.0000 0.0000 271.5863 0.0000 29.1514
# 5 23.5224 -1.2822 3.3099 0.0000 35.1574 0.0000
# 6 0.0000 0.0000 0.0000 29.1514 0.0000 1.7598
#
#
#
# Elastic Compliance Matrix: (Units=1/GPa)
#
#
# Indices 1 2 3 4 5 6 
#
# 1 0.020997 -0.000401 -0.006942 0.000000 -0.013409 0.000000
# 2 -0.000401 0.017449 0.001016 0.000000 0.000809 0.000000
# 3 -0.006942 0.001016 0.012770 0.000000 0.003479 0.000000
# 4 0.000000 0.000000 0.000000 -0.004732 0.000000 0.078392
# 5 -0.013409 0.000809 0.003479 0.000000 0.037117 0.000000
# 6 0.000000 0.000000 0.000000 0.078392 0.000000 -0.730332
#
#
# Mechanical properties :
#
#
# Convention : Reuss Voigt Hill
#
# Bulk Modulus (GPa) = 25.93241 31.39746 28.66494
# Shear Modulus (GPa) = -8.04864 75.04333 33.49734
#
# Velocity S-wave (km/s) = -1.88412 5.75310 3.84372
# Velocity P-wave (km/s) = 2.58929 7.61439 5.68697
#
# Compressibility (1/GPa) = 0.03856178
#
# Stress axis : x y z
#
# Youngs Moduli (GPa) = 47.62598 57.31004 78.30734
#
# Poissons Ratio (x) = 0.02301 0.54361
# Poissons Ratio (y) = 0.01912 -0.07959
# Poissons Ratio (z) = 0.33062 -0.05825
#
# Static dielectric constant tensor:
#      x y z
#    x 1.834920 0.000000 0.005330 
#    y 0.000000 1.864450 0.000000 
#    z 0.005330 0.000000 1.828560 
# 
# From -- ./inp_files/63934.got.cif
#   From: 2010.05.17/outbox.cif.g08.bks.cpg/sg10_32_cif.got.tgz:63934.got - 2010.06.03 11:33:40.
