data_PCOD9150402
_publ_section_title
;
Structure prediction by ZEFSAII (Michael W. Deem and Ramdas Pophale) SiO2 
 PCOD9150402
Probable space group: P 2/M
;
_chemical_formula_sum "Si O2"
_cell_formula_units_Z 26
_cell_length_a 10.039110
_cell_length_b 12.171009
_cell_length_c 13.863079
_cell_angle_alpha 90.000000
_cell_angle_beta 58.287460
_cell_angle_gamma 90.000000
_cell_volume 1440.973278
_symmetry_space_group_name_H-M "P 2/M"
_symmetry_group_IT_number 10
_symmetry_cell_setting 'monoclinic'
loop_
_space_group_symop_operation_xyz
x,y,z
-x,y,-z
-x,-y,-z
x,-y,z
loop_
_atom_site_type_symbol
_atom_site_label
_atom_site_fract_x
_atom_site_fract_y
_atom_site_fract_z
Si Si1 0.737726 0.500000 0.074138
Si Si2 0.571306 0.128735 0.871035
Si Si3 0.823332 0.722778 0.289734
Si Si4 0.690169 0.373782 0.527035
Si Si5 0.026603 0.500000 0.832027
Si Si6 0.425909 0.295850 0.776893
Si Si7 0.062649 0.127964 0.295825
Si Si8 0.000000 0.714548 0.500000
O O1 0.858337 0.500000 0.118850
O O2 0.631969 0.392643 0.129951
O O3 0.848720 0.500000 0.938186
O O4 0.502259 0.199921 0.810396
O O5 0.758590 0.138153 0.805663
O O6 0.533215 0.000000 0.870867
O O7 0.500000 0.164572 0.000000
O O8 0.708892 0.700772 0.424470
O O9 0.927063 0.611085 0.241457
O O10 0.722921 0.738247 0.231485
O O11 0.938283 0.823140 0.267911
O O12 0.669723 0.500000 0.504921
O O13 0.551889 0.340978 0.651953
O O14 0.852697 0.356894 0.522581
O O15 0.045399 0.205331 0.395313
O O16 0.031165 0.000000 0.329160
#
# Coordination Sequence:
#
# PCOD9150402 Si02
#       8
#     2   4   4   4   2   4   4   2
#     4   9  20  33  57  81 115 155 187 227 284 339
#     4  10  23  43  63  81 111 155 199 240 288 342
#     4  10  22  35  60  89 117 153 189 237 286 347
#     4  11  20  35  58  89 122 155 191 231 286 348
#     4   9  18  37  52  82 118 154 187 224 283 344
#     4  11  21  38  60  88 118 149 192 239 289 339
#     4  10  21  39  59  82 113 151 193 238 289 341
#     4  10  20  36  58  84 114 155 193 240 280 344
#
# _framework density 18.043361000000001
#
# number of rings (size 3 to 8) (size 9 to 14) (size 15 to 20)
#    0.000    1.846    3.077    0.923    2.154    1.231 
#    0.000    1.154    0.000    5.538    0.000    0.000 
#    0.000    0.000    0.000    0.000    0.000    0.000 
#
# Total GULP energy -145115.187603 kJ/mol
# GULP energy per Si atom -5581.353369 kJ/mol
# Density = 1.800229 g / cm^3
# Si number density = 18.043361 Si / 1000 Ang^3
#
#
#
# Elastic Constant Matrix: (Units=GPa)
#
#
# Indices 1 2 3 4 5 6 
#
# 1 78.7818 31.6207 11.8316 0.0000 0.3783 0.0000
# 2 31.6207 65.8591 17.7946 0.0000 -1.7144 0.0000
# 3 11.8316 17.7946 82.2165 0.0000 -17.2444 0.0000
# 4 0.0000 0.0000 0.0000 27.5042 0.0000 -13.1343
# 5 0.3783 -1.7144 -17.2444 0.0000 17.3055 0.0000
# 6 0.0000 0.0000 0.0000 -13.1343 0.0000 40.7451
#
#
#
# Elastic Compliance Matrix: (Units=1/GPa)
#
#
# Indices 1 2 3 4 5 6 
#
# 1 0.015825 -0.007344 -0.001154 0.000000 -0.002224 0.000000
# 2 -0.007344 0.019613 -0.003473 0.000000 -0.001357 0.000000
# 3 -0.001154 -0.003473 0.016452 0.000000 0.016076 0.000000
# 4 0.000000 0.000000 0.000000 0.042973 0.000000 0.013853
# 5 -0.002224 -0.001357 0.016076 0.000000 0.073718 0.000000
# 6 0.000000 0.000000 0.000000 0.013853 0.000000 0.029008
#
#
# Mechanical properties :
#
#
# Convention : Reuss Voigt Hill
#
# Bulk Modulus (GPa) = 35.78000 38.81681 37.29840
# Shear Modulus (GPa) = 21.65925 28.15166 24.90545
#
# Velocity S-wave (km/s) = 3.46844 3.95425 3.71928
# Velocity P-wave (km/s) = 5.99276 6.51213 6.25784
#
# Compressibility (1/GPa) = 0.02794857
#
# Stress axis : x y z
#
# Youngs Moduli (GPa) = 63.19121 50.98667 60.78115
#
# Poissons Ratio (x) = 0.37445 0.07015
# Poissons Ratio (y) = 0.46408 0.21107
# Poissons Ratio (z) = 0.07294 0.17706
#
# Static dielectric constant tensor:
#      x y z
#    x 1.615650 0.000000 -0.007630 
#    y 0.000000 1.592060 0.000000 
#    z -0.007630 0.000000 1.614540 
# 
# From -- ./inp_files/60903.got.cif
#   From: 2010.05.17/outbox.cif.g08.bks.cpg/sg10_31_cif.got.tgz:60903.got - 2010.06.03 11:33:40.
