data_PCOD9150970
_publ_section_title
;
Structure prediction by ZEFSAII (Michael W. Deem and Ramdas Pophale) SiO2 
 PCOD9150970
Probable space group: P 2/M
;
_chemical_formula_sum "Si O2"
_cell_formula_units_Z 28
_cell_length_a 20.891992
_cell_length_b 7.409830
_cell_length_c 15.572886
_cell_angle_alpha 90.000000
_cell_angle_beta 152.443520
_cell_angle_gamma 90.000000
_cell_volume 1115.280745
_symmetry_space_group_name_H-M "P 2/M"
_symmetry_group_IT_number 10
_symmetry_cell_setting 'monoclinic'
loop_
_space_group_symop_operation_xyz
x,y,z
-x,y,-z
-x,-y,-z
x,-y,z
loop_
_atom_site_type_symbol
_atom_site_label
_atom_site_fract_x
_atom_site_fract_y
_atom_site_fract_z
Si Si1 0.389372 0.205249 0.800840
Si Si2 0.929883 0.204971 0.831796
Si Si3 0.910526 0.778601 0.616880
Si Si4 0.641437 0.284297 0.776225
Si Si5 0.317628 0.715635 0.357425
Si Si6 0.893289 0.782561 0.300649
Si Si7 0.601335 0.706971 0.915113
O O1 0.237235 0.280880 0.598874
O O2 0.364691 0.000000 0.802763
O O3 0.500000 0.288517 0.000000
O O4 0.475266 0.202829 0.814001
O O5 0.936320 0.285270 0.744748
O O6 0.770754 0.201695 0.672102
O O7 0.983089 0.000000 0.889306
O O8 0.000000 0.290535 0.000000
O O9 0.037008 0.726641 0.706140
O O10 0.903922 0.000000 0.611843
O O11 0.668043 0.500000 0.810241
O O12 0.718807 0.218078 0.782560
O O13 0.479236 0.254590 0.564626
O O14 0.655047 0.212983 0.888539
O O15 0.297358 0.500000 0.335472
O O16 0.740461 0.711795 0.136198
O O17 0.000000 0.725434 0.500000
O O18 0.885159 0.000000 0.292546
O O19 0.558358 0.500000 0.848436
#
# Coordination Sequence:
#
# PCOD9150970 Si02
#       7
#     4   4   4   4   4   4   4
#     4  10  20  37  61  84 106 141 189 234 275 328
#     4  10  21  34  49  74 110 144 173 217 275 325
#     4   9  19  36  57  80 110 145 184 231 279 327
#     4   8  17  33  53  77 106 139 174 220 269 314
#     4   9  17  34  56  74 100 141 185 220 256 310
#     4  10  21  39  61  82 107 146 192 231 271 327
#     4  11  22  35  55  85 117 143 176 226 284 335
#
# _framework density 25.105786999999999
#
# number of rings (size 3 to 8) (size 9 to 14) (size 15 to 20)
#    0.000    2.429    0.000    3.000    2.000    3.143 
#    0.000    4.286    0.000    0.000    0.000    0.000 
#    0.000    0.000    0.000    0.000    0.000    0.000 
#
# Total GULP energy -156428.597150 kJ/mol
# GULP energy per Si atom -5586.735613 kJ/mol
# Density = 2.504865 g / cm^3
# Si number density = 25.105787 Si / 1000 Ang^3
#
#
#
# Elastic Constant Matrix: (Units=GPa)
#
#
# Indices 1 2 3 4 5 6 
#
# 1 109.6526 1.3250 5.8657 0.0000 0.6045 0.0000
# 2 1.3250 82.0537 2.5251 0.0000 -1.6864 0.0000
# 3 5.8657 2.5251 81.2267 0.0000 2.4176 0.0000
# 4 0.0000 0.0000 0.0000 -13.3336 0.0000 -2.4490
# 5 0.6045 -1.6864 2.4176 0.0000 45.8491 0.0000
# 6 0.0000 0.0000 0.0000 -2.4490 0.0000 1.0429
#
#
#
# Elastic Compliance Matrix: (Units=1/GPa)
#
#
# Indices 1 2 3 4 5 6 
#
# 1 0.009157 -0.000130 -0.000655 0.000000 -0.000091 0.000000
# 2 -0.000130 0.012211 -0.000384 0.000000 0.000471 0.000000
# 3 -0.000655 -0.000384 0.012390 0.000000 -0.000659 0.000000
# 4 0.000000 0.000000 0.000000 -0.052399 0.000000 -0.123045
# 5 -0.000091 0.000471 -0.000659 0.000000 0.021864 0.000000
# 6 0.000000 0.000000 0.000000 -0.123045 0.000000 0.669924
#
#
# Mechanical properties :
#
#
# Convention : Reuss Voigt Hill
#
# Bulk Modulus (GPa) = 31.82600 32.48495 32.15548
# Shear Modulus (GPa) = 7.28909 24.25952 15.77430
#
# Velocity S-wave (km/s) = 1.70577 3.11190 2.50934
# Velocity P-wave (km/s) = 4.07232 5.08716 4.60776
#
# Compressibility (1/GPa) = 0.03142085
#
# Stress axis : x y z
#
# Youngs Moduli (GPa) = 109.20855 81.89516 80.71001
#
# Poissons Ratio (x) = 0.01061 0.05283
# Poissons Ratio (y) = 0.01415 0.03101
# Poissons Ratio (z) = 0.07148 0.03147
#
# Static dielectric constant tensor:
#      x y z
#    x 1.969040 0.000000 -0.047530 
#    y 0.000000 1.993440 0.000000 
#    z -0.047530 0.000000 1.995750 
# 
# From -- ./inp_files/70290.got.cif
#   From: 2010.05.17/outbox.cif.g08.bks.cpg/sg10_36_cif.got.tgz:70290.got - 2010.06.03 11:33:40.
