data_PCOD9150810
_publ_section_title
;
Structure prediction by ZEFSAII (Michael W. Deem and Ramdas Pophale) SiO2 
 PCOD9150810
Probable space group: P 2/M
;
_chemical_formula_sum "Si O2"
_cell_formula_units_Z 26
_cell_length_a 7.714340
_cell_length_b 7.894419
_cell_length_c 25.130865
_cell_angle_alpha 90.000000
_cell_angle_beta 136.038579
_cell_angle_gamma 90.000000
_cell_volume 1062.416096
_symmetry_space_group_name_H-M "P 2/M"
_symmetry_group_IT_number 10
_symmetry_cell_setting 'monoclinic'
loop_
_space_group_symop_operation_xyz
x,y,z
-x,y,-z
-x,-y,-z
x,-y,z
loop_
_atom_site_type_symbol
_atom_site_label
_atom_site_fract_x
_atom_site_fract_y
_atom_site_fract_z
Si Si1 0.788642 0.207412 0.568051
Si Si2 0.724810 0.692600 0.936434
Si Si3 0.024326 0.189381 0.164578
Si Si4 0.733384 0.196414 0.376165
Si Si5 0.229192 0.793771 0.318525
Si Si6 0.504059 0.692718 0.784876
Si Si7 0.500000 0.250131 0.000000
O O1 0.500000 0.256347 0.500000
O O2 0.857376 0.263813 0.643002
O O3 0.986380 0.268246 0.567536
O O4 0.796345 0.000000 0.567067
O O5 0.761833 0.500000 0.925005
O O6 0.532793 0.768495 0.850625
O O7 0.613588 0.678003 0.970471
O O8 0.000000 0.775621 0.000000
O O9 0.044723 0.251060 0.229723
O O10 0.206576 0.303726 0.170400
O O11 0.135496 0.000000 0.188197
O O12 0.751750 0.175544 0.080589
O O13 0.507190 0.266737 0.362152
O O14 0.635662 0.209334 0.293328
O O15 0.755645 0.000000 0.397022
O O16 0.240419 0.000000 0.324117
O O17 0.408170 0.500000 0.764089
#
# Coordination Sequence:
#
# PCOD9150810 Si02
#       7
#     4   4   4   4   4   4   2
#     4   9  17  29  50  81 110 138 173 211 262 324
#     4  10  21  37  53  76 108 142 183 229 274 319
#     4  10  21  37  54  80 113 143 182 225 274 324
#     4   9  18  33  54  78 107 140 171 215 272 314
#     4   8  16  31  48  70 106 139 171 216 258 308
#     4  10  20  37  58  78 105 142 187 228 264 321
#     4  12  22  34  56  78 107 146 183 226 275 326
#
# _framework density 24.472521
#
# number of rings (size 3 to 8) (size 9 to 14) (size 15 to 20)
#    0.000    2.462    1.538    1.846    2.154    1.231 
#    0.000    6.154    0.000    0.462    0.000    4.308 
#    0.000    0.000    0.000    0.000    0.000    0.000 
#
# Total GULP energy -144857.249462 kJ/mol
# GULP energy per Si atom -5571.432672 kJ/mol
# Density = 2.441682 g / cm^3
# Si number density = 24.472521 Si / 1000 Ang^3
#
#
#
# Elastic Constant Matrix: (Units=GPa)
#
#
# Indices 1 2 3 4 5 6 
#
# 1 128.1582 2.6326 8.1333 0.0000 12.1715 0.0000
# 2 2.6326 27.5761 0.6411 0.0000 -0.3374 0.0000
# 3 8.1333 0.6411 38.8587 0.0000 11.7124 0.0000
# 4 0.0000 0.0000 0.0000 3.3774 0.0000 -4.3400
# 5 12.1715 -0.3374 11.7124 0.0000 48.4000 0.0000
# 6 0.0000 0.0000 0.0000 -4.3400 0.0000 20.1644
#
#
#
# Elastic Compliance Matrix: (Units=1/GPa)
#
#
# Indices 1 2 3 4 5 6 
#
# 1 0.008058 -0.000764 -0.001145 0.000000 -0.001755 0.000000
# 2 -0.000764 0.036358 -0.000619 0.000000 0.000596 0.000000
# 3 -0.001145 -0.000619 0.027936 0.000000 -0.006477 0.000000
# 4 0.000000 0.000000 0.000000 0.409288 0.000000 0.088090
# 5 -0.001755 0.000596 -0.006477 0.000000 0.022674 0.000000
# 6 0.000000 0.000000 0.000000 0.088090 0.000000 0.068552
#
#
# Mechanical properties :
#
#
# Convention : Reuss Voigt Hill
#
# Bulk Modulus (GPa) = 14.85997 24.15634 19.50815
# Shear Modulus (GPa) = 8.32841 26.60074 17.46458
#
# Velocity S-wave (km/s) = 1.84677 3.30049 2.67430
# Velocity P-wave (km/s) = 3.26078 4.94131 4.18624
#
# Compressibility (1/GPa) = 0.06729490
#
# Stress axis : x y z
#
# Youngs Moduli (GPa) = 124.10241 27.50427 35.79574
#
# Poissons Ratio (x) = 0.02102 0.04099
# Poissons Ratio (y) = 0.09483 0.02217
# Poissons Ratio (z) = 0.14211 0.01704
#
# Static dielectric constant tensor:
#      x y z
#    x 1.931730 0.000000 0.004140 
#    y 0.000000 1.962620 0.000000 
#    z 0.004140 0.000000 2.052130 
# 
# From -- ./inp_files/91889.got.cif
#   From: 2010.05.17/outbox.cif.g08.bks.cpg/sg10_46_cif.got.tgz:91889.got - 2010.06.03 11:33:40.
