data_PCOD9150929
_publ_section_title
;
Structure prediction by ZEFSAII (Michael W. Deem and Ramdas Pophale) SiO2 
 PCOD9150929
Probable space group: P 2/M
;
_chemical_formula_sum "Si O2"
_cell_formula_units_Z 28
_cell_length_a 14.990275
_cell_length_b 8.588376
_cell_length_c 20.496646
_cell_angle_alpha 90.000000
_cell_angle_beta 147.369909
_cell_angle_gamma 90.000000
_cell_volume 1422.865764
_symmetry_space_group_name_H-M "P 2/M"
_symmetry_group_IT_number 10
_symmetry_cell_setting 'monoclinic'
loop_
_space_group_symop_operation_xyz
x,y,z
-x,y,-z
-x,-y,-z
x,-y,z
loop_
_atom_site_type_symbol
_atom_site_label
_atom_site_fract_x
_atom_site_fract_y
_atom_site_fract_z
Si Si1 0.800354 0.683360 0.569737
Si Si2 0.486788 0.186127 0.693638
Si Si3 0.588328 0.812276 0.204467
Si Si4 0.169549 0.313737 0.142082
Si Si5 0.269021 0.315218 0.935231
Si Si6 0.873042 0.814663 0.284894
Si Si7 0.062322 0.184876 0.212961
O O1 0.803314 0.500000 0.584320
O O2 0.631529 0.734850 0.432180
O O3 0.836696 0.772140 0.659635
O O4 0.953033 0.728792 0.616533
O O5 0.429341 0.231473 0.730959
O O6 0.674192 0.237968 0.797039
O O7 0.472846 0.000000 0.679243
O O8 0.763942 0.771992 0.280293
O O9 0.569899 0.000000 0.188160
O O10 0.441080 0.735259 0.072714
O O11 0.189193 0.500000 0.155191
O O12 0.151179 0.249740 0.203857
O O13 0.000000 0.276019 0.000000
O O14 0.263571 0.500000 0.921564
O O15 0.233594 0.229884 0.844902
O O16 0.117211 0.264550 0.888356
O O17 0.902907 0.000000 0.303328
O O18 0.040759 0.000000 0.195310
#
# Coordination Sequence:
#
# PCOD9150929 Si02
#       7
#     4   4   4   4   4   4   4
#     4  11  23  41  62  87 119 153 195 245 296 346
#     4  11  24  42  62  86 117 155 200 243 287 345
#     4  10  22  38  58  84 117 158 200 244 292 346
#     4  11  24  42  64  93 125 154 188 235 292 348
#     4  11  21  34  56  88 123 155 193 244 297 349
#     4  10  20  37  60  85 116 156 200 243 291 348
#     4  11  22  39  64  89 117 156 198 240 289 347
#
# _framework density 19.678595999999999
#
# number of rings (size 3 to 8) (size 9 to 14) (size 15 to 20)
#    0.000    1.286    0.000    8.143    0.000    8.571 
#    0.000    5.714    0.000    0.000    0.000    0.000 
#    0.000    0.000    0.000    0.000    0.000    0.000 
#
# Total GULP energy -156645.486555 kJ/mol
# GULP energy per Si atom -5594.481663 kJ/mol
# Density = 1.963381 g / cm^3
# Si number density = 19.678596 Si / 1000 Ang^3
#
#
#
# Elastic Constant Matrix: (Units=GPa)
#
#
# Indices 1 2 3 4 5 6 
#
# 1 99.5967 3.5469 -6.9264 0.0000 -10.4709 0.0000
# 2 3.5469 33.9476 -1.1525 0.0000 1.0125 0.0000
# 3 -6.9264 -1.1525 52.0407 0.0000 -2.1043 0.0000
# 4 0.0000 0.0000 0.0000 25.0900 0.0000 6.9878
# 5 -10.4709 1.0125 -2.1043 0.0000 -6.3504 0.0000
# 6 0.0000 0.0000 0.0000 6.9878 0.0000 64.4558
#
#
#
# Elastic Compliance Matrix: (Units=1/GPa)
#
#
# Indices 1 2 3 4 5 6 
#
# 1 0.008581 -0.000448 0.000550 0.000000 -0.014402 0.000000
# 2 -0.000448 0.029377 0.000799 0.000000 0.005158 0.000000
# 3 0.000550 0.000799 0.019020 0.000000 -0.007081 0.000000
# 4 0.000000 0.000000 0.000000 0.041097 0.000000 -0.004455
# 5 -0.014402 0.005158 -0.007081 0.000000 -0.130554 0.000000
# 6 0.000000 0.000000 0.000000 -0.004455 0.000000 0.015998
#
#
# Mechanical properties :
#
#
# Convention : Reuss Voigt Hill
#
# Bulk Modulus (GPa) = 17.01256 19.61345 18.31301
# Shear Modulus (GPa) = 3815.43694 29.31354 1922.37524
#
# Velocity S-wave (km/s) = 44.08045 3.86374 31.28909
# Velocity P-wave (km/s) = 50.98475 5.46747 36.25837
#
# Compressibility (1/GPa) = 0.05878011
#
# Stress axis : x y z
#
# Youngs Moduli (GPa) = 116.54220 34.03993 52.57546
#
# Poissons Ratio (x) = 0.01526 -0.02890
# Poissons Ratio (y) = 0.05224 -0.04203
# Poissons Ratio (z) = -0.06407 -0.02721
#
# Static dielectric constant tensor:
#      x y z
#    x 1.686300 0.000000 0.004380 
#    y 0.000000 1.660320 0.000000 
#    z 0.004380 0.000000 1.659090 
# 
# From -- ./inp_files/70312.got.cif
#   From: 2010.05.17/outbox.cif.g08.bks.cpg/sg10_36_cif.got.tgz:70312.got - 2010.06.03 11:33:40.
