data_PCOD9150355
_publ_section_title
;
Structure prediction by ZEFSAII (Michael W. Deem and Ramdas Pophale) SiO2 
 PCOD9150355
Probable space group: P 2/M
;
_chemical_formula_sum "Si O2"
_cell_formula_units_Z 32
_cell_length_a 16.606598
_cell_length_b 13.592123
_cell_length_c 21.787830
_cell_angle_alpha 90.000000
_cell_angle_beta 19.301113
_cell_angle_gamma 90.000000
_cell_volume 1625.535329
_symmetry_space_group_name_H-M "P 2/M"
_symmetry_group_IT_number 10
_symmetry_cell_setting 'monoclinic'
loop_
_space_group_symop_operation_xyz
x,y,z
-x,y,-z
-x,-y,-z
x,-y,z
loop_
_atom_site_type_symbol
_atom_site_label
_atom_site_fract_x
_atom_site_fract_y
_atom_site_fract_z
Si Si1 0.727483 0.712444 0.689365
Si Si2 0.875108 0.116301 0.022901
Si Si3 0.471395 0.886497 0.094217
Si Si4 0.638796 0.616131 0.959559
Si Si5 0.626933 0.765263 0.622373
Si Si6 0.980507 0.885192 0.293772
Si Si7 0.228218 0.215914 0.670537
Si Si8 0.184571 0.381895 0.606957
O O1 0.710690 0.812550 0.741814
O O2 0.656461 0.730975 0.670541
O O3 0.000000 0.672024 0.500000
O O4 0.526582 0.642964 0.864046
O O5 0.038624 0.179611 0.858102
O O6 0.861972 0.000000 0.014310
O O7 0.609160 0.166050 0.215895
O O8 0.000000 0.120383 0.000000
O O9 0.418452 0.000000 0.147578
O O10 0.500000 0.880727 0.000000
O O11 0.742695 0.858188 0.922135
O O12 0.644095 0.500000 0.947924
O O13 0.919161 0.642101 0.768764
O O14 0.500000 0.659542 0.000000
O O15 0.865226 0.828916 0.433661
O O16 0.628504 0.673557 0.573420
O O17 0.811514 0.857054 0.358282
O O18 0.982295 0.000000 0.305349
O O19 0.500000 0.208980 0.500000
O O20 0.190855 0.324197 0.667357
O O21 0.215876 0.500000 0.588624
#
# Coordination Sequence:
#
# PCOD9150355 Si02
#       8
#     4   4   4   4   4   4   4   4
#     4  12  23  34  54  83 117 152 186 232 290 342
#     4  11  23  39  61  90 122 152 185 237 300 348
#     4  10  21  37  55  77 111 157 204 239 274 338
#     4  10  21  39  62  85 110 144 189 237 285 342
#     4  11  22  36  56  86 120 148 187 240 292 347
#     4  10  20  36  58  81 110 153 199 241 287 340
#     4  11  23  40  62  87 117 153 199 241 281 344
#     4  10  22  42  65  86 114 155 198 239 287 345
#
# _framework density 19.685822000000002
#
# number of rings (size 3 to 8) (size 9 to 14) (size 15 to 20)
#    0.000    1.375    0.000    7.125    0.000    5.250 
#    0.000    0.625    0.000    1.500    0.000    0.000 
#    0.000    0.000    0.000    0.000    0.000    0.000 
#
# Total GULP energy -178725.017632 kJ/mol
# GULP energy per Si atom -5585.156801 kJ/mol
# Density = 1.964102 g / cm^3
# Si number density = 19.685822 Si / 1000 Ang^3
#
#
#
# Elastic Constant Matrix: (Units=GPa)
#
#
# Indices 1 2 3 4 5 6 
#
# 1 94.1478 5.9653 27.5330 0.0000 -1.4593 0.0000
# 2 5.9653 65.2829 33.6198 0.0000 -6.6913 0.0000
# 3 27.5330 33.6198 87.7866 0.0000 0.6189 0.0000
# 4 0.0000 0.0000 0.0000 16.9551 0.0000 -12.7327
# 5 -1.4593 -6.6913 0.6189 0.0000 30.7039 0.0000
# 6 0.0000 0.0000 0.0000 -12.7327 0.0000 -11.2828
#
#
#
# Elastic Compliance Matrix: (Units=1/GPa)
#
#
# Indices 1 2 3 4 5 6 
#
# 1 0.011773 0.001147 -0.004138 0.000000 0.000893 0.000000
# 2 0.001147 0.019780 -0.007967 0.000000 0.004526 0.000000
# 3 -0.004138 -0.007967 0.015756 0.000000 -0.002250 0.000000
# 4 0.000000 0.000000 0.000000 0.031924 0.000000 -0.036027
# 5 0.000893 0.004526 -0.002250 0.000000 0.033643 0.000000
# 6 0.000000 0.000000 0.000000 -0.036027 0.000000 -0.047974
#
#
# Mechanical properties :
#
#
# Convention : Reuss Voigt Hill
#
# Bulk Modulus (GPa) = 39.38103 42.38372 40.88237
# Shear Modulus (GPa) = 52.47584 19.28186 35.87885
#
# Velocity S-wave (km/s) = 5.16861 3.13306 4.27379
# Velocity P-wave (km/s) = 7.46107 5.88769 6.72058
#
# Compressibility (1/GPa) = 0.02539294
#
# Stress axis : x y z
#
# Youngs Moduli (GPa) = 84.94108 50.55684 63.46835
#
# Poissons Ratio (x) = -0.05797 0.26262
# Poissons Ratio (y) = -0.09740 0.50563
# Poissons Ratio (z) = 0.35147 0.40277
#
# Static dielectric constant tensor:
#      x y z
#    x 1.709320 0.000000 -0.028670 
#    y 0.000000 1.705420 0.000000 
#    z -0.028670 0.000000 1.744400 
# 
# From -- ./inp_files/85391.got.cif
#   From: 2010.05.17/outbox.cif.g08.bks.cpg/sg10_43_cif.got.tgz:85391.got - 2010.06.03 11:33:40.
