data_PCOD9150963
_publ_section_title
;
Structure prediction by ZEFSAII (Michael W. Deem and Ramdas Pophale) SiO2 
 PCOD9150963
Probable space group: P 2/M
;
_chemical_formula_sum "Si O2"
_cell_formula_units_Z 32
_cell_length_a 12.993432
_cell_length_b 13.808350
_cell_length_c 17.743273
_cell_angle_alpha 90.000000
_cell_angle_beta 150.124407
_cell_angle_gamma 90.000000
_cell_volume 1585.740046
_symmetry_space_group_name_H-M "P 2/M"
_symmetry_group_IT_number 10
_symmetry_cell_setting 'monoclinic'
loop_
_space_group_symop_operation_xyz
x,y,z
-x,y,-z
-x,-y,-z
x,-y,z
loop_
_atom_site_type_symbol
_atom_site_label
_atom_site_fract_x
_atom_site_fract_y
_atom_site_fract_z
Si Si1 0.224232 0.607141 0.305919
Si Si2 0.894785 0.719602 0.620980
Si Si3 0.561530 0.763461 0.901308
Si Si4 0.185888 0.112380 0.817519
Si Si5 0.824141 0.615883 0.321410
Si Si6 0.221031 0.891534 0.660514
Si Si7 0.867511 0.325048 0.982248
Si Si8 0.515012 0.609449 0.352418
O O1 0.245781 0.500000 0.351468
O O2 0.156534 0.677714 0.329284
O O3 0.419119 0.626567 0.374983
O O4 0.033448 0.607535 0.127110
O O5 0.686084 0.690010 0.444793
O O6 0.968647 0.829557 0.677346
O O7 0.072663 0.661384 0.688606
O O8 0.394064 0.675620 0.808113
O O9 0.422106 0.836100 0.763562
O O10 0.759929 0.736134 0.978726
O O11 0.659116 0.820191 0.035402
O O12 0.240037 0.107745 0.763237
O O13 0.182495 0.000000 0.842078
O O14 0.786439 0.500000 0.291236
O O15 0.000000 0.627119 0.500000
O O16 0.000000 0.845877 0.500000
O O17 0.217298 0.000000 0.627884
O O18 0.677737 0.380540 0.824584
O O19 0.000000 0.273363 0.000000
O O20 0.598639 0.500000 0.397627
#
# Coordination Sequence:
#
# PCOD9150963 Si02
#       8
#     4   4   4   4   4   4   4   4
#     4  10  20  37  60  92 125 161 211 253 293 358
#     4  12  22  39  61  91 122 165 206 251 308 367
#     4  12  22  40  64  91 122 169 207 246 310 373
#     4  11  25  43  64  91 124 160 206 263 317 363
#     4  11  25  41  60  94 139 173 199 241 306 378
#     4  10  22  40  66  96 121 153 208 264 308 366
#     4  10  22  38  60  91 123 163 205 251 298 359
#     4  10  21  37  62  91 125 167 207 250 298 356
#
# _framework density 20.179852
#
# number of rings (size 3 to 8) (size 9 to 14) (size 15 to 20)
#    0.000    1.250    2.500    3.750    1.750    5.500 
#    0.000    0.625    0.000    3.000    0.000    0.000 
#    0.000    0.000    0.000    0.000    0.000    0.000 
#
# Total GULP energy -178373.335639 kJ/mol
# GULP energy per Si atom -5574.166739 kJ/mol
# Density = 2.013392 g / cm^3
# Si number density = 20.179852 Si / 1000 Ang^3
#
#
#
# Elastic Constant Matrix: (Units=GPa)
#
#
# Indices 1 2 3 4 5 6 
#
# 1 77.6589 33.3422 20.7096 0.0000 11.8596 0.0000
# 2 33.3422 120.2972 45.1203 0.0000 14.1275 0.0000
# 3 20.7096 45.1203 126.8616 0.0000 10.8226 0.0000
# 4 0.0000 0.0000 0.0000 27.6497 0.0000 -5.3497
# 5 11.8596 14.1275 10.8226 0.0000 40.2932 0.0000
# 6 0.0000 0.0000 0.0000 -5.3497 0.0000 8.7318
#
#
#
# Elastic Compliance Matrix: (Units=1/GPa)
#
#
# Indices 1 2 3 4 5 6 
#
# 1 0.015077 -0.003465 -0.000976 0.000000 -0.002961 0.000000
# 2 -0.003465 0.010642 -0.003058 0.000000 -0.001890 0.000000
# 3 -0.000976 -0.003058 0.009225 0.000000 -0.001118 0.000000
# 4 0.000000 0.000000 0.000000 0.041030 0.000000 0.025138
# 5 -0.002961 -0.001890 -0.001118 0.000000 0.026652 0.000000
# 6 0.000000 0.000000 0.000000 0.025138 0.000000 0.129924
#
#
# Mechanical properties :
#
#
# Convention : Reuss Voigt Hill
#
# Bulk Modulus (GPa) = 50.13718 58.12912 54.13315
# Shear Modulus (GPa) = 19.66967 30.37800 25.02383
#
# Velocity S-wave (km/s) = 3.12543 3.88411 3.52524
# Velocity P-wave (km/s) = 6.15821 6.99880 6.59192
#
# Compressibility (1/GPa) = 0.01994528
#
# Stress axis : x y z
#
# Youngs Moduli (GPa) = 66.32651 93.96639 108.40035
#
# Poissons Ratio (x) = 0.32559 0.10583
# Poissons Ratio (y) = 0.22982 0.33150
# Poissons Ratio (z) = 0.06476 0.28736
#
# Static dielectric constant tensor:
#      x y z
#    x 1.759310 0.000000 -0.030680 
#    y 0.000000 1.730990 0.000000 
#    z -0.030680 0.000000 1.809460 
# 
# From -- ./inp_files/77058.got.cif
#   From: 2010.05.17/outbox.cif.g08.bks.cpg/sg10_39_cif.got.tgz:77058.got - 2010.06.03 11:33:40.
