data_PCOD9150321
_publ_section_title
;
Structure prediction by ZEFSAII (Michael W. Deem and Ramdas Pophale) SiO2 
 PCOD9150321
Probable space group: P 2/M
;
_chemical_formula_sum "Si O2"
_cell_formula_units_Z 32
_cell_length_a 15.408021
_cell_length_b 14.301980
_cell_length_c 21.147812
_cell_angle_alpha 90.000000
_cell_angle_beta 19.925310
_cell_angle_gamma 90.000000
_cell_volume 1588.186623
_symmetry_space_group_name_H-M "P 2/M"
_symmetry_group_IT_number 10
_symmetry_cell_setting 'monoclinic'
loop_
_space_group_symop_operation_xyz
x,y,z
-x,y,-z
-x,-y,-z
x,-y,z
loop_
_atom_site_type_symbol
_atom_site_label
_atom_site_fract_x
_atom_site_fract_y
_atom_site_fract_z
Si Si1 0.286500 0.898793 0.330736
Si Si2 0.550372 0.605593 0.227002
Si Si3 0.365558 0.891577 0.523466
Si Si4 0.989131 0.726844 0.259875
Si Si5 0.539972 0.217669 0.898450
Si Si6 0.104673 0.607341 0.789299
Si Si7 0.271499 0.255049 0.786154
Si Si8 0.108643 0.724326 0.524856
O O1 0.450797 0.866660 0.157999
O O2 0.260948 0.817667 0.399825
O O3 0.000000 0.906076 0.500000
O O4 0.365718 0.000000 0.301215
O O5 0.526073 0.500000 0.267201
O O6 0.611424 0.676685 0.241622
O O7 0.284918 0.640518 0.379520
O O8 0.800919 0.608747 0.011851
O O9 0.500000 0.890196 0.500000
O O10 0.111929 0.827545 0.695523
O O11 0.556250 0.833499 0.348003
O O12 0.322737 0.000000 0.535170
O O13 0.918099 0.717477 0.381562
O O14 0.861957 0.648474 0.303392
O O15 0.294640 0.722205 0.048259
O O16 0.816401 0.266628 0.701831
O O17 0.500000 0.190718 0.000000
O O18 0.190712 0.500000 0.738015
O O19 0.227366 0.679910 0.754646
O O20 0.000000 0.224565 0.000000
#
# Coordination Sequence:
#
# PCOD9150321 Si02
#       8
#     4   4   4   4   4   4   4   4
#     4   9  18  34  56  81 110 146 193 246 293 338
#     4  10  20  36  60  90 120 155 199 247 301 356
#     4  11  23  40  59  85 119 155 194 239 294 358
#     4  11  21  38  58  82 120 159 196 240 296 347
#     4   9  20  36  59  85 118 161 195 243 292 348
#     4  10  21  37  60  89 120 153 199 251 299 354
#     4  10  20  39  63  88 118 152 193 246 303 352
#     4  10  20  36  57  85 117 156 198 246 290 343
#
# _framework density 20.148765000000001
#
# number of rings (size 3 to 8) (size 9 to 14) (size 15 to 20)
#    0.000    2.000    2.500    1.125    0.000    3.500 
#    0.000    3.750    0.000    7.125    0.000    0.000 
#    0.000    0.000    0.000    0.000    0.000    0.000 
#
# Total GULP energy -178475.172263 kJ/mol
# GULP energy per Si atom -5577.349133 kJ/mol
# Density = 2.010291 g / cm^3
# Si number density = 20.148765 Si / 1000 Ang^3
#
#
#
# Elastic Constant Matrix: (Units=GPa)
#
#
# Indices 1 2 3 4 5 6 
#
# 1 55.1535 9.4016 7.7950 0.0000 10.1209 0.0000
# 2 9.4016 74.2924 16.9393 0.0000 6.1773 0.0000
# 3 7.7950 16.9393 87.5268 0.0000 -12.5230 0.0000
# 4 0.0000 0.0000 0.0000 9.0860 0.0000 12.5870
# 5 10.1209 6.1773 -12.5230 0.0000 23.5332 0.0000
# 6 0.0000 0.0000 0.0000 12.5870 0.0000 8.3535
#
#
#
# Elastic Compliance Matrix: (Units=1/GPa)
#
#
# Indices 1 2 3 4 5 6 
#
# 1 0.020629 -0.001052 -0.003099 0.000000 -0.010245 0.000000
# 2 -0.001052 0.014844 -0.003542 0.000000 -0.005329 0.000000
# 3 -0.003099 -0.003542 0.013758 0.000000 0.009584 0.000000
# 4 0.000000 0.000000 0.000000 -0.101215 0.000000 0.152510
# 5 -0.010245 -0.005329 0.009584 0.000000 0.053398 0.000000
# 6 0.000000 0.000000 0.000000 0.152510 0.000000 -0.110090
#
#
# Mechanical properties :
#
#
# Convention : Reuss Voigt Hill
#
# Bulk Modulus (GPa) = 29.54685 31.69382 30.62034
# Shear Modulus (GPa) = -60.96864 20.38366 -20.29249
#
# Velocity S-wave (km/s) = -5.50681 3.18411 -3.17698
# Velocity P-wave (km/s) = 5.07317 5.41129 1.33136
#
# Compressibility (1/GPa) = 0.03384455
#
# Stress axis : x y z
#
# Youngs Moduli (GPa) = 48.47653 67.36723 72.68668
#
# Poissons Ratio (x) = 0.07087 0.22528
# Poissons Ratio (y) = 0.05100 0.25742
# Poissons Ratio (z) = 0.15025 0.23858
#
# Static dielectric constant tensor:
#      x y z
#    x 1.720740 0.000000 -0.011400 
#    y 0.000000 1.697630 0.000000 
#    z -0.011400 0.000000 1.781000 
# 
# From -- ./inp_files/85392.got.cif
#   From: 2010.05.17/outbox.cif.g08.bks.cpg/sg10_43_cif.got.tgz:85392.got - 2010.06.03 11:33:40.
