data_PCOD9150225
_publ_section_title
;
Structure prediction by ZEFSAII (Michael W. Deem and Ramdas Pophale) SiO2 
 PCOD9150225
Probable space group: P 2/M
;
_chemical_formula_sum "Si O2"
_cell_formula_units_Z 32
_cell_length_a 14.656925
_cell_length_b 7.613799
_cell_length_c 25.588052
_cell_angle_alpha 90.000000
_cell_angle_beta 29.724878
_cell_angle_gamma 90.000000
_cell_volume 1415.856908
_symmetry_space_group_name_H-M "P 2/M"
_symmetry_group_IT_number 10
_symmetry_cell_setting 'monoclinic'
loop_
_space_group_symop_operation_xyz
x,y,z
-x,y,-z
-x,-y,-z
x,-y,z
loop_
_atom_site_type_symbol
_atom_site_label
_atom_site_fract_x
_atom_site_fract_y
_atom_site_fract_z
Si Si1 0.654212 0.795116 0.562174
Si Si2 0.075385 0.215768 0.657314
Si Si3 0.994369 0.794359 0.812899
Si Si4 0.342941 0.710951 0.959627
Si Si5 0.249162 0.296426 0.895083
Si Si6 0.766576 0.792506 0.731049
Si Si7 0.761953 0.295919 0.210896
Si Si8 0.677581 0.784599 0.663608
O O1 0.744120 0.725902 0.464501
O O2 0.434327 0.782177 0.674843
O O3 0.733685 0.724996 0.577747
O O4 0.702985 0.000000 0.538223
O O5 0.055758 0.278067 0.726384
O O6 0.906298 0.275483 0.704856
O O7 0.071227 0.000000 0.662859
O O8 0.099905 0.715875 0.809916
O O9 0.037093 0.000000 0.792912
O O10 0.777953 0.769078 0.931285
O O11 0.341135 0.500000 0.958135
O O12 0.243339 0.781846 0.956181
O O13 0.554657 0.767487 0.853260
O O14 0.190978 0.500000 0.929605
O O15 0.169667 0.224047 0.879714
O O16 0.469037 0.282631 0.774772
O O17 0.784102 0.726125 0.662579
O O18 0.802603 0.000000 0.709945
O O19 0.726002 0.500000 0.218319
O O20 0.672455 0.000000 0.666263
#
# Coordination Sequence:
#
# PCOD9150225 Si02
#       8
#     4   4   4   4   4   4   4   4
#     4   9  17  33  55  80 107 137 170 209 255 306
#     4   9  20  36  54  75 104 141 180 213 250 302
#     4  11  23  38  53  73 101 139 182 219 252 300
#     4  10  20  36  56  79 105 135 168 211 262 311
#     4   8  16  31  52  75 103 134 163 197 255 323
#     4   9  17  33  55  80 107 137 170 209 255 306
#     4  10  20  36  56  79 105 135 168 211 262 311
#     4   8  14  25  49  81 107 128 162 209 253 297
#
# _framework density 22.601153
#
# number of rings (size 3 to 8) (size 9 to 14) (size 15 to 20)
#    0.000    2.750    0.000    1.125    0.000    3.000 
#    0.000   13.125    0.000    0.000    0.000    8.750 
#    0.000    0.000    0.000    0.000    0.000    0.000 
#
# Total GULP energy -178492.347254 kJ/mol
# GULP energy per Si atom -5577.885852 kJ/mol
# Density = 2.254971 g / cm^3
# Si number density = 22.601153 Si / 1000 Ang^3
#
#
#
# Elastic Constant Matrix: (Units=GPa)
#
#
# Indices 1 2 3 4 5 6 
#
# 1 82.4849 -0.0294 40.4934 0.0000 17.4110 0.0000
# 2 -0.0294 50.0749 -10.6353 0.0000 4.0776 0.0000
# 3 40.4934 -10.6353 128.9796 0.0000 35.7584 0.0000
# 4 0.0000 0.0000 0.0000 31.3923 0.0000 -9.4103
# 5 17.4110 4.0776 35.7584 0.0000 40.2515 0.0000
# 6 0.0000 0.0000 0.0000 -9.4103 0.0000 12.4853
#
#
#
# Elastic Compliance Matrix: (Units=1/GPa)
#
#
# Indices 1 2 3 4 5 6 
#
# 1 0.014612 -0.000577 -0.003846 0.000000 -0.002845 0.000000
# 2 -0.000577 0.021044 0.003235 0.000000 -0.004756 0.000000
# 3 -0.003846 0.003235 0.011751 0.000000 -0.009104 0.000000
# 4 0.000000 0.000000 0.000000 0.041153 0.000000 0.031017
# 5 -0.002845 -0.004756 -0.009104 0.000000 0.034644 0.000000
# 6 0.000000 0.000000 0.000000 0.031017 0.000000 0.103472
#
#
# Mechanical properties :
#
#
# Convention : Reuss Voigt Hill
#
# Bulk Modulus (GPa) = 22.20665 35.68855 28.94760
# Shear Modulus (GPa) = 20.48657 32.27321 26.37989
#
# Velocity S-wave (km/s) = 3.01398 3.78292 3.42013
# Velocity P-wave (km/s) = 4.68603 5.90809 5.33218
#
# Compressibility (1/GPa) = 0.04503155
#
# Stress axis : x y z
#
# Youngs Moduli (GPa) = 68.43707 47.51921 85.09689
#
# Poissons Ratio (x) = 0.02740 0.32730
# Poissons Ratio (y) = 0.03946 -0.27528
# Poissons Ratio (z) = 0.26322 -0.15372
#
# Static dielectric constant tensor:
#      x y z
#    x 1.865160 0.000000 0.029790 
#    y 0.000000 1.924230 0.000000 
#    z 0.029790 0.000000 1.856780 
# 
# From -- ./inp_files/66566.got.cif
#   From: 2010.05.17/outbox.cif.g08.bks.cpg/sg10_34_cif.got.tgz:66566.got - 2010.06.03 11:33:40.
