data_PCOD9150698
_publ_section_title
;
Structure prediction by ZEFSAII (Michael W. Deem and Ramdas Pophale) SiO2 
 PCOD9150698
Probable space group: P 2/M
;
_chemical_formula_sum "Si O2"
_cell_formula_units_Z 30
_cell_length_a 18.384167
_cell_length_b 22.591980
_cell_length_c 5.196524
_cell_angle_alpha 90.000000
_cell_angle_beta 136.343227
_cell_angle_gamma 90.000000
_cell_volume 1489.951716
_symmetry_space_group_name_H-M "P 2/M"
_symmetry_group_IT_number 10
_symmetry_cell_setting 'monoclinic'
loop_
_space_group_symop_operation_xyz
x,y,z
-x,y,-z
-x,-y,-z
x,-y,z
loop_
_atom_site_type_symbol
_atom_site_label
_atom_site_fract_x
_atom_site_fract_y
_atom_site_fract_z
Si Si1 0.573397 0.432674 0.941511
Si Si2 0.608754 0.237019 0.618146
Si Si3 0.073388 0.500000 0.946784
Si Si4 0.120636 0.381707 0.895014
Si Si5 0.298351 0.179597 0.649822
Si Si6 0.722774 0.654461 0.077636
Si Si7 0.572097 0.067983 0.930266
Si Si8 0.880580 0.264614 0.792216
O O1 0.500000 0.429970 0.500000
O O2 0.617267 0.500000 0.067048
O O3 0.500000 0.423828 0.000000
O O4 0.657621 0.380276 0.125237
O O5 0.500000 0.234275 0.500000
O O6 0.626310 0.209262 0.379208
O O7 0.680829 0.202038 0.006754
O O8 0.644305 0.305330 0.707993
O O9 0.133900 0.437800 0.113792
O O10 0.000000 0.500000 0.500000
O O11 0.000000 0.500000 0.000000
O O12 0.210099 0.391174 0.914231
O O13 0.000000 0.384800 0.500000
O O14 0.126965 0.314360 0.007122
O O15 0.181721 0.204852 0.291520
O O16 0.331197 0.111275 0.756836
O O17 0.810242 0.700100 0.404641
O O18 0.500000 0.087713 0.500000
O O19 0.603867 0.000000 0.959712
O O20 0.500000 0.068910 0.000000
O O21 0.000000 0.256281 0.000000
#
# Coordination Sequence:
#
# PCOD9150698 Si02
#       8
#     4   4   2   4   4   4   4   4
#     4  10  24  45  64  85 116 152 198 253 311 384
#     4  11  22  36  56  85 119 153 196 248 296 356
#     4  10  24  40  60  82 106 145 190 249 318 368
#     4  11  22  41  61  83 118 152 200 259 314 376
#     4  11  22  37  59  88 120 163 205 240 299 355
#     4  11  24  37  60  87 111 157 198 245 313 372
#     4  10  20  36  61  94 132 169 203 247 300 353
#     4  11  23  40  59  84 123 158 203 255 309 365
#
# _framework density 20.134881
#
# number of rings (size 3 to 8) (size 9 to 14) (size 15 to 20)
#    0.000    1.333    2.667    3.200    4.667    2.133 
#    1.200    0.000    0.000    0.400    0.000    0.000 
#    0.000    7.200    0.000    0.000    0.000    1.733 
#
# Total GULP energy -167242.703315 kJ/mol
# GULP energy per Si atom -5574.756777 kJ/mol
# Density = 2.008905 g / cm^3
# Si number density = 20.134881 Si / 1000 Ang^3
#
#
#
# Elastic Constant Matrix: (Units=GPa)
#
#
# Indices 1 2 3 4 5 6 
#
# 1 121.0014 49.4165 28.3756 0.0000 1.2388 0.0000
# 2 49.4165 127.4343 41.8751 0.0000 20.5776 0.0000
# 3 28.3756 41.8751 55.3808 0.0000 4.7950 0.0000
# 4 0.0000 0.0000 0.0000 27.4000 0.0000 -1.3926
# 5 1.2388 20.5776 4.7950 0.0000 40.0728 0.0000
# 6 0.0000 0.0000 0.0000 -1.3926 0.0000 14.6316
#
#
#
# Elastic Compliance Matrix: (Units=1/GPa)
#
#
# Indices 1 2 3 4 5 6 
#
# 1 0.010282 -0.003308 -0.002917 0.000000 0.001730 0.000000
# 2 -0.003308 0.012361 -0.007185 0.000000 -0.005385 0.000000
# 3 -0.002917 -0.007185 0.024915 0.000000 0.000798 0.000000
# 4 0.000000 0.000000 0.000000 0.036674 0.000000 0.003491
# 5 0.001730 -0.005385 0.000798 0.000000 0.027571 0.000000
# 6 0.000000 0.000000 0.000000 0.003491 0.000000 0.068678
#
#
# Mechanical properties :
#
#
# Convention : Reuss Voigt Hill
#
# Bulk Modulus (GPa) = 48.22076 60.35010 54.28543
# Shear Modulus (GPa) = 23.34150 28.69749 26.01949
#
# Velocity S-wave (km/s) = 3.40848 3.77936 3.59870
# Velocity P-wave (km/s) = 6.28420 7.00591 6.65484
#
# Compressibility (1/GPa) = 0.02073796
#
# Stress axis : x y z
#
# Youngs Moduli (GPa) = 97.26160 80.90271 40.13670
#
# Poissons Ratio (x) = 0.26762 0.11706
# Poissons Ratio (y) = 0.32173 0.28838
# Poissons Ratio (z) = 0.28367 0.58129
#
# Static dielectric constant tensor:
#      x y z
#    x 1.667790 0.000000 -0.004290 
#    y 0.000000 1.757420 0.000000 
#    z -0.004290 0.000000 1.929630 
# 
# From -- ./inp_files/11808.got.cif
#   From: 2010.05.17/outbox.cif.g08.bks.cpg/sg10_6_cif.got.tgz:11808.got - 2010.06.03 11:33:40.
