data_PCOD9150454
_publ_section_title
;
Structure prediction by ZEFSAII (Michael W. Deem and Ramdas Pophale) SiO2 
 PCOD9150454
Probable space group: P 2/M
;
_chemical_formula_sum "Si O2"
_cell_formula_units_Z 32
_cell_length_a 27.070448
_cell_length_b 8.776759
_cell_length_c 21.503666
_cell_angle_alpha 90.000000
_cell_angle_beta 21.058961
_cell_angle_gamma 90.000000
_cell_volume 1835.835461
_symmetry_space_group_name_H-M "P 2/M"
_symmetry_group_IT_number 10
_symmetry_cell_setting 'monoclinic'
loop_
_space_group_symop_operation_xyz
x,y,z
-x,y,-z
-x,-y,-z
x,-y,z
loop_
_atom_site_type_symbol
_atom_site_label
_atom_site_fract_x
_atom_site_fract_y
_atom_site_fract_z
Si Si1 0.907164 0.682289 0.916337
Si Si2 0.411651 0.316361 0.016704
Si Si3 0.397148 0.681727 0.776279
Si Si4 0.309776 0.183561 0.265756
Si Si5 0.894431 0.315855 0.071020
Si Si6 0.011307 0.818013 0.668479
Si Si7 0.266391 0.316326 0.058589
Si Si8 0.595496 0.181800 0.445904
O O1 0.926701 0.500000 0.888242
O O2 0.991201 0.760809 0.762639
O O3 0.745823 0.712202 0.092155
O O4 0.937888 0.732290 0.950389
O O5 0.416574 0.500000 0.015232
O O6 0.566193 0.250954 0.838627
O O7 0.335422 0.249291 0.166698
O O8 0.332477 0.273405 0.046657
O O9 0.421606 0.500000 0.745734
O O10 0.519668 0.765360 0.597589
O O11 0.364994 0.727679 0.885000
O O12 0.159670 0.226904 0.467279
O O13 0.320634 0.000000 0.251542
O O14 0.889556 0.500000 0.076189
O O15 0.743939 0.254863 0.263113
O O16 0.000000 0.266287 0.000000
O O17 0.883776 0.751094 0.778985
O O18 0.002141 0.000000 0.677839
O O19 0.254031 0.500000 0.070945
O O20 0.500000 0.230663 0.500000
O O21 0.606951 0.000000 0.431148
#
# Coordination Sequence:
#
# PCOD9150454 Si02
#       8
#     4   4   4   4   4   4   4   4
#     4   9  18  34  56  79 105 139 178 223 269 313
#     4  10  20  36  59  83 107 140 181 225 269 309
#     4   9  17  33  56  78 104 139 178 221 267 316
#     4  10  21  37  55  79 112 148 182 214 260 323
#     4  10  21  38  58  79 105 140 181 223 271 321
#     4  10  21  35  55  81 109 144 180 215 263 323
#     4   9  20  37  56  82 111 138 176 227 273 311
#     4  11  22  34  53  81 109 140 179 221 265 317
#
# _framework density 17.430755000000001
#
# number of rings (size 3 to 8) (size 9 to 14) (size 15 to 20)
#    0.000    2.250    1.250    3.000    0.000    6.750 
#    2.250    2.500    0.000    0.000    0.000    0.000 
#    0.000    0.000    0.000    0.000    0.000    0.000 
#
# Total GULP energy -178563.778425 kJ/mol
# GULP energy per Si atom -5580.118076 kJ/mol
# Density = 1.739108 g / cm^3
# Si number density = 17.430755 Si / 1000 Ang^3
#
#
#
# Elastic Constant Matrix: (Units=GPa)
#
#
# Indices 1 2 3 4 5 6 
#
# 1 165.2121 42.5194 93.3145 0.0000 -2.3074 0.0000
# 2 42.5194 26.2432 38.3680 0.0000 -0.7663 0.0000
# 3 93.3145 38.3680 148.0070 0.0000 0.9151 0.0000
# 4 0.0000 0.0000 0.0000 28.0160 0.0000 -1.7921
# 5 -2.3074 -0.7663 0.9151 0.0000 15.4111 0.0000
# 6 0.0000 0.0000 0.0000 -1.7921 0.0000 17.0751
#
#
#
# Elastic Compliance Matrix: (Units=1/GPa)
#
#
# Indices 1 2 3 4 5 6 
#
# 1 0.011687 -0.013062 -0.003991 0.000000 0.001337 0.000000
# 2 -0.013062 0.076207 -0.011535 0.000000 0.002518 0.000000
# 3 -0.003991 -0.011535 0.012274 0.000000 -0.001900 0.000000
# 4 0.000000 0.000000 0.000000 0.035935 0.000000 0.003771
# 5 0.001337 0.002518 -0.001900 0.000000 0.065326 0.000000
# 6 0.000000 0.000000 0.000000 0.003771 0.000000 0.058961
#
#
# Mechanical properties :
#
#
# Convention : Reuss Voigt Hill
#
# Bulk Modulus (GPa) = 23.26001 76.42956 49.84478
# Shear Modulus (GPa) = 15.06486 23.11781 19.09133
#
# Velocity S-wave (km/s) = 2.94303 3.64574 3.31307
# Velocity P-wave (km/s) = 4.99217 7.85268 6.57976
#
# Compressibility (1/GPa) = 0.04299225
#
# Stress axis : x y z
#
# Youngs Moduli (GPa) = 85.56358 13.12214 81.46999
#
# Poissons Ratio (x) = 0.17141 0.32511
# Poissons Ratio (y) = 1.11766 0.93978
# Poissons Ratio (z) = 0.34145 0.15137
#
# Static dielectric constant tensor:
#      x y z
#    x 1.593210 0.000000 0.008200 
#    y 0.000000 1.585780 0.000000 
#    z 0.008200 0.000000 1.564340 
# 
# From -- ./inp_files/86895.got.cif
#   From: 2010.05.17/outbox.cif.g08.bks.cpg/sg10_44_cif.got.tgz:86895.got - 2010.06.03 11:33:40.
