data_PCOD9150654
_publ_section_title
;
Structure prediction by ZEFSAII (Michael W. Deem and Ramdas Pophale) SiO2 
 PCOD9150654
Probable space group: P 2/M
;
_chemical_formula_sum "Si O2"
_cell_formula_units_Z 32
_cell_length_a 12.934273
_cell_length_b 13.624156
_cell_length_c 16.479388
_cell_angle_alpha 90.000000
_cell_angle_beta 35.481900
_cell_angle_gamma 90.000000
_cell_volume 1685.599296
_symmetry_space_group_name_H-M "P 2/M"
_symmetry_group_IT_number 10
_symmetry_cell_setting 'monoclinic'
loop_
_space_group_symop_operation_xyz
x,y,z
-x,y,-z
-x,-y,-z
x,-y,z
loop_
_atom_site_type_symbol
_atom_site_label
_atom_site_fract_x
_atom_site_fract_y
_atom_site_fract_z
Si Si1 0.795864 0.242607 0.628306
Si Si2 0.498608 0.114068 0.752430
Si Si3 0.308537 0.614732 0.751341
Si Si4 0.264300 0.295213 0.949474
Si Si5 0.887781 0.710043 0.273450
Si Si6 0.352770 0.886596 0.524422
Si Si7 0.425348 0.613893 0.138285
Si Si8 0.724536 0.612072 0.524338
O O1 0.665060 0.150921 0.699939
O O2 0.734763 0.310602 0.742381
O O3 0.764161 0.313420 0.571180
O O4 0.000000 0.213492 0.500000
O O5 0.341438 0.189020 0.874982
O O6 0.557071 0.127455 0.621194
O O7 0.456241 0.000000 0.792234
O O8 0.274460 0.500000 0.758048
O O9 0.228412 0.647273 0.888831
O O10 0.228641 0.677181 0.729542
O O11 0.522007 0.628373 0.622843
O O12 0.419111 0.353233 0.898787
O O13 0.090003 0.285778 0.115242
O O14 0.807307 0.811531 0.358684
O O15 0.854541 0.632544 0.366390
O O16 0.500000 0.870602 0.500000
O O17 0.293933 0.000000 0.566885
O O18 0.376896 0.500000 0.183072
O O19 0.500000 0.623167 0.000000
O O20 0.737771 0.500000 0.543910
#
# Coordination Sequence:
#
# PCOD9150654 Si02
#       8
#     4   4   4   4   4   4   4   4
#     4  11  23  40  63  90 117 148 195 253 302 355
#     4  10  21  42  66  86 116 159 198 243 306 363
#     4  11  22  39  59  83 122 170 207 239 291 356
#     4  11  23  38  58  85 122 160 199 250 293 351
#     4  12  23  35  57  90 125 156 199 248 293 349
#     4  10  20  36  61  87 115 153 200 247 297 353
#     4  10  22  39  59  83 116 159 198 239 294 353
#     4  11  22  38  59  87 122 160 198 243 294 354
#
# _framework density 18.984347
#
# number of rings (size 3 to 8) (size 9 to 14) (size 15 to 20)
#    0.000    1.250    3.750    3.375    1.750    5.250 
#    0.000    0.000    0.000    9.750    0.000    0.000 
#    0.000    0.000    0.000    0.000    0.000    0.000 
#
# Total GULP energy -178901.895361 kJ/mol
# GULP energy per Si atom -5590.684230 kJ/mol
# Density = 1.894114 g / cm^3
# Si number density = 18.984347 Si / 1000 Ang^3
#
#
#
# Elastic Constant Matrix: (Units=GPa)
#
#
# Indices 1 2 3 4 5 6 
#
# 1 22.7844 -0.5460 -2.7717 0.0000 7.0987 0.0000
# 2 -0.5460 69.2841 7.2722 0.0000 -0.1915 0.0000
# 3 -2.7717 7.2722 98.5631 0.0000 0.0977 0.0000
# 4 0.0000 0.0000 0.0000 20.9669 0.0000 10.9467
# 5 7.0987 -0.1915 0.0977 0.0000 29.2705 0.0000
# 6 0.0000 0.0000 0.0000 10.9467 0.0000 10.4437
#
#
#
# Elastic Compliance Matrix: (Units=1/GPa)
#
#
# Indices 1 2 3 4 5 6 
#
# 1 0.047659 0.000203 0.001337 0.000000 -0.011561 0.000000
# 2 0.000203 0.014547 -0.001068 0.000000 0.000049 0.000000
# 3 0.001337 -0.001068 0.010263 0.000000 -0.000365 0.000000
# 4 0.000000 0.000000 0.000000 0.105341 0.000000 -0.110415
# 5 -0.011561 0.000049 -0.000365 0.000000 0.036969 0.000000
# 6 0.000000 0.000000 0.000000 -0.110415 0.000000 0.211485
#
#
# Mechanical properties :
#
#
# Convention : Reuss Voigt Hill
#
# Bulk Modulus (GPa) = 13.62145 22.06008 17.84077
# Shear Modulus (GPa) = 11.11628 24.58136 17.84882
#
# Velocity S-wave (km/s) = 2.42244 3.60227 3.06957
# Velocity P-wave (km/s) = 3.87491 5.38026 4.68840
#
# Compressibility (1/GPa) = 0.07341361
#
# Stress axis : x y z
#
# Youngs Moduli (GPa) = 20.98226 68.74206 97.44205
#
# Poissons Ratio (x) = -0.01398 -0.13025
# Poissons Ratio (y) = -0.00427 0.10403
# Poissons Ratio (z) = -0.02805 0.07339
#
# Static dielectric constant tensor:
#      x y z
#    x 1.651640 0.000000 0.001720 
#    y 0.000000 1.648870 0.000000 
#    z 0.001720 0.000000 1.658930 
# 
# From -- ./inp_files/65071.got.cif
#   From: 2010.05.17/outbox.cif.g08.bks.cpg/sg10_33_cif.got.tgz:65071.got - 2010.06.03 11:33:40.
