data_PCOD9150248
_publ_section_title
;
Structure prediction by ZEFSAII (Michael W. Deem and Ramdas Pophale) SiO2 
 PCOD9150248
Probable space group: P 2/M
;
_chemical_formula_sum "Si O2"
_cell_formula_units_Z 32
_cell_length_a 26.523248
_cell_length_b 7.816234
_cell_length_c 15.364920
_cell_angle_alpha 90.000000
_cell_angle_beta 153.801474
_cell_angle_gamma 90.000000
_cell_volume 1406.268732
_symmetry_space_group_name_H-M "P 2/M"
_symmetry_group_IT_number 10
_symmetry_cell_setting 'monoclinic'
loop_
_space_group_symop_operation_xyz
x,y,z
-x,y,-z
-x,-y,-z
x,-y,z
loop_
_atom_site_type_symbol
_atom_site_label
_atom_site_fract_x
_atom_site_fract_y
_atom_site_fract_z
Si Si1 0.840003 0.789801 0.000453
Si Si2 0.446981 0.293410 0.827655
Si Si3 0.922666 0.802127 0.570366
Si Si4 0.130587 0.301955 0.690217
Si Si5 0.670168 0.199624 0.874456
Si Si6 0.536040 0.203983 0.334795
Si Si7 0.816354 0.702013 0.584334
Si Si8 0.201481 0.793190 0.255140
O O1 0.851308 0.736397 0.918030
O O2 0.841061 0.000000 0.003053
O O3 0.725014 0.731038 0.870417
O O4 0.948582 0.731819 0.224266
O O5 0.449580 0.500000 0.831489
O O6 0.504098 0.234413 0.826503
O O7 0.315228 0.237703 0.620326
O O8 0.500000 0.232229 0.000000
O O9 0.849936 0.710722 0.383523
O O10 0.878024 0.788942 0.599402
O O11 0.925930 0.000000 0.550035
O O12 0.132456 0.500000 0.719394
O O13 0.228196 0.210495 0.896777
O O14 0.000000 0.236231 0.500000
O O15 0.646158 0.000000 0.820216
O O16 0.555801 0.275522 0.739352
O O17 0.666108 0.269107 0.542222
O O18 0.542928 0.000000 0.358757
O O19 0.819563 0.500000 0.572931
O O20 0.856232 0.735729 0.744585
O O21 0.201692 0.000000 0.256870
#
# Coordination Sequence:
#
# PCOD9150248 Si02
#       8
#     4   4   4   4   4   4   4   4
#     4   9  19  35  58  82 109 146 187 227 273 328
#     4   9  19  35  53  73 103 144 183 222 273 330
#     4  11  22  37  58  83 111 147 186 228 275 328
#     4  11  23  38  56  80 112 149 185 227 275 325
#     4  10  20  36  56  84 115 146 184 225 274 328
#     4   9  19  33  54  83 111 139 179 229 272 318
#     4  10  21  37  55  80 112 145 184 230 279 328
#     4   9  18  37  59  81 110 146 186 229 275 324
#
# _framework density 22.755253
#
# number of rings (size 3 to 8) (size 9 to 14) (size 15 to 20)
#    0.000    2.250    1.250    1.125    1.750    2.750 
#    0.000    6.875    0.000    0.000    0.000    4.375 
#    0.000    0.000    0.000    0.000    0.000    0.000 
#
# Total GULP energy -178693.712552 kJ/mol
# GULP energy per Si atom -5584.178517 kJ/mol
# Density = 2.270346 g / cm^3
# Si number density = 22.755253 Si / 1000 Ang^3
#
#
#
# Elastic Constant Matrix: (Units=GPa)
#
#
# Indices 1 2 3 4 5 6 
#
# 1 96.7979 0.4089 -6.8838 0.0000 -5.8286 0.0000
# 2 0.4089 37.0341 -5.5453 0.0000 2.3247 0.0000
# 3 -6.8838 -5.5453 19.5684 0.0000 -12.5563 0.0000
# 4 0.0000 0.0000 0.0000 84.1998 0.0000 -152.9517
# 5 -5.8286 2.3247 -12.5563 0.0000 39.1130 0.0000
# 6 0.0000 0.0000 0.0000 -152.9517 0.0000 325.5603
#
#
#
# Elastic Compliance Matrix: (Units=1/GPa)
#
#
# Indices 1 2 3 4 5 6 
#
# 1 0.011002 0.000605 0.006387 0.000000 0.003654 0.000000
# 2 0.000605 0.028271 0.009073 0.000000 0.001323 0.000000
# 3 0.006387 0.009073 0.070762 0.000000 0.023129 0.000000
# 4 0.000000 0.000000 0.000000 0.081028 0.000000 0.038068
# 5 0.003654 0.001323 0.023129 0.000000 0.033458 0.000000
# 6 0.000000 0.000000 0.000000 0.038068 0.000000 0.020956
#
#
# Mechanical properties :
#
#
# Convention : Reuss Voigt Hill
#
# Bulk Modulus (GPa) = 7.03405 14.37333 10.70369
# Shear Modulus (GPa) = 19.17657 100.80266 59.98962
#
# Velocity S-wave (km/s) = 2.90613 6.66294 5.14006
# Velocity P-wave (km/s) = 3.78929 8.09464 6.31989
#
# Compressibility (1/GPa) = 0.14216561
#
# Stress axis : x y z
#
# Youngs Moduli (GPa) = 90.88900 35.37193 14.13194
#
# Poissons Ratio (x) = -0.02142 -0.09025
# Poissons Ratio (y) = -0.05503 -0.12822
# Poissons Ratio (z) = -0.58047 -0.32094
#
# Static dielectric constant tensor:
#      x y z
#    x 1.888090 0.000000 0.014290 
#    y 0.000000 1.841240 0.000000 
#    z 0.014290 0.000000 1.845860 
# 
# From -- ./inp_files/66495.got.cif
#   From: 2010.05.17/outbox.cif.g08.bks.cpg/sg10_34_cif.got.tgz:66495.got - 2010.06.03 11:33:40.
