data_PCOD9150805
_publ_section_title
;
Structure prediction by ZEFSAII (Michael W. Deem and Ramdas Pophale) SiO2 
 PCOD9150805
Probable space group: P 2/M
;
_chemical_formula_sum "Si O2"
_cell_formula_units_Z 32
_cell_length_a 26.972821
_cell_length_b 7.627034
_cell_length_c 21.539248
_cell_angle_alpha 90.000000
_cell_angle_beta 159.204787
_cell_angle_gamma 90.000000
_cell_volume 1573.172131
_symmetry_space_group_name_H-M "P 2/M"
_symmetry_group_IT_number 10
_symmetry_cell_setting 'monoclinic'
loop_
_space_group_symop_operation_xyz
x,y,z
-x,y,-z
-x,-y,-z
x,-y,z
loop_
_atom_site_type_symbol
_atom_site_label
_atom_site_fract_x
_atom_site_fract_y
_atom_site_fract_z
Si Si1 0.161986 0.710748 0.354865
Si Si2 0.656458 0.791936 0.687905
Si Si3 0.846869 0.210991 0.024749
Si Si4 0.150521 0.287974 0.200579
Si Si5 0.578339 0.796781 0.033307
Si Si6 0.443603 0.291738 0.748284
Si Si7 0.733501 0.211667 0.024775
Si Si8 0.141144 0.215019 0.698784
O O1 0.173919 0.500000 0.366550
O O2 0.170776 0.775702 0.294308
O O3 0.296230 0.775177 0.549947
O O4 0.009891 0.749794 0.204650
O O5 0.500000 0.718452 0.500000
O O6 0.734061 0.766962 0.713613
O O7 0.643676 0.000000 0.684530
O O8 0.753632 0.721877 0.857671
O O9 0.835084 0.000000 0.011551
O O10 0.788540 0.275603 0.022720
O O11 0.148954 0.500000 0.199887
O O12 0.000000 0.227736 0.000000
O O13 0.484656 0.790344 0.862075
O O14 0.606810 0.000000 0.082669
O O15 0.500000 0.715357 0.000000
O O16 0.726786 0.721464 0.186606
O O17 0.433458 0.500000 0.746007
O O18 0.573719 0.260088 0.854059
O O19 0.738612 0.000000 0.029853
O O20 0.828673 0.269755 0.194812
O O21 0.000000 0.270823 0.500000
O O22 0.141957 0.000000 0.700522
#
# Coordination Sequence:
#
# PCOD9150805 Si02
#       8
#     4   4   4   4   4   4   4   4
#     4  10  22  38  54  77 108 141 180 223 266 317
#     4  10  22  37  53  79 110 136 170 220 276 326
#     4  10  21  36  54  78 106 138 177 220 269 323
#     4  10  20  37  58  77 102 139 182 225 266 314
#     4   9  18  33  54  79 106 137 176 219 259 306
#     4  10  21  36  54  78 109 144 179 216 265 319
#     4   9  19  35  54  77 106 138 176 219 261 313
#     4   8  14  27  48  73  99 128 163 206 252 294
#
# _framework density 20.341066000000001
#
# number of rings (size 3 to 8) (size 9 to 14) (size 15 to 20)
#    0.000    2.500    1.250    1.125    1.750    3.750 
#    0.000    2.500    0.000    6.000    0.000    0.000 
#    0.000    0.000    0.000    0.000    0.000    0.000 
#
# Total GULP energy -178579.321206 kJ/mol
# GULP energy per Si atom -5580.603788 kJ/mol
# Density = 2.029477 g / cm^3
# Si number density = 20.341066 Si / 1000 Ang^3
#
#
#
# Elastic Constant Matrix: (Units=GPa)
#
#
# Indices 1 2 3 4 5 6 
#
# 1 174.9601 -8.4586 92.0536 0.0000 11.8972 0.0000
# 2 -8.4586 39.3021 -4.3781 0.0000 -1.8942 0.0000
# 3 92.0536 -4.3781 185.0978 0.0000 13.1134 0.0000
# 4 0.0000 0.0000 0.0000 7.6622 0.0000 0.5156
# 5 11.8972 -1.8942 13.1134 0.0000 17.0865 0.0000
# 6 0.0000 0.0000 0.0000 0.5156 0.0000 10.1476
#
#
#
# Elastic Compliance Matrix: (Units=1/GPa)
#
#
# Indices 1 2 3 4 5 6 
#
# 1 0.007902 0.001165 -0.003724 0.000000 -0.002515 0.000000
# 2 0.001165 0.025784 -0.000121 0.000000 0.002140 0.000000
# 3 -0.003724 -0.000121 0.007476 0.000000 -0.003157 0.000000
# 4 0.000000 0.000000 0.000000 0.130958 0.000000 -0.006654
# 5 -0.002515 0.002140 -0.003157 0.000000 0.062938 0.000000
# 6 0.000000 0.000000 0.000000 -0.006654 0.000000 0.098884
#
#
# Mechanical properties :
#
#
# Convention : Reuss Voigt Hill
#
# Bulk Modulus (GPa) = 27.93218 61.97710 44.95464
# Shear Modulus (GPa) = 14.23540 28.32212 21.27876
#
# Velocity S-wave (km/s) = 2.64831 3.73548 3.23785
# Velocity P-wave (km/s) = 4.80761 7.01001 6.01055
#
# Compressibility (1/GPa) = 0.03580101
#
# Stress axis : x y z
#
# Youngs Moduli (GPa) = 126.54308 38.78332 133.76862
#
# Poissons Ratio (x) = -0.04517 0.49820
# Poissons Ratio (y) = -0.14738 0.01618
# Poissons Ratio (z) = 0.47129 0.00469
#
# Static dielectric constant tensor:
#      x y z
#    x 1.703850 0.000000 -0.014110 
#    y 0.000000 1.760010 0.000000 
#    z -0.014110 0.000000 1.713290 
# 
# From -- ./inp_files/87063.got.cif
#   From: 2010.05.17/outbox.cif.g08.bks.cpg/sg10_44_cif.got.tgz:87063.got - 2010.06.03 11:33:40.
