data_PCOD9150204
_publ_section_title
;
Structure prediction by ZEFSAII (Michael W. Deem and Ramdas Pophale) SiO2 
 PCOD9150204
Probable space group: P 2/M
;
_chemical_formula_sum "Si O2"
_cell_formula_units_Z 32
_cell_length_a 16.134425
_cell_length_b 22.243557
_cell_length_c 9.329333
_cell_angle_alpha 90.000000
_cell_angle_beta 28.581062
_cell_angle_gamma 90.000000
_cell_volume 1601.773030
_symmetry_space_group_name_H-M "P 2/M"
_symmetry_group_IT_number 10
_symmetry_cell_setting 'monoclinic'
loop_
_space_group_symop_operation_xyz
x,y,z
-x,y,-z
-x,-y,-z
x,-y,z
loop_
_atom_site_type_symbol
_atom_site_label
_atom_site_fract_x
_atom_site_fract_y
_atom_site_fract_z
Si Si1 0.948964 0.666345 0.242378
Si Si2 0.477010 0.656979 0.364373
Si Si3 0.827250 0.296506 0.853910
Si Si4 0.307068 0.933065 0.724751
Si Si5 0.531444 0.117152 0.795681
Si Si6 0.350043 0.251002 0.338960
Si Si7 0.811002 0.844124 0.861467
Si Si8 0.334262 0.430386 0.356085
O O1 0.833287 0.726357 0.441031
O O2 0.823671 0.610045 0.461927
O O3 0.117792 0.672376 0.081667
O O4 0.000000 0.662725 0.000000
O O5 0.500000 0.657131 0.500000
O O6 0.379980 0.714341 0.442740
O O7 0.391398 0.599514 0.420257
O O8 0.674282 0.666832 0.013056
O O9 0.776413 0.226422 0.946063
O O10 0.000000 0.298305 0.500000
O O11 0.500000 0.932558 0.500000
O O12 0.347911 0.918687 0.497574
O O13 0.233399 0.000000 0.854821
O O14 0.201610 0.883307 0.973968
O O15 0.627349 0.180630 0.676670
O O16 0.500000 0.089187 0.000000
O O17 0.345519 0.132488 0.003578
O O18 0.500000 0.270417 0.000000
O O19 0.000000 0.849495 0.500000
O O20 0.286956 0.500000 0.442708
O O21 0.500000 0.425691 0.000000
#
# Coordination Sequence:
#
# PCOD9150204 Si02
#       8
#     4   4   4   4   4   4   4   4
#     4  11  23  36  56  88 117 149 186 234 296 341
#     4  11  21  34  58  86 116 144 188 236 288 338
#     4  11  21  34  54  85 119 147 180 242 295 347
#     4   9  20  39  61  84 117 163 206 250 296 355
#     4  10  21  36  60  87 116 158 201 248 293 356
#     4  10  20  36  55  80 116 158 187 230 284 358
#     4  10  22  36  57  90 120 156 197 247 308 357
#     4  10  22  43  64  79 109 161 203 230 274 350
#
# _framework density 19.97786
#
# number of rings (size 3 to 8) (size 9 to 14) (size 15 to 20)
#    0.000    1.750    1.250    4.500    8.750    1.000 
#    0.000    1.250    0.000    3.000    0.000    0.000 
#    0.000    0.000    0.000    0.000    0.000    0.000 
#
# Total GULP energy -178648.387762 kJ/mol
# GULP energy per Si atom -5582.762118 kJ/mol
# Density = 1.993239 g / cm^3
# Si number density = 19.977860 Si / 1000 Ang^3
#
#
#
# Elastic Constant Matrix: (Units=GPa)
#
#
# Indices 1 2 3 4 5 6 
#
# 1 88.4938 12.2881 8.3246 0.0000 13.0602 0.0000
# 2 12.2881 68.2256 24.0545 0.0000 9.5815 0.0000
# 3 8.3246 24.0545 61.5649 0.0000 2.6953 0.0000
# 4 0.0000 0.0000 0.0000 14.1755 0.0000 12.7006
# 5 13.0602 9.5815 2.6953 0.0000 45.8256 0.0000
# 6 0.0000 0.0000 0.0000 12.7006 0.0000 6.4438
#
#
#
# Elastic Compliance Matrix: (Units=1/GPa)
#
#
# Indices 1 2 3 4 5 6 
#
# 1 0.012039 -0.001402 -0.000945 0.000000 -0.003082 0.000000
# 2 -0.001402 0.017635 -0.006574 0.000000 -0.002901 0.000000
# 3 -0.000945 -0.006574 0.018916 0.000000 0.000531 0.000000
# 4 0.000000 0.000000 0.000000 -0.092104 0.000000 0.181537
# 5 -0.003082 -0.002901 0.000531 0.000000 0.023276 0.000000
# 6 0.000000 0.000000 0.000000 0.181537 0.000000 -0.202618
#
#
# Mechanical properties :
#
#
# Convention : Reuss Voigt Hill
#
# Bulk Modulus (GPa) = 32.52266 34.17985 33.35125
# Shear Modulus (GPa) = -25.67183 24.86345 -0.40419
#
# Velocity S-wave (km/s) = -3.58860 3.53165 -0.45029
# Velocity P-wave (km/s) = 0.92522 5.81171 4.05709
#
# Compressibility (1/GPa) = 0.03074779
#
# Stress axis : x y z
#
# Youngs Moduli (GPa) = 83.06528 56.70572 52.86535
#
# Poissons Ratio (x) = 0.07952 0.04996
# Poissons Ratio (y) = 0.11648 0.34752
# Poissons Ratio (z) = 0.07850 0.37276
#
# Static dielectric constant tensor:
#      x y z
#    x 1.756230 0.000000 0.041230 
#    y 0.000000 1.673760 0.000000 
#    z 0.041230 0.000000 1.753440 
# 
# From -- ./inp_files/30562.got.cif
#   From: 2010.05.17/outbox.cif.g08.bks.cpg/sg10_16_cif.got.tgz:30562.got - 2010.06.03 11:33:40.
