data_PCOD9150819
_publ_section_title
;
Structure prediction by ZEFSAII (Michael W. Deem and Ramdas Pophale) SiO2 
 PCOD9150819
Probable space group: P 2/M
;
_chemical_formula_sum "Si O2"
_cell_formula_units_Z 32
_cell_length_a 15.450739
_cell_length_b 22.390920
_cell_length_c 9.956291
_cell_angle_alpha 90.000000
_cell_angle_beta 28.012029
_cell_angle_gamma 90.000000
_cell_volume 1617.705660
_symmetry_space_group_name_H-M "P 2/M"
_symmetry_group_IT_number 10
_symmetry_cell_setting 'monoclinic'
loop_
_space_group_symop_operation_xyz
x,y,z
-x,y,-z
-x,-y,-z
x,-y,z
loop_
_atom_site_type_symbol
_atom_site_label
_atom_site_fract_x
_atom_site_fract_y
_atom_site_fract_z
Si Si1 0.728447 0.564639 0.330550
Si Si2 0.848702 0.693313 0.815326
Si Si3 0.453672 0.129109 0.216253
Si Si4 0.149304 0.310255 0.878771
Si Si5 0.701124 0.565245 0.042739
Si Si6 0.175821 0.071535 0.162235
Si Si7 0.507946 0.229418 0.633030
Si Si8 0.945438 0.927993 0.223618
O O1 0.801292 0.500000 0.275605
O O2 0.822827 0.626513 0.234915
O O3 0.729721 0.565558 0.165550
O O4 0.519223 0.567498 0.667763
O O5 0.000000 0.712376 0.500000
O O6 0.914252 0.687170 0.880118
O O7 0.783071 0.625711 0.870160
O O8 0.680541 0.740235 0.056957
O O9 0.415503 0.186966 0.357724
O O10 0.266911 0.090359 0.463492
O O11 0.500000 0.144644 0.000000
O O12 0.635161 0.099504 0.038722
O O13 0.349522 0.281639 0.597751
O O14 0.000000 0.273916 0.000000
O O15 0.766608 0.500000 0.903003
O O16 0.000000 0.082072 0.500000
O O17 0.095654 0.093393 0.128167
O O18 0.206106 0.000000 0.114353
O O19 0.500000 0.195792 0.500000
O O20 0.952429 0.000000 0.220619
O O21 0.000000 0.908337 0.000000
#
# Coordination Sequence:
#
# PCOD9150819 Si02
#       8
#     4   4   4   4   4   4   4   4
#     4   8  13  25  51  81 107 139 183 235 287 349
#     4  10  20  37  58  82 111 149 192 243 298 352
#     4  12  25  41  65  93 124 166 210 253 306 361
#     4  10  20  37  58  81 111 149 193 240 296 356
#     4   8  13  25  51  81 108 140 183 234 288 352
#     4  10  21  40  67  98 132 164 199 249 304 361
#     4  10  24  43  58  79 115 157 204 251 293 349
#     4  10  23  42  66 100 135 164 201 248 300 364
#
# _framework density 19.781101
#
# number of rings (size 3 to 8) (size 9 to 14) (size 15 to 20)
#    0.000    2.250    2.500    1.125    1.750    3.000 
#    2.250    1.875    0.000    0.000    0.000    1.750 
#    0.000    0.000    0.000    0.000    0.000    0.000 
#
# Total GULP energy -178217.559697 kJ/mol
# GULP energy per Si atom -5569.298741 kJ/mol
# Density = 1.973608 g / cm^3
# Si number density = 19.781101 Si / 1000 Ang^3
#
#
#
# Elastic Constant Matrix: (Units=GPa)
#
#
# Indices 1 2 3 4 5 6 
#
# 1 99.1522 17.9026 35.3930 0.0000 -0.4615 0.0000
# 2 17.9026 26.3052 11.4244 0.0000 7.4865 0.0000
# 3 35.3930 11.4244 101.3636 0.0000 6.4569 0.0000
# 4 0.0000 0.0000 0.0000 -24.9940 0.0000 36.9215
# 5 -0.4615 7.4865 6.4569 0.0000 33.2754 0.0000
# 6 0.0000 0.0000 0.0000 36.9215 0.0000 -19.5560
#
#
#
# Elastic Compliance Matrix: (Units=1/GPa)
#
#
# Indices 1 2 3 4 5 6 
#
# 1 0.012869 -0.007882 -0.003776 0.000000 0.002685 0.000000
# 2 -0.007882 0.047151 -0.001903 0.000000 -0.010349 0.000000
# 3 -0.003776 -0.001903 0.011517 0.000000 -0.001859 0.000000
# 4 0.000000 0.000000 0.000000 0.022365 0.000000 0.042224
# 5 0.002685 -0.010349 -0.001859 0.000000 0.032779 0.000000
# 6 0.000000 0.000000 0.000000 0.042224 0.000000 0.028584
#
#
# Mechanical properties :
#
#
# Convention : Reuss Voigt Hill
#
# Bulk Modulus (GPa) = 22.51506 39.58456 31.04981
# Shear Modulus (GPa) = 25.35600 8.55182 16.95391
#
# Velocity S-wave (km/s) = 3.58415 2.08149 2.93076
# Velocity P-wave (km/s) = 5.34181 5.08248 5.21376
#
# Compressibility (1/GPa) = 0.04441471
#
# Stress axis : x y z
#
# Youngs Moduli (GPa) = 77.70530 21.20828 86.82926
#
# Poissons Ratio (x) = 0.16717 0.32788
# Poissons Ratio (y) = 0.61251 0.16522
# Poissons Ratio (z) = 0.29342 0.04035
#
# Static dielectric constant tensor:
#      x y z
#    x 1.729780 0.000000 -0.021560 
#    y 0.000000 1.751100 0.000000 
#    z -0.021560 0.000000 1.675410 
# 
# From -- ./inp_files/30577.got.cif
#   From: 2010.05.17/outbox.cif.g08.bks.cpg/sg10_16_cif.got.tgz:30577.got - 2010.06.03 11:33:40.
