data_PCOD9150323
_publ_section_title
;
Structure prediction by ZEFSAII (Michael W. Deem and Ramdas Pophale) SiO2 
 PCOD9150323
Probable space group: P 2/M
;
_chemical_formula_sum "Si O2"
_cell_formula_units_Z 24
_cell_length_a 15.265201
_cell_length_b 7.716879
_cell_length_c 30.828191
_cell_angle_alpha 90.000000
_cell_angle_beta 160.316832
_cell_angle_gamma 90.000000
_cell_volume 1223.174471
_symmetry_space_group_name_H-M "P 2/M"
_symmetry_group_IT_number 10
_symmetry_cell_setting 'monoclinic'
loop_
_space_group_symop_operation_xyz
x,y,z
-x,y,-z
-x,-y,-z
x,-y,z
loop_
_atom_site_type_symbol
_atom_site_label
_atom_site_fract_x
_atom_site_fract_y
_atom_site_fract_z
Si Si1 0.699173 0.790534 0.850625
Si Si2 0.766322 0.500000 0.597758
Si Si3 0.198658 0.500000 0.872644
Si Si4 0.360322 0.297106 0.275086
Si Si5 0.168502 0.799694 0.927649
Si Si6 0.441461 0.798499 0.817956
Si Si7 0.858214 0.696904 0.557278
O O1 0.616429 0.718581 0.765637
O O2 0.532632 0.726916 0.814075
O O3 0.679552 0.000000 0.838300
O O4 0.000000 0.747194 0.000000
O O5 0.500000 0.500000 0.500000
O O6 0.782981 0.662702 0.572338
O O7 0.009516 0.500000 0.743217
O O8 0.144351 0.670565 0.876142
O O9 0.500000 0.500000 0.000000
O O10 0.336511 0.500000 0.276252
O O11 0.097661 0.207314 0.168884
O O12 0.616479 0.226306 0.418500
O O13 0.220564 0.000000 0.939338
O O14 0.396664 0.728828 0.065709
O O15 0.134884 0.785555 0.681681
O O16 0.519880 0.000000 0.853361
O O17 0.898274 0.500000 0.558479
#
# Coordination Sequence:
#
# PCOD9150323 Si02
#       7
#     4   2   2   4   4   4   4
#     4  10  20  36  57  85 124 167 209 254 301 353
#     4  10  20  42  66  83 116 160 196 255 316 384
#     4  12  24  40  68  93 120 162 204 255 330 380
#     4  11  21  38  60  92 121 163 213 255 303 363
#     4  11  23  40  64  93 127 161 207 262 310 375
#     4  10  21  38  59  87 126 168 205 252 310 363
#     4   9  22  39  61  86 118 161 202 251 315 375
#
# _framework density 19.621075000000001
#
# number of rings (size 3 to 8) (size 9 to 14) (size 15 to 20)
#    0.500    1.167    2.500    2.500    1.167    3.333 
#    0.000    4.167    0.000    2.000    0.000    0.000 
#    0.000    0.000    0.000    0.000    0.000    0.000 
#
# Total GULP energy -133937.839308 kJ/mol
# GULP energy per Si atom -5580.743305 kJ/mol
# Density = 1.957642 g / cm^3
# Si number density = 19.621075 Si / 1000 Ang^3
#
#
#
# Elastic Constant Matrix: (Units=GPa)
#
#
# Indices 1 2 3 4 5 6 
#
# 1 117.1420 12.4544 58.5350 0.0000 -10.6784 0.0000
# 2 12.4544 55.1451 5.0506 0.0000 -6.5208 0.0000
# 3 58.5350 5.0506 157.9735 0.0000 -18.5039 0.0000
# 4 0.0000 0.0000 0.0000 10.2818 0.0000 36.3954
# 5 -10.6784 -6.5208 -18.5039 0.0000 39.4531 0.0000
# 6 0.0000 0.0000 0.0000 36.3954 0.0000 -49.3632
#
#
#
# Elastic Compliance Matrix: (Units=1/GPa)
#
#
# Indices 1 2 3 4 5 6 
#
# 1 0.010727 -0.001980 -0.003820 0.000000 0.000785 0.000000
# 2 -0.001980 0.018870 0.000458 0.000000 0.002798 0.000000
# 3 -0.003820 0.000458 0.008061 0.000000 0.002823 0.000000
# 4 0.000000 0.000000 0.000000 0.026942 0.000000 0.019865
# 5 0.000785 0.002798 0.002823 0.000000 0.027345 0.000000
# 6 0.000000 0.000000 0.000000 0.019865 0.000000 -0.005612
#
#
# Mechanical properties :
#
#
# Convention : Reuss Voigt Hill
#
# Bulk Modulus (GPa) = 37.07053 53.59339 45.33196
# Shear Modulus (GPa) = 47.16533 17.02239 32.09386
#
# Velocity S-wave (km/s) = 4.90819 2.94863 4.04875
# Velocity P-wave (km/s) = 7.14525 6.24228 6.70897
#
# Compressibility (1/GPa) = 0.02697561
#
# Stress axis : x y z
#
# Youngs Moduli (GPa) = 93.21959 52.99402 124.04642
#
# Poissons Ratio (x) = 0.10493 0.47381
# Poissons Ratio (y) = 0.18459 -0.05683
# Poissons Ratio (z) = 0.35607 -0.02428
#
# Static dielectric constant tensor:
#      x y z
#    x 1.674580 0.000000 -0.013170 
#    y 0.000000 1.720080 0.000000 
#    z -0.013170 0.000000 1.677400 
# 
# From -- ./inp_files/95307.got.cif
#   From: 2010.05.17/outbox.cif.g08.bks.cpg/sg10_48_cif.got.tgz:95307.got - 2010.06.03 11:33:40.
