data_PCOD9150467
_publ_section_title
;
Structure prediction by ZEFSAII (Michael W. Deem and Ramdas Pophale) SiO2 
 PCOD9150467
Probable space group: P 2/M
;
_chemical_formula_sum "Si O2"
_cell_formula_units_Z 24
_cell_length_a 15.282704
_cell_length_b 8.297647
_cell_length_c 9.642240
_cell_angle_alpha 90.000000
_cell_angle_beta 96.961464
_cell_angle_gamma 90.000000
_cell_volume 1213.722964
_symmetry_space_group_name_H-M "P 2/M"
_symmetry_group_IT_number 10
_symmetry_cell_setting 'monoclinic'
loop_
_space_group_symop_operation_xyz
x,y,z
-x,y,-z
-x,-y,-z
x,-y,z
loop_
_atom_site_type_symbol
_atom_site_label
_atom_site_fract_x
_atom_site_fract_y
_atom_site_fract_z
Si Si1 0.917168 0.305235 0.391412
Si Si2 0.751402 0.304835 0.544206
Si Si3 0.250869 0.191804 0.140302
Si Si4 0.553681 0.688889 0.868804
Si Si5 0.568621 0.315595 0.388436
Si Si6 0.914760 0.805160 0.072678
O O1 0.918180 0.500000 0.388822
O O2 0.829938 0.253772 0.457959
O O3 0.919641 0.248012 0.233365
O O4 0.000000 0.250757 0.500000
O O5 0.748395 0.500000 0.546206
O O6 0.762833 0.251838 0.705052
O O7 0.658993 0.244041 0.462909
O O8 0.349208 0.237938 0.111041
O O9 0.244348 0.000000 0.141537
O O10 0.174294 0.252635 0.022020
O O11 0.567471 0.500000 0.833261
O O12 0.487255 0.764916 0.743808
O O13 0.500000 0.695901 0.000000
O O14 0.500000 0.325898 0.500000
O O15 0.590468 0.500000 0.346208
O O16 0.914403 0.000000 0.071508
O O17 0.000000 0.751682 0.000000
#
# Coordination Sequence:
#
# PCOD9150467 Si02
#       6
#     4   4   4   4   4   4
#     4  10  22  38  60  92 119 141 182 244 297 334
#     4  10  20  36  59  83 114 150 188 234 285 343
#     4  11  23  38  57  84 117 151 193 241 287 333
#     4  10  21  36  58  83 111 152 197 233 281 346
#     4   9  16  31  54  80 107 142 188 230 266 328
#     4  10  23  42  61  82 114 158 197 229 277 349
#
# _framework density 19.773869999999999
#
# number of rings (size 3 to 8) (size 9 to 14) (size 15 to 20)
#    0.000    2.000    1.667    1.500    2.333    3.000 
#    0.000    1.667    0.000    0.000    0.000    0.000 
#    0.000    0.000    0.000    0.000    0.000    0.000 
#
# Total GULP energy -133923.051820 kJ/mol
# GULP energy per Si atom -5580.127159 kJ/mol
# Density = 1.972886 g / cm^3
# Si number density = 19.773870 Si / 1000 Ang^3
#
#
#
# Elastic Constant Matrix: (Units=GPa)
#
#
# Indices 1 2 3 4 5 6 
#
# 1 197.2939 24.5597 113.8977 0.0000 18.1729 0.0000
# 2 24.5597 15.1718 15.8283 0.0000 1.2862 0.0000
# 3 113.8977 15.8283 147.8782 0.0000 22.6552 0.0000
# 4 0.0000 0.0000 0.0000 -258.0786 0.0000 -201.5144
# 5 18.1729 1.2862 22.6552 0.0000 41.1759 0.0000
# 6 0.0000 0.0000 0.0000 -201.5144 0.0000 -128.2488
#
#
#
# Elastic Compliance Matrix: (Units=1/GPa)
#
#
# Indices 1 2 3 4 5 6 
#
# 1 0.010190 -0.009392 -0.006770 0.000000 -0.000479 0.000000
# 2 -0.009392 0.083044 -0.002067 0.000000 0.002688 0.000000
# 3 -0.006770 -0.002067 0.012810 0.000000 -0.003996 0.000000
# 4 0.000000 0.000000 0.000000 0.017078 0.000000 -0.026834
# 5 -0.000479 0.002688 -0.003996 0.000000 0.026612 0.000000
# 6 0.000000 0.000000 0.000000 -0.026834 0.000000 0.034366
#
#
# Mechanical properties :
#
#
# Convention : Reuss Voigt Hill
#
# Bulk Modulus (GPa) = 14.37059 74.32389 44.34724
# Shear Modulus (GPa) = 20.51270 -55.29310 -17.39020
#
# Velocity S-wave (km/s) = 3.22431 -5.29371 -2.96878
# Velocity P-wave (km/s) = 4.59835 0.55133 3.27481
#
# Compressibility (1/GPa) = 0.06958658
#
# Stress axis : x y z
#
# Youngs Moduli (GPa) = 98.13455 12.04187 78.06476
#
# Poissons Ratio (x) = 0.11310 0.52849
# Poissons Ratio (y) = 0.92168 0.16133
# Poissons Ratio (z) = 0.66435 0.02489
#
# Static dielectric constant tensor:
#      x y z
#    x 1.700700 0.000000 0.043590 
#    y 0.000000 1.715060 0.000000 
#    z 0.043590 0.000000 1.591340 
# 
# From -- ./inp_files/27209.got.cif
#   From: 2010.05.17/outbox.cif.g08.bks.cpg/sg10_14_cif.got.tgz:27209.got - 2010.06.03 11:33:40.
