data_PCOD9150078
_publ_section_title
;
Structure prediction by ZEFSAII (Michael W. Deem and Ramdas Pophale) SiO2 
 PCOD9150078
Probable space group: P 2/M
;
_chemical_formula_sum "Si O2"
_cell_formula_units_Z 28
_cell_length_a 5.782605
_cell_length_b 14.459245
_cell_length_c 18.099566
_cell_angle_alpha 90.000000
_cell_angle_beta 75.531563
_cell_angle_gamma 90.000000
_cell_volume 1465.347740
_symmetry_space_group_name_H-M "P 2/M"
_symmetry_group_IT_number 10
_symmetry_cell_setting 'monoclinic'
loop_
_space_group_symop_operation_xyz
x,y,z
-x,y,-z
-x,-y,-z
x,-y,z
loop_
_atom_site_type_symbol
_atom_site_label
_atom_site_fract_x
_atom_site_fract_y
_atom_site_fract_z
Si Si1 0.588208 0.776485 0.693207
Si Si2 0.429736 0.661603 0.928096
Si Si3 0.284318 0.893051 0.456022
Si Si4 0.220076 0.102742 0.809792
Si Si5 0.700538 0.605768 0.223195
Si Si6 0.122336 0.256759 0.192405
Si Si7 0.275228 0.138258 0.965366
O O1 0.664782 0.812739 0.607721
O O2 0.384514 0.847061 0.737035
O O3 0.484757 0.673561 0.719121
O O4 0.801978 0.782620 0.734560
O O5 0.329859 0.609338 0.864134
O O6 0.661685 0.708476 0.873629
O O7 0.269392 0.749636 0.962592
O O8 0.500000 0.613562 0.000000
O O9 0.500000 0.884920 0.500000
O O10 0.000000 0.884568 0.500000
O O11 0.307050 0.000000 0.425685
O O12 0.348992 0.103572 0.878215
O O13 0.003602 0.172865 0.838741
O O14 0.151209 0.000000 0.793812
O O15 0.685981 0.500000 0.248219
O O16 0.950692 0.655984 0.217317
O O17 0.500000 0.113604 0.000000
O O18 0.000000 0.105661 0.000000
#
# Coordination Sequence:
#
# PCOD9150078 Si02
#       7
#     4   4   4   4   4   4   4
#     4  10  22  41  63  88 125 166 199 250 313 373
#     4  10  20  35  59  78 116 161 209 267 333 377
#     4  10  23  42  69 106 139 168 204 247 300 368
#     4  11  22  35  55  84 116 160 213 255 302 367
#     4  10  22  38  61  89 116 155 214 268 322 379
#     4  10  20  39  55  86 116 165 203 259 315 376
#     4  11  22  37  57  78 115 163 210 265 317 366
#
# _framework density 19.108094000000001
#
# number of rings (size 3 to 8) (size 9 to 14) (size 15 to 20)
#    0.000    1.714    4.286    2.143    4.000    4.286 
#    0.000    0.714    0.000    1.286    0.000    0.000 
#    0.000    0.000    0.000    0.000    0.000    0.000 
#
# Total GULP energy -155943.817522 kJ/mol
# GULP energy per Si atom -5569.422054 kJ/mol
# Density = 1.906460 g / cm^3
# Si number density = 19.108094 Si / 1000 Ang^3
#
#
#
# Elastic Constant Matrix: (Units=GPa)
#
#
# Indices 1 2 3 4 5 6 
#
# 1 98.8493 15.7524 28.8785 0.0000 1.8027 0.0000
# 2 15.7524 92.6797 28.4790 0.0000 4.0065 0.0000
# 3 28.8785 28.4790 69.1302 0.0000 7.6100 0.0000
# 4 0.0000 0.0000 0.0000 25.4357 0.0000 0.3989
# 5 1.8027 4.0065 7.6100 0.0000 22.8782 0.0000
# 6 0.0000 0.0000 0.0000 0.3989 0.0000 -6.1269
#
#
#
# Elastic Compliance Matrix: (Units=1/GPa)
#
#
# Indices 1 2 3 4 5 6 
#
# 1 0.011559 -0.000559 -0.004681 0.000000 0.000744 0.000000
# 2 -0.000559 0.012386 -0.004811 0.000000 -0.000525 0.000000
# 3 -0.004681 -0.004811 0.018964 0.000000 -0.005097 0.000000
# 4 0.000000 0.000000 0.000000 0.039275 0.000000 0.002557
# 5 0.000744 -0.000525 -0.005097 0.000000 0.045438 0.000000
# 6 0.000000 0.000000 0.000000 0.002557 0.000000 -0.163049
#
#
# Mechanical properties :
#
#
# Convention : Reuss Voigt Hill
#
# Bulk Modulus (GPa) = 43.84436 45.20877 44.52657
# Shear Modulus (GPa) = -647.37508 20.94069 -313.21720
#
# Velocity S-wave (km/s) = -18.42639 3.31404 -12.81696
# Velocity P-wave (km/s) = 20.72954 6.19311 13.98855
#
# Compressibility (1/GPa) = 0.02280795
#
# Stress axis : x y z
#
# Youngs Moduli (GPa) = 86.51066 80.73660 52.73184
#
# Poissons Ratio (x) = 0.04510 0.24681
# Poissons Ratio (y) = 0.04832 0.25372
# Poissons Ratio (z) = 0.40492 0.38846
#
# Static dielectric constant tensor:
#      x y z
#    x 1.767120 0.000000 0.003360 
#    y 0.000000 1.668240 0.000000 
#    z 0.003360 0.000000 1.694000 
# 
# From -- ./inp_files/73415.got.cif
#   From: 2010.05.17/outbox.cif.g08.bks.cpg/sg10_37_cif.got.tgz:73415.got - 2010.06.03 11:33:40.
