data_PCOD9150335
_publ_section_title
;
Structure prediction by ZEFSAII (Michael W. Deem and Ramdas Pophale) SiO2 
 PCOD9150335
Probable space group: P 2/M
;
_chemical_formula_sum "Si O2"
_cell_formula_units_Z 28
_cell_length_a 14.800446
_cell_length_b 11.434394
_cell_length_c 9.911123
_cell_angle_alpha 90.000000
_cell_angle_beta 69.640939
_cell_angle_gamma 90.000000
_cell_volume 1572.520701
_symmetry_space_group_name_H-M "P 2/M"
_symmetry_group_IT_number 10
_symmetry_cell_setting 'monoclinic'
loop_
_space_group_symop_operation_xyz
x,y,z
-x,y,-z
-x,-y,-z
x,-y,z
loop_
_atom_site_type_symbol
_atom_site_label
_atom_site_fract_x
_atom_site_fract_y
_atom_site_fract_z
Si Si1 0.699599 0.636210 0.089486
Si Si2 0.091725 0.642318 0.362642
Si Si3 0.576881 0.000000 0.341146
Si Si4 0.566915 0.000000 0.835135
Si Si5 0.917232 0.640581 0.944093
Si Si6 0.388814 0.254299 0.608765
Si Si7 0.392726 0.748766 0.115950
Si Si8 0.708378 0.637343 0.597123
O O1 0.689475 0.500000 0.055252
O O2 0.633060 0.664728 0.251504
O O3 0.811790 0.657885 0.062676
O O4 0.673306 0.715827 0.975785
O O5 0.093370 0.500000 0.357647
O O6 0.083510 0.682777 0.211249
O O7 0.191386 0.675691 0.384730
O O8 0.000000 0.677547 0.500000
O O9 0.500000 0.000000 0.500000
O O10 0.509609 0.000000 0.245351
O O11 0.631471 0.877915 0.329749
O O12 0.623663 0.878259 0.813898
O O13 0.500000 0.000000 0.000000
O O14 0.931570 0.500000 0.927060
O O15 0.000000 0.687340 0.000000
O O16 0.500000 0.262015 0.500000
O O17 0.321571 0.292127 0.519928
O O18 0.372638 0.659589 0.247184
O O19 0.500000 0.742083 0.000000
O O20 0.714932 0.500000 0.560425
#
# Coordination Sequence:
#
# PCOD9150335 Si02
#       8
#     4   4   2   2   4   4   4   4
#     4  11  22  35  52  82 119 146 178 220 273 341
#     4   9  18  33  53  77 107 143 182 224 266 315
#     4  10  20  40  58  74 101 140 197 245 262 295
#     4  10  20  36  58  78  97 136 199 241 260 299
#     4   9  18  33  53  77 107 144 182 221 267 319
#     4  11  23  37  55  78 110 151 188 226 269 318
#     4  11  21  35  55  78 108 147 182 226 272 314
#     4  11  22  35  52  82 117 144 180 220 270 343
#
# _framework density 17.805807000000001
#
# number of rings (size 3 to 8) (size 9 to 14) (size 15 to 20)
#    0.000    1.714    1.429    5.143    2.000    3.429 
#    0.000    0.000    0.000    0.000    0.000    6.000 
#    0.000    0.000    0.000    0.000    0.000    0.000 
#
# Total GULP energy -156131.558090 kJ/mol
# GULP energy per Si atom -5576.127075 kJ/mol
# Density = 1.776528 g / cm^3
# Si number density = 17.805807 Si / 1000 Ang^3
#
#
#
# Elastic Constant Matrix: (Units=GPa)
#
#
# Indices 1 2 3 4 5 6 
#
# 1 109.0544 55.4037 42.8722 0.0000 26.9194 0.0000
# 2 55.4037 62.3872 23.9744 0.0000 12.9679 0.0000
# 3 42.8722 23.9744 97.8597 0.0000 21.4866 0.0000
# 4 0.0000 0.0000 0.0000 15.2549 0.0000 15.9243
# 5 26.9194 12.9679 21.4866 0.0000 38.4131 0.0000
# 6 0.0000 0.0000 0.0000 15.9243 0.0000 5.6808
#
#
#
# Elastic Compliance Matrix: (Units=1/GPa)
#
#
# Indices 1 2 3 4 5 6 
#
# 1 0.019752 -0.014754 -0.003526 0.000000 -0.006889 0.000000
# 2 -0.014754 0.029285 -0.000924 0.000000 0.000970 0.000000
# 3 -0.003526 -0.000924 0.012972 0.000000 -0.004473 0.000000
# 4 0.000000 0.000000 0.000000 -0.034032 0.000000 0.095399
# 5 -0.006889 0.000970 -0.004473 0.000000 0.033035 0.000000
# 6 0.000000 0.000000 0.000000 0.095399 0.000000 -0.091388
#
#
# Mechanical properties :
#
#
# Convention : Reuss Voigt Hill
#
# Bulk Modulus (GPa) = 42.37120 57.08909 49.73014
# Shear Modulus (GPa) = 314.50478 21.67318 168.08898
#
# Velocity S-wave (km/s) = 13.30466 3.49262 9.72657
# Velocity P-wave (km/s) = 16.12037 6.95674 12.41496
#
# Compressibility (1/GPa) = 0.02360094
#
# Stress axis : x y z
#
# Youngs Moduli (GPa) = 50.62764 34.14741 77.08945
#
# Poissons Ratio (x) = 0.50381 0.27184
# Poissons Ratio (y) = 0.74696 0.07120
# Poissons Ratio (z) = 0.17853 0.03154
#
# Static dielectric constant tensor:
#      x y z
#    x 1.583210 0.000000 0.002930 
#    y 0.000000 1.662540 0.000000 
#    z 0.002930 0.000000 1.612090 
# 
# From -- ./inp_files/28278.got.cif
#   From: 2010.05.17/outbox.cif.g08.bks.cpg/sg10_15_cif.got.tgz:28278.got - 2010.06.03 11:33:40.
