data_PCOD9150549
_publ_section_title
;
Structure prediction by ZEFSAII (Michael W. Deem and Ramdas Pophale) SiO2 
 PCOD9150549
Probable space group: P 2/M
;
_chemical_formula_sum "Si O2"
_cell_formula_units_Z 28
_cell_length_a 15.918447
_cell_length_b 8.887261
_cell_length_c 12.075818
_cell_angle_alpha 90.000000
_cell_angle_beta 124.298746
_cell_angle_gamma 90.000000
_cell_volume 1411.313185
_symmetry_space_group_name_H-M "P 2/M"
_symmetry_group_IT_number 10
_symmetry_cell_setting 'monoclinic'
loop_
_space_group_symop_operation_xyz
x,y,z
-x,y,-z
-x,-y,-z
x,-y,z
loop_
_atom_site_type_symbol
_atom_site_label
_atom_site_fract_x
_atom_site_fract_y
_atom_site_fract_z
Si Si1 0.010083 0.319275 0.135930
Si Si2 0.381313 0.180010 0.402570
Si Si3 0.771217 0.821321 0.339054
Si Si4 0.824970 0.180273 0.132239
Si Si5 0.788188 0.321273 0.580260
Si Si6 0.352981 0.680057 0.146746
Si Si7 0.551889 0.677364 0.158565
O O1 0.994778 0.500000 0.131284
O O2 0.121044 0.285404 0.267331
O O3 0.925188 0.238815 0.146073
O O4 0.000000 0.275454 0.000000
O O5 0.500000 0.221879 0.500000
O O6 0.314553 0.244016 0.452979
O O7 0.339815 0.249659 0.257706
O O8 0.373730 0.000000 0.394265
O O9 0.821456 0.778351 0.259353
O O10 0.814919 0.738069 0.478464
O O11 0.652763 0.774737 0.243318
O O12 0.780461 0.000000 0.360462
O O13 0.817561 0.000000 0.118995
O O14 0.728848 0.253387 0.998798
O O15 0.773716 0.500000 0.567173
O O16 0.341598 0.500000 0.143024
O O17 0.465813 0.714408 0.184722
O O18 0.578583 0.500000 0.189387
O O19 0.500000 0.697292 0.000000
#
# Coordination Sequence:
#
# PCOD9150549 Si02
#       7
#     4   4   4   4   4   4   4
#     4  10  23  44  68  93 120 154 202 259 316 371
#     4  11  24  41  62  91 127 164 204 251 307 369
#     4  11  24  40  60  90 129 168 206 253 309 371
#     4  11  24  40  62  92 123 161 206 253 309 370
#     4  11  24  42  66  93 123 163 208 256 311 368
#     4  11  22  37  61  90 124 163 207 259 307 362
#     4  10  20  36  59  89 123 164 209 253 304 360
#
# _framework density 19.839680999999999
#
# number of rings (size 3 to 8) (size 9 to 14) (size 15 to 20)
#    0.000    1.286    1.429    3.857    0.000    9.714 
#    0.000    2.857    0.000    0.000    0.000    0.000 
#    0.000    0.000    0.000    0.000    0.000    0.000 
#
# Total GULP energy -156655.354927 kJ/mol
# GULP energy per Si atom -5594.834105 kJ/mol
# Density = 1.979452 g / cm^3
# Si number density = 19.839681 Si / 1000 Ang^3
#
#
#
# Elastic Constant Matrix: (Units=GPa)
#
#
# Indices 1 2 3 4 5 6 
#
# 1 123.4195 52.4178 53.7271 0.0000 -15.1627 0.0000
# 2 52.4178 46.6014 41.0952 0.0000 -1.3745 0.0000
# 3 53.7271 41.0952 118.1196 0.0000 -17.1164 0.0000
# 4 0.0000 0.0000 0.0000 31.4441 0.0000 -1.6084
# 5 -15.1627 -1.3745 -17.1164 0.0000 31.0758 0.0000
# 6 0.0000 0.0000 0.0000 -1.6084 0.0000 18.1304
#
#
#
# Elastic Compliance Matrix: (Units=1/GPa)
#
#
# Indices 1 2 3 4 5 6 
#
# 1 0.017099 -0.018907 -0.000122 0.000000 0.007440 0.000000
# 2 -0.018907 0.052581 -0.011621 0.000000 -0.013300 0.000000
# 3 -0.000122 -0.011621 0.013564 0.000000 0.006898 0.000000
# 4 0.000000 0.000000 0.000000 0.031947 0.000000 0.002834
# 5 0.007440 -0.013300 0.006898 0.000000 0.039020 0.000000
# 6 0.000000 0.000000 0.000000 0.002834 0.000000 0.055407
#
#
# Mechanical properties :
#
#
# Convention : Reuss Voigt Hill
#
# Bulk Modulus (GPa) = 45.56819 64.73563 55.15191
# Shear Modulus (GPa) = 17.97053 25.52342 21.74697
#
# Velocity S-wave (km/s) = 3.01289 3.59065 3.31439
# Velocity P-wave (km/s) = 5.92634 7.06332 6.51966
#
# Compressibility (1/GPa) = 0.02194513
#
# Stress axis : x y z
#
# Youngs Moduli (GPa) = 58.48144 19.01836 73.72490
#
# Poissons Ratio (x) = 0.35958 0.00897
# Poissons Ratio (y) = 1.10570 0.85675
# Poissons Ratio (z) = 0.00712 0.22101
#
# Static dielectric constant tensor:
#      x y z
#    x 1.674380 0.000000 -0.007500 
#    y 0.000000 1.658180 0.000000 
#    z -0.007500 0.000000 1.693290 
# 
# From -- ./inp_files/50024.got.cif
#   From: 2010.05.17/outbox.cif.g08.bks.cpg/sg10_26_cif.got.tgz:50024.got - 2010.06.03 11:33:40.
