data_PCOD9150259
_publ_section_title
;
Structure prediction by ZEFSAII (Michael W. Deem and Ramdas Pophale) SiO2 
 PCOD9150259
Probable space group: P 2/M
;
_chemical_formula_sum "Si O2"
_cell_formula_units_Z 24
_cell_length_a 16.025169
_cell_length_b 12.500458
_cell_length_c 13.758592
_cell_angle_alpha 90.000000
_cell_angle_beta 150.642006
_cell_angle_gamma 90.000000
_cell_volume 1351.242620
_symmetry_space_group_name_H-M "P 2/M"
_symmetry_group_IT_number 10
_symmetry_cell_setting 'monoclinic'
loop_
_space_group_symop_operation_xyz
x,y,z
-x,y,-z
-x,-y,-z
x,-y,z
loop_
_atom_site_type_symbol
_atom_site_label
_atom_site_fract_x
_atom_site_fract_y
_atom_site_fract_z
Si Si1 0.090114 0.500000 0.755311
Si Si2 0.258079 0.873458 0.505665
Si Si3 0.640911 0.621219 0.885469
Si Si4 0.749077 0.500000 0.297984
Si Si5 0.421486 0.274177 0.824601
Si Si6 0.562894 0.802438 0.673841
Si Si7 0.949925 0.872251 0.056249
O O1 0.186619 0.500000 0.748513
O O2 0.897927 0.500000 0.529164
O O3 0.160592 0.599973 0.889305
O O4 0.292799 0.801677 0.635757
O O5 0.419282 0.855163 0.596778
O O6 0.088064 0.836656 0.276196
O O7 0.246436 0.000000 0.515971
O O8 0.569247 0.500000 0.817962
O O9 0.566672 0.693959 0.895241
O O10 0.589275 0.679940 0.735038
O O11 0.654354 0.388309 0.218892
O O12 0.500000 0.221167 0.000000
O O13 0.500000 0.813022 0.500000
O O14 0.752628 0.849770 0.877838
O O15 0.970756 0.000000 0.073341
O O16 0.000000 0.829045 0.000000
#
# Coordination Sequence:
#
# PCOD9150259 Si02
#       7
#     2   4   4   2   4   4   4
#     4   9  19  32  50  79 108 137 176 228 267 318
#     4  10  23  37  54  83 110 145 184 218 273 325
#     4   9  19  35  50  75 108 139 179 213 268 322
#     4  11  18  31  58  82 104 137 178 228 271 311
#     4  11  19  35  58  78 108 143 179 225 266 321
#     4  11  21  34  57  80 108 144 179 226 271 320
#     4  10  20  36  57  78 104 136 182 232 267 316
#
# _framework density 17.761429
#
# number of rings (size 3 to 8) (size 9 to 14) (size 15 to 20)
#    0.500    1.333    4.167    0.750    2.333    1.333 
#    0.000    0.000    0.000    0.500    0.000    8.167 
#    0.000    0.000    0.000    0.000    0.000    0.000 
#
# Total GULP energy -133612.425210 kJ/mol
# GULP energy per Si atom -5567.184384 kJ/mol
# Density = 1.772100 g / cm^3
# Si number density = 17.761429 Si / 1000 Ang^3
#
#
#
# Elastic Constant Matrix: (Units=GPa)
#
#
# Indices 1 2 3 4 5 6 
#
# 1 36.9208 4.5165 28.6560 0.0000 -6.7200 0.0000
# 2 4.5165 54.4389 41.7844 0.0000 -19.0256 0.0000
# 3 28.6560 41.7844 157.3744 0.0000 -7.9721 0.0000
# 4 0.0000 0.0000 0.0000 31.2180 0.0000 -3.3596
# 5 -6.7200 -19.0256 -7.9721 0.0000 30.9650 0.0000
# 6 0.0000 0.0000 0.0000 -3.3596 0.0000 -16.7786
#
#
#
# Elastic Compliance Matrix: (Units=1/GPa)
#
#
# Indices 1 2 3 4 5 6 
#
# 1 0.033633 0.005944 -0.007242 0.000000 0.009086 0.000000
# 2 0.005944 0.030471 -0.008267 0.000000 0.017884 0.000000
# 3 -0.007242 -0.008267 0.009657 0.000000 -0.004165 0.000000
# 4 0.000000 0.000000 0.000000 0.031357 0.000000 -0.006279
# 5 0.009086 0.017884 -0.004165 0.000000 0.044182 0.000000
# 6 0.000000 0.000000 0.000000 -0.006279 0.000000 -0.058342
#
#
# Mechanical properties :
#
#
# Convention : Reuss Voigt Hill
#
# Bulk Modulus (GPa) = 18.30463 44.29421 31.29942
# Shear Modulus (GPa) = 38.97172 20.66603 29.81887
#
# Velocity S-wave (km/s) = 4.68929 3.41476 4.10183
# Velocity P-wave (km/s) = 6.29662 6.36711 6.33196
#
# Compressibility (1/GPa) = 0.05463098
#
# Stress axis : x y z
#
# Youngs Moduli (GPa) = 29.73310 32.81766 103.55305
#
# Poissons Ratio (x) = -0.19506 0.74992
# Poissons Ratio (y) = -0.17673 0.85605
# Poissons Ratio (z) = 0.21533 0.27130
#
# Static dielectric constant tensor:
#      x y z
#    x 1.614140 0.000000 0.004320 
#    y 0.000000 1.605280 0.000000 
#    z 0.004320 0.000000 1.634400 
# 
# From -- ./inp_files/51473.got.cif
#   From: 2010.05.17/outbox.cif.g08.bks.cpg/sg10_26_cif.got.tgz:51473.got - 2010.06.03 11:33:40.
