data_PCOD9150315
_publ_section_title
;
Structure prediction by ZEFSAII (Michael W. Deem and Ramdas Pophale) SiO2 
 PCOD9150315
Probable space group: P 2/M
;
_chemical_formula_sum "Si O2"
_cell_formula_units_Z 28
_cell_length_a 16.321943
_cell_length_b 7.946957
_cell_length_c 11.524281
_cell_angle_alpha 90.000000
_cell_angle_beta 73.286840
_cell_angle_gamma 90.000000
_cell_volume 1431.665806
_symmetry_space_group_name_H-M "P 2/M"
_symmetry_group_IT_number 10
_symmetry_cell_setting 'monoclinic'
loop_
_space_group_symop_operation_xyz
x,y,z
-x,y,-z
-x,-y,-z
x,-y,z
loop_
_atom_site_type_symbol
_atom_site_label
_atom_site_fract_x
_atom_site_fract_y
_atom_site_fract_z
Si Si1 0.953734 0.800223 0.642286
Si Si2 0.398480 0.812659 0.567978
Si Si3 0.760617 0.197087 0.760415
Si Si4 0.248866 0.190227 0.963235
Si Si5 0.141029 0.500000 0.930264
Si Si6 0.579896 0.691487 0.197905
Si Si7 0.392011 0.307104 0.325544
Si Si8 0.005631 0.500000 0.198184
O O1 0.852654 0.763773 0.668912
O O2 0.986863 0.666529 0.724040
O O3 0.000000 0.778906 0.500000
O O4 0.961545 0.000000 0.673500
O O5 0.500000 0.807933 0.500000
O O6 0.386233 0.694822 0.682852
O O7 0.359725 0.773528 0.458679
O O8 0.374313 0.000000 0.615394
O O9 0.681744 0.295384 0.738434
O O10 0.742135 0.000000 0.747959
O O11 0.768758 0.222723 0.894293
O O12 0.199867 0.334076 0.912601
O O13 0.350387 0.207929 0.902443
O O14 0.221471 0.000000 0.945685
O O15 0.080889 0.500000 0.842200
O O16 0.080859 0.500000 0.070177
O O17 0.576796 0.500000 0.155439
O O18 0.483243 0.763487 0.243489
O O19 0.412133 0.500000 0.347281
#
# Coordination Sequence:
#
# PCOD9150315 Si02
#       8
#     4   4   4   4   2   4   4   2
#     4  10  22  43  68  95 129 165 204 256 317 377
#     4   9  17  32  52  74 109 153 198 249 301 355
#     4  10  22  39  60  85 118 160 203 251 303 365
#     4  11  23  41  63  87 125 167 201 251 308 358
#     4  11  24  42  66  96 127 163 207 258 307 379
#     4  10  20  36  57  84 121 162 207 252 301 360
#     4  10  21  34  56  87 118 159 205 254 304 356
#     4  11  23  42  72  97 122 164 207 254 317 375
#
# _framework density 19.557638000000001
#
# number of rings (size 3 to 8) (size 9 to 14) (size 15 to 20)
#    0.000    1.857    2.143    1.500    2.000    4.571 
#    2.571    4.286    0.000    0.000    0.000    0.000 
#    0.000    0.000    0.000    0.000    0.000    0.000 
#
# Total GULP energy -156193.640389 kJ/mol
# GULP energy per Si atom -5578.344300 kJ/mol
# Density = 1.951312 g / cm^3
# Si number density = 19.557638 Si / 1000 Ang^3
#
#
#
# Elastic Constant Matrix: (Units=GPa)
#
#
# Indices 1 2 3 4 5 6 
#
# 1 97.0351 48.6239 39.4117 0.0000 -5.5952 0.0000
# 2 48.6239 85.4040 26.2479 0.0000 11.4038 0.0000
# 3 39.4117 26.2479 63.0655 0.0000 -20.2687 0.0000
# 4 0.0000 0.0000 0.0000 28.3046 0.0000 5.5404
# 5 -5.5952 11.4038 -20.2687 0.0000 25.6683 0.0000
# 6 0.0000 0.0000 0.0000 5.5404 0.0000 32.1257
#
#
#
# Elastic Compliance Matrix: (Units=1/GPa)
#
#
# Indices 1 2 3 4 5 6 
#
# 1 0.017152 -0.007918 -0.006823 0.000000 0.001869 0.000000
# 2 -0.007918 0.022198 -0.010740 0.000000 -0.020069 0.000000
# 3 -0.006823 -0.010740 0.034368 0.000000 0.030423 0.000000
# 4 0.000000 0.000000 0.000000 0.036564 0.000000 -0.006306
# 5 0.001869 -0.020069 0.030423 0.000000 0.072305 0.000000
# 6 0.000000 0.000000 0.000000 -0.006306 0.000000 0.032215
#
#
# Mechanical properties :
#
#
# Convention : Reuss Voigt Hill
#
# Bulk Modulus (GPa) = 43.94537 52.67463 48.31000
# Shear Modulus (GPa) = 18.29153 25.96780 22.12967
#
# Velocity S-wave (km/s) = 3.06152 3.64779 3.36744
# Velocity P-wave (km/s) = 5.91741 6.68830 6.31463
#
# Compressibility (1/GPa) = 0.02275553
#
# Stress axis : x y z
#
# Youngs Moduli (GPa) = 58.30167 45.04931 29.09679
#
# Poissons Ratio (x) = 0.35671 0.19852
# Poissons Ratio (y) = 0.46164 0.31251
# Poissons Ratio (z) = 0.39777 0.48385
#
# Static dielectric constant tensor:
#      x y z
#    x 1.673780 0.000000 -0.010070 
#    y 0.000000 1.701530 0.000000 
#    z -0.010070 0.000000 1.688710 
# 
# From -- ./inp_files/49228.got.cif
#   From: 2010.05.17/outbox.cif.g08.bks.cpg/sg10_25_cif.got.tgz:49228.got - 2010.06.03 11:33:40.
