data_PCOD9150605
_publ_section_title
;
Structure prediction by ZEFSAII (Michael W. Deem and Ramdas Pophale) SiO2 
 PCOD9150605
Probable space group: P 2/M
;
_chemical_formula_sum "Si O2"
_cell_formula_units_Z 28
_cell_length_a 16.253800
_cell_length_b 8.742506
_cell_length_c 20.470440
_cell_angle_alpha 90.000000
_cell_angle_beta 149.937783
_cell_angle_gamma 90.000000
_cell_volume 1457.148586
_symmetry_space_group_name_H-M "P 2/M"
_symmetry_group_IT_number 10
_symmetry_cell_setting 'monoclinic'
loop_
_space_group_symop_operation_xyz
x,y,z
-x,y,-z
-x,-y,-z
x,-y,z
loop_
_atom_site_type_symbol
_atom_site_label
_atom_site_fract_x
_atom_site_fract_y
_atom_site_fract_z
Si Si1 0.970907 0.817072 0.404923
Si Si2 0.024011 0.315694 0.833267
Si Si3 0.177491 0.683284 0.431842
Si Si4 0.134469 0.815608 0.146745
Si Si5 0.385823 0.315572 0.860036
Si Si6 0.472872 0.183445 0.311520
Si Si7 0.600858 0.684796 0.881668
O O1 0.791745 0.760623 0.259783
O O2 0.000000 0.770379 0.500000
O O3 0.106319 0.744825 0.450838
O O4 0.980637 0.000000 0.407745
O O5 0.021920 0.500000 0.833364
O O6 0.944113 0.267302 0.709980
O O7 0.918356 0.253623 0.820833
O O8 0.213481 0.268035 0.972063
O O9 0.182403 0.500000 0.437021
O O10 0.359073 0.747593 0.545975
O O11 0.313816 0.769670 0.244367
O O12 0.130567 0.000000 0.148797
O O13 0.000000 0.769547 0.000000
O O14 0.365293 0.500000 0.847602
O O15 0.478428 0.274603 0.856431
O O16 0.500000 0.273673 0.000000
O O17 0.447966 0.241297 0.220413
O O18 0.481637 0.000000 0.317487
O O19 0.597878 0.500000 0.872835
#
# Coordination Sequence:
#
# PCOD9150605 Si02
#       7
#     4   4   4   4   4   4   4
#     4  11  24  41  61  88 121 157 201 248 296 353
#     4  10  22  39  62  90 120 155 198 249 295 346
#     4  11  24  42  62  88 121 157 199 244 299 357
#     4  10  21  39  61  88 121 159 198 238 293 355
#     4  10  21  38  60  86 119 156 197 246 297 353
#     4  11  23  39  60  87 120 155 196 244 291 349
#     4  10  20  36  60  88 115 152 198 243 296 349
#
# _framework density 19.215612
#
# number of rings (size 3 to 8) (size 9 to 14) (size 15 to 20)
#    0.000    1.571    1.429    3.000    0.000    9.714 
#    0.000    4.286    0.000    0.000    0.000    0.000 
#    0.000    0.000    0.000    0.000    0.000    0.000 
#
# Total GULP energy -156552.057260 kJ/mol
# GULP energy per Si atom -5591.144902 kJ/mol
# Density = 1.917188 g / cm^3
# Si number density = 19.215612 Si / 1000 Ang^3
#
#
#
# Elastic Constant Matrix: (Units=GPa)
#
#
# Indices 1 2 3 4 5 6 
#
# 1 59.4241 8.7533 -9.6926 0.0000 11.9903 0.0000
# 2 8.7533 15.7944 12.4952 0.0000 3.2762 0.0000
# 3 -9.6926 12.4952 75.2861 0.0000 8.7922 0.0000
# 4 0.0000 0.0000 0.0000 29.6383 0.0000 7.6518
# 5 11.9903 3.2762 8.7922 0.0000 37.3676 0.0000
# 6 0.0000 0.0000 0.0000 7.6518 0.0000 28.9571
#
#
#
# Elastic Compliance Matrix: (Units=1/GPa)
#
#
# Indices 1 2 3 4 5 6 
#
# 1 0.021493 -0.015306 0.006124 0.000000 -0.006996 0.000000
# 2 -0.015306 0.084268 -0.016110 0.000000 0.001313 0.000000
# 3 0.006124 -0.016110 0.017284 0.000000 -0.004620 0.000000
# 4 0.000000 0.000000 0.000000 0.036210 0.000000 -0.009568
# 5 -0.006996 0.001313 -0.004620 0.000000 0.029978 0.000000
# 6 0.000000 0.000000 0.000000 -0.009568 0.000000 0.037062
#
#
# Mechanical properties :
#
#
# Convention : Reuss Voigt Hill
#
# Bulk Modulus (GPa) = 13.80002 19.29073 16.54538
# Shear Modulus (GPa) = 16.60945 28.45584 22.53264
#
# Velocity S-wave (km/s) = 2.94321 3.85238 3.42807
# Velocity P-wave (km/s) = 4.32981 5.46340 4.92930
#
# Compressibility (1/GPa) = 0.07246366
#
# Stress axis : x y z
#
# Youngs Moduli (GPa) = 46.52619 11.86684 57.85567
#
# Poissons Ratio (x) = 0.18163 -0.35433
# Poissons Ratio (y) = 0.71211 0.93205
# Poissons Ratio (z) = -0.28494 0.19117
#
# Static dielectric constant tensor:
#      x y z
#    x 1.634990 0.000000 -0.001000 
#    y 0.000000 1.649030 0.000000 
#    z -0.001000 0.000000 1.657670 
# 
# From -- ./inp_files/37271.got.cif
#   From: 2010.05.17/outbox.cif.g08.bks.cpg/sg10_19_cif.got.tgz:37271.got - 2010.06.03 11:33:40.
