data_PCOD9150607
_publ_section_title
;
Structure prediction by ZEFSAII (Michael W. Deem and Ramdas Pophale) SiO2 
 PCOD9150607
Probable space group: P 2/M
;
_chemical_formula_sum "Si O2"
_cell_formula_units_Z 24
_cell_length_a 7.407268
_cell_length_b 22.313590
_cell_length_c 8.475705
_cell_angle_alpha 90.000000
_cell_angle_beta 59.377104
_cell_angle_gamma 90.000000
_cell_volume 1205.517904
_symmetry_space_group_name_H-M "P 2/M"
_symmetry_group_IT_number 10
_symmetry_cell_setting 'monoclinic'
loop_
_space_group_symop_operation_xyz
x,y,z
-x,y,-z
-x,-y,-z
x,-y,z
loop_
_atom_site_type_symbol
_atom_site_label
_atom_site_fract_x
_atom_site_fract_y
_atom_site_fract_z
Si Si1 0.774607 0.838117 0.507449
Si Si2 0.751104 0.567312 0.091700
Si Si3 0.500000 0.609443 0.500000
Si Si4 0.749908 0.705115 0.591543
Si Si5 0.344417 0.064698 0.215092
Si Si6 0.085926 0.932687 0.785621
Si Si7 0.500000 0.663152 0.000000
O O1 0.708000 0.769500 0.530070
O O2 0.632155 0.879707 0.681385
O O3 0.792388 0.875671 0.337989
O O4 0.000000 0.835833 0.500000
O O5 0.715335 0.500000 0.044067
O O6 0.632721 0.573063 0.312151
O O7 0.657578 0.619018 0.022943
O O8 0.000000 0.575500 0.000000
O O9 0.658003 0.652174 0.526015
O O10 0.630596 0.700961 0.813146
O O11 0.000000 0.697980 0.500000
O O12 0.113226 0.064342 0.243070
O O13 0.373686 0.000000 0.282210
O O14 0.500000 0.068419 0.000000
O O15 0.182714 0.000000 0.739747
O O16 0.000000 0.923013 0.000000
#
# Coordination Sequence:
#
# PCOD9150607 Si02
#       7
#     4   4   2   4   4   4   2
#     4   9  18  33  51  71  97 136 177 216 264 330
#     4  10  20  36  60  88 116 148 187 230 276 325
#     4  10  21  38  56  84 117 152 186 228 276 328
#     4  10  21  38  56  79 113 151 191 228 275 330
#     4   9  17  30  49  72  96 126 166 215 269 323
#     4   9  17  32  51  72  98 129 168 220 279 331
#     4  10  21  36  58  84 115 152 186 230 274 328
#
# _framework density 19.908455
#
# number of rings (size 3 to 8) (size 9 to 14) (size 15 to 20)
#    0.000    2.500    0.000    2.000    1.167    2.000 
#    3.000    4.167    0.000   12.000    0.000    0.000 
#    0.000    0.000    0.000    0.000    0.000    0.000 
#
# Total GULP energy -133912.081463 kJ/mol
# GULP energy per Si atom -5579.670061 kJ/mol
# Density = 1.986314 g / cm^3
# Si number density = 19.908455 Si / 1000 Ang^3
#
#
#
# Elastic Constant Matrix: (Units=GPa)
#
#
# Indices 1 2 3 4 5 6 
#
# 1 76.0685 24.0561 19.0749 0.0000 -9.1548 0.0000
# 2 24.0561 112.6764 46.9332 0.0000 -9.6427 0.0000
# 3 19.0749 46.9332 95.4643 0.0000 -1.0941 0.0000
# 4 0.0000 0.0000 0.0000 40.1168 0.0000 3.9299
# 5 -9.1548 -9.6427 -1.0941 0.0000 23.8469 0.0000
# 6 0.0000 0.0000 0.0000 3.9299 0.0000 -3.5493
#
#
#
# Elastic Compliance Matrix: (Units=1/GPa)
#
#
# Indices 1 2 3 4 5 6 
#
# 1 0.014829 -0.001940 -0.001954 0.000000 0.004819 0.000000
# 2 -0.001940 0.011865 -0.005402 0.000000 0.003805 0.000000
# 3 -0.001954 -0.005402 0.013495 0.000000 -0.002315 0.000000
# 4 0.000000 0.000000 0.000000 0.022488 0.000000 0.024899
# 5 0.004819 0.003805 -0.002315 0.000000 0.045217 0.000000
# 6 0.000000 0.000000 0.000000 0.024899 0.000000 -0.254174
#
#
# Mechanical properties :
#
#
# Convention : Reuss Voigt Hill
#
# Bulk Modulus (GPa) = 46.30187 51.59307 48.94747
# Shear Modulus (GPa) = -41.49748 25.02586 -8.23581
#
# Velocity S-wave (km/s) = -4.57049 3.54933 -2.03613
# Velocity P-wave (km/s) = 2.13182 6.53976 4.37171
#
# Compressibility (1/GPa) = 0.02159740
#
# Stress axis : x y z
#
# Youngs Moduli (GPa) = 67.43333 84.28301 74.10243
#
# Poissons Ratio (x) = 0.16348 0.14482
# Poissons Ratio (y) = 0.13079 0.40030
# Poissons Ratio (z) = 0.13179 0.45529
#
# Static dielectric constant tensor:
#      x y z
#    x 1.738180 0.000000 -0.017660 
#    y 0.000000 1.692130 0.000000 
#    z -0.017660 0.000000 1.696780 
# 
# From -- ./inp_files/20158.got.cif
#   From: 2010.05.17/outbox.cif.g08.bks.cpg/sg10_11_cif.got.tgz:20158.got - 2010.06.03 11:33:40.
