data_PCOD9150741
_publ_section_title
;
Structure prediction by ZEFSAII (Michael W. Deem and Ramdas Pophale) SiO2 
 PCOD9150741
Probable space group: P 2/M
;
_chemical_formula_sum "Si O2"
_cell_formula_units_Z 26
_cell_length_a 14.697170
_cell_length_b 13.689147
_cell_length_c 9.328975
_cell_angle_alpha 90.000000
_cell_angle_beta 133.596953
_cell_angle_gamma 90.000000
_cell_volume 1359.276074
_symmetry_space_group_name_H-M "P 2/M"
_symmetry_group_IT_number 10
_symmetry_cell_setting 'monoclinic'
loop_
_space_group_symop_operation_xyz
x,y,z
-x,y,-z
-x,-y,-z
x,-y,z
loop_
_atom_site_type_symbol
_atom_site_label
_atom_site_fract_x
_atom_site_fract_y
_atom_site_fract_z
Si Si1 0.632821 0.113748 0.214717
Si Si2 0.647677 0.610250 0.648978
Si Si3 0.178178 0.303464 0.953242
Si Si4 0.226304 0.261853 0.443137
Si Si5 0.853733 0.391376 0.380042
Si Si6 0.874826 0.888478 0.268034
Si Si7 0.000000 0.715261 0.000000
O O1 0.682071 0.176946 0.402047
O O2 0.748252 0.118184 0.226263
O O3 0.616231 0.000000 0.236367
O O4 0.500000 0.146977 0.000000
O O5 0.500000 0.605853 0.500000
O O6 0.697528 0.500000 0.727039
O O7 0.696971 0.686027 0.820195
O O8 0.696437 0.653863 0.553489
O O9 0.202815 0.360757 0.833690
O O10 0.136445 0.194945 0.863335
O O11 0.071652 0.341953 0.949458
O O12 0.170243 0.312228 0.524317
O O13 0.113564 0.232114 0.210753
O O14 0.814129 0.500000 0.381548
O O15 0.000000 0.392590 0.500000
O O16 0.000000 0.870852 0.500000
O O17 0.884475 0.000000 0.224219
#
# Coordination Sequence:
#
# PCOD9150741 Si02
#       7
#     4   4   4   4   4   4   2
#     4  10  22  39  63  95 125 155 198 258 322 370
#     4  10  24  42  57  80 120 167 207 244 301 367
#     4  11  20  38  59  84 120 154 199 249 307 355
#     4  11  21  39  63  87 122 160 205 249 307 367
#     4  11  21  34  58  90 119 150 201 260 304 353
#     4  10  20  36  63  92 119 153 197 252 311 368
#     4  10  22  36  56  86 122 162 190 238 300 376
#
# _framework density 19.127827
#
# number of rings (size 3 to 8) (size 9 to 14) (size 15 to 20)
#    0.000    1.538    3.077    2.308    2.154    0.000 
#    0.000    6.154    0.000    4.615    0.000    0.000 
#    0.000    0.000    0.000    0.000    0.000    0.000 
#
# Total GULP energy -144879.224780 kJ/mol
# GULP energy per Si atom -5572.277876 kJ/mol
# Density = 1.908429 g / cm^3
# Si number density = 19.127827 Si / 1000 Ang^3
#
#
#
# Elastic Constant Matrix: (Units=GPa)
#
#
# Indices 1 2 3 4 5 6 
#
# 1 64.5455 19.0885 41.3732 0.0000 0.6845 0.0000
# 2 19.0885 103.5491 48.5023 0.0000 -1.2202 0.0000
# 3 41.3732 48.5023 128.0715 0.0000 7.4187 0.0000
# 4 0.0000 0.0000 0.0000 20.0354 0.0000 0.3658
# 5 0.6845 -1.2202 7.4187 0.0000 33.8370 0.0000
# 6 0.0000 0.0000 0.0000 0.3658 0.0000 17.7850
#
#
#
# Elastic Compliance Matrix: (Units=1/GPa)
#
#
# Indices 1 2 3 4 5 6 
#
# 1 0.019619 -0.000744 -0.006109 0.000000 0.000916 0.000000
# 2 -0.000744 0.011835 -0.004322 0.000000 0.001389 0.000000
# 3 -0.006109 -0.004322 0.011567 0.000000 -0.002568 0.000000
# 4 0.000000 0.000000 0.000000 0.049930 0.000000 -0.001027
# 5 0.000916 0.001389 -0.002568 0.000000 0.030148 0.000000
# 6 0.000000 0.000000 0.000000 -0.001027 0.000000 0.056248
#
#
# Mechanical properties :
#
#
# Convention : Reuss Voigt Hill
#
# Bulk Modulus (GPa) = 48.37797 57.12158 52.74977
# Shear Modulus (GPa) = 23.97043 26.81161 25.39102
#
# Velocity S-wave (km/s) = 3.54386 3.74800 3.64736
# Velocity P-wave (km/s) = 6.48784 6.97552 6.73610
#
# Compressibility (1/GPa) = 0.02067057
#
# Stress axis : x y z
#
# Youngs Moduli (GPa) = 50.97028 84.49240 86.45035
#
# Poissons Ratio (x) = 0.06289 0.52813
# Poissons Ratio (y) = 0.03794 0.37366
# Poissons Ratio (z) = 0.31138 0.36520
#
# Static dielectric constant tensor:
#      x y z
#    x 1.815980 0.000000 -0.147950 
#    y 0.000000 1.677960 0.000000 
#    z -0.147950 0.000000 1.868460 
# 
# From -- ./inp_files/29818.got.cif
#   From: 2010.05.17/outbox.cif.g08.bks.cpg/sg10_15_cif.got.tgz:29818.got - 2010.06.03 11:33:40.
