data_PCOD9150758
_publ_section_title
;
Structure prediction by ZEFSAII (Michael W. Deem and Ramdas Pophale) SiO2 
 PCOD9150758
Probable space group: P 2/M
;
_chemical_formula_sum "Si O2"
_cell_formula_units_Z 20
_cell_length_a 17.230761
_cell_length_b 7.273358
_cell_length_c 24.909640
_cell_angle_alpha 90.000000
_cell_angle_beta 160.773616
_cell_angle_gamma 90.000000
_cell_volume 1028.017633
_symmetry_space_group_name_H-M "P 2/M"
_symmetry_group_IT_number 10
_symmetry_cell_setting 'monoclinic'
loop_
_space_group_symop_operation_xyz
x,y,z
-x,y,-z
-x,-y,-z
x,-y,z
loop_
_atom_site_type_symbol
_atom_site_label
_atom_site_fract_x
_atom_site_fract_y
_atom_site_fract_z
Si Si1 0.759654 0.778581 0.987672
Si Si2 0.236078 0.223754 0.684518
Si Si3 0.483448 0.500000 0.552745
Si Si4 0.008630 0.500000 0.941027
Si Si5 0.919015 0.219900 0.697744
Si Si6 0.753739 0.776511 0.186410
O O1 0.860324 0.673218 0.001670
O O2 0.924824 0.733480 0.147369
O O3 0.766693 0.000000 0.985426
O O4 0.489383 0.724211 0.824932
O O5 0.214999 0.283789 0.732363
O O6 0.000000 0.282786 0.500000
O O7 0.238442 0.000000 0.685709
O O8 0.500000 0.500000 0.500000
O O9 0.738628 0.500000 0.745229
O O10 0.328146 0.322096 0.464899
O O11 0.000000 0.500000 0.000000
O O12 0.057472 0.276891 0.734621
O O13 0.891830 0.000000 0.680269
O O14 0.754312 0.000000 0.187501
O O15 0.500000 0.717720 0.000000
#
# Coordination Sequence:
#
# PCOD9150758 Si02
#       6
#     4   4   2   2   4   4
#     4  10  20  39  65  90 119 160 201 241 301 363
#     4   9  17  30  54  88 125 159 191 231 284 355
#     4  12  24  42  62  87 114 151 209 261 299 345
#     4  12  28  46  62  84 120 157 198 263 314 348
#     4  10  20  36  64  94 121 155 200 249 295 352
#     4   9  15  28  52  84 118 152 188 229 282 344
#
# _framework density 19.454919
#
# number of rings (size 3 to 8) (size 9 to 14) (size 15 to 20)
#    0.000    2.000    4.000    0.000    0.000    3.200 
#    0.000    4.000    0.000    0.000    0.000    0.000 
#    0.000    0.000    0.000    0.000    0.000    0.000 
#
# Total GULP energy -111688.612742 kJ/mol
# GULP energy per Si atom -5584.430637 kJ/mol
# Density = 1.941064 g / cm^3
# Si number density = 19.454919 Si / 1000 Ang^3
#
#
#
# Elastic Constant Matrix: (Units=GPa)
#
#
# Indices 1 2 3 4 5 6 
#
# 1 206.0410 44.1678 98.3489 0.0000 4.4092 0.0000
# 2 44.1678 95.4736 34.6731 0.0000 8.5120 0.0000
# 3 98.3489 34.6731 144.7816 0.0000 2.4361 0.0000
# 4 0.0000 0.0000 0.0000 255.3275 0.0000 90.8887
# 5 4.4092 8.5120 2.4361 0.0000 39.6500 0.0000
# 6 0.0000 0.0000 0.0000 90.8887 0.0000 52.2232
#
#
#
# Elastic Compliance Matrix: (Units=1/GPa)
#
#
# Indices 1 2 3 4 5 6 
#
# 1 0.007444 -0.001745 -0.004636 0.000000 -0.000168 0.000000
# 2 -0.001745 0.012094 -0.001672 0.000000 -0.002299 0.000000
# 3 -0.004636 -0.001672 0.010453 0.000000 0.000232 0.000000
# 4 0.000000 0.000000 0.000000 0.010294 0.000000 -0.017915
# 5 -0.000168 -0.002299 0.000232 0.000000 0.025719 0.000000
# 6 0.000000 0.000000 0.000000 -0.017915 0.000000 0.050328
#
#
# Mechanical properties :
#
#
# Convention : Reuss Voigt Hill
#
# Bulk Modulus (GPa) = 72.02510 88.96397 80.49454
# Shear Modulus (GPa) = 36.47910 87.38058 61.92984
#
# Velocity S-wave (km/s) = 4.33489 6.70909 5.64815
# Velocity P-wave (km/s) = 7.88397 10.28802 9.16516
#
# Compressibility (1/GPa) = 0.01388405
#
# Stress axis : x y z
#
# Youngs Moduli (GPa) = 134.33851 82.68773 95.67024
#
# Poissons Ratio (x) = 0.14430 0.44351
# Poissons Ratio (y) = 0.23443 0.15998
# Poissons Ratio (z) = 0.62277 0.13827
#
# Static dielectric constant tensor:
#      x y z
#    x 1.623420 0.000000 -0.018420 
#    y 0.000000 1.734880 0.000000 
#    z -0.018420 0.000000 1.633610 
# 
# From -- ./inp_files/89437.got.cif
#   From: 2010.05.17/outbox.cif.g08.bks.cpg/sg10_45_cif.got.tgz:89437.got - 2010.06.03 11:33:40.
