data_PCOD9150832
_publ_section_title
;
Structure prediction by ZEFSAII (Michael W. Deem and Ramdas Pophale) SiO2 
 PCOD9150832
Probable space group: P 2/M
;
_chemical_formula_sum "Si O2"
_cell_formula_units_Z 24
_cell_length_a 5.259736
_cell_length_b 17.270407
_cell_length_c 11.162445
_cell_angle_alpha 90.000000
_cell_angle_beta 90.000000
_cell_angle_gamma 90.000000
_cell_volume 1013.971739
_symmetry_space_group_name_H-M "P 2/M"
_symmetry_group_IT_number 10
_symmetry_cell_setting 'monoclinic'
loop_
_space_group_symop_operation_xyz
x,y,z
-x,y,-z
-x,-y,-z
x,-y,z
loop_
_atom_site_type_symbol
_atom_site_label
_atom_site_fract_x
_atom_site_fract_y
_atom_site_fract_z
Si Si1 0.148229 0.589035 0.659372
Si Si2 0.623309 0.339453 0.120372
Si Si3 0.123308 0.839453 0.379627
Si Si4 0.862053 0.178536 0.138902
Si Si5 0.351772 0.089035 0.159371
Si Si6 0.637949 0.321465 0.638903
O O1 0.184279 0.500000 0.627883
O O2 0.205911 0.602274 0.801188
O O3 0.365479 0.643503 0.602259
O O4 0.869897 0.618832 0.628539
O O5 0.780438 0.261952 0.092538
O O6 0.408001 0.312575 0.216145
O O7 0.500000 0.370998 0.000000
O O8 0.908003 0.812574 0.283855
O O9 0.000000 0.870997 0.500000
O O10 0.294086 0.897727 0.301188
O O11 0.280439 0.761952 0.407461
O O12 0.630105 0.118833 0.128540
O O13 0.134522 0.143504 0.102259
O O14 0.315724 0.000000 0.127881
#
# Coordination Sequence:
#
# PCOD9150832 Si02
#       6
#     4   4   4   4   4   4
#     4  10  20  37  58  82 119 149 181 234 290 336
#     4  10  21  38  61  85 114 150 192 236 283 333
#     4  10  21  38  61  85 114 150 192 236 283 333
#     4  10  20  39  54  87 111 150 193 225 282 336
#     4  10  20  37  58  82 119 149 181 234 290 336
#     4  10  20  39  54  87 111 150 193 225 282 336
#
# _framework density 23.669301999999998
#
# number of rings (size 3 to 8) (size 9 to 14) (size 15 to 20)
#    2.000    0.000    3.333    1.000    0.000    2.000 
#    0.000    1.667    0.000    6.000    0.000    0.000 
#    0.000    0.000    0.000    0.000    0.000    0.000 
#
# Total GULP energy -134161.951985 kJ/mol
# GULP energy per Si atom -5590.081333 kJ/mol
# Density = 2.361543 g / cm^3
# Si number density = 23.669302 Si / 1000 Ang^3
#
#
#
# Elastic Constant Matrix: (Units=GPa)
#
#
# Indices 1 2 3 4 5 6 
#
# 1 144.6539 31.9779 27.4761 0.0000 0.3678 0.0000
# 2 31.9779 93.1776 -6.4028 0.0000 7.6175 0.0000
# 3 27.4761 -6.4028 102.5773 0.0000 7.9827 0.0000
# 4 0.0000 0.0000 0.0000 12.9630 0.0000 2.5581
# 5 0.3678 7.6175 7.9827 0.0000 56.1513 0.0000
# 6 0.0000 0.0000 0.0000 2.5581 0.0000 25.8499
#
#
#
# Elastic Compliance Matrix: (Units=1/GPa)
#
#
# Indices 1 2 3 4 5 6 
#
# 1 0.008022 -0.002974 -0.002388 0.000000 0.000690 0.000000
# 2 -0.002974 0.012020 0.001691 0.000000 -0.001852 0.000000
# 3 -0.002388 0.001691 0.010628 0.000000 -0.001725 0.000000
# 4 0.000000 0.000000 0.000000 0.078679 0.000000 -0.007786
# 5 0.000690 -0.001852 -0.001725 0.000000 0.018301 0.000000
# 6 0.000000 0.000000 0.000000 -0.007786 0.000000 0.039455
#
#
# Mechanical properties :
#
#
# Convention : Reuss Voigt Hill
#
# Bulk Modulus (GPa) = 42.86541 49.61237 46.23889
# Shear Modulus (GPa) = 27.43872 38.15003 32.79437
#
# Velocity S-wave (km/s) = 3.40847 4.01907 3.72630
# Velocity P-wave (km/s) = 5.79998 6.52253 6.17183
#
# Compressibility (1/GPa) = 0.02332883
#
# Stress axis : x y z
#
# Youngs Moduli (GPa) = 124.65235 83.19242 94.08933
#
# Poissons Ratio (x) = 0.24739 0.22470
# Poissons Ratio (y) = 0.37068 -0.15910
# Poissons Ratio (z) = 0.29769 -0.14067
#
# Static dielectric constant tensor:
#      x y z
#    x 1.891510 0.000000 -0.046890 
#    y 0.000000 1.777530 0.000000 
#    z -0.046890 0.000000 2.127740 
# 
# From -- ./inp_files/59269.got.cif
#   From: 2010.05.17/outbox.cif.g08.bks.cpg/sg10_30_cif.got.tgz:59269.got - 2010.06.03 11:33:40.
