data_PCOD9150197
_publ_section_title
;
Structure prediction by ZEFSAII (Michael W. Deem and Ramdas Pophale) SiO2 
 PCOD9150197
Probable space group: P 2/M
;
_chemical_formula_sum "Si O2"
_cell_formula_units_Z 32
_cell_length_a 26.618530
_cell_length_b 9.044534
_cell_length_c 11.489089
_cell_angle_alpha 90.000000
_cell_angle_beta 144.911445
_cell_angle_gamma 90.000000
_cell_volume 1590.025933
_symmetry_space_group_name_H-M "P 2/M"
_symmetry_group_IT_number 10
_symmetry_cell_setting 'monoclinic'
loop_
_space_group_symop_operation_xyz
x,y,z
-x,y,-z
-x,-y,-z
x,-y,z
loop_
_atom_site_type_symbol
_atom_site_label
_atom_site_fract_x
_atom_site_fract_y
_atom_site_fract_z
Si Si1 0.554002 0.319706 0.717392
Si Si2 0.015555 0.831410 0.167505
Si Si3 0.257249 0.674691 0.860204
Si Si4 0.100999 0.174228 0.691050
Si Si5 0.483488 0.672569 0.836273
Si Si6 0.778790 0.828518 0.430520
Si Si7 0.722961 0.666675 0.548258
Si Si8 0.134217 0.669960 0.984545
O O1 0.500000 0.270691 0.500000
O O2 0.547161 0.500000 0.706653
O O3 0.522657 0.268172 0.787589
O O4 0.656863 0.281578 0.903925
O O5 0.117256 0.802989 0.381730
O O6 0.951922 0.715779 0.107244
O O7 0.995662 0.000000 0.170630
O O8 0.000000 0.827458 0.000000
O O9 0.247780 0.500000 0.850285
O O10 0.167501 0.750056 0.729011
O O11 0.271565 0.725364 0.755022
O O12 0.138827 0.217800 0.887513
O O13 0.000000 0.226522 0.500000
O O14 0.100053 0.000000 0.667278
O O15 0.512993 0.500000 0.898591
O O16 0.379310 0.676624 0.621404
O O17 0.500000 0.734142 0.000000
O O18 0.750819 0.785896 0.506613
O O19 0.761815 0.000000 0.373012
O O20 0.740723 0.500000 0.535389
O O21 0.782413 0.683236 0.774319
O O22 0.128387 0.500000 0.932407
#
# Coordination Sequence:
#
# PCOD9150197 Si02
#       8
#     4   4   4   4   4   4   4   4
#     4   9  19  35  60  91 122 158 200 248 306 370
#     4  10  20  36  55  78 113 160 203 237 286 361
#     4  11  23  39  64  94 122 152 199 257 305 349
#     4  11  25  44  63  84 117 164 209 244 294 368
#     4   9  17  32  56  85 118 153 192 242 299 358
#     4  11  22  37  59  85 119 161 202 240 295 364
#     4  10  21  35  57  89 120 150 194 248 300 352
#     4  11  23  36  57  89 120 150 194 254 309 351
#
# _framework density 20.125457000000001
#
# number of rings (size 3 to 8) (size 9 to 14) (size 15 to 20)
#    0.000    1.750    1.250    3.000    1.750    7.750 
#    0.000    0.000    0.000    5.625    0.000    0.000 
#    0.000    0.000    0.000    0.000    0.000    0.000 
#
# Total GULP energy -178607.418537 kJ/mol
# GULP energy per Si atom -5581.481829 kJ/mol
# Density = 2.007965 g / cm^3
# Si number density = 20.125457 Si / 1000 Ang^3
#
#
#
# Elastic Constant Matrix: (Units=GPa)
#
#
# Indices 1 2 3 4 5 6 
#
# 1 74.4642 16.1405 40.0588 0.0000 -7.4447 0.0000
# 2 16.1405 24.3391 34.8725 0.0000 7.4225 0.0000
# 3 40.0588 34.8725 103.6857 0.0000 2.5119 0.0000
# 4 0.0000 0.0000 0.0000 16.7507 0.0000 -12.3873
# 5 -7.4447 7.4225 2.5119 0.0000 25.4534 0.0000
# 6 0.0000 0.0000 0.0000 -12.3873 0.0000 22.4883
#
#
#
# Elastic Compliance Matrix: (Units=1/GPa)
#
#
# Indices 1 2 3 4 5 6 
#
# 1 0.018503 -0.008224 -0.004583 0.000000 0.008262 0.000000
# 2 -0.008224 0.095343 -0.028225 0.000000 -0.027423 0.000000
# 3 -0.004583 -0.028225 0.020791 0.000000 0.004838 0.000000
# 4 0.000000 0.000000 0.000000 0.100732 0.000000 0.055486
# 5 0.008262 -0.027423 0.004838 0.000000 0.049224 0.000000
# 6 0.000000 0.000000 0.000000 0.055486 0.000000 0.075031
#
#
# Mechanical properties :
#
#
# Convention : Reuss Voigt Hill
#
# Bulk Modulus (GPa) = 19.02096 42.73694 30.87895
# Shear Modulus (GPa) = 10.88822 20.36628 15.62725
#
# Velocity S-wave (km/s) = 2.32850 3.18459 2.78958
# Velocity P-wave (km/s) = 4.08668 5.89945 5.07467
#
# Compressibility (1/GPa) = 0.05257359
#
# Stress axis : x y z
#
# Youngs Moduli (GPa) = 54.04430 10.48844 48.09812
#
# Poissons Ratio (x) = 0.08625 0.22043
# Poissons Ratio (y) = 0.44445 1.35757
# Poissons Ratio (z) = 0.24768 0.29604
#
# Static dielectric constant tensor:
#      x y z
#    x 1.805630 0.000000 -0.025040 
#    y 0.000000 1.685230 0.000000 
#    z -0.025040 0.000000 1.719710 
# 
# From -- ./inp_files/58310.got.cif
#   From: 2010.05.17/outbox.cif.g08.bks.cpg/sg10_30_cif.got.tgz:58310.got - 2010.06.03 11:33:40.
