data_PCOD9150716
_publ_section_title
;
Structure prediction by ZEFSAII (Michael W. Deem and Ramdas Pophale) SiO2 
 PCOD9150716
Probable space group: P 2/M
;
_chemical_formula_sum "Si O2"
_cell_formula_units_Z 15
_cell_length_a 10.478812
_cell_length_b 14.386871
_cell_length_c 11.890479
_cell_angle_alpha 90.000000
_cell_angle_beta 24.580430
_cell_angle_gamma 90.000000
_cell_volume 745.658506
_symmetry_space_group_name_H-M "P 2/M"
_symmetry_group_IT_number 10
_symmetry_cell_setting 'monoclinic'
loop_
_space_group_symop_operation_xyz
x,y,z
-x,y,-z
-x,-y,-z
x,-y,z
loop_
_atom_site_type_symbol
_atom_site_label
_atom_site_fract_x
_atom_site_fract_y
_atom_site_fract_z
Si Si1 0.801732 0.202745 0.837389
Si Si2 0.411606 0.305569 0.322417
Si Si3 0.500000 0.359449 0.500000
Si Si4 0.358623 0.500000 0.238263
Si Si5 0.140886 0.000000 0.263366
Si Si6 0.000000 0.500000 0.000000
O O1 0.926347 0.097436 0.742873
O O2 0.071075 0.266500 0.572132
O O3 0.500000 0.205241 0.000000
O O4 0.671372 0.242816 0.057658
O O5 0.434930 0.305728 0.437575
O O6 0.444579 0.409117 0.242831
O O7 0.202910 0.420752 0.769833
O O8 0.000000 0.500000 0.500000
O O9 0.500000 0.500000 0.000000
O O10 0.000000 0.000000 0.500000
O O11 0.500000 0.000000 0.000000
#
# Coordination Sequence:
#
# PCOD9150716 Si02
#       6
#     4   4   2   2   2   1
#     4  11  22  39  62  90 119 153 194 251 309 356
#     4  12  24  39  60  85 125 159 199 244 291 364
#     4  11  24  40  60  87 114 166 212 247 292 339
#     4  12  24  36  54  85 118 152 186 232 297 352
#     4  10  20  36  62  91 118 149 198 250 305 364
#     4  10  20  40  60  78 110 148 218 258 272 320
#
# _framework density 20.116447000000001
#
# number of rings (size 3 to 8) (size 9 to 14) (size 15 to 20)
#    0.000    0.800    0.000   11.200    0.000    2.133 
#    0.000    0.000    0.000    4.800    0.000    0.000 
#    0.000    0.000    0.000    0.000    0.000    0.000 
#
# Total GULP energy -83579.071502 kJ/mol
# GULP energy per Si atom -5571.938100 kJ/mol
# Density = 2.007066 g / cm^3
# Si number density = 20.116447 Si / 1000 Ang^3
#
#
#
# Elastic Constant Matrix: (Units=GPa)
#
#
# Indices 1 2 3 4 5 6 
#
# 1 86.6589 42.4537 29.1133 0.0000 32.3573 0.0000
# 2 42.4537 156.1070 69.6675 0.0000 24.0062 0.0000
# 3 29.1133 69.6675 187.3399 0.0000 36.5470 0.0000
# 4 0.0000 0.0000 0.0000 9.1871 0.0000 -6.5556
# 5 32.3573 24.0062 36.5470 0.0000 34.6750 0.0000
# 6 0.0000 0.0000 0.0000 -6.5556 0.0000 -31.4172
#
#
#
# Elastic Compliance Matrix: (Units=1/GPa)
#
#
# Indices 1 2 3 4 5 6 
#
# 1 0.019003 -0.003242 0.001604 0.000000 -0.017179 0.000000
# 2 -0.003242 0.008473 -0.002635 0.000000 -0.000064 0.000000
# 3 0.001604 -0.002635 0.007559 0.000000 -0.007639 0.000000
# 4 0.000000 0.000000 0.000000 0.094742 0.000000 -0.019769
# 5 -0.017179 -0.000064 -0.007639 0.000000 0.052966 0.000000
# 6 0.000000 0.000000 0.000000 -0.019769 0.000000 -0.027705
#
#
# Mechanical properties :
#
#
# Convention : Reuss Voigt Hill
#
# Bulk Modulus (GPa) = 37.75067 79.17499 58.46283
# Shear Modulus (GPa) = 28.99986 21.74706 25.37346
#
# Velocity S-wave (km/s) = 3.80096 3.29151 3.55537
# Velocity P-wave (km/s) = 6.17008 7.34093 6.78082
#
# Compressibility (1/GPa) = 0.02648960
#
# Stress axis : x y z
#
# Youngs Moduli (GPa) = 52.62225 118.01967 132.29683
#
# Poissons Ratio (x) = 0.38261 -0.21218
# Poissons Ratio (y) = 0.17060 0.34856
# Poissons Ratio (z) = -0.08439 0.31095
#
# Static dielectric constant tensor:
#      x y z
#    x 1.739890 0.000000 -0.043270 
#    y 0.000000 1.763550 0.000000 
#    z -0.043270 0.000000 1.676690 
# 
# From -- ./inp_files/47569.got.cif
#   From: 2010.05.17/outbox.cif.g08.bks.cpg/sg10_24_cif.got.tgz:47569.got - 2010.06.03 11:33:40.
