data_PCOD9150656
_publ_section_title
;
Structure prediction by ZEFSAII (Michael W. Deem and Ramdas Pophale) SiO2 
 PCOD9150656
Probable space group: P 2/M
;
_chemical_formula_sum "Si O2"
_cell_formula_units_Z 20
_cell_length_a 13.124109
_cell_length_b 8.178837
_cell_length_c 18.694882
_cell_angle_alpha 90.000000
_cell_angle_beta 153.051951
_cell_angle_gamma 90.000000
_cell_volume 909.404644
_symmetry_space_group_name_H-M "P 2/M"
_symmetry_group_IT_number 10
_symmetry_cell_setting 'monoclinic'
loop_
_space_group_symop_operation_xyz
x,y,z
-x,y,-z
-x,-y,-z
x,-y,z
loop_
_atom_site_type_symbol
_atom_site_label
_atom_site_fract_x
_atom_site_fract_y
_atom_site_fract_z
Si Si1 0.526758 0.685274 0.291695
Si Si2 0.391368 0.189625 0.357212
Si Si3 0.092682 0.310030 0.920133
Si Si4 0.769968 0.320003 0.158173
Si Si5 0.709663 0.000000 0.185579
Si Si6 0.256339 0.000000 0.636664
O O1 0.604937 0.500000 0.324537
O O2 0.474563 0.705603 0.342568
O O3 0.683201 0.834192 0.365900
O O4 0.296350 0.711970 0.102667
O O5 0.500000 0.243636 0.500000
O O6 0.123051 0.203575 0.196581
O O7 0.454697 0.000000 0.384804
O O8 0.021547 0.500000 0.880930
O O9 0.175404 0.285094 0.890460
O O10 0.863666 0.500000 0.235400
O O11 0.842810 0.166140 0.251259
O O12 0.500000 0.331643 0.000000
O O13 0.617331 0.000000 0.207668
O O14 0.500000 0.000000 0.000000
O O15 0.000000 0.000000 0.500000
#
# Coordination Sequence:
#
# PCOD9150656 Si02
#       6
#     4   4   4   4   2   2
#     4  11  24  46  72  98 133 177 226 278 335 396
#     4  11  25  43  66  99 139 177 221 277 340 405
#     4  10  22  39  67 103 133 174 231 277 328 399
#     4   9  18  34  57  92 130 162 208 266 317 373
#     4  10  20  36  61  87 118 165 212 257 314 372
#     4  12  28  46  65  99 139 173 225 275 334 404
#
# _framework density 21.99241
#
# number of rings (size 3 to 8) (size 9 to 14) (size 15 to 20)
#    0.000    1.600    1.000    3.600    2.800    8.400 
#    0.000    2.000    0.000    0.000    0.000    0.000 
#    0.000    0.000    0.000    0.000    0.000    0.000 
#
# Total GULP energy -111805.242052 kJ/mol
# GULP energy per Si atom -5590.262103 kJ/mol
# Density = 2.194235 g / cm^3
# Si number density = 21.992410 Si / 1000 Ang^3
#
#
#
# Elastic Constant Matrix: (Units=GPa)
#
#
# Indices 1 2 3 4 5 6 
#
# 1 121.9985 68.5273 28.8273 0.0000 -8.7842 0.0000
# 2 68.5273 165.6882 41.5375 0.0000 -1.4342 0.0000
# 3 28.8273 41.5375 58.6345 0.0000 2.7281 0.0000
# 4 0.0000 0.0000 0.0000 -56.3860 0.0000 -44.4828
# 5 -8.7842 -1.4342 2.7281 0.0000 20.1023 0.0000
# 6 0.0000 0.0000 0.0000 -44.4828 0.0000 5.0641
#
#
#
# Elastic Compliance Matrix: (Units=1/GPa)
#
#
# Indices 1 2 3 4 5 6 
#
# 1 0.011517 -0.003938 -0.003113 0.000000 0.005174 0.000000
# 2 -0.003938 0.008716 -0.004214 0.000000 -0.000527 0.000000
# 3 -0.003113 -0.004214 0.021785 0.000000 -0.004618 0.000000
# 4 0.000000 0.000000 0.000000 -0.002237 0.000000 -0.019646
# 5 0.005174 -0.000527 -0.004618 0.000000 0.052596 0.000000
# 6 0.000000 0.000000 0.000000 -0.019646 0.000000 0.024903
#
#
# Mechanical properties :
#
#
# Convention : Reuss Voigt Hill
#
# Bulk Modulus (GPa) = 51.31342 69.34503 60.32922
# Shear Modulus (GPa) = 34.17479 7.58470 20.87974
#
# Velocity S-wave (km/s) = 3.94628 1.85910 3.08459
# Velocity P-wave (km/s) = 6.64433 6.01732 6.33858
#
# Compressibility (1/GPa) = 0.01948808
#
# Stress axis : x y z
#
# Youngs Moduli (GPa) = 86.82775 114.73098 45.90226
#
# Poissons Ratio (x) = 0.45182 0.14290
# Poissons Ratio (y) = 0.34194 0.19343
# Poissons Ratio (z) = 0.27031 0.48346
#
# Static dielectric constant tensor:
#      x y z
#    x 1.768260 0.000000 -0.017560 
#    y 0.000000 1.700460 0.000000 
#    z -0.017560 0.000000 1.871390 
# 
# From -- ./inp_files/76278.got.cif
#   From: 2010.05.17/outbox.cif.g08.bks.cpg/sg10_39_cif.got.tgz:76278.got - 2010.06.03 11:33:40.
