data_PCOD9150684
_publ_section_title
;
Structure prediction by ZEFSAII (Michael W. Deem and Ramdas Pophale) SiO2 
 PCOD9150684
Probable space group: P 2/M
;
_chemical_formula_sum "Si O2"
_cell_formula_units_Z 32
_cell_length_a 25.732825
_cell_length_b 13.709769
_cell_length_c 8.547009
_cell_angle_alpha 90.000000
_cell_angle_beta 34.495493
_cell_angle_gamma 90.000000
_cell_volume 1707.694112
_symmetry_space_group_name_H-M "P 2/M"
_symmetry_group_IT_number 10
_symmetry_cell_setting 'monoclinic'
loop_
_space_group_symop_operation_xyz
x,y,z
-x,y,-z
-x,-y,-z
x,-y,z
loop_
_atom_site_type_symbol
_atom_site_label
_atom_site_fract_x
_atom_site_fract_y
_atom_site_fract_z
Si Si1 0.223178 0.304011 0.600122
Si Si2 0.112739 0.800083 0.421369
Si Si3 0.764512 0.108827 0.624157
Si Si4 0.400507 0.321824 0.663994
Si Si5 0.216992 0.389819 0.280605
Si Si6 0.597571 0.613566 0.691770
Si Si7 0.071453 0.743815 0.205992
Si Si8 0.390995 0.893438 0.745832
O O1 0.221500 0.194533 0.534281
O O2 0.210027 0.373443 0.483542
O O3 0.319554 0.326716 0.440367
O O4 0.142970 0.313700 0.926245
O O5 0.166477 0.872096 0.401310
O O6 0.154293 0.693537 0.358627
O O7 0.121897 0.811546 0.210402
O O8 0.002597 0.799790 0.718107
O O9 0.776233 0.000000 0.532760
O O10 0.664195 0.117027 0.954090
O O11 0.500000 0.325794 0.500000
O O12 0.402905 0.375621 0.493410
O O13 0.373640 0.208084 0.701063
O O14 0.321291 0.366901 0.968980
O O15 0.192929 0.500000 0.296404
O O16 0.609219 0.500000 0.705907
O O17 0.500000 0.647499 0.000000
O O18 0.000000 0.687323 0.500000
O O19 0.500000 0.896466 0.500000
O O20 0.363341 0.000000 0.748121
#
# Coordination Sequence:
#
# PCOD9150684 Si02
#       8
#     4   4   4   4   4   4   4   4
#     4  11  21  39  60  83 121 156 188 248 301 350
#     4   8  18  39  57  80 108 150 188 245 284 351
#     4  10  20  36  61  90 116 153 200 244 293 355
#     4  11  21  36  59  85 115 156 198 242 289 343
#     4  11  21  34  56  84 111 149 197 244 297 351
#     4  11  25  40  59  88 122 160 200 243 295 350
#     4   8  20  39  62  78 115 157 194 236 301 354
#     4   9  18  33  56  85 116 150 191 233 285 346
#
# _framework density 18.738720000000001
#
# number of rings (size 3 to 8) (size 9 to 14) (size 15 to 20)
#    0.750    1.250    2.500    2.250    1.750    4.000 
#    0.000    7.500    0.000    0.750    0.000    0.000 
#    0.000    0.000    0.000    0.000    0.000    0.000 
#
# Total GULP energy -178145.355984 kJ/mol
# GULP energy per Si atom -5567.042375 kJ/mol
# Density = 1.869607 g / cm^3
# Si number density = 18.738720 Si / 1000 Ang^3
#
#
#
# Elastic Constant Matrix: (Units=GPa)
#
#
# Indices 1 2 3 4 5 6 
#
# 1 73.4957 3.6168 33.9279 0.0000 -9.7265 0.0000
# 2 3.6168 77.5350 9.5186 0.0000 -4.9182 0.0000
# 3 33.9279 9.5186 110.3573 0.0000 9.1793 0.0000
# 4 0.0000 0.0000 0.0000 -4.0158 0.0000 7.8056
# 5 -9.7265 -4.9182 9.1793 0.0000 19.6211 0.0000
# 6 0.0000 0.0000 0.0000 7.8056 0.0000 1.1241
#
#
#
# Elastic Compliance Matrix: (Units=1/GPa)
#
#
# Indices 1 2 3 4 5 6 
#
# 1 0.018320 0.000760 -0.006731 0.000000 0.012421 0.000000
# 2 0.000760 0.013367 -0.001765 0.000000 0.004553 0.000000
# 3 -0.006731 -0.001765 0.012067 0.000000 -0.009424 0.000000
# 4 0.000000 0.000000 0.000000 -0.017177 0.000000 0.119276
# 5 0.012421 0.004553 -0.009424 0.000000 0.062673 0.000000
# 6 0.000000 0.000000 0.000000 0.119276 0.000000 0.061366
#
#
# Mechanical properties :
#
#
# Convention : Reuss Voigt Hill
#
# Bulk Modulus (GPa) = 35.35904 39.50163 37.43034
# Shear Modulus (GPa) = 28.48748 17.63418 23.06083
#
# Velocity S-wave (km/s) = 3.90326 3.07099 3.51187
# Velocity P-wave (km/s) = 6.26294 5.80522 6.03842
#
# Compressibility (1/GPa) = 0.02828131
#
# Stress axis : x y z
#
# Youngs Moduli (GPa) = 54.58579 74.80841 82.87107
#
# Poissons Ratio (x) = -0.05683 0.55779
# Poissons Ratio (y) = -0.04146 0.14629
# Poissons Ratio (z) = 0.36741 0.13205
#
# Static dielectric constant tensor:
#      x y z
#    x 1.657970 0.000000 -0.006920 
#    y 0.000000 1.660140 0.000000 
#    z -0.006920 0.000000 1.664950 
# 
# From -- ./inp_files/36369.got.cif
#   From: 2010.05.17/outbox.cif.g08.bks.cpg/sg10_19_cif.got.tgz:36369.got - 2010.06.03 11:33:40.
