data_PCOD9150847
_publ_section_title
;
Structure prediction by ZEFSAII (Michael W. Deem and Ramdas Pophale) SiO2 
 PCOD9150847
Probable space group: P 2/M
;
_chemical_formula_sum "Si O2"
_cell_formula_units_Z 32
_cell_length_a 16.307444
_cell_length_b 21.044296
_cell_length_c 15.949258
_cell_angle_alpha 90.000000
_cell_angle_beta 18.269433
_cell_angle_gamma 90.000000
_cell_volume 1715.847909
_symmetry_space_group_name_H-M "P 2/M"
_symmetry_group_IT_number 10
_symmetry_cell_setting 'monoclinic'
loop_
_space_group_symop_operation_xyz
x,y,z
-x,y,-z
-x,-y,-z
x,-y,z
loop_
_atom_site_type_symbol
_atom_site_label
_atom_site_fract_x
_atom_site_fract_y
_atom_site_fract_z
Si Si1 0.377126 0.073294 0.865076
Si Si2 0.051897 0.733991 0.547575
Si Si3 0.738777 0.875602 0.205271
Si Si4 0.931930 0.621214 0.163239
Si Si5 0.417164 0.312239 0.887796
Si Si6 0.897978 0.149657 0.389145
Si Si7 0.887116 0.757895 0.957426
Si Si8 0.457809 0.426606 0.730416
O O1 0.321946 0.085484 0.820046
O O2 0.613895 0.118643 0.663366
O O3 0.438699 0.000000 0.819839
O O4 0.115181 0.095727 0.165894
O O5 0.034369 0.806479 0.597362
O O6 0.000000 0.728644 0.500000
O O7 0.340377 0.712972 0.294963
O O8 0.841487 0.692573 0.804086
O O9 0.500000 0.879859 0.500000
O O10 0.781376 0.802967 0.132997
O O11 0.000000 0.896540 0.000000
O O12 0.653049 0.597159 0.467272
O O13 0.965117 0.695679 0.153572
O O14 0.159254 0.584015 0.991919
O O15 0.000000 0.612286 0.000000
O O16 0.343865 0.267920 0.878891
O O17 0.488915 0.380366 0.779706
O O18 0.933329 0.197156 0.275125
O O19 0.509753 0.500000 0.697545
#
# Coordination Sequence:
#
# PCOD9150847 Si02
#       8
#     4   4   4   4   4   4   4   4
#     4  11  23  38  55  75 106 150 191 223 260 317
#     4  11  21  37  64  94 118 134 164 225 287 335
#     4  11  22  33  51  77 106 141 183 236 286 321
#     4  11  23  35  54  82 112 148 193 247 291 320
#     4  10  21  37  59  86 114 146 184 220 270 341
#     4  10  20  37  59  81 106 140 181 219 267 335
#     4   9  20  36  55  79 109 141 183 229 281 331
#     4  11  23  39  57  77 110 157 198 229 267 323
#
# _framework density 18.649671999999999
#
# number of rings (size 3 to 8) (size 9 to 14) (size 15 to 20)
#    0.000    1.500    0.000    7.875    0.000    9.000 
#    0.000    0.000    0.000    4.500    0.000    0.000 
#    0.000    0.000    0.000    0.000    0.000    0.000 
#
# Total GULP energy -178841.326358 kJ/mol
# GULP energy per Si atom -5588.791449 kJ/mol
# Density = 1.860722 g / cm^3
# Si number density = 18.649672 Si / 1000 Ang^3
#
#
#
# Elastic Constant Matrix: (Units=GPa)
#
#
# Indices 1 2 3 4 5 6 
#
# 1 61.6436 6.8911 -0.8559 0.0000 6.7174 0.0000
# 2 6.8911 89.5438 -3.5806 0.0000 4.6976 0.0000
# 3 -0.8559 -3.5806 69.7127 0.0000 -3.8228 0.0000
# 4 0.0000 0.0000 0.0000 16.3524 0.0000 5.8188
# 5 6.7174 4.6976 -3.8228 0.0000 16.3348 0.0000
# 6 0.0000 0.0000 0.0000 5.8188 0.0000 17.0500
#
#
#
# Elastic Compliance Matrix: (Units=1/GPa)
#
#
# Indices 1 2 3 4 5 6 
#
# 1 0.017067 -0.000966 -0.000212 0.000000 -0.006791 0.000000
# 2 -0.000966 0.011405 0.000421 0.000000 -0.002784 0.000000
# 3 -0.000212 0.000421 0.014548 0.000000 0.003371 0.000000
# 4 0.000000 0.000000 0.000000 0.069606 0.000000 -0.023755
# 5 -0.006791 -0.002784 0.003371 0.000000 0.065601 0.000000
# 6 0.000000 0.000000 0.000000 -0.023755 0.000000 0.066758
#
#
# Mechanical properties :
#
#
# Convention : Reuss Voigt Hill
#
# Bulk Modulus (GPa) = 24.09237 25.08992 24.59115
# Shear Modulus (GPa) = 19.20599 24.51048 21.85823
#
# Velocity S-wave (km/s) = 3.21258 3.62920 3.42723
# Velocity P-wave (km/s) = 5.16791 5.57171 5.37361
#
# Compressibility (1/GPa) = 0.04150692
#
# Stress axis : x y z
#
# Youngs Moduli (GPa) = 58.59168 87.68126 68.73574
#
# Poissons Ratio (x) = 0.08468 0.01460
# Poissons Ratio (y) = 0.05658 -0.02896
# Poissons Ratio (z) = 0.01245 -0.03694
#
# Static dielectric constant tensor:
#      x y z
#    x 1.612190 0.000000 -0.001740 
#    y 0.000000 1.645930 0.000000 
#    z -0.001740 0.000000 1.642480 
# 
# From -- ./inp_files/67923.got.cif
#   From: 2010.05.17/outbox.cif.g08.bks.cpg/sg10_34_cif.got.tgz:67923.got - 2010.06.03 11:33:40.
