data_PCOD9150041
_publ_section_title
;
Structure prediction by ZEFSAII (Michael W. Deem and Ramdas Pophale) SiO2 
 PCOD9150041
Probable space group: P 2/M
;
_chemical_formula_sum "Si O2"
_cell_formula_units_Z 17
_cell_length_a 14.244275
_cell_length_b 10.986259
_cell_length_c 11.756150
_cell_angle_alpha 90.000000
_cell_angle_beta 28.917605
_cell_angle_gamma 90.000000
_cell_volume 889.606425
_symmetry_space_group_name_H-M "P 2/M"
_symmetry_group_IT_number 10
_symmetry_cell_setting 'monoclinic'
loop_
_space_group_symop_operation_xyz
x,y,z
-x,y,-z
-x,-y,-z
x,-y,z
loop_
_atom_site_type_symbol
_atom_site_label
_atom_site_fract_x
_atom_site_fract_y
_atom_site_fract_z
Si Si1 0.267498 0.366962 0.258094
Si Si2 0.219119 0.202736 0.113804
Si Si3 0.673439 0.137643 0.649684
Si Si4 0.000000 0.000000 0.500000
Si Si5 0.996104 0.858459 0.876057
O O1 0.197183 0.500000 0.369643
O O2 0.196362 0.327015 0.208935
O O3 0.245942 0.250255 0.362695
O O4 0.500000 0.375450 0.000000
O O5 0.143086 0.207684 0.066080
O O6 0.096903 0.104216 0.312876
O O7 0.444328 0.159615 0.879666
O O8 0.791108 0.140178 0.407527
O O9 0.707490 0.000000 0.666755
O O10 0.930680 0.000000 0.950112
O O11 0.000000 0.810630 0.000000
#
# Coordination Sequence:
#
# PCOD9150041 Si02
#       5
#     4   4   4   1   4
#     4   9  20  35  56  86 119 148 180 228 288 345
#     4  11  21  34  56  81 118 147 187 226 280 336
#     4  10  20  35  58  86 110 150 189 227 280 339
#     4  12  20  32  54  90 110 140 182 228 272 338
#     4  10  21  36  53  80 115 147 188 241 279 321
#
# _framework density 19.109575
#
# number of rings (size 3 to 8) (size 9 to 14) (size 15 to 20)
#    0.000    1.882    2.353    1.412    4.941    2.353 
#    0.000    8.824    0.000    2.824    0.000    6.588 
#    0.000    0.000    0.000    0.000    0.000    0.000 
#
# Total GULP energy -94657.635912 kJ/mol
# GULP energy per Si atom -5568.096230 kJ/mol
# Density = 1.906608 g / cm^3
# Si number density = 19.109575 Si / 1000 Ang^3
#
#
#
# Elastic Constant Matrix: (Units=GPa)
#
#
# Indices 1 2 3 4 5 6 
#
# 1 143.2018 60.5418 47.4143 0.0000 20.5197 0.0000
# 2 60.5418 126.2058 48.1874 0.0000 9.1708 0.0000
# 3 47.4143 48.1874 73.3642 0.0000 -1.5637 0.0000
# 4 0.0000 0.0000 0.0000 16.0463 0.0000 0.4400
# 5 20.5197 9.1708 -1.5637 0.0000 38.5096 0.0000
# 6 0.0000 0.0000 0.0000 0.4400 0.0000 4.9500
#
#
#
# Elastic Compliance Matrix: (Units=1/GPa)
#
#
# Indices 1 2 3 4 5 6 
#
# 1 0.010593 -0.002732 -0.005162 0.000000 -0.005204 0.000000
# 2 -0.002732 0.011592 -0.005881 0.000000 -0.001543 0.000000
# 3 -0.005162 -0.005881 0.020936 0.000000 0.005001 0.000000
# 4 0.000000 0.000000 0.000000 0.062472 0.000000 -0.005553
# 5 -0.005204 -0.001543 0.005001 0.000000 0.029311 0.000000
# 6 0.000000 0.000000 0.000000 -0.005553 0.000000 0.202515
#
#
# Mechanical properties :
#
#
# Convention : Reuss Voigt Hill
#
# Bulk Modulus (GPa) = 64.22577 72.78432 68.50504
# Shear Modulus (GPa) = 13.50766 24.34306 18.92536
#
# Velocity S-wave (km/s) = 2.66156 3.57300 3.15041
# Velocity P-wave (km/s) = 6.56714 7.42915 7.01141
#
# Compressibility (1/GPa) = 0.01557008
#
# Stress axis : x y z
#
# Youngs Moduli (GPa) = 94.39953 86.26745 47.76392
#
# Poissons Ratio (x) = 0.23572 0.24658
# Poissons Ratio (y) = 0.25794 0.28089
# Poissons Ratio (z) = 0.48733 0.50732
#
# Static dielectric constant tensor:
#      x y z
#    x 1.525970 0.000000 0.103940 
#    y 0.000000 1.748360 0.000000 
#    z 0.103940 0.000000 1.561640 
# 
# From -- ./inp_files/50217.got.cif
#   From: 2010.05.17/outbox.cif.g08.bks.cpg/sg10_26_cif.got.tgz:50217.got - 2010.06.03 11:33:40.
