data_PCOD9150201
_publ_section_title
;
Structure prediction by ZEFSAII (Michael W. Deem and Ramdas Pophale) SiO2 
 PCOD9150201
Probable space group: P 2/M
;
_chemical_formula_sum "Si O2"
_cell_formula_units_Z 20
_cell_length_a 15.941570
_cell_length_b 11.902710
_cell_length_c 13.486231
_cell_angle_alpha 90.000000
_cell_angle_beta 26.544933
_cell_angle_gamma 90.000000
_cell_volume 1143.608606
_symmetry_space_group_name_H-M "P 2/M"
_symmetry_group_IT_number 10
_symmetry_cell_setting 'monoclinic'
loop_
_space_group_symop_operation_xyz
x,y,z
-x,y,-z
-x,-y,-z
x,-y,z
loop_
_atom_site_type_symbol
_atom_site_label
_atom_site_fract_x
_atom_site_fract_y
_atom_site_fract_z
Si Si1 0.704565 0.500000 0.162881
Si Si2 0.782436 0.714043 0.437520
Si Si3 0.541845 0.634165 0.070509
Si Si4 0.250396 0.500000 0.657530
Si Si5 0.803413 0.729451 0.946384
Si Si6 0.502512 0.134167 0.613227
O O1 0.477902 0.500000 0.406629
O O2 0.784773 0.500000 0.188780
O O3 0.765403 0.611568 0.042241
O O4 0.820193 0.610614 0.323160
O O5 0.676652 0.808719 0.485645
O O6 0.976504 0.752755 0.280816
O O7 0.636974 0.667974 0.673422
O O8 0.576516 0.500000 0.044924
O O9 0.714179 0.705947 0.932843
O O10 0.500000 0.656329 0.000000
O O11 0.681300 0.820409 0.135500
O O12 0.500000 0.169753 0.500000
O O13 0.512777 0.000000 0.606123
#
# Coordination Sequence:
#
# PCOD9150201 Si02
#       6
#     2   4   4   2   4   4
#     4  11  19  31  51  77 111 146 177 212 264 328
#     4  11  21  35  55  81 110 142 181 224 271 323
#     4  10  20  36  55  79 114 147 176 219 275 331
#     4  11  19  31  51  77 111 146 177 212 264 328
#     4  11  21  35  55  81 110 142 181 224 271 323
#     4  10  22  39  56  78 111 149 187 225 265 313
#
# _framework density 17.488499999999998
#
# number of rings (size 3 to 8) (size 9 to 14) (size 15 to 20)
#    0.000    1.400    6.000    1.800    0.000    5.600 
#    0.000    4.000    0.000    9.600    0.000   11.200 
#    0.000    0.000    0.000    0.000    0.000    0.000 
#
# Total GULP energy -111696.943724 kJ/mol
# GULP energy per Si atom -5584.847186 kJ/mol
# Density = 1.744870 g / cm^3
# Si number density = 17.488500 Si / 1000 Ang^3
#
#
#
# Elastic Constant Matrix: (Units=GPa)
#
#
# Indices 1 2 3 4 5 6 
#
# 1 160.0519 35.6807 54.3613 0.0000 -2.9155 0.0000
# 2 35.6807 64.4640 14.2658 0.0000 2.3252 0.0000
# 3 54.3613 14.2658 38.0440 0.0000 -15.1184 0.0000
# 4 0.0000 0.0000 0.0000 1.5251 0.0000 13.8090
# 5 -2.9155 2.3252 -15.1184 0.0000 41.8725 0.0000
# 6 0.0000 0.0000 0.0000 13.8090 0.0000 10.1816
#
#
#
# Elastic Compliance Matrix: (Units=1/GPa)
#
#
# Indices 1 2 3 4 5 6 
#
# 1 0.014189 -0.002755 -0.021936 0.000000 -0.006779 0.000000
# 2 -0.002755 0.017977 -0.003827 0.000000 -0.002572 0.000000
# 3 -0.021936 -0.003827 0.068349 0.000000 0.023363 0.000000
# 4 0.000000 0.000000 0.000000 -0.058128 0.000000 0.078837
# 5 -0.006779 -0.002572 0.023363 0.000000 0.031988 0.000000
# 6 0.000000 0.000000 0.000000 0.078837 0.000000 -0.008707
#
#
# Mechanical properties :
#
#
# Convention : Reuss Voigt Hill
#
# Bulk Modulus (GPa) = 22.99902 52.35283 37.67592
# Shear Modulus (GPa) = 36.44426 21.26600 28.85513
#
# Velocity S-wave (km/s) = 4.56993 3.49090 4.06636
# Velocity P-wave (km/s) = 6.40509 6.80067 6.60584
#
# Compressibility (1/GPa) = 0.04348012
#
# Stress axis : x y z
#
# Youngs Moduli (GPa) = 70.47678 55.62699 14.63086
#
# Poissons Ratio (x) = 0.15324 0.32094
# Poissons Ratio (y) = 0.19415 0.05599
# Poissons Ratio (z) = 1.54597 0.21287
#
# Static dielectric constant tensor:
#      x y z
#    x 1.622340 0.000000 -0.027220 
#    y 0.000000 1.561810 0.000000 
#    z -0.027220 0.000000 1.605610 
# 
# From -- ./inp_files/50976.got.cif
#   From: 2010.05.17/outbox.cif.g08.bks.cpg/sg10_26_cif.got.tgz:50976.got - 2010.06.03 11:33:40.
