data_PCOD9150437
_publ_section_title
;
Structure prediction by ZEFSAII (Michael W. Deem and Ramdas Pophale) SiO2 
 PCOD9150437
Probable space group: P 2/M
;
_chemical_formula_sum "Si O2"
_cell_formula_units_Z 32
_cell_length_a 15.663369
_cell_length_b 14.244378
_cell_length_c 23.053079
_cell_angle_alpha 90.000000
_cell_angle_beta 19.062395
_cell_angle_gamma 90.000000
_cell_volume 1679.850510
_symmetry_space_group_name_H-M "P 2/M"
_symmetry_group_IT_number 10
_symmetry_cell_setting 'monoclinic'
loop_
_space_group_symop_operation_xyz
x,y,z
-x,y,-z
-x,-y,-z
x,-y,z
loop_
_atom_site_type_symbol
_atom_site_label
_atom_site_fract_x
_atom_site_fract_y
_atom_site_fract_z
Si Si1 0.103201 0.255121 0.674567
Si Si2 0.529342 0.600370 0.413056
Si Si3 0.242431 0.112213 0.884298
Si Si4 0.103123 0.606416 0.997372
Si Si5 0.797065 0.393464 0.787482
Si Si6 0.258087 0.763635 0.982414
Si Si7 0.833136 0.112795 0.465251
Si Si8 0.830536 0.756778 0.666641
O O1 0.387038 0.303444 0.488702
O O2 0.104922 0.159211 0.636921
O O3 0.938681 0.332501 0.745260
O O4 0.971796 0.246554 0.822218
O O5 0.500000 0.594647 0.500000
O O6 0.426603 0.500000 0.453947
O O7 0.832104 0.602656 0.205377
O O8 0.206437 0.151223 0.971905
O O9 0.533044 0.138779 0.675045
O O10 0.237133 0.000000 0.888134
O O11 0.000000 0.144509 0.000000
O O12 0.211525 0.500000 0.922132
O O13 0.275813 0.675705 0.925573
O O14 0.000000 0.636911 0.000000
O O15 0.891564 0.500000 0.721103
O O16 0.826410 0.335768 0.709287
O O17 0.500000 0.396563 0.000000
O O18 0.531890 0.776854 0.839930
O O19 0.030362 0.161720 0.384435
O O20 0.857590 0.000000 0.449675
O O21 0.000000 0.744200 0.500000
#
# Coordination Sequence:
#
# PCOD9150437 Si02
#       8
#     4   4   4   4   4   4   4   4
#     4  11  23  37  61  91 124 159 209 252 307 362
#     4  10  20  36  58  89 123 163 207 249 299 361
#     4  10  23  43  66  92 120 156 199 249 316 379
#     4  10  23  39  59  90 129 167 208 253 305 363
#     4  10  21  38  59  84 123 166 201 245 300 357
#     4  12  23  38  63  91 124 160 204 255 305 358
#     4  10  24  44  66  91 124 161 202 256 312 369
#     4  11  23  41  63  93 122 158 209 256 302 362
#
# _framework density 19.049313000000001
#
# number of rings (size 3 to 8) (size 9 to 14) (size 15 to 20)
#    0.000    1.500    3.750    0.750    3.500    2.500 
#    0.000    1.875    0.000    2.625    0.000    0.000 
#    0.000    0.000    0.000    0.000    0.000    0.000 
#
# Total GULP energy -178404.390138 kJ/mol
# GULP energy per Si atom -5575.137192 kJ/mol
# Density = 1.900596 g / cm^3
# Si number density = 19.049313 Si / 1000 Ang^3
#
#
#
# Elastic Constant Matrix: (Units=GPa)
#
#
# Indices 1 2 3 4 5 6 
#
# 1 96.3455 46.7699 23.3309 0.0000 0.7562 0.0000
# 2 46.7699 102.0527 33.9941 0.0000 0.2155 0.0000
# 3 23.3309 33.9941 43.7622 0.0000 -2.4089 0.0000
# 4 0.0000 0.0000 0.0000 26.2207 0.0000 0.9094
# 5 0.7562 0.2155 -2.4089 0.0000 41.7423 0.0000
# 6 0.0000 0.0000 0.0000 0.9094 0.0000 -5.8867
#
#
#
# Elastic Compliance Matrix: (Units=1/GPa)
#
#
# Indices 1 2 3 4 5 6 
#
# 1 0.013695 -0.005175 -0.003304 0.000000 -0.000412 0.000000
# 2 -0.005175 0.015193 -0.009071 0.000000 -0.000508 0.000000
# 3 -0.003304 -0.009071 0.031765 0.000000 0.001940 0.000000
# 4 0.000000 0.000000 0.000000 0.037935 0.000000 0.005860
# 5 -0.000412 -0.000508 0.001940 0.000000 0.024079 0.000000
# 6 0.000000 0.000000 0.000000 0.005860 0.000000 -0.168971
#
#
# Mechanical properties :
#
#
# Convention : Reuss Voigt Hill
#
# Bulk Modulus (GPa) = 39.13357 50.03891 44.58624
# Shear Modulus (GPa) = -1860.66351 21.61964 -919.52193
#
# Velocity S-wave (km/s) = -31.28709 3.37253 -21.99441
# Velocity P-wave (km/s) = 35.84115 6.44130 24.93088
#
# Compressibility (1/GPa) = 0.02555351
#
# Stress axis : x y z
#
# Youngs Moduli (GPa) = 73.02129 65.81972 31.48091
#
# Poissons Ratio (x) = 0.34060 0.10401
# Poissons Ratio (y) = 0.37786 0.28556
# Poissons Ratio (z) = 0.24127 0.59705
#
# Static dielectric constant tensor:
#      x y z
#    x 1.651880 0.000000 -0.000170 
#    y 0.000000 1.702100 0.000000 
#    z -0.000170 0.000000 1.611830 
# 
# From -- ./inp_files/65063.got.cif
#   From: 2010.05.17/outbox.cif.g08.bks.cpg/sg10_33_cif.got.tgz:65063.got - 2010.06.03 11:33:40.
