data_PCOD9150596
_publ_section_title
;
Structure prediction by ZEFSAII (Michael W. Deem and Ramdas Pophale) SiO2 
 PCOD9150596
Probable space group: P 2/M
;
_chemical_formula_sum "Si O2"
_cell_formula_units_Z 28
_cell_length_a 8.107640
_cell_length_b 13.754536
_cell_length_c 13.723555
_cell_angle_alpha 90.000000
_cell_angle_beta 58.422374
_cell_angle_gamma 90.000000
_cell_volume 1303.802164
_symmetry_space_group_name_H-M "P 2/M"
_symmetry_group_IT_number 10
_symmetry_cell_setting 'monoclinic'
loop_
_space_group_symop_operation_xyz
x,y,z
-x,y,-z
-x,-y,-z
x,-y,z
loop_
_atom_site_type_symbol
_atom_site_label
_atom_site_fract_x
_atom_site_fract_y
_atom_site_fract_z
Si Si1 0.709597 0.233313 0.209391
Si Si2 0.172239 0.392470 0.367780
Si Si3 0.966136 0.111641 0.375415
Si Si4 0.687338 0.706378 0.002312
Si Si5 0.686854 0.803075 0.602997
Si Si6 0.929166 0.111565 0.884081
Si Si7 0.022506 0.386264 0.781071
O O1 0.535081 0.171795 0.310094
O O2 0.882088 0.159961 0.125737
O O3 0.801247 0.313145 0.253563
O O4 0.651436 0.288804 0.128208
O O5 0.259653 0.500000 0.332454
O O6 0.307605 0.309747 0.368572
O O7 0.000000 0.396335 0.500000
O O8 0.081539 0.366138 0.290657
O O9 0.785311 0.175419 0.468893
O O10 0.012078 0.116313 0.247991
O O11 0.159550 0.145268 0.372326
O O12 0.921445 0.000000 0.414179
O O13 0.750495 0.815806 0.952936
O O14 0.866449 0.639424 0.913494
O O15 0.500000 0.676256 0.000000
O O16 0.893794 0.000000 0.921924
O O17 0.074982 0.500000 0.766283
#
# Coordination Sequence:
#
# PCOD9150596 Si02
#       7
#     4   4   4   4   4   4   4
#     4  11  24  37  59  91 121 156 199 244 296 359
#     4  10  20  36  60  87 115 155 198 236 286 350
#     4  10  21  38  60  86 114 157 207 247 292 351
#     4  11  23  40  63  90 118 152 204 250 292 352
#     4  11  20  36  60  85 120 156 193 252 294 342
#     4  10  22  40  59  83 121 158 196 246 300 354
#     4  10  22  41  62  87 124 159 194 243 296 350
#
# _framework density 21.475650999999999
#
# number of rings (size 3 to 8) (size 9 to 14) (size 15 to 20)
#    0.000    1.571    1.429    6.000    0.000    5.143 
#    0.000    1.429    0.000    2.571    0.000    0.000 
#    0.000    0.000    0.000    0.000    0.000    0.000 
#
# Total GULP energy -156430.793864 kJ/mol
# GULP energy per Si atom -5586.814067 kJ/mol
# Density = 2.142677 g / cm^3
# Si number density = 21.475651 Si / 1000 Ang^3
#
#
#
# Elastic Constant Matrix: (Units=GPa)
#
#
# Indices 1 2 3 4 5 6 
#
# 1 38.1541 0.6398 10.0027 0.0000 -10.7743 0.0000
# 2 0.6398 93.5374 8.7083 0.0000 -0.5992 0.0000
# 3 10.0027 8.7083 81.6012 0.0000 -7.8674 0.0000
# 4 0.0000 0.0000 0.0000 24.0540 0.0000 10.5109
# 5 -10.7743 -0.5992 -7.8674 0.0000 40.0114 0.0000
# 6 0.0000 0.0000 0.0000 10.5109 0.0000 10.7080
#
#
#
# Elastic Compliance Matrix: (Units=1/GPa)
#
#
# Indices 1 2 3 4 5 6 
#
# 1 0.029007 0.000115 -0.002869 0.000000 0.007249 0.000000
# 2 0.000115 0.010799 -0.001170 0.000000 -0.000037 0.000000
# 3 -0.002869 -0.001170 0.012900 0.000000 0.001746 0.000000
# 4 0.000000 0.000000 0.000000 0.072799 0.000000 -0.071459
# 5 0.007249 -0.000037 0.001746 0.000000 0.027288 0.000000
# 6 0.000000 0.000000 0.000000 -0.071459 0.000000 0.163532
#
#
# Mechanical properties :
#
#
# Convention : Reuss Voigt Hill
#
# Bulk Modulus (GPa) = 22.29311 27.99938 25.14625
# Shear Modulus (GPa) = 14.74389 27.88415 21.31402
#
# Velocity S-wave (km/s) = 2.62303 3.60725 3.15377
# Velocity P-wave (km/s) = 4.42458 5.51504 4.99963
#
# Compressibility (1/GPa) = 0.04485691
#
# Stress axis : x y z
#
# Youngs Moduli (GPa) = 34.47489 92.60270 77.52145
#
# Poissons Ratio (x) = -0.01066 0.22242
# Poissons Ratio (y) = -0.00397 0.09071
# Poissons Ratio (z) = 0.09891 0.10836
#
# Static dielectric constant tensor:
#      x y z
#    x 1.787660 0.000000 0.031180 
#    y 0.000000 1.793610 0.000000 
#    z 0.031180 0.000000 1.789980 
# 
# From -- ./inp_files/61773.got.cif
#   From: 2010.05.17/outbox.cif.g08.bks.cpg/sg10_31_cif.got.tgz:61773.got - 2010.06.03 11:33:40.
