data_PCOD9150040
_publ_section_title
;
Structure prediction by ZEFSAII (Michael W. Deem and Ramdas Pophale) SiO2 
 PCOD9150040
Probable space group: P 2/M
;
_chemical_formula_sum "Si O2"
_cell_formula_units_Z 32
_cell_length_a 29.668136
_cell_length_b 7.705428
_cell_length_c 11.858737
_cell_angle_alpha 90.000000
_cell_angle_beta 30.904101
_cell_angle_gamma 90.000000
_cell_volume 1392.363840
_symmetry_space_group_name_H-M "P 2/M"
_symmetry_group_IT_number 10
_symmetry_cell_setting 'monoclinic'
loop_
_space_group_symop_operation_xyz
x,y,z
-x,y,-z
-x,-y,-z
x,-y,z
loop_
_atom_site_type_symbol
_atom_site_label
_atom_site_fract_x
_atom_site_fract_y
_atom_site_fract_z
Si Si1 0.338608 0.801230 0.109384
Si Si2 0.043075 0.799418 0.026218
Si Si3 0.778939 0.791525 0.829839
Si Si4 0.985264 0.793035 0.400785
Si Si5 0.400789 0.208127 0.205340
Si Si6 0.704287 0.208382 0.224952
Si Si7 0.228049 0.299110 0.694097
Si Si8 0.506175 0.295483 0.616883
O O1 0.432289 0.800820 0.846244
O O2 0.310299 0.000000 0.191657
O O3 0.268640 0.718051 0.177196
O O4 0.355277 0.715422 0.192358
O O5 0.149394 0.792413 0.796130
O O6 0.012865 0.000000 0.095818
O O7 0.000000 0.729570 0.000000
O O8 0.022504 0.726379 0.198174
O O9 0.881662 0.769874 0.608234
O O10 0.761912 0.000000 0.867160
O O11 0.734986 0.724593 0.037641
O O12 0.000000 0.729117 0.500000
O O13 0.009388 0.000000 0.352871
O O14 0.327457 0.238582 0.455972
O O15 0.409540 0.000000 0.174538
O O16 0.500000 0.276369 0.000000
O O17 0.774386 0.269630 0.166591
O O18 0.603661 0.266370 0.454005
O O19 0.705237 0.000000 0.225333
O O20 0.220419 0.500000 0.684409
O O21 0.500000 0.237517 0.500000
O O22 0.486104 0.500000 0.663806
#
# Coordination Sequence:
#
# PCOD9150040 Si02
#       8
#     4   4   4   4   4   4   4   4
#     4  10  20  35  58  85 116 154 205 257 303 359
#     4  10  22  40  67  97 124 161 213 267 314 368
#     4   9  18  31  55  89 116 148 193 253 311 358
#     4   9  17  32  57  89 122 151 192 253 316 365
#     4  10  22  40  63  91 121 157 207 262 308 359
#     4  11  21  37  62  88 119 157 210 261 305 360
#     4  12  26  42  63  90 128 169 206 250 312 383
#     4  11  22  35  53  83 127 168 202 244 302 373
#
# _framework density 22.982496999999999
#
# number of rings (size 3 to 8) (size 9 to 14) (size 15 to 20)
#    0.000    1.750    1.250    3.375    1.750    4.500 
#    0.000    0.000    0.000    4.125    0.000    0.000 
#    0.000    0.000    0.000    0.000    0.000    0.000 
#
# Total GULP energy -178518.868887 kJ/mol
# GULP energy per Si atom -5578.714653 kJ/mol
# Density = 2.293019 g / cm^3
# Si number density = 22.982497 Si / 1000 Ang^3
#
#
#
# Elastic Constant Matrix: (Units=GPa)
#
#
# Indices 1 2 3 4 5 6 
#
# 1 187.5254 13.9443 41.1665 0.0000 4.3294 0.0000
# 2 13.9443 39.4511 -7.3904 0.0000 -0.6136 0.0000
# 3 41.1665 -7.3904 31.4382 0.0000 3.6242 0.0000
# 4 0.0000 0.0000 0.0000 -94.4747 0.0000 17.7500
# 5 4.3294 -0.6136 3.6242 0.0000 29.0256 0.0000
# 6 0.0000 0.0000 0.0000 17.7500 0.0000 11.3547
#
#
#
# Elastic Compliance Matrix: (Units=1/GPa)
#
#
# Indices 1 2 3 4 5 6 
#
# 1 0.008417 -0.005273 -0.012280 0.000000 0.000166 0.000000
# 2 -0.005273 0.029820 0.013952 0.000000 -0.000325 0.000000
# 3 -0.012280 0.013952 0.051666 0.000000 -0.004325 0.000000
# 4 0.000000 0.000000 0.000000 -0.008182 0.000000 0.012790
# 5 0.000166 -0.000325 -0.004325 0.000000 0.034961 0.000000
# 6 0.000000 0.000000 0.000000 0.012790 0.000000 0.068075
#
#
# Mechanical properties :
#
#
# Convention : Reuss Voigt Hill
#
# Bulk Modulus (GPa) = 12.09163 39.31727 25.70445
# Shear Modulus (GPa) = 22.77640 3.22740 13.00190
#
# Velocity S-wave (km/s) = 3.15148 1.18631 2.38109
# Velocity P-wave (km/s) = 4.30292 4.36131 4.33222
#
# Compressibility (1/GPa) = 0.08270187
#
# Stress axis : x y z
#
# Youngs Moduli (GPa) = 118.81383 33.53444 19.35499
#
# Poissons Ratio (x) = 0.17682 0.23767
# Poissons Ratio (y) = 0.62647 -0.27004
# Poissons Ratio (z) = 1.45899 -0.46787
#
# Static dielectric constant tensor:
#      x y z
#    x 1.992220 0.000000 0.176340 
#    y 0.000000 1.851820 0.000000 
#    z 0.176340 0.000000 2.057840 
# 
# From -- ./inp_files/58133.got.cif
#   From: 2010.05.17/outbox.cif.g08.bks.cpg/sg10_30_cif.got.tgz:58133.got - 2010.06.03 11:33:40.
