data_PCOD9150257
_publ_section_title
;
Structure prediction by ZEFSAII (Michael W. Deem and Ramdas Pophale) SiO2 
 PCOD9150257
Probable space group: P 2/M
;
_chemical_formula_sum "Si O2"
_cell_formula_units_Z 32
_cell_length_a 16.263149
_cell_length_b 22.470053
_cell_length_c 9.196306
_cell_angle_alpha 90.000000
_cell_angle_beta 30.007130
_cell_angle_gamma 90.000000
_cell_volume 1680.682779
_symmetry_space_group_name_H-M "P 2/M"
_symmetry_group_IT_number 10
_symmetry_cell_setting 'monoclinic'
loop_
_space_group_symop_operation_xyz
x,y,z
-x,y,-z
-x,-y,-z
x,-y,z
loop_
_atom_site_type_symbol
_atom_site_label
_atom_site_fract_x
_atom_site_fract_y
_atom_site_fract_z
Si Si1 0.036977 0.274471 0.114460
Si Si2 0.999059 0.138776 0.824009
Si Si3 0.940476 0.434790 0.940239
Si Si4 0.660121 0.355848 0.350121
Si Si5 0.126508 0.624724 0.437996
Si Si6 0.328115 0.070439 0.336018
Si Si7 0.331486 0.070475 0.679254
Si Si8 0.529334 0.570475 0.127368
O O1 0.012388 0.207300 0.205574
O O2 0.918767 0.319109 0.387460
O O3 0.226381 0.297295 0.826713
O O4 0.000000 0.274704 0.000000
O O5 0.170260 0.106880 0.522069
O O6 0.835787 0.104360 0.022142
O O7 0.000000 0.137223 0.000000
O O8 0.886027 0.500000 0.063192
O O9 0.087249 0.431307 0.602597
O O10 0.791056 0.403217 0.089754
O O11 0.000000 0.405642 0.000000
O O12 0.500000 0.348438 0.500000
O O13 0.607572 0.389713 0.579513
O O14 0.000000 0.628790 0.500000
O O15 0.306393 0.610234 0.104515
O O16 0.346378 0.077876 0.482070
O O17 0.300975 0.000000 0.350003
O O18 0.500000 0.088226 0.000000
O O19 0.500000 0.090218 0.500000
O O20 0.311490 0.000000 0.739621
O O21 0.537012 0.500000 0.164530
O O22 0.500000 0.569058 0.000000
#
# Coordination Sequence:
#
# PCOD9150257 Si02
#       8
#     4   4   4   4   4   4   4   4
#     4  10  21  40  58  71  98 142 186 218 255 318
#     4   9  18  34  57  80 103 144 194 228 261 317
#     4  10  20  36  57  77 101 137 174 207 256 328
#     4  11  22  35  53  76 102 131 167 215 265 311
#     4  11  22  36  53  75 103 134 168 211 266 318
#     4   9  17  32  55  84 116 145 178 223 273 323
#     4   9  17  31  53  82 115 148 183 225 271 318
#     4  11  22  35  53  78 103 126 160 209 263 316
#
# _framework density 19.039883
#
# number of rings (size 3 to 8) (size 9 to 14) (size 15 to 20)
#    0.000    2.000    0.000    5.625    0.000    7.000 
#    0.000    6.250    0.000    3.000    0.000    0.000 
#    0.000    0.000    0.000    0.000    0.000    0.000 
#
# Total GULP energy -178185.541675 kJ/mol
# GULP energy per Si atom -5568.298177 kJ/mol
# Density = 1.899655 g / cm^3
# Si number density = 19.039883 Si / 1000 Ang^3
#
#
#
# Elastic Constant Matrix: (Units=GPa)
#
#
# Indices 1 2 3 4 5 6 
#
# 1 69.7456 40.5419 26.2733 0.0000 -24.2445 0.0000
# 2 40.5419 117.3992 64.4717 0.0000 -23.7994 0.0000
# 3 26.2733 64.4717 126.2264 0.0000 -22.7865 0.0000
# 4 0.0000 0.0000 0.0000 15.1113 0.0000 5.9423
# 5 -24.2445 -23.7994 -22.7865 0.0000 40.8169 0.0000
# 6 0.0000 0.0000 0.0000 5.9423 0.0000 -25.5116
#
#
#
# Elastic Compliance Matrix: (Units=1/GPa)
#
#
# Indices 1 2 3 4 5 6 
#
# 1 0.020573 -0.005284 0.000074 0.000000 0.009180 0.000000
# 2 -0.005284 0.013789 -0.005625 0.000000 0.001761 0.000000
# 3 0.000074 -0.005625 0.011338 0.000000 0.003094 0.000000
# 4 0.000000 0.000000 0.000000 0.060623 0.000000 0.014121
# 5 0.009180 0.001761 0.003094 0.000000 0.032706 0.000000
# 6 0.000000 0.000000 0.000000 0.014121 0.000000 -0.035909
#
#
# Mechanical properties :
#
#
# Convention : Reuss Voigt Hill
#
# Bulk Modulus (GPa) = 41.61524 63.99390 52.80457
# Shear Modulus (GPa) = 37.65044 18.22227 27.93636
#
# Velocity S-wave (km/s) = 4.45168 3.09699 3.83463
# Velocity P-wave (km/s) = 6.95180 6.81703 6.88475
#
# Compressibility (1/GPa) = 0.02402966
#
# Stress axis : x y z
#
# Youngs Moduli (GPa) = 48.60842 72.52259 88.19548
#
# Poissons Ratio (x) = 0.38321 -0.00653
# Poissons Ratio (y) = 0.25685 0.49610
# Poissons Ratio (z) = -0.00360 0.40794
#
# Static dielectric constant tensor:
#      x y z
#    x 1.682380 0.000000 0.000650 
#    y 0.000000 1.678650 0.000000 
#    z 0.000650 0.000000 1.707280 
# 
# From -- ./inp_files/30584.got.cif
#   From: 2010.05.17/outbox.cif.g08.bks.cpg/sg10_16_cif.got.tgz:30584.got - 2010.06.03 11:33:40.
