data_PCOD9150869
_publ_section_title
;
Structure prediction by ZEFSAII (Michael W. Deem and Ramdas Pophale) SiO2 
 PCOD9150869
Probable space group: P 2/M
;
_chemical_formula_sum "Si O2"
_cell_formula_units_Z 32
_cell_length_a 7.743816
_cell_length_b 13.302338
_cell_length_c 25.479405
_cell_angle_alpha 90.000000
_cell_angle_beta 39.291421
_cell_angle_gamma 90.000000
_cell_volume 1662.102373
_symmetry_space_group_name_H-M "P 2/M"
_symmetry_group_IT_number 10
_symmetry_cell_setting 'monoclinic'
loop_
_space_group_symop_operation_xyz
x,y,z
-x,y,-z
-x,-y,-z
x,-y,z
loop_
_atom_site_type_symbol
_atom_site_label
_atom_site_fract_x
_atom_site_fract_y
_atom_site_fract_z
Si Si1 0.558392 0.617075 0.302941
Si Si2 0.638580 0.113660 0.525525
Si Si3 0.226670 0.276990 0.653550
Si Si4 0.688422 0.223200 0.844880
Si Si5 0.260144 0.614977 0.977273
Si Si6 0.999574 0.741426 0.130707
Si Si7 0.464361 0.117664 0.803020
Si Si8 0.903792 0.239568 0.629729
O O1 0.538103 0.500000 0.295327
O O2 0.633373 0.634757 0.346398
O O3 0.796992 0.669239 0.211968
O O4 0.284416 0.677563 0.353139
O O5 0.500000 0.107871 0.500000
O O6 0.433493 0.182875 0.606527
O O7 0.923189 0.170707 0.450382
O O8 0.666744 0.000000 0.538595
O O9 0.954987 0.249828 0.748904
O O10 0.122349 0.289882 0.618554
O O11 0.537009 0.138924 0.846749
O O12 0.797580 0.202209 0.877230
O O13 0.496750 0.320739 0.894457
O O14 0.342821 0.500000 0.968087
O O15 0.167291 0.672604 0.051331
O O16 0.000000 0.613880 0.000000
O O17 0.808079 0.820903 0.146403
O O18 0.703354 0.167542 0.711000
O O19 0.443682 0.000000 0.797214
#
# Coordination Sequence:
#
# PCOD9150869 Si02
#       8
#     4   4   4   4   4   4   4   4
#     4  10  21  37  57  81 114 156 194 232 282 340
#     4   9  17  34  61  87 114 148 189 238 290 333
#     4   9  20  36  54  82 117 146 186 234 279 339
#     4  10  21  37  57  84 117 150 186 231 286 344
#     4  11  22  38  63  90 115 146 189 241 293 338
#     4  10  21  39  59  86 117 148 194 241 283 339
#     4  10  20  37  59  84 118 154 191 237 288 341
#     4   9  19  36  58  87 115 149 192 241 285 335
#
# _framework density 19.252724000000001
#
# number of rings (size 3 to 8) (size 9 to 14) (size 15 to 20)
#    0.000    2.250    1.250    1.125    0.000    7.500 
#    0.000    8.750    0.000    3.750    0.000    0.000 
#    0.000    0.000    0.000    0.000    0.000    0.000 
#
# Total GULP energy -178534.259948 kJ/mol
# GULP energy per Si atom -5579.195623 kJ/mol
# Density = 1.920890 g / cm^3
# Si number density = 19.252724 Si / 1000 Ang^3
#
#
#
# Elastic Constant Matrix: (Units=GPa)
#
#
# Indices 1 2 3 4 5 6 
#
# 1 82.9392 38.6674 21.4065 0.0000 -23.2094 0.0000
# 2 38.6674 122.9504 47.1839 0.0000 -17.8629 0.0000
# 3 21.4065 47.1839 99.2838 0.0000 -22.8719 0.0000
# 4 0.0000 0.0000 0.0000 15.8247 0.0000 6.6527
# 5 -23.2094 -17.8629 -22.8719 0.0000 40.4344 0.0000
# 6 0.0000 0.0000 0.0000 6.6527 0.0000 11.9305
#
#
#
# Elastic Compliance Matrix: (Units=1/GPa)
#
#
# Indices 1 2 3 4 5 6 
#
# 1 0.015977 -0.004006 0.000189 0.000000 0.007508 0.000000
# 2 -0.004006 0.011092 -0.004379 0.000000 0.000123 0.000000
# 3 0.000189 -0.004379 0.013444 0.000000 0.005778 0.000000
# 4 0.000000 0.000000 0.000000 0.082542 0.000000 -0.046027
# 5 0.007508 0.000123 0.005778 0.000000 0.032364 0.000000
# 6 0.000000 0.000000 0.000000 -0.046027 0.000000 0.109484
#
#
# Mechanical properties :
#
#
# Convention : Reuss Voigt Hill
#
# Bulk Modulus (GPa) = 41.46080 57.74322 49.60201
# Shear Modulus (GPa) = 17.28098 26.83229 22.05664
#
# Velocity S-wave (km/s) = 2.99923 3.73726 3.38840
# Velocity P-wave (km/s) = 5.79444 6.97712 6.41310
#
# Compressibility (1/GPa) = 0.02411917
#
# Stress axis : x y z
#
# Youngs Moduli (GPa) = 62.58961 90.15668 74.38431
#
# Poissons Ratio (x) = 0.36120 -0.01404
# Poissons Ratio (y) = 0.25076 0.32573
# Poissons Ratio (z) = -0.01181 0.39480
#
# Static dielectric constant tensor:
#      x y z
#    x 1.728520 0.000000 0.009370 
#    y 0.000000 1.642000 0.000000 
#    z 0.009370 0.000000 1.662740 
# 
# From -- ./inp_files/94645.got.cif
#   From: 2010.05.17/outbox.cif.g08.bks.cpg/sg10_48_cif.got.tgz:94645.got - 2010.06.03 11:33:40.
