data_PCOD9150907
_publ_section_title
;
Structure prediction by ZEFSAII (Michael W. Deem and Ramdas Pophale) SiO2 
 PCOD9150907
Probable space group: P 2/M
;
_chemical_formula_sum "Si O2"
_cell_formula_units_Z 32
_cell_length_a 12.676447
_cell_length_b 7.551289
_cell_length_c 32.436774
_cell_angle_alpha 90.000000
_cell_angle_beta 27.644128
_cell_angle_gamma 90.000000
_cell_volume 1440.635410
_symmetry_space_group_name_H-M "P 2/M"
_symmetry_group_IT_number 10
_symmetry_cell_setting 'monoclinic'
loop_
_space_group_symop_operation_xyz
x,y,z
-x,y,-z
-x,-y,-z
x,-y,z
loop_
_atom_site_type_symbol
_atom_site_label
_atom_site_fract_x
_atom_site_fract_y
_atom_site_fract_z
Si Si1 0.987348 0.203401 0.549752
Si Si2 0.485101 0.703214 0.738910
Si Si3 0.959299 0.283155 0.150389
Si Si4 0.197370 0.214295 0.643593
Si Si5 0.253180 0.793181 0.903460
Si Si6 0.174119 0.705212 0.160846
Si Si7 0.285181 0.783731 0.521330
Si Si8 0.620946 0.285576 0.050403
O O1 0.726342 0.203175 0.654129
O O2 0.000000 0.285591 0.500000
O O3 0.143691 0.282424 0.531432
O O4 0.067948 0.000000 0.517392
O O5 0.529788 0.500000 0.711950
O O6 0.292342 0.777017 0.774863
O O7 0.375531 0.707743 0.822256
O O8 0.950026 0.500000 0.153787
O O9 0.056241 0.220467 0.160642
O O10 0.140685 0.231584 0.052595
O O11 0.449776 0.266562 0.571241
O O12 0.181843 0.270783 0.601240
O O13 0.003403 0.285358 0.740339
O O14 0.185165 0.000000 0.649077
O O15 0.389839 0.774805 0.898742
O O16 0.229304 0.000000 0.901454
O O17 0.000000 0.720163 0.000000
O O18 0.222472 0.500000 0.133835
O O19 0.412358 0.780440 0.094606
O O20 0.279510 0.000000 0.523755
O O21 0.613840 0.500000 0.053246
#
# Coordination Sequence:
#
# PCOD9150907 Si02
#       8
#     4   4   4   4   4   4   4   4
#     4  10  22  39  60  86 118 154 193 241 296 349
#     4  11  23  39  61  87 117 156 200 240 291 351
#     4   9  19  37  58  80 113 155 191 231 282 340
#     4   9  18  35  58  79 104 145 190 231 281 337
#     4  11  23  39  60  87 119 154 195 244 293 342
#     4  10  21  35  56  86 114 144 190 238 284 335
#     4   8  17  36  57  77 106 146 187 226 278 343
#     4  10  20  37  60  83 114 154 194 232 281 344
#
# _framework density 22.212420000000002
#
# number of rings (size 3 to 8) (size 9 to 14) (size 15 to 20)
#    0.000    2.250    1.250    1.875    3.500    2.750 
#    0.000    3.125    0.000    1.500    0.000    0.000 
#    0.000    0.000    0.000    0.000    0.000    0.000 
#
# Total GULP energy -178804.801893 kJ/mol
# GULP energy per Si atom -5587.650059 kJ/mol
# Density = 2.216186 g / cm^3
# Si number density = 22.212420 Si / 1000 Ang^3
#
#
#
# Elastic Constant Matrix: (Units=GPa)
#
#
# Indices 1 2 3 4 5 6 
#
# 1 167.7802 1.8986 23.2888 0.0000 -9.5788 0.0000
# 2 1.8986 55.7113 -6.9545 0.0000 -2.2628 0.0000
# 3 23.2888 -6.9545 56.8146 0.0000 1.5091 0.0000
# 4 0.0000 0.0000 0.0000 425.3844 0.0000 -112.2365
# 5 -9.5788 -2.2628 1.5091 0.0000 21.9347 0.0000
# 6 0.0000 0.0000 0.0000 -112.2365 0.0000 30.7934
#
#
#
# Elastic Compliance Matrix: (Units=1/GPa)
#
#
# Indices 1 2 3 4 5 6 
#
# 1 0.006526 -0.000451 -0.002810 0.000000 0.002997 0.000000
# 2 -0.000451 0.018325 0.002388 0.000000 0.001529 0.000000
# 3 -0.002810 0.002388 0.019106 0.000000 -0.002295 0.000000
# 4 0.000000 0.000000 0.000000 0.061342 0.000000 0.223583
# 5 0.002997 0.001529 -0.002295 0.000000 0.047214 0.000000
# 6 0.000000 0.000000 0.000000 0.223583 0.000000 0.847394
#
#
# Mechanical properties :
#
#
# Convention : Reuss Voigt Hill
#
# Bulk Modulus (GPa) = 23.69115 35.19688 29.44402
# Shear Modulus (GPa) = 4.92258 113.09405 59.00831
#
# Velocity S-wave (km/s) = 1.49029 7.14320 5.15976
# Velocity P-wave (km/s) = 3.69461 9.16044 6.98441
#
# Compressibility (1/GPa) = 0.04220985
#
# Stress axis : x y z
#
# Youngs Moduli (GPa) = 153.22293 54.56963 52.33898
#
# Poissons Ratio (x) = 0.02464 0.14708
# Poissons Ratio (y) = 0.06918 -0.12496
# Poissons Ratio (z) = 0.43057 -0.13029
#
# Static dielectric constant tensor:
#      x y z
#    x 1.819800 0.000000 -0.007700 
#    y 0.000000 1.840080 0.000000 
#    z -0.007700 0.000000 1.758510 
# 
# From -- ./inp_files/94935.got.cif
#   From: 2010.05.17/outbox.cif.g08.bks.cpg/sg10_48_cif.got.tgz:94935.got - 2010.06.03 11:33:40.
