data_PCOD9150513
_publ_section_title
;
Structure prediction by ZEFSAII (Michael W. Deem and Ramdas Pophale) SiO2 
 PCOD9150513
Probable space group: P 2/M
;
_chemical_formula_sum "Si O2"
_cell_formula_units_Z 28
_cell_length_a 21.719510
_cell_length_b 7.491131
_cell_length_c 14.807319
_cell_angle_alpha 90.000000
_cell_angle_beta 29.781867
_cell_angle_gamma 90.000000
_cell_volume 1196.650703
_symmetry_space_group_name_H-M "P 2/M"
_symmetry_group_IT_number 10
_symmetry_cell_setting 'monoclinic'
loop_
_space_group_symop_operation_xyz
x,y,z
-x,y,-z
-x,-y,-z
x,-y,z
loop_
_atom_site_type_symbol
_atom_site_label
_atom_site_fract_x
_atom_site_fract_y
_atom_site_fract_z
Si Si1 0.526461 0.286028 0.728771
Si Si2 0.625116 0.789955 0.792861
Si Si3 0.388705 0.794121 0.578820
Si Si4 0.069129 0.283880 0.176824
Si Si5 0.248140 0.283107 0.098211
Si Si6 0.873864 0.297379 0.569054
Si Si7 0.108487 0.795126 0.925688
O O1 0.522964 0.500000 0.724913
O O2 0.615028 0.237864 0.698826
O O3 0.565497 0.211966 0.582597
O O4 0.388466 0.221883 0.930910
O O5 0.741836 0.698057 0.688367
O O6 0.636324 0.000000 0.797527
O O7 0.500000 0.723459 0.000000
O O8 0.500000 0.716918 0.500000
O O9 0.248350 0.715477 0.755073
O O10 0.373668 0.000000 0.628835
O O11 0.059912 0.500000 0.180411
O O12 0.197919 0.240180 0.062977
O O13 0.966838 0.216799 0.377995
O O14 0.058928 0.207542 0.090747
O O15 0.247941 0.500000 0.106331
O O16 0.156124 0.218365 0.294413
O O17 0.918970 0.500000 0.525074
O O18 0.126208 0.000000 0.870972
O O19 0.000000 0.716203 0.000000
#
# Coordination Sequence:
#
# PCOD9150513 Si02
#       7
#     4   4   4   4   4   4   4
#     4  11  22  36  61  90 118 153 194 243 297 347
#     4  11  23  38  56  82 118 158 198 241 288 343
#     4  10  22  41  63  87 117 157 201 247 301 358
#     4  10  21  37  61  89 115 150 195 239 287 343
#     4   9  18  35  58  87 122 154 184 229 289 350
#     4  10  20  36  59  86 119 155 192 233 285 348
#     4  10  23  42  60  81 115 158 197 244 303 353
#
# _framework density 23.39864
#
# number of rings (size 3 to 8) (size 9 to 14) (size 15 to 20)
#    0.000    1.857    1.429    2.143    2.000    4.000 
#    0.000    1.429    0.000    1.714    0.000    0.000 
#    0.000    0.000    0.000    0.000    0.000    0.000 
#
# Total GULP energy -156455.773646 kJ/mol
# GULP energy per Si atom -5587.706202 kJ/mol
# Density = 2.334538 g / cm^3
# Si number density = 23.398640 Si / 1000 Ang^3
#
#
#
# Elastic Constant Matrix: (Units=GPa)
#
#
# Indices 1 2 3 4 5 6 
#
# 1 186.8655 -3.2588 54.5756 0.0000 -1.2377 0.0000
# 2 -3.2588 75.8403 1.2852 0.0000 -8.3400 0.0000
# 3 54.5756 1.2852 108.3578 0.0000 -3.2995 0.0000
# 4 0.0000 0.0000 0.0000 3.2642 0.0000 11.1439
# 5 -1.2377 -8.3400 -3.2995 0.0000 46.9317 0.0000
# 6 0.0000 0.0000 0.0000 11.1439 0.0000 -11.5726
#
#
#
# Elastic Compliance Matrix: (Units=1/GPa)
#
#
# Indices 1 2 3 4 5 6 
#
# 1 0.006282 0.000324 -0.003168 0.000000 0.000000 0.000000
# 2 0.000324 0.013466 -0.000250 0.000000 0.002384 0.000000
# 3 -0.003168 -0.000250 0.010847 0.000000 0.000635 0.000000
# 4 0.000000 0.000000 0.000000 0.071453 0.000000 0.068806
# 5 0.000000 0.002384 0.000635 0.000000 0.021776 0.000000
# 6 0.000000 0.000000 0.000000 0.068806 0.000000 -0.020154
#
#
# Mechanical properties :
#
#
# Convention : Reuss Voigt Hill
#
# Bulk Modulus (GPa) = 40.97372 52.91863 46.94617
# Shear Modulus (GPa) = 42.37519 28.95545 35.66532
#
# Velocity S-wave (km/s) = 4.26021 3.52161 3.90840
# Velocity P-wave (km/s) = 6.46130 6.26106 6.36197
#
# Compressibility (1/GPa) = 0.02440589
#
# Stress axis : x y z
#
# Youngs Moduli (GPa) = 159.17672 74.26166 92.19508
#
# Poissons Ratio (x) = -0.02404 0.29207
# Poissons Ratio (y) = -0.05152 0.02306
# Poissons Ratio (z) = 0.50427 0.01858
#
# Static dielectric constant tensor:
#      x y z
#    x 1.835130 0.000000 -0.032230 
#    y 0.000000 1.894120 0.000000 
#    z -0.032230 0.000000 1.883300 
# 
# From -- ./inp_files/49349.got.cif
#   From: 2010.05.17/outbox.cif.g08.bks.cpg/sg10_25_cif.got.tgz:49349.got - 2010.06.03 11:33:40.
