data_PCOD9150398
_publ_section_title
;
Structure prediction by ZEFSAII (Michael W. Deem and Ramdas Pophale) SiO2 
 PCOD9150398
Probable space group: P 2/M
;
_chemical_formula_sum "Si O2"
_cell_formula_units_Z 28
_cell_length_a 9.657731
_cell_length_b 7.867617
_cell_length_c 24.855612
_cell_angle_alpha 90.000000
_cell_angle_beta 35.161129
_cell_angle_gamma 90.000000
_cell_volume 1087.609821
_symmetry_space_group_name_H-M "P 2/M"
_symmetry_group_IT_number 10
_symmetry_cell_setting 'monoclinic'
loop_
_space_group_symop_operation_xyz
x,y,z
-x,y,-z
-x,-y,-z
x,-y,z
loop_
_atom_site_type_symbol
_atom_site_label
_atom_site_fract_x
_atom_site_fract_y
_atom_site_fract_z
Si Si1 0.034889 0.808991 0.773064
Si Si2 0.992953 0.199953 0.905961
Si Si3 0.724381 0.707910 0.595523
Si Si4 0.507324 0.297051 0.219014
Si Si5 0.612351 0.301168 0.517448
Si Si6 0.473101 0.313668 0.072949
Si Si7 0.032141 0.203403 0.318510
O O1 0.058520 0.727677 0.824766
O O2 0.745973 0.815749 0.854136
O O3 0.095686 0.728247 0.695781
O O4 0.130081 0.000000 0.745267
O O5 0.222782 0.228892 0.870044
O O6 0.951601 0.000000 0.911117
O O7 0.741720 0.273309 0.006753
O O8 0.722547 0.500000 0.596424
O O9 0.602314 0.766473 0.689148
O O10 0.581634 0.765843 0.587457
O O11 0.000000 0.762120 0.500000
O O12 0.519997 0.500000 0.216211
O O13 0.313726 0.243847 0.236151
O O14 0.500000 0.216202 0.500000
O O15 0.550708 0.500000 0.538150
O O16 0.895720 0.286742 0.412236
O O17 0.396511 0.500000 0.117109
O O18 0.500000 0.325268 0.000000
O O19 0.003151 0.000000 0.329137
#
# Coordination Sequence:
#
# PCOD9150398 Si02
#       7
#     4   4   4   4   4   4   4
#     4   9  20  37  57  81 114 152 184 223 278 334
#     4  10  20  36  58  84 114 147 184 225 277 335
#     4   9  17  34  56  78 106 142 183 228 277 325
#     4  11  22  37  58  82 112 147 189 235 277 327
#     4  10  21  37  58  82 109 144 187 232 280 330
#     4   9  17  32  56  86 114 142 183 229 273 324
#     4  11  23  39  56  80 116 152 186 227 279 333
#
# _framework density 25.744526
#
# number of rings (size 3 to 8) (size 9 to 14) (size 15 to 20)
#    0.000    2.143    1.429    1.714    2.000    3.714 
#    0.000    2.857    0.000    4.286    0.000    0.000 
#    0.000    0.000    0.000    0.000    0.000    0.000 
#
# Total GULP energy -156456.951481 kJ/mol
# GULP energy per Si atom -5587.748267 kJ/mol
# Density = 2.568593 g / cm^3
# Si number density = 25.744526 Si / 1000 Ang^3
#
#
#
# Elastic Constant Matrix: (Units=GPa)
#
#
# Indices 1 2 3 4 5 6 
#
# 1 132.7046 -4.1843 -0.4294 0.0000 -9.9060 0.0000
# 2 -4.1843 83.8907 10.4026 0.0000 -5.0650 0.0000
# 3 -0.4294 10.4026 38.7376 0.0000 -15.9837 0.0000
# 4 0.0000 0.0000 0.0000 27.6129 0.0000 -11.5881
# 5 -9.9060 -5.0650 -15.9837 0.0000 51.0899 0.0000
# 6 0.0000 0.0000 0.0000 -11.5881 0.0000 19.6761
#
#
#
# Elastic Compliance Matrix: (Units=1/GPa)
#
#
# Indices 1 2 3 4 5 6 
#
# 1 0.007681 0.000402 0.000698 0.000000 0.001748 0.000000
# 2 0.000402 0.012354 -0.003187 0.000000 0.000306 0.000000
# 3 0.000698 -0.003187 0.030547 0.000000 0.009376 0.000000
# 4 0.000000 0.000000 0.000000 0.048104 0.000000 0.028330
# 5 0.001748 0.000306 0.009376 0.000000 0.022876 0.000000
# 6 0.000000 0.000000 0.000000 0.028330 0.000000 0.067508
#
#
# Mechanical properties :
#
#
# Convention : Reuss Voigt Hill
#
# Bulk Modulus (GPa) = 21.54770 29.65673 25.60222
# Shear Modulus (GPa) = 23.95635 36.31205 30.13420
#
# Velocity S-wave (km/s) = 3.05379 3.75971 3.42498
# Velocity P-wave (km/s) = 4.56313 5.51288 5.06033
#
# Compressibility (1/GPa) = 0.04640866
#
# Stress axis : x y z
#
# Youngs Moduli (GPa) = 130.19271 80.94571 32.73638
#
# Poissons Ratio (x) = -0.03254 -0.02286
# Poissons Ratio (y) = -0.05234 0.10433
# Poissons Ratio (z) = -0.09091 0.25797
#
# Static dielectric constant tensor:
#      x y z
#    x 2.058980 0.000000 0.008670 
#    y 0.000000 1.935850 0.000000 
#    z 0.008670 0.000000 2.152460 
# 
# From -- ./inp_files/91941.got.cif
#   From: 2010.05.17/outbox.cif.g08.bks.cpg/sg10_46_cif.got.tgz:91941.got - 2010.06.03 11:33:40.
