data_PCOD9150325
_publ_section_title
;
Structure prediction by ZEFSAII (Michael W. Deem and Ramdas Pophale) SiO2 
 PCOD9150325
Probable space group: P 2/M
;
_chemical_formula_sum "Si O2"
_cell_formula_units_Z 24
_cell_length_a 22.062269
_cell_length_b 9.015388
_cell_length_c 11.692446
_cell_angle_alpha 90.000000
_cell_angle_beta 148.711676
_cell_angle_gamma 90.000000
_cell_volume 1207.802447
_symmetry_space_group_name_H-M "P 2/M"
_symmetry_group_IT_number 10
_symmetry_cell_setting 'monoclinic'
loop_
_space_group_symop_operation_xyz
x,y,z
-x,y,-z
-x,-y,-z
x,-y,z
loop_
_atom_site_type_symbol
_atom_site_label
_atom_site_fract_x
_atom_site_fract_y
_atom_site_fract_z
Si Si1 0.215610 0.322980 0.541053
Si Si2 0.876141 0.172981 0.239125
Si Si3 0.459916 0.177454 0.563579
Si Si4 0.963594 0.174200 0.124352
Si Si5 0.667741 0.676515 0.033854
Si Si6 0.757931 0.675929 0.673660
O O1 0.192741 0.500000 0.511959
O O2 0.296080 0.282728 0.778283
O O3 0.270326 0.294331 0.504967
O O4 0.092602 0.238876 0.347453
O O5 0.897629 0.191632 0.139423
O O6 0.776781 0.276155 0.130497
O O7 0.000000 0.200991 0.500000
O O8 0.844419 0.000000 0.209501
O O9 0.500000 0.218956 0.500000
O O10 0.336004 0.245925 0.397253
O O11 0.453626 0.000000 0.559013
O O12 0.555332 0.239627 0.805381
O O13 0.969235 0.000000 0.106151
O O14 0.885798 0.260369 0.907123
O O15 0.648752 0.500000 0.997791
O O16 0.756749 0.500000 0.690386
#
# Coordination Sequence:
#
# PCOD9150325 Si02
#       6
#     4   4   4   4   4   4
#     4  10  23  41  60  88 125 162 199 246 302 356
#     4  10  20  36  57  86 123 159 194 242 302 352
#     4  11  25  45  66  89 120 156 197 247 303 361
#     4  11  22  37  61  91 124 161 204 251 298 354
#     4  11  23  39  63  92 122 158 203 250 297 354
#     4  11  24  42  63  87 121 162 203 247 299 357
#
# _framework density 19.870799999999999
#
# number of rings (size 3 to 8) (size 9 to 14) (size 15 to 20)
#    0.000    1.333    1.667    3.500    0.000   11.667 
#    0.000    3.333    0.000    0.000    0.000    0.000 
#    0.000    0.000    0.000    0.000    0.000    0.000 
#
# Total GULP energy -134247.194190 kJ/mol
# GULP energy per Si atom -5593.633091 kJ/mol
# Density = 1.982557 g / cm^3
# Si number density = 19.870800 Si / 1000 Ang^3
#
#
#
# Elastic Constant Matrix: (Units=GPa)
#
#
# Indices 1 2 3 4 5 6 
#
# 1 79.4520 45.3759 41.3213 0.0000 -5.4586 0.0000
# 2 45.3759 57.6340 47.2683 0.0000 -6.2917 0.0000
# 3 41.3213 47.2683 117.3757 0.0000 -10.2942 0.0000
# 4 0.0000 0.0000 0.0000 42.2009 0.0000 3.8677
# 5 -5.4586 -6.2917 -10.2942 0.0000 22.2583 0.0000
# 6 0.0000 0.0000 0.0000 3.8677 0.0000 14.2483
#
#
#
# Elastic Compliance Matrix: (Units=1/GPa)
#
#
# Indices 1 2 3 4 5 6 
#
# 1 0.022983 -0.017096 -0.001184 0.000000 0.000256 0.000000
# 2 -0.017096 0.038770 -0.009382 0.000000 0.002428 0.000000
# 3 -0.001184 -0.009382 0.012983 0.000000 0.003062 0.000000
# 4 0.000000 0.000000 0.000000 0.024301 0.000000 -0.006596
# 5 0.000256 0.002428 0.003062 0.000000 0.047092 0.000000
# 6 0.000000 0.000000 0.000000 -0.006596 0.000000 0.071974
#
#
# Mechanical properties :
#
#
# Convention : Reuss Voigt Hill
#
# Bulk Modulus (GPa) = 51.51103 58.04363 54.77733
# Shear Modulus (GPa) = 17.86368 23.77460 20.81914
#
# Velocity S-wave (km/s) = 3.00157 3.46274 3.24037
# Velocity P-wave (km/s) = 6.16375 6.72766 6.45187
#
# Compressibility (1/GPa) = 0.01941332
#
# Stress axis : x y z
#
# Youngs Moduli (GPa) = 43.51003 25.79318 77.02347
#
# Poissons Ratio (x) = 0.44096 0.09119
# Poissons Ratio (y) = 0.74385 0.72260
# Poissons Ratio (z) = 0.05151 0.24198
#
# Static dielectric constant tensor:
#      x y z
#    x 1.699600 0.000000 -0.022000 
#    y 0.000000 1.662390 0.000000 
#    z -0.022000 0.000000 1.695280 
# 
# From -- ./inp_files/56695.got.cif
#   From: 2010.05.17/outbox.cif.g08.bks.cpg/sg10_29_cif.got.tgz:56695.got - 2010.06.03 11:33:40.
