data_PCOD9150704
_publ_section_title
;
Structure prediction by ZEFSAII (Michael W. Deem and Ramdas Pophale) SiO2 
 PCOD9150704
Probable space group: P 2/M
;
_chemical_formula_sum "Si O2"
_cell_formula_units_Z 26
_cell_length_a 7.677671
_cell_length_b 9.755076
_cell_length_c 22.511621
_cell_angle_alpha 90.000000
_cell_angle_beta 44.544917
_cell_angle_gamma 90.000000
_cell_volume 1182.700859
_symmetry_space_group_name_H-M "P 2/M"
_symmetry_group_IT_number 10
_symmetry_cell_setting 'monoclinic'
loop_
_space_group_symop_operation_xyz
x,y,z
-x,y,-z
-x,-y,-z
x,-y,z
loop_
_atom_site_type_symbol
_atom_site_label
_atom_site_fract_x
_atom_site_fract_y
_atom_site_fract_z
Si Si1 0.269295 0.347023 0.772326
Si Si2 0.058333 0.836788 0.312419
Si Si3 0.587021 0.339004 0.388594
Si Si4 0.958364 0.655368 0.440403
Si Si5 0.500000 0.238944 0.000000
Si Si6 0.743212 0.649088 0.829647
Si Si7 0.976191 0.157330 0.074730
O O1 0.320222 0.500000 0.782399
O O2 0.454624 0.317529 0.672392
O O3 0.007384 0.350044 0.799797
O O4 0.215930 0.245059 0.839146
O O5 0.795228 0.769434 0.356592
O O6 0.090574 0.768850 0.368808
O O7 0.250381 0.771167 0.219036
O O8 0.058174 0.000000 0.311969
O O9 0.667143 0.500000 0.374664
O O10 0.339595 0.325464 0.487120
O O11 0.017991 0.500000 0.405644
O O12 0.000000 0.663011 0.500000
O O13 0.448188 0.327404 0.071102
O O14 0.244622 0.162244 0.043655
O O15 0.712309 0.500000 0.808820
O O16 0.892777 0.000000 0.093071
O O17 0.000000 0.204364 0.000000
#
# Coordination Sequence:
#
# PCOD9150704 Si02
#       7
#     4   4   4   4   2   4   4
#     4   8  16  32  54  79 107 137 181 234 278 326
#     4  11  22  35  55  85 116 146 187 231 280 344
#     4   9  18  35  59  82 106 142 187 234 282 334
#     4  10  21  38  58  79 110 149 190 235 286 337
#     4  10  20  36  62  86 112 148 196 242 290 336
#     4   9  18  35  59  84 111 143 185 234 282 332
#     4  10  21  36  54  80 115 152 190 231 284 349
#
# _framework density 21.983578999999999
#
# number of rings (size 3 to 8) (size 9 to 14) (size 15 to 20)
#    0.000    2.462    0.000    3.231    0.000    9.846 
#    2.769    0.000    0.000    0.000    0.000    0.000 
#    0.000    0.000    0.000    0.000    0.000    0.000 
#
# Total GULP energy -145074.678359 kJ/mol
# GULP energy per Si atom -5579.795321 kJ/mol
# Density = 2.193354 g / cm^3
# Si number density = 21.983579 Si / 1000 Ang^3
#
#
#
# Elastic Constant Matrix: (Units=GPa)
#
#
# Indices 1 2 3 4 5 6 
#
# 1 76.8214 27.0554 8.0801 0.0000 16.8648 0.0000
# 2 27.0554 159.3224 81.0875 0.0000 23.0878 0.0000
# 3 8.0801 81.0875 134.5572 0.0000 28.0724 0.0000
# 4 0.0000 0.0000 0.0000 18.5732 0.0000 16.9684
# 5 16.8648 23.0878 28.0724 0.0000 29.3471 0.0000
# 6 0.0000 0.0000 0.0000 16.9684 0.0000 13.1944
#
#
#
# Elastic Compliance Matrix: (Units=1/GPa)
#
#
# Indices 1 2 3 4 5 6 
#
# 1 0.015752 -0.002634 0.002621 0.000000 -0.009487 0.000000
# 2 -0.002634 0.009629 -0.005472 0.000000 -0.000827 0.000000
# 3 0.002621 -0.005472 0.012478 0.000000 -0.009137 0.000000
# 4 0.000000 0.000000 0.000000 -0.307804 0.000000 0.395848
# 5 -0.009487 -0.000827 -0.009137 0.000000 0.048918 0.000000
# 6 0.000000 0.000000 0.000000 0.395848 0.000000 -0.433285
#
#
# Mechanical properties :
#
#
# Convention : Reuss Voigt Hill
#
# Bulk Modulus (GPa) = 37.19062 67.01635 52.10349
# Shear Modulus (GPa) = -7.88171 29.18813 10.65321
#
# Velocity S-wave (km/s) = -1.89554 3.64775 2.20375
# Velocity P-wave (km/s) = 3.48761 6.94927 5.49799
#
# Compressibility (1/GPa) = 0.02688850
#
# Stress axis : x y z
#
# Youngs Moduli (GPa) = 63.48468 103.85774 80.14040
#
# Poissons Ratio (x) = 0.27355 -0.21001
# Poissons Ratio (y) = 0.16721 0.43850
# Poissons Ratio (z) = -0.16637 0.56827
#
# Static dielectric constant tensor:
#      x y z
#    x 1.924570 0.000000 -0.027630 
#    y 0.000000 1.742630 0.000000 
#    z -0.027630 0.000000 1.852460 
# 
# From -- ./inp_files/82182.got.cif
#   From: 2010.05.17/outbox.cif.g08.bks.cpg/sg10_42_cif.got.tgz:82182.got - 2010.06.03 11:33:40.
