data_PCOD9150854
_publ_section_title
;
Structure prediction by ZEFSAII (Michael W. Deem and Ramdas Pophale) SiO2 
 PCOD9150854
Probable space group: P 2/M
;
_chemical_formula_sum "Si O2"
_cell_formula_units_Z 32
_cell_length_a 31.392523
_cell_length_b 7.625043
_cell_length_c 13.239181
_cell_angle_alpha 90.000000
_cell_angle_beta 152.880243
_cell_angle_gamma 90.000000
_cell_volume 1444.619115
_symmetry_space_group_name_H-M "P 2/M"
_symmetry_group_IT_number 10
_symmetry_cell_setting 'monoclinic'
loop_
_space_group_symop_operation_xyz
x,y,z
-x,y,-z
-x,-y,-z
x,-y,z
loop_
_atom_site_type_symbol
_atom_site_label
_atom_site_fract_x
_atom_site_fract_y
_atom_site_fract_z
Si Si1 0.880652 0.202194 0.960543
Si Si2 0.228678 0.786074 0.843474
Si Si3 0.556863 0.788656 0.718762
Si Si4 0.090380 0.705104 0.370598
Si Si5 0.397641 0.715121 0.749663
Si Si6 0.391108 0.293417 0.505711
Si Si7 0.795061 0.201154 0.984784
Si Si8 0.790303 0.702607 0.561409
O O1 0.845171 0.279927 0.992122
O O2 0.837534 0.291646 0.771006
O O3 0.848537 0.000000 0.888757
O O4 0.991999 0.208115 0.188173
O O5 0.161961 0.724132 0.613787
O O6 0.228297 0.000000 0.843581
O O7 0.336089 0.728642 0.054439
O O8 0.194077 0.723249 0.880605
O O9 0.500000 0.725462 0.500000
O O10 0.495168 0.735332 0.684479
O O11 0.558489 0.000000 0.718166
O O12 0.068578 0.500000 0.306867
O O13 0.141423 0.780211 0.378687
O O14 0.396142 0.500000 0.747045
O O15 0.380280 0.769353 0.597502
O O16 0.313371 0.777891 0.642709
O O17 0.500000 0.770528 0.000000
O O18 0.370635 0.500000 0.459883
O O19 0.315337 0.203600 0.273706
O O20 0.828351 0.000000 0.060959
O O21 0.777669 0.500000 0.503899
#
# Coordination Sequence:
#
# PCOD9150854 Si02
#       8
#     4   4   4   4   4   4   4   4
#     4  11  23  40  66  91 115 150 200 254 298 356
#     4  10  22  41  62  84 118 161 202 242 292 355
#     4  10  20  37  59  81 115 160 195 230 284 350
#     4  11  25  41  61  88 122 157 194 247 304 358
#     4   9  19  35  56  84 119 157 191 231 290 350
#     4  11  21  33  58  89 117 152 198 250 290 344
#     4  10  21  40  63  86 117 158 200 244 298 357
#     4  10  21  40  63  87 120 159 197 239 296 358
#
# _framework density 22.151168999999999
#
# number of rings (size 3 to 8) (size 9 to 14) (size 15 to 20)
#    0.000    1.750    2.500    1.500    1.750    4.750 
#    0.000    2.500    0.000    1.875    0.000    0.000 
#    0.000    0.000    0.000    0.000    0.000    0.000 
#
# Total GULP energy -178858.637330 kJ/mol
# GULP energy per Si atom -5589.332417 kJ/mol
# Density = 2.210075 g / cm^3
# Si number density = 22.151169 Si / 1000 Ang^3
#
#
#
# Elastic Constant Matrix: (Units=GPa)
#
#
# Indices 1 2 3 4 5 6 
#
# 1 167.7189 -3.5877 39.2274 0.0000 12.8823 0.0000
# 2 -3.5877 52.0486 -11.9278 0.0000 1.0855 0.0000
# 3 39.2274 -11.9278 77.6445 0.0000 23.6903 0.0000
# 4 0.0000 0.0000 0.0000 23.1034 0.0000 2.1563
# 5 12.8823 1.0855 23.6903 0.0000 30.5417 0.0000
# 6 0.0000 0.0000 0.0000 2.1563 0.0000 12.7376
#
#
#
# Elastic Compliance Matrix: (Units=1/GPa)
#
#
# Indices 1 2 3 4 5 6 
#
# 1 0.006768 -0.000310 -0.003405 0.000000 -0.000202 0.000000
# 2 -0.000310 0.020315 0.004530 0.000000 -0.004105 0.000000
# 3 -0.003405 0.004530 0.019528 0.000000 -0.013872 0.000000
# 4 0.000000 0.000000 0.000000 0.043978 0.000000 -0.007445
# 5 -0.000202 -0.004105 -0.013872 0.000000 0.043734 0.000000
# 6 0.000000 0.000000 0.000000 -0.007445 0.000000 0.079768
#
#
# Mechanical properties :
#
#
# Convention : Reuss Voigt Hill
#
# Bulk Modulus (GPa) = 20.72923 38.31507 29.52215
# Shear Modulus (GPa) = 21.87795 31.52321 26.70058
#
# Velocity S-wave (km/s) = 3.14612 3.77648 3.47562
# Velocity P-wave (km/s) = 4.75141 6.02913 5.42800
#
# Compressibility (1/GPa) = 0.04824105
#
# Stress axis : x y z
#
# Youngs Moduli (GPa) = 147.76161 49.22435 51.20901
#
# Poissons Ratio (x) = 0.01524 0.17436
# Poissons Ratio (y) = 0.04574 -0.23196
# Poissons Ratio (z) = 0.50312 -0.22297
#
# Static dielectric constant tensor:
#      x y z
#    x 1.828670 0.000000 0.006490 
#    y 0.000000 1.863330 0.000000 
#    z 0.006490 0.000000 1.758740 
# 
# From -- ./inp_files/58295.got.cif
#   From: 2010.05.17/outbox.cif.g08.bks.cpg/sg10_30_cif.got.tgz:58295.got - 2010.06.03 11:33:40.
