data_PCOD9150295
_publ_section_title
;
Structure prediction by ZEFSAII (Michael W. Deem and Ramdas Pophale) SiO2 
 PCOD9150295
Probable space group: P 2/M
;
_chemical_formula_sum "Si O2"
_cell_formula_units_Z 28
_cell_length_a 9.341979
_cell_length_b 15.320969
_cell_length_c 19.843162
_cell_angle_alpha 90.000000
_cell_angle_beta 148.951524
_cell_angle_gamma 90.000000
_cell_volume 1464.826792
_symmetry_space_group_name_H-M "P 2/M"
_symmetry_group_IT_number 10
_symmetry_cell_setting 'monoclinic'
loop_
_space_group_symop_operation_xyz
x,y,z
-x,y,-z
-x,-y,-z
x,-y,z
loop_
_atom_site_type_symbol
_atom_site_label
_atom_site_fract_x
_atom_site_fract_y
_atom_site_fract_z
Si Si1 0.806112 0.398444 0.105985
Si Si2 0.823187 0.404381 0.610347
Si Si3 0.727283 0.897751 0.258306
Si Si4 0.104972 0.095493 0.964706
Si Si5 0.749387 0.788643 0.547374
Si Si6 0.312255 0.778206 0.626893
Si Si7 0.892559 0.280020 0.879880
O O1 0.775919 0.500000 0.074519
O O2 0.994995 0.394647 0.248815
O O3 0.952351 0.347125 0.105194
O O4 0.500000 0.363817 0.000000
O O5 0.500000 0.408413 0.500000
O O6 0.893834 0.500000 0.608067
O O7 0.847234 0.312778 0.581588
O O8 0.682949 0.851552 0.313003
O O9 0.984100 0.847468 0.328161
O O10 0.787129 0.000000 0.290883
O O11 0.436244 0.890366 0.101530
O O12 0.961500 0.182477 0.880246
O O13 0.045179 0.000000 0.909913
O O14 0.000000 0.090606 0.000000
O O15 0.500000 0.794351 0.500000
O O16 0.646899 0.815116 0.431731
O O17 0.560541 0.712121 0.742919
O O18 0.000000 0.741612 0.500000
O O19 0.000000 0.285737 0.000000
#
# Coordination Sequence:
#
# PCOD9150295 Si02
#       7
#     4   4   4   4   4   4   4
#     4  10  23  39  58  87 119 151 191 231 281 352
#     4   9  18  36  59  79 106 151 193 227 275 335
#     4  10  20  36  57  81 114 154 192 231 281 344
#     4   9  17  32  56  83 108 145 195 229 268 340
#     4  10  21  35  57  84 115 148 193 243 281 332
#     4  10  21  36  55  85 116 144 192 234 280 340
#     4  11  20  35  61  87 112 154 186 237 290 328
#
# _framework density 19.114888000000001
#
# number of rings (size 3 to 8) (size 9 to 14) (size 15 to 20)
#    0.000    2.143    2.857    1.714    2.000    3.143 
#    0.000    0.000    0.000   10.714    0.000    0.000 
#    0.000    0.000    0.000    0.000    0.000    0.000 
#
# Total GULP energy -156042.944018 kJ/mol
# GULP energy per Si atom -5572.962286 kJ/mol
# Density = 1.907138 g / cm^3
# Si number density = 19.114888 Si / 1000 Ang^3
#
#
#
# Elastic Constant Matrix: (Units=GPa)
#
#
# Indices 1 2 3 4 5 6 
#
# 1 66.6297 28.7932 24.5094 0.0000 24.0817 0.0000
# 2 28.7932 97.9663 17.0808 0.0000 18.1022 0.0000
# 3 24.5094 17.0808 115.6534 0.0000 28.8057 0.0000
# 4 0.0000 0.0000 0.0000 22.5906 0.0000 -8.4718
# 5 24.0817 18.1022 28.8057 0.0000 22.0359 0.0000
# 6 0.0000 0.0000 0.0000 -8.4718 0.0000 92.8644
#
#
#
# Elastic Compliance Matrix: (Units=1/GPa)
#
#
# Indices 1 2 3 4 5 6 
#
# 1 0.025753 -0.002628 0.002080 0.000000 -0.028704 0.000000
# 2 -0.002628 0.012383 0.000810 0.000000 -0.008360 0.000000
# 3 0.002080 0.000810 0.013075 0.000000 -0.020031 0.000000
# 4 0.000000 0.000000 0.000000 0.045834 0.000000 0.004181
# 5 -0.028704 -0.008360 -0.020031 0.000000 0.109802 0.000000
# 6 0.000000 0.000000 0.000000 0.004181 0.000000 0.011150
#
#
# Mechanical properties :
#
#
# Convention : Reuss Voigt Hill
#
# Bulk Modulus (GPa) = 19.32878 46.77960 33.05419
# Shear Modulus (GPa) = 21.30209 41.48924 31.39567
#
# Velocity S-wave (km/s) = 3.34192 4.66394 4.05714
# Velocity P-wave (km/s) = 5.00251 7.31636 6.26714
#
# Compressibility (1/GPa) = 0.05173633
#
# Stress axis : x y z
#
# Youngs Moduli (GPa) = 38.83004 80.75290 76.48122
#
# Poissons Ratio (x) = 0.21220 -0.15906
# Poissons Ratio (y) = 0.10204 -0.06197
# Poissons Ratio (z) = -0.08076 -0.06543
#
# Static dielectric constant tensor:
#      x y z
#    x 1.654350 0.000000 0.009440 
#    y 0.000000 1.688210 0.000000 
#    z 0.009440 0.000000 1.694920 
# 
# From -- ./inp_files/82937.got.cif
#   From: 2010.05.17/outbox.cif.g08.bks.cpg/sg10_42_cif.got.tgz:82937.got - 2010.06.03 11:33:40.
