data_PCOD9150627
_publ_section_title
;
Structure prediction by ZEFSAII (Michael W. Deem and Ramdas Pophale) SiO2 
 PCOD9150627
Probable space group: P 2/M
;
_chemical_formula_sum "Si O2"
_cell_formula_units_Z 21
_cell_length_a 9.822105
_cell_length_b 7.502526
_cell_length_c 27.746539
_cell_angle_alpha 90.000000
_cell_angle_beta 152.250467
_cell_angle_gamma 90.000000
_cell_volume 952.008197
_symmetry_space_group_name_H-M "P 2/M"
_symmetry_group_IT_number 10
_symmetry_cell_setting 'monoclinic'
loop_
_space_group_symop_operation_xyz
x,y,z
-x,y,-z
-x,-y,-z
x,-y,z
loop_
_atom_site_type_symbol
_atom_site_label
_atom_site_fract_x
_atom_site_fract_y
_atom_site_fract_z
Si Si1 0.647574 0.217880 0.596435
Si Si2 0.732843 0.303127 0.999995
Si Si3 0.301159 0.784251 0.780909
Si Si4 0.396600 0.784250 0.219090
Si Si5 0.665398 0.782120 0.403566
Si Si6 0.500000 0.000000 0.000000
O O1 0.500000 0.272856 0.500000
O O2 0.474089 0.276693 0.589635
O O3 0.985947 0.274058 0.701664
O O4 0.644002 0.000000 0.595944
O O5 0.672806 0.500000 0.999991
O O6 0.080242 0.280381 0.103711
O O7 0.561701 0.280379 0.896289
O O8 0.618336 0.153910 0.999990
O O9 0.362741 0.731276 0.745094
O O10 0.301971 0.000000 0.782706
O O11 0.477617 0.725943 0.298336
O O12 0.388421 0.000000 0.217291
O O13 0.000000 0.727144 0.500000
O O14 0.664282 0.000000 0.404057
#
# Coordination Sequence:
#
# PCOD9150627 Si02
#       6
#     4   4   4   4   4   1
#     4   9  17  29  51  83 122 168 224 278 327 388
#     4  12  26  42  68  97 130 175 219 264 327 393
#     4  10  20  36  60  89 129 174 220 274 330 387
#     4  10  20  36  60  89 129 174 220 274 330 387
#     4   9  17  29  51  83 122 168 224 278 327 388
#     4  12  26  48  66  94 140 168 212 280 320 388
#
# _framework density 22.058634999999999
#
# number of rings (size 3 to 8) (size 9 to 14) (size 15 to 20)
#    0.000    1.905    1.905    2.000    2.667    7.619 
#    0.000    0.000    0.000    1.143    0.000    0.000 
#    0.000    0.000    0.000    0.000    0.000    0.000 
#
# Total GULP energy -117161.673769 kJ/mol
# GULP energy per Si atom -5579.127322 kJ/mol
# Density = 2.200843 g / cm^3
# Si number density = 22.058635 Si / 1000 Ang^3
#
#
#
# Elastic Constant Matrix: (Units=GPa)
#
#
# Indices 1 2 3 4 5 6 
#
# 1 213.7278 30.0253 96.3481 0.0000 10.5832 0.0000
# 2 30.0253 103.6394 -3.5150 0.0000 1.1689 0.0000
# 3 96.3481 -3.5150 167.3337 0.0000 -9.0209 0.0000
# 4 0.0000 0.0000 0.0000 4.1640 0.0000 28.7858
# 5 10.5832 1.1689 -9.0209 0.0000 -92.9754 0.0000
# 6 0.0000 0.0000 0.0000 28.7858 0.0000 831.2557
#
#
#
# Elastic Compliance Matrix: (Units=1/GPa)
#
#
# Indices 1 2 3 4 5 6 
#
# 1 0.006627 -0.002061 -0.003800 0.000000 0.001097 0.000000
# 2 -0.002061 0.010296 0.001390 0.000000 -0.000240 0.000000
# 3 -0.003800 0.001390 0.008128 0.000000 -0.001204 0.000000
# 4 0.000000 0.000000 0.000000 0.315735 0.000000 -0.010934
# 5 0.001097 -0.000240 -0.001204 0.000000 -0.010517 0.000000
# 6 0.000000 0.000000 0.000000 -0.010934 0.000000 0.001582
#
#
# Mechanical properties :
#
#
# Convention : Reuss Voigt Hill
#
# Bulk Modulus (GPa) = 62.07595 81.15753 71.61674
# Shear Modulus (GPa) = 14.44407 172.61171 93.52789
#
# Velocity S-wave (km/s) = 2.56169 8.85557 6.51857
# Velocity P-wave (km/s) = 6.07882 11.89257 9.44419
#
# Compressibility (1/GPa) = 0.01610930
#
# Stress axis : x y z
#
# Youngs Moduli (GPa) = 150.89600 97.12661 123.02657
#
# Poissons Ratio (x) = 0.20019 0.46749
# Poissons Ratio (y) = 0.31102 -0.17102
# Poissons Ratio (z) = 0.57339 -0.13502
#
# Static dielectric constant tensor:
#      x y z
#    x 1.760830 0.000000 -0.000390 
#    y 0.000000 1.802200 0.000000 
#    z -0.000390 0.000000 1.771920 
# 
# From -- ./inp_files/91916.got.cif
#   From: 2010.05.17/outbox.cif.g08.bks.cpg/sg10_46_cif.got.tgz:91916.got - 2010.06.03 11:33:40.
