data_PCOD9150235
_publ_section_title
;
Structure prediction by ZEFSAII (Michael W. Deem and Ramdas Pophale) SiO2 
 PCOD9150235
Probable space group: P 2/M
;
_chemical_formula_sum "Si O2"
_cell_formula_units_Z 32
_cell_length_a 31.673293
_cell_length_b 8.723604
_cell_length_c 12.208554
_cell_angle_alpha 90.000000
_cell_angle_beta 150.070118
_cell_angle_gamma 90.000000
_cell_volume 1683.067493
_symmetry_space_group_name_H-M "P 2/M"
_symmetry_group_IT_number 10
_symmetry_cell_setting 'monoclinic'
loop_
_space_group_symop_operation_xyz
x,y,z
-x,y,-z
-x,-y,-z
x,-y,z
loop_
_atom_site_type_symbol
_atom_site_label
_atom_site_fract_x
_atom_site_fract_y
_atom_site_fract_z
Si Si1 0.022349 0.181208 0.422378
Si Si2 0.780587 0.816851 0.140923
Si Si3 0.426517 0.817616 0.694371
Si Si4 0.392118 0.316608 0.849259
Si Si5 0.281784 0.683538 0.227424
Si Si6 0.756470 0.682706 0.315266
Si Si7 0.098617 0.182890 0.215913
Si Si8 0.869566 0.318072 0.946183
O O1 0.119894 0.224634 0.627078
O O2 0.000000 0.201433 0.500000
O O3 0.012767 0.000000 0.374251
O O4 0.957534 0.274657 0.202549
O O5 0.739308 0.761208 0.160606
O O6 0.775298 0.000000 0.117764
O O7 0.742204 0.739355 0.947229
O O8 0.518528 0.738972 0.900863
O O9 0.366743 0.760808 0.462958
O O10 0.435967 0.000000 0.715442
O O11 0.384339 0.763578 0.713969
O O12 0.393955 0.500000 0.836785
O O13 0.315779 0.278588 0.758691
O O14 0.290228 0.500000 0.248626
O O15 0.205541 0.726081 0.139384
O O16 0.758255 0.500000 0.305737
O O17 0.845124 0.740176 0.564028
O O18 0.134296 0.232994 0.178222
O O19 0.103122 0.000000 0.238576
O O20 0.000000 0.228869 0.000000
O O21 0.864337 0.500000 0.915150
#
# Coordination Sequence:
#
# PCOD9150235 Si02
#       8
#     4   4   4   4   4   4   4   4
#     4  10  20  36  56  80 114 154 196 241 291 345
#     4  11  23  39  60  85 116 157 200 244 292 345
#     4  11  22  37  63  95 122 149 189 241 292 344
#     4  10  21  40  64  90 121 156 191 232 291 354
#     4  11  23  39  58  85 120 154 192 240 295 348
#     4  11  24  41  62  87 118 157 198 240 290 349
#     4  11  24  40  58  83 117 157 198 242 293 345
#     4  11  23  36  57  86 115 151 196 245 295 346
#
# _framework density 19.012905
#
# number of rings (size 3 to 8) (size 9 to 14) (size 15 to 20)
#    0.000    1.250    1.250    5.625    0.000   11.750 
#    0.000    0.625    0.000    3.750    0.000    0.000 
#    0.000    0.000    0.000    0.000    0.000    0.000 
#
# Total GULP energy -179016.667717 kJ/mol
# GULP energy per Si atom -5594.270866 kJ/mol
# Density = 1.896963 g / cm^3
# Si number density = 19.012905 Si / 1000 Ang^3
#
#
#
# Elastic Constant Matrix: (Units=GPa)
#
#
# Indices 1 2 3 4 5 6 
#
# 1 68.6240 12.6639 23.8095 0.0000 -0.4058 0.0000
# 2 12.6639 31.6899 11.2982 0.0000 4.6622 0.0000
# 3 23.8095 11.2982 76.4892 0.0000 -8.6850 0.0000
# 4 0.0000 0.0000 0.0000 18.2130 0.0000 -7.3251
# 5 -0.4058 4.6622 -8.6850 0.0000 23.3234 0.0000
# 6 0.0000 0.0000 0.0000 -7.3251 0.0000 35.9126
#
#
#
# Elastic Compliance Matrix: (Units=1/GPa)
#
#
# Indices 1 2 3 4 5 6 
#
# 1 0.017119 -0.005138 -0.004615 0.000000 -0.000393 0.000000
# 2 -0.005138 0.036705 -0.004872 0.000000 -0.009241 0.000000
# 3 -0.004615 -0.004872 0.016008 0.000000 0.006854 0.000000
# 4 0.000000 0.000000 0.000000 0.059813 0.000000 0.012200
# 5 -0.000393 -0.009241 0.006854 0.000000 0.047268 0.000000
# 6 0.000000 0.000000 0.000000 0.012200 0.000000 0.030334
#
#
# Mechanical properties :
#
#
# Convention : Reuss Voigt Hill
#
# Bulk Modulus (GPa) = 24.64019 30.26069 27.45044
# Shear Modulus (GPa) = 19.99814 24.09191 22.04502
#
# Velocity S-wave (km/s) = 3.24669 3.56355 3.40880
# Velocity P-wave (km/s) = 5.20025 5.73430 5.47379
#
# Compressibility (1/GPa) = 0.04058411
#
# Stress axis : x y z
#
# Youngs Moduli (GPa) = 58.41447 27.24395 62.46865
#
# Poissons Ratio (x) = 0.13998 0.28826
# Poissons Ratio (y) = 0.30014 0.30432
# Poissons Ratio (z) = 0.26956 0.13272
#
# Static dielectric constant tensor:
#      x y z
#    x 1.651370 0.000000 0.010550 
#    y 0.000000 1.633880 0.000000 
#    z 0.010550 0.000000 1.640180 
# 
# From -- ./inp_files/58349.got.cif
#   From: 2010.05.17/outbox.cif.g08.bks.cpg/sg10_30_cif.got.tgz:58349.got - 2010.06.03 11:33:40.
