data_PCOD9150265
_publ_section_title
;
Structure prediction by ZEFSAII (Michael W. Deem and Ramdas Pophale) SiO2 
 PCOD9150265
Probable space group: P 2/M
;
_chemical_formula_sum "Si O2"
_cell_formula_units_Z 32
_cell_length_a 21.731033
_cell_length_b 7.683712
_cell_length_c 20.467318
_cell_angle_alpha 90.000000
_cell_angle_beta 153.651796
_cell_angle_gamma 90.000000
_cell_volume 1516.786335
_symmetry_space_group_name_H-M "P 2/M"
_symmetry_group_IT_number 10
_symmetry_cell_setting 'monoclinic'
loop_
_space_group_symop_operation_xyz
x,y,z
-x,y,-z
-x,-y,-z
x,-y,z
loop_
_atom_site_type_symbol
_atom_site_label
_atom_site_fract_x
_atom_site_fract_y
_atom_site_fract_z
Si Si1 0.892673 0.202331 0.613667
Si Si2 0.686074 0.710988 0.916580
Si Si3 0.344957 0.704183 0.358561
Si Si4 0.149959 0.710535 0.058341
Si Si5 0.144278 0.203476 0.276154
Si Si6 0.565993 0.788463 0.994751
Si Si7 0.158966 0.800065 0.804206
Si Si8 0.592704 0.295515 0.289126
O O1 0.886869 0.278988 0.681370
O O2 0.739964 0.208483 0.439049
O O3 0.008568 0.280258 0.675598
O O4 0.934466 0.000000 0.661757
O O5 0.692005 0.500000 0.929366
O O6 0.758412 0.756694 0.917854
O O7 0.525929 0.763704 0.772763
O O8 0.768640 0.792203 0.055640
O O9 0.500000 0.778510 0.500000
O O10 0.357215 0.500000 0.353364
O O11 0.233320 0.776533 0.200633
O O12 0.275155 0.718182 0.362981
O O13 0.138718 0.500000 0.051271
O O14 0.994556 0.775056 0.898805
O O15 0.174492 0.000000 0.312768
O O16 0.472877 0.733889 0.844564
O O17 0.569950 0.000000 0.998209
O O18 0.500000 0.730881 0.000000
O O19 0.723069 0.723612 0.130921
O O20 0.139644 0.000000 0.764090
O O21 0.614601 0.500000 0.319976
#
# Coordination Sequence:
#
# PCOD9150265 Si02
#       8
#     4   4   4   4   4   4   4   4
#     4  10  21  36  53  78 111 144 178 221 273 325
#     4   9  18  32  52  79 105 133 176 223 266 318
#     4  10  23  40  58  78 106 144 184 227 276 331
#     4  10  20  36  57  79 104 138 181 223 270 330
#     4  11  23  38  56  80 108 142 182 226 276 327
#     4   9  18  35  60  85 110 146 186 221 264 319
#     4   9  17  33  55  79 109 140 177 220 262 315
#     4  10  21  34  54  83 113 144 179 223 272 315
#
# _framework density 21.097235999999999
#
# number of rings (size 3 to 8) (size 9 to 14) (size 15 to 20)
#    0.000    2.250    1.250    1.125    1.750    4.500 
#    0.000    0.625    0.000    3.750    0.000    0.000 
#    0.000    0.000    0.000    0.000    0.000    0.000 
#
# Total GULP energy -178588.636735 kJ/mol
# GULP energy per Si atom -5580.894898 kJ/mol
# Density = 2.104922 g / cm^3
# Si number density = 21.097236 Si / 1000 Ang^3
#
#
#
# Elastic Constant Matrix: (Units=GPa)
#
#
# Indices 1 2 3 4 5 6 
#
# 1 107.5302 -3.2229 46.4790 0.0000 35.7532 0.0000
# 2 -3.2229 33.7275 -4.3098 0.0000 2.6347 0.0000
# 3 46.4790 -4.3098 125.8583 0.0000 39.2746 0.0000
# 4 0.0000 0.0000 0.0000 12.6971 0.0000 0.6270
# 5 35.7532 2.6347 39.2746 0.0000 33.1962 0.0000
# 6 0.0000 0.0000 0.0000 0.6270 0.0000 15.6170
#
#
#
# Elastic Compliance Matrix: (Units=1/GPa)
#
#
# Indices 1 2 3 4 5 6 
#
# 1 0.014744 0.002547 -0.000538 0.000000 -0.015446 0.000000
# 2 0.002547 0.030906 0.002757 0.000000 -0.008458 0.000000
# 3 -0.000538 0.002757 0.012882 0.000000 -0.014880 0.000000
# 4 0.000000 0.000000 0.000000 0.078915 0.000000 -0.003168
# 5 -0.015446 -0.008458 -0.014880 0.000000 0.065035 0.000000
# 6 0.000000 0.000000 0.000000 -0.003168 0.000000 0.064160
#
#
# Mechanical properties :
#
#
# Convention : Reuss Voigt Hill
#
# Bulk Modulus (GPa) = 14.69216 38.33430 26.51323
# Shear Modulus (GPa) = 17.87003 27.51335 22.69169
#
# Velocity S-wave (km/s) = 2.91354 3.61518 3.28316
# Velocity P-wave (km/s) = 4.27755 5.96957 5.19294
#
# Compressibility (1/GPa) = 0.06806350
#
# Stress axis : x y z
#
# Youngs Moduli (GPa) = 67.82383 32.35646 77.62811
#
# Poissons Ratio (x) = -0.08240 0.04176
# Poissons Ratio (y) = -0.17273 -0.21403
# Poissons Ratio (z) = 0.03648 -0.08921
#
# Static dielectric constant tensor:
#      x y z
#    x 1.765000 0.000000 0.037660 
#    y 0.000000 1.791630 0.000000 
#    z 0.037660 0.000000 1.747350 
# 
# From -- ./inp_files/90670.got.cif
#   From: 2010.05.17/outbox.cif.g08.bks.cpg/sg10_46_cif.got.tgz:90670.got - 2010.06.03 11:33:40.
