data_PCOD9150017
_publ_section_title
;
Structure prediction by ZEFSAII (Michael W. Deem and Ramdas Pophale) SiO2 
 PCOD9150017
Probable space group: P 2/M
;
_chemical_formula_sum "Si O2"
_cell_formula_units_Z 28
_cell_length_a 13.248655
_cell_length_b 17.790067
_cell_length_c 8.685446
_cell_angle_alpha 90.000000
_cell_angle_beta 136.002803
_cell_angle_gamma 90.000000
_cell_volume 1421.971101
_symmetry_space_group_name_H-M "P 2/M"
_symmetry_group_IT_number 10
_symmetry_cell_setting 'monoclinic'
loop_
_space_group_symop_operation_xyz
x,y,z
-x,y,-z
-x,-y,-z
x,-y,z
loop_
_atom_site_type_symbol
_atom_site_label
_atom_site_fract_x
_atom_site_fract_y
_atom_site_fract_z
Si Si1 0.612736 0.245851 0.816306
Si Si2 0.412860 0.588385 0.145910
Si Si3 0.898849 0.787227 0.242807
Si Si4 0.941124 0.674202 0.780743
Si Si5 0.270946 0.413847 0.663078
Si Si6 0.700267 0.200363 0.578604
Si Si7 0.064716 0.086391 0.243510
O O1 0.613596 0.336372 0.783301
O O2 0.659310 0.200203 0.714169
O O3 0.446862 0.223887 0.669096
O O4 0.726163 0.219791 0.071765
O O5 0.389527 0.500000 0.171758
O O6 0.579984 0.592996 0.271753
O O7 0.314426 0.603116 0.886354
O O8 0.000000 0.772966 0.500000
O O9 0.931026 0.721280 0.156305
O O10 0.959064 0.864221 0.235156
O O11 0.860023 0.628020 0.561286
O O12 0.822207 0.735866 0.698054
O O13 0.000000 0.634813 0.000000
O O14 0.229499 0.500000 0.617087
O O15 0.778686 0.126744 0.598411
O O16 0.073861 0.000000 0.302471
O O17 0.000000 0.089637 0.000000
#
# Coordination Sequence:
#
# PCOD9150017 Si02
#       7
#     4   4   4   4   4   4   4
#     4  11  19  35  56  84 114 145 191 242 277 317
#     4   9  18  33  53  76 110 149 191 238 289 336
#     4  11  22  36  58  89 117 146 188 231 284 341
#     4  11  19  36  54  76 113 151 190 233 282 342
#     4   9  18  33  52  77 104 148 199 237 284 337
#     4  10  20  35  58  83 110 144 192 234 268 335
#     4  10  20  41  64  84 115 154 187 219 280 350
#
# _framework density 19.690977
#
# number of rings (size 3 to 8) (size 9 to 14) (size 15 to 20)
#    0.000    1.857    4.286    2.571    0.000    0.571 
#    0.000    5.000    0.000    3.429    0.000    0.000 
#    0.000    0.000    0.000    0.000    0.000    0.000 
#
# Total GULP energy -156063.538741 kJ/mol
# GULP energy per Si atom -5573.697812 kJ/mol
# Density = 1.964616 g / cm^3
# Si number density = 19.690977 Si / 1000 Ang^3
#
#
#
# Elastic Constant Matrix: (Units=GPa)
#
#
# Indices 1 2 3 4 5 6 
#
# 1 24.6516 18.0202 8.8573 0.0000 11.8289 0.0000
# 2 18.0202 107.6290 34.7756 0.0000 6.8676 0.0000
# 3 8.8573 34.7756 112.7141 0.0000 23.7168 0.0000
# 4 0.0000 0.0000 0.0000 20.4701 0.0000 -3.3168
# 5 11.8289 6.8676 23.7168 0.0000 23.8635 0.0000
# 6 0.0000 0.0000 0.0000 -3.3168 0.0000 10.1056
#
#
#
# Elastic Compliance Matrix: (Units=1/GPa)
#
#
# Indices 1 2 3 4 5 6 
#
# 1 0.061704 -0.009887 0.005107 0.000000 -0.032816 0.000000
# 2 -0.009887 0.011905 -0.004054 0.000000 0.005504 0.000000
# 3 0.005107 -0.004054 0.012655 0.000000 -0.013942 0.000000
# 4 0.000000 0.000000 0.000000 0.051596 0.000000 0.016935
# 5 -0.032816 0.005504 -0.013942 0.000000 0.070443 0.000000
# 6 0.000000 0.000000 0.000000 0.016935 0.000000 0.104514
#
#
# Mechanical properties :
#
#
# Convention : Reuss Voigt Hill
#
# Bulk Modulus (GPa) = 14.57829 40.92232 27.75031
# Shear Modulus (GPa) = 14.15017 23.11062 18.63040
#
# Velocity S-wave (km/s) = 2.68360 3.42960 3.07927
# Velocity P-wave (km/s) = 4.12576 6.04237 5.17359
#
# Compressibility (1/GPa) = 0.06859513
#
# Stress axis : x y z
#
# Youngs Moduli (GPa) = 16.20630 83.99589 79.01893
#
# Poissons Ratio (x) = 0.83048 -0.40352
# Poissons Ratio (y) = 0.16023 0.32037
# Poissons Ratio (z) = -0.08276 0.34055
#
# Static dielectric constant tensor:
#      x y z
#    x 1.722360 0.000000 -0.022190 
#    y 0.000000 1.698670 0.000000 
#    z -0.022190 0.000000 1.836400 
# 
# From -- ./inp_files/30094.got.cif
#   From: 2010.05.17/outbox.cif.g08.bks.cpg/sg10_16_cif.got.tgz:30094.got - 2010.06.03 11:33:40.
