data_PCOD9150065
_publ_section_title
;
Structure prediction by ZEFSAII (Michael W. Deem and Ramdas Pophale) SiO2 
 PCOD9150065
Probable space group: P 2/M
;
_chemical_formula_sum "Si O2"
_cell_formula_units_Z 24
_cell_length_a 13.975082
_cell_length_b 21.167850
_cell_length_c 12.062037
_cell_angle_alpha 90.000000
_cell_angle_beta 159.761594
_cell_angle_gamma 90.000000
_cell_volume 1234.344786
_symmetry_space_group_name_H-M "P 2/M"
_symmetry_group_IT_number 10
_symmetry_cell_setting 'monoclinic'
loop_
_space_group_symop_operation_xyz
x,y,z
-x,y,-z
-x,-y,-z
x,-y,z
loop_
_atom_site_type_symbol
_atom_site_label
_atom_site_fract_x
_atom_site_fract_y
_atom_site_fract_z
Si Si1 0.578341 0.724411 0.456260
Si Si2 0.005035 0.320959 0.757105
Si Si3 0.726641 0.073778 0.841112
Si Si4 0.780365 0.572699 0.360451
Si Si5 0.209312 0.207397 0.630162
Si Si6 0.697418 0.137575 0.487045
O O1 0.500000 0.723050 0.500000
O O2 0.859231 0.693054 0.716535
O O3 0.601390 0.797073 0.440958
O O4 0.331106 0.688042 0.124910
O O5 0.899488 0.385612 0.589162
O O6 0.908290 0.266179 0.567419
O O7 0.500000 0.089581 0.500000
O O8 0.549570 0.088970 0.758325
O O9 0.796386 0.000000 0.906508
O O10 0.009144 0.113333 0.146175
O O11 0.728990 0.500000 0.339287
O O12 0.000000 0.572808 0.500000
O O13 0.500000 0.598503 0.000000
O O14 0.256577 0.152852 0.591448
O O15 0.000000 0.190224 0.500000
O O16 0.500000 0.225232 0.000000
#
# Coordination Sequence:
#
# PCOD9150065 Si02
#       6
#     4   4   4   4   4   4
#     4  11  23  38  57  84 115 149 188 233 286 340
#     4  11  21  36  58  84 115 151 189 234 287 337
#     4  11  23  39  61  87 114 145 183 231 284 339
#     4  10  20  35  58  88 120 154 193 239 288 337
#     4  11  21  35  55  81 111 144 184 229 280 335
#     4  11  22  38  59  84 113 147 185 231 285 338
#
# _framework density 19.443514
#
# number of rings (size 3 to 8) (size 9 to 14) (size 15 to 20)
#    0.000    1.167    0.000    9.000    0.000    4.000 
#    0.000    0.000    0.000   13.000    0.000    0.000 
#    0.000    0.000    0.000    0.000    0.000    0.000 
#
# Total GULP energy -134137.135722 kJ/mol
# GULP energy per Si atom -5589.047322 kJ/mol
# Density = 1.939926 g / cm^3
# Si number density = 19.443514 Si / 1000 Ang^3
#
#
#
# Elastic Constant Matrix: (Units=GPa)
#
#
# Indices 1 2 3 4 5 6 
#
# 1 114.8152 20.1444 9.3913 0.0000 -1.9100 0.0000
# 2 20.1444 57.1708 15.7117 0.0000 -4.4726 0.0000
# 3 9.3913 15.7117 90.1523 0.0000 13.7146 0.0000
# 4 0.0000 0.0000 0.0000 38.3441 0.0000 -0.9823
# 5 -1.9100 -4.4726 13.7146 0.0000 33.8582 0.0000
# 6 0.0000 0.0000 0.0000 -0.9823 0.0000 37.4516
#
#
#
# Elastic Compliance Matrix: (Units=1/GPa)
#
#
# Indices 1 2 3 4 5 6 
#
# 1 0.009301 -0.003124 -0.000470 0.000000 0.000303 0.000000
# 2 -0.003124 0.019935 -0.003754 0.000000 0.003978 0.000000
# 3 -0.000470 -0.003754 0.012655 0.000000 -0.005648 0.000000
# 4 0.000000 0.000000 0.000000 0.026097 0.000000 0.000684
# 5 0.000303 0.003978 -0.005648 0.000000 0.032365 0.000000
# 6 0.000000 0.000000 0.000000 0.000684 0.000000 0.026719
#
#
# Mechanical properties :
#
#
# Convention : Reuss Voigt Hill
#
# Bulk Modulus (GPa) = 36.77306 39.18145 37.97726
# Shear Modulus (GPa) = 33.14875 36.39016 34.76945
#
# Velocity S-wave (km/s) = 4.13349 4.33087 4.23333
# Velocity P-wave (km/s) = 6.46025 6.72338 6.59313
#
# Compressibility (1/GPa) = 0.02719382
#
# Stress axis : x y z
#
# Youngs Moduli (GPa) = 107.51132 50.16249 79.02106
#
# Poissons Ratio (x) = 0.15673 0.03717
# Poissons Ratio (y) = 0.33591 0.29664
# Poissons Ratio (z) = 0.05058 0.18831
#
# Static dielectric constant tensor:
#      x y z
#    x 1.674670 0.000000 -0.033940 
#    y 0.000000 1.679470 0.000000 
#    z -0.033940 0.000000 1.652210 
# 
# From -- ./inp_files/52078.got.cif
#   From: 2010.05.17/outbox.cif.g08.bks.cpg/sg10_27_cif.got.tgz:52078.got - 2010.06.03 11:33:40.
