data_PCOD9150984
_publ_section_title
;
Structure prediction by ZEFSAII (Michael W. Deem and Ramdas Pophale) SiO2 
 PCOD9150984
Probable space group: P 2/M
;
_chemical_formula_sum "Si O2"
_cell_formula_units_Z 28
_cell_length_a 9.625089
_cell_length_b 7.640979
_cell_length_c 28.002108
_cell_angle_alpha 90.000000
_cell_angle_beta 143.746238
_cell_angle_gamma 90.000000
_cell_volume 1217.862728
_symmetry_space_group_name_H-M "P 2/M"
_symmetry_group_IT_number 10
_symmetry_cell_setting 'monoclinic'
loop_
_space_group_symop_operation_xyz
x,y,z
-x,y,-z
-x,-y,-z
x,-y,z
loop_
_atom_site_type_symbol
_atom_site_label
_atom_site_fract_x
_atom_site_fract_y
_atom_site_fract_z
Si Si1 0.436075 0.199950 0.248451
Si Si2 0.328412 0.293637 0.491137
Si Si3 0.859216 0.793386 0.307619
Si Si4 0.206081 0.285593 0.020755
Si Si5 0.913624 0.299330 0.117845
Si Si6 0.260419 0.711041 0.827868
Si Si7 0.277249 0.289149 0.580482
O O1 0.605267 0.276923 0.254415
O O2 0.596712 0.204296 0.340036
O O3 0.195302 0.296710 0.192759
O O4 0.372685 0.000000 0.218779
O O5 0.500000 0.212927 0.500000
O O6 0.380437 0.500000 0.509807
O O7 0.369229 0.223258 0.555146
O O8 0.065458 0.279801 0.397903
O O9 0.891481 0.762041 0.260411
O O10 0.854220 0.000000 0.315079
O O11 0.197333 0.500000 0.018212
O O12 0.167931 0.223904 0.955571
O O13 0.470857 0.232648 0.107248
O O14 0.000000 0.228385 0.000000
O O15 0.827350 0.500000 0.093928
O O16 0.828120 0.223456 0.144866
O O17 0.255383 0.500000 0.828217
O O18 0.308121 0.500000 0.593689
O O19 0.000000 0.256799 0.500000
#
# Coordination Sequence:
#
# PCOD9150984 Si02
#       7
#     4   4   4   4   4   4   4
#     4  11  24  39  57  83 118 156 195 238 286 342
#     4  10  22  39  60  85 114 147 190 241 291 343
#     4  11  24  40  57  82 117 157 197 236 285 343
#     4   9  17  33  60  91 118 148 188 235 286 339
#     4  10  21  37  60  89 119 151 190 237 288 341
#     4  10  21  37  60  88 119 152 190 238 288 339
#     4  10  20  37  61  86 111 146 192 241 290 340
#
# _framework density 22.991098000000001
#
# number of rings (size 3 to 8) (size 9 to 14) (size 15 to 20)
#    0.000    1.857    1.429    2.143    2.000    6.286 
#    0.000    0.714    0.000    4.286    0.000    0.000 
#    0.000    0.000    0.000    0.000    0.000    0.000 
#
# Total GULP energy -156444.060109 kJ/mol
# GULP energy per Si atom -5587.287861 kJ/mol
# Density = 2.293877 g / cm^3
# Si number density = 22.991098 Si / 1000 Ang^3
#
#
#
# Elastic Constant Matrix: (Units=GPa)
#
#
# Indices 1 2 3 4 5 6 
#
# 1 126.3194 -5.4201 7.3944 0.0000 -23.3874 0.0000
# 2 -5.4201 40.1633 -18.6020 0.0000 -0.0194 0.0000
# 3 7.3944 -18.6020 66.0203 0.0000 -22.0754 0.0000
# 4 0.0000 0.0000 0.0000 -432.6878 0.0000 114.4123
# 5 -23.3874 -0.0194 -22.0754 0.0000 44.7363 0.0000
# 6 0.0000 0.0000 0.0000 114.4123 0.0000 -24.6084
#
#
#
# Elastic Compliance Matrix: (Units=1/GPa)
#
#
# Indices 1 2 3 4 5 6 
#
# 1 0.008896 0.001794 0.001275 0.000000 0.005281 0.000000
# 2 0.001794 0.029878 0.010222 0.000000 0.005995 0.000000
# 3 0.001275 0.010222 0.021687 0.000000 0.011372 0.000000
# 4 0.000000 0.000000 0.000000 0.010075 0.000000 0.046844
# 5 0.005281 0.005995 0.011372 0.000000 0.030728 0.000000
# 6 0.000000 0.000000 0.000000 0.046844 0.000000 0.177155
#
#
# Mechanical properties :
#
#
# Convention : Reuss Voigt Hill
#
# Bulk Modulus (GPa) = 11.48878 22.13861 16.81370
# Shear Modulus (GPa) = 17.80292 -65.90326 -24.05017
#
# Velocity S-wave (km/s) = 2.78571 -5.35975 -3.23780
# Velocity P-wave (km/s) = 3.91853 5.35280 2.57853
#
# Compressibility (1/GPa) = 0.08704141
#
# Stress axis : x y z
#
# Youngs Moduli (GPa) = 112.40406 33.46975 46.11085
#
# Poissons Ratio (x) = -0.06003 -0.05877
# Poissons Ratio (y) = -0.20160 -0.47135
# Poissons Ratio (z) = -0.14328 -0.34213
#
# Static dielectric constant tensor:
#      x y z
#    x 1.909850 0.000000 -0.004360 
#    y 0.000000 1.878150 0.000000 
#    z -0.004360 0.000000 1.814690 
# 
# From -- ./inp_files/91956.got.cif
#   From: 2010.05.17/outbox.cif.g08.bks.cpg/sg10_46_cif.got.tgz:91956.got - 2010.06.03 11:33:40.
