data_PCOD9150291
_publ_section_title
;
Structure prediction by ZEFSAII (Michael W. Deem and Ramdas Pophale) SiO2 
 PCOD9150291
Probable space group: P 2/M
;
_chemical_formula_sum "Si O2"
_cell_formula_units_Z 32
_cell_length_a 10.838579
_cell_length_b 9.322659
_cell_length_c 22.019376
_cell_angle_alpha 90.000000
_cell_angle_beta 52.129874
_cell_angle_gamma 90.000000
_cell_volume 1756.372477
_symmetry_space_group_name_H-M "P 2/M"
_symmetry_group_IT_number 10
_symmetry_cell_setting 'monoclinic'
loop_
_space_group_symop_operation_xyz
x,y,z
-x,y,-z
-x,-y,-z
x,-y,z
loop_
_atom_site_type_symbol
_atom_site_label
_atom_site_fract_x
_atom_site_fract_y
_atom_site_fract_z
Si Si1 0.188096 0.172577 0.445264
Si Si2 0.119239 0.833717 0.911040
Si Si3 0.735080 0.327370 0.702030
Si Si4 0.591481 0.672600 0.137572
Si Si5 0.665543 0.671026 0.481520
Si Si6 0.331946 0.661654 0.020695
Si Si7 0.036442 0.668535 0.693562
Si Si8 0.937059 0.835300 0.839537
O O1 0.257731 0.242034 0.363045
O O2 0.276459 0.242725 0.476457
O O3 0.000000 0.204205 0.500000
O O4 0.205419 0.000000 0.441162
O O5 0.274434 0.740034 0.861907
O O6 0.034575 0.828398 0.872229
O O7 0.157911 0.000000 0.913478
O O8 0.000000 0.783263 0.000000
O O9 0.732411 0.500000 0.691488
O O10 0.581263 0.289103 0.787480
O O11 0.890701 0.295517 0.693706
O O12 0.598381 0.500000 0.135293
O O13 0.638090 0.721478 0.055657
O O14 0.500000 0.711513 0.500000
O O15 0.657090 0.500000 0.498931
O O16 0.802973 0.690878 0.390765
O O17 0.265094 0.500000 0.035790
O O18 0.222152 0.754752 0.096099
O O19 0.500000 0.651233 0.000000
O O20 0.022467 0.500000 0.712721
O O21 0.023393 0.759090 0.758301
O O22 0.907460 0.000000 0.833124
#
# Coordination Sequence:
#
# PCOD9150291 Si02
#       8
#     4   4   4   4   4   4   4   4
#     4  11  23  39  63  94 127 165 208 251 305 371
#     4  10  21  39  57  76 113 158 196 236 291 356
#     4  10  21  39  63  90 120 157 201 249 306 360
#     4  10  21  35  57  87 112 143 195 249 289 342
#     4  10  22  41  67  96 125 163 210 256 308 369
#     4  10  20  36  57  81 113 148 187 237 292 347
#     4  10  21  39  62  87 121 159 195 248 307 355
#     4  11  23  37  57  83 113 155 200 241 291 355
#
# _framework density 18.219370000000001
#
# number of rings (size 3 to 8) (size 9 to 14) (size 15 to 20)
#    0.000    1.750    2.500    1.500    0.000    6.750 
#    0.000    5.000    0.000    0.000    0.000    0.000 
#    0.000    0.000    0.000    0.000    0.000    0.000 
#
# Total GULP energy -178605.753678 kJ/mol
# GULP energy per Si atom -5581.429802 kJ/mol
# Density = 1.817790 g / cm^3
# Si number density = 18.219370 Si / 1000 Ang^3
#
#
#
# Elastic Constant Matrix: (Units=GPa)
#
#
# Indices 1 2 3 4 5 6 
#
# 1 85.4462 33.7066 30.3574 0.0000 -9.6588 0.0000
# 2 33.7066 45.1784 46.8782 0.0000 6.4367 0.0000
# 3 30.3574 46.8782 83.9761 0.0000 3.9546 0.0000
# 4 0.0000 0.0000 0.0000 38.5715 0.0000 -13.5743
# 5 -9.6588 6.4367 3.9546 0.0000 34.1292 0.0000
# 6 0.0000 0.0000 0.0000 -13.5743 0.0000 46.5436
#
#
#
# Elastic Compliance Matrix: (Units=1/GPa)
#
#
# Indices 1 2 3 4 5 6 
#
# 1 0.018853 -0.018505 0.003116 0.000000 0.008464 0.000000
# 2 -0.018505 0.072269 -0.032944 0.000000 -0.015049 0.000000
# 3 0.003116 -0.032944 0.028996 0.000000 0.003735 0.000000
# 4 0.000000 0.000000 0.000000 0.028891 0.000000 0.008426
# 5 0.008464 -0.015049 0.003735 0.000000 0.034101 0.000000
# 6 0.000000 0.000000 0.000000 0.008426 0.000000 0.023943
#
#
# Mechanical properties :
#
#
# Convention : Reuss Voigt Hill
#
# Bulk Modulus (GPa) = 42.64149 48.49834 45.56992
# Shear Modulus (GPa) = 16.04946 30.75943 23.40445
#
# Velocity S-wave (km/s) = 2.97122 4.11333 3.58801
# Velocity P-wave (km/s) = 5.93516 7.01685 6.49855
#
# Compressibility (1/GPa) = 0.02345134
#
# Stress axis : x y z
#
# Youngs Moduli (GPa) = 53.04262 13.83724 34.48700
#
# Poissons Ratio (x) = 0.25606 -0.10747
# Poissons Ratio (y) = 0.98155 1.13616
# Poissons Ratio (z) = -0.16529 0.45586
#
# Static dielectric constant tensor:
#      x y z
#    x 1.631070 0.000000 0.008740 
#    y 0.000000 1.630940 0.000000 
#    z 0.008740 0.000000 1.608050 
# 
# From -- ./inp_files/83560.got.cif
#   From: 2010.05.17/outbox.cif.g08.bks.cpg/sg10_42_cif.got.tgz:83560.got - 2010.06.03 11:33:40.
