data_PCOD9150211
_publ_section_title
;
Structure prediction by ZEFSAII (Michael W. Deem and Ramdas Pophale) SiO2 
 PCOD9150211
Probable space group: P 2/M
;
_chemical_formula_sum "Si O2"
_cell_formula_units_Z 20
_cell_length_a 9.725787
_cell_length_b 12.955726
_cell_length_c 8.552351
_cell_angle_alpha 90.000000
_cell_angle_beta 92.458427
_cell_angle_gamma 90.000000
_cell_volume 1076.643989
_symmetry_space_group_name_H-M "P 2/M"
_symmetry_group_IT_number 10
_symmetry_cell_setting 'monoclinic'
loop_
_space_group_symop_operation_xyz
x,y,z
-x,y,-z
-x,-y,-z
x,-y,z
loop_
_atom_site_type_symbol
_atom_site_label
_atom_site_fract_x
_atom_site_fract_y
_atom_site_fract_z
Si Si1 0.807919 0.328373 0.675928
Si Si2 0.076906 0.381844 0.845947
Si Si3 0.296934 0.721534 0.654684
Si Si4 0.462831 0.381850 0.178383
Si Si5 0.159073 0.882091 0.452243
O O1 0.749284 0.346263 0.498578
O O2 0.697922 0.368676 0.794042
O O3 0.822598 0.203557 0.681698
O O4 0.956718 0.375601 0.710653
O O5 0.122889 0.500000 0.869915
O O6 0.201838 0.312724 0.794064
O O7 0.000000 0.347373 0.000000
O O8 0.451897 0.696498 0.708853
O O9 0.256422 0.835767 0.594229
O O10 0.503107 0.500000 0.218119
O O11 0.500000 0.363778 0.000000
O O12 0.000000 0.875102 0.500000
O O13 0.189771 0.000000 0.414740
#
# Coordination Sequence:
#
# PCOD9150211 Si02
#       5
#     4   4   4   4   4
#     4  10  20  36  55  85 101 146 189 228 265 319
#     4  11  21  33  51  78 116 148 175 221 277 327
#     4  10  20  36  55  85 101 146 189 228 265 319
#     4  11  23  37  53  78 120 158 177 213 277 333
#     4   9  18  37  62  85 107 135 181 237 292 319
#
# _framework density 18.576241
#
# number of rings (size 3 to 8) (size 9 to 14) (size 15 to 20)
#    1.200    0.600    2.000    3.600    0.000    8.000 
#    0.000    2.000    0.000    7.200    0.000    0.000 
#    0.000    0.000    0.000    0.000    0.000    0.000 
#
# Total GULP energy -111462.645650 kJ/mol
# GULP energy per Si atom -5573.132283 kJ/mol
# Density = 1.853396 g / cm^3
# Si number density = 18.576241 Si / 1000 Ang^3
#
#
#
# Elastic Constant Matrix: (Units=GPa)
#
#
# Indices 1 2 3 4 5 6 
#
# 1 54.4216 2.2883 -15.4242 0.0000 2.9212 0.0000
# 2 2.2883 81.9469 8.9447 0.0000 0.4368 0.0000
# 3 -15.4242 8.9447 41.0954 0.0000 -10.1916 0.0000
# 4 0.0000 0.0000 0.0000 53.1667 0.0000 40.6115
# 5 2.9212 0.4368 -10.1916 0.0000 30.5791 0.0000
# 6 0.0000 0.0000 0.0000 40.6115 0.0000 63.8190
#
#
#
# Elastic Compliance Matrix: (Units=1/GPa)
#
#
# Indices 1 2 3 4 5 6 
#
# 1 0.020751 -0.001491 0.008314 0.000000 0.000810 0.000000
# 2 -0.001491 0.012647 -0.003621 0.000000 -0.001245 0.000000
# 3 0.008314 -0.003621 0.030586 0.000000 0.009451 0.000000
# 4 0.000000 0.000000 0.000000 0.036599 0.000000 -0.023290
# 5 0.000810 -0.001245 0.009451 0.000000 0.035793 0.000000
# 6 0.000000 0.000000 0.000000 -0.023290 0.000000 0.030490
#
#
# Mechanical properties :
#
#
# Convention : Reuss Voigt Hill
#
# Bulk Modulus (GPa) = 14.20740 18.78683 16.49712
# Shear Modulus (GPa) = 27.18522 41.62328 34.40425
#
# Velocity S-wave (km/s) = 3.82964 4.73871 4.30822
# Velocity P-wave (km/s) = 5.21725 6.33055 5.80067
#
# Compressibility (1/GPa) = 0.07038584
#
# Stress axis : x y z
#
# Youngs Moduli (GPa) = 48.19149 79.07293 32.69465
#
# Poissons Ratio (x) = 0.11791 -0.27181
# Poissons Ratio (y) = 0.07186 0.11839
# Poissons Ratio (z) = -0.40065 0.28633
#
# Static dielectric constant tensor:
#      x y z
#    x 1.644180 0.000000 0.024780 
#    y 0.000000 1.613460 0.000000 
#    z 0.024780 0.000000 1.670160 
# 
# From -- ./inp_files/18522.got.cif
#   From: 2010.05.17/outbox.cif.g08.bks.cpg/sg10_10_cif.got.tgz:18522.got - 2010.06.03 11:33:40.
