data_PCOD9150952
_publ_section_title
;
Structure prediction by ZEFSAII (Michael W. Deem and Ramdas Pophale) SiO2 
 PCOD9150952
Probable space group: P 2/M
;
_chemical_formula_sum "Si O2"
_cell_formula_units_Z 16
_cell_length_a 14.572956
_cell_length_b 11.001835
_cell_length_c 8.623152
_cell_angle_alpha 90.000000
_cell_angle_beta 153.547386
_cell_angle_gamma 90.000000
_cell_volume 615.864414
_symmetry_space_group_name_H-M "P 2/M"
_symmetry_group_IT_number 10
_symmetry_cell_setting 'monoclinic'
loop_
_space_group_symop_operation_xyz
x,y,z
-x,y,-z
-x,-y,-z
x,-y,z
loop_
_atom_site_type_symbol
_atom_site_label
_atom_site_fract_x
_atom_site_fract_y
_atom_site_fract_z
Si Si1 0.735860 0.000000 0.928158
Si Si2 0.751111 0.257251 0.618005
Si Si3 0.797322 0.273466 0.020349
Si Si4 0.741131 0.360515 0.266624
Si Si5 0.549958 0.000000 0.252598
O O1 0.500000 0.000000 0.500000
O O2 0.676403 0.000000 0.016835
O O3 0.841057 0.128817 0.059290
O O4 0.680300 0.319899 0.349970
O O5 0.676428 0.118783 0.490855
O O6 0.690465 0.309029 0.696096
O O7 0.000000 0.262543 0.000000
O O8 0.694051 0.288472 0.034230
O O9 0.010180 0.345534 0.349441
O O10 0.686720 0.500000 0.159191
O O11 0.500000 0.000000 0.000000
#
# Coordination Sequence:
#
# PCOD9150952 Si02
#       5
#     2   4   4   4   2
#     4  12  22  37  59  87 122 155 194 238 297 381
#     4  10  21  37  61  90 120 157 204 248 305 361
#     4  10  20  37  60  88 122 154 195 245 307 355
#     4  10  22  38  62  92 119 154 205 255 297 348
#     4  12  23  38  60  91 127 163 191 249 310 369
#
# _framework density 25.979745999999999
#
# number of rings (size 3 to 8) (size 9 to 14) (size 15 to 20)
#    0.000    1.500    2.500    3.375    0.000   10.500 
#    0.000    0.000    0.000   11.250    0.000    0.000 
#    0.000    0.000    0.000    0.000    0.000    0.000 
#
# Total GULP energy -89438.473505 kJ/mol
# GULP energy per Si atom -5589.904594 kJ/mol
# Density = 2.592061 g / cm^3
# Si number density = 25.979746 Si / 1000 Ang^3
#
#
#
# Elastic Constant Matrix: (Units=GPa)
#
#
# Indices 1 2 3 4 5 6 
#
# 1 185.5260 20.8856 44.5068 0.0000 -67.6161 0.0000
# 2 20.8856 140.9871 25.5543 0.0000 -18.9566 0.0000
# 3 44.5068 25.5543 174.0725 0.0000 -54.5570 0.0000
# 4 0.0000 0.0000 0.0000 63.3990 0.0000 -16.1947
# 5 -67.6161 -18.9566 -54.5570 0.0000 64.6340 0.0000
# 6 0.0000 0.0000 0.0000 -16.1947 0.0000 49.1592
#
#
#
# Elastic Compliance Matrix: (Units=1/GPa)
#
#
# Indices 1 2 3 4 5 6 
#
# 1 0.008808 -0.000130 0.000874 0.000000 0.009915 0.000000
# 2 -0.000130 0.007425 -0.000567 0.000000 0.001563 0.000000
# 3 0.000874 -0.000567 0.007939 0.000000 0.007450 0.000000
# 4 0.000000 0.000000 0.000000 0.017222 0.000000 0.005674
# 5 0.009915 0.001563 0.007450 0.000000 0.032591 0.000000
# 6 0.000000 0.000000 0.000000 0.005674 0.000000 0.022211
#
#
# Mechanical properties :
#
#
# Convention : Reuss Voigt Hill
#
# Bulk Modulus (GPa) = 40.77071 75.83100 58.30086
# Shear Modulus (GPa) = 48.06840 62.74770 55.40805
#
# Velocity S-wave (km/s) = 4.30609 4.91986 4.62317
# Velocity P-wave (km/s) = 6.36008 7.84380 7.14058
#
# Compressibility (1/GPa) = 0.02452741
#
# Stress axis : x y z
#
# Youngs Moduli (GPa) = 113.52711 134.67947 125.95514
#
# Poissons Ratio (x) = 0.01754 -0.11014
# Poissons Ratio (y) = 0.01479 0.07140
# Poissons Ratio (z) = -0.09927 0.07634
#
# Static dielectric constant tensor:
#      x y z
#    x 2.237530 0.000000 -0.022470 
#    y 0.000000 1.950350 0.000000 
#    z -0.022470 0.000000 2.055580 
# 
# From -- ./inp_files/31788.got.cif
#   From: 2010.05.17/outbox.cif.g08.bks.cpg/sg10_16_cif.got.tgz:31788.got - 2010.06.03 11:33:40.
