data_PCOD9150116
_publ_section_title
;
Structure prediction by ZEFSAII (Michael W. Deem and Ramdas Pophale) SiO2 
 PCOD9150116
Probable space group: P 2/M
;
_chemical_formula_sum "Si O2"
_cell_formula_units_Z 24
_cell_length_a 10.534534
_cell_length_b 12.216066
_cell_length_c 25.258107
_cell_angle_alpha 90.000000
_cell_angle_beta 22.263202
_cell_angle_gamma 90.000000
_cell_volume 1231.482928
_symmetry_space_group_name_H-M "P 2/M"
_symmetry_group_IT_number 10
_symmetry_cell_setting 'monoclinic'
loop_
_space_group_symop_operation_xyz
x,y,z
-x,y,-z
-x,-y,-z
x,-y,z
loop_
_atom_site_type_symbol
_atom_site_label
_atom_site_fract_x
_atom_site_fract_y
_atom_site_fract_z
Si Si1 0.357245 0.870397 0.390139
Si Si2 0.388424 0.500000 0.364362
Si Si3 0.562366 0.631919 0.127780
Si Si4 0.470922 0.266359 0.450646
Si Si5 0.671225 0.500000 0.491605
Si Si6 0.794919 0.368614 0.845146
Si Si7 0.686840 0.705500 0.190188
O O1 0.367880 0.815401 0.443990
O O2 0.627548 0.814457 0.246594
O O3 0.000000 0.848412 0.500000
O O4 0.406187 0.000000 0.375346
O O5 0.460607 0.500000 0.398018
O O6 0.540231 0.608210 0.281552
O O7 0.000000 0.500000 0.500000
O O8 0.556970 0.500000 0.141941
O O9 0.342084 0.649567 0.161011
O O10 0.500482 0.698657 0.205496
O O11 0.932928 0.670717 0.967568
O O12 0.500000 0.223735 0.500000
O O13 0.218874 0.371984 0.550393
O O14 0.843749 0.311216 0.290885
O O15 0.500000 0.500000 0.500000
O O16 0.837837 0.500000 0.834995
O O17 0.500000 0.334912 0.000000
#
# Coordination Sequence:
#
# PCOD9150116 Si02
#       7
#     4   2   4   4   2   4   4
#     4  11  26  45  64  85 116 163 216 263 309 360
#     4  12  22  31  58  90 123 161 199 248 309 372
#     4  10  20  35  59  94 134 164 194 243 305 381
#     4  11  23  39  62  91 127 159 202 256 311 373
#     4  10  22  34  51  89 127 150 189 243 302 369
#     4  10  21  34  57  89 133 172 196 233 303 386
#     4  11  20  37  60  89 124 163 208 253 305 367
#
# _framework density 19.488697999999999
#
# number of rings (size 3 to 8) (size 9 to 14) (size 15 to 20)
#    0.000    1.333    4.167    2.000    2.333    1.667 
#    0.000    1.667    0.000    4.500    0.000    0.000 
#    0.000    0.000    0.000    0.000    0.000    0.000 
#
# Total GULP energy -133853.090655 kJ/mol
# GULP energy per Si atom -5577.212111 kJ/mol
# Density = 1.944434 g / cm^3
# Si number density = 19.488698 Si / 1000 Ang^3
#
#
#
# Elastic Constant Matrix: (Units=GPa)
#
#
# Indices 1 2 3 4 5 6 
#
# 1 155.5693 66.4827 56.9381 0.0000 26.1161 0.0000
# 2 66.4827 91.1873 22.9010 0.0000 10.8846 0.0000
# 3 56.9381 22.9010 86.1787 0.0000 17.8524 0.0000
# 4 0.0000 0.0000 0.0000 14.3696 0.0000 0.2441
# 5 26.1161 10.8846 17.8524 0.0000 41.1964 0.0000
# 6 0.0000 0.0000 0.0000 0.2441 0.0000 26.2466
#
#
#
# Elastic Compliance Matrix: (Units=1/GPa)
#
#
# Indices 1 2 3 4 5 6 
#
# 1 0.011916 -0.006944 -0.005320 0.000000 -0.003414 0.000000
# 2 -0.006944 0.015938 0.000344 0.000000 0.000042 0.000000
# 3 -0.005320 0.000344 0.015763 0.000000 -0.003549 0.000000
# 4 0.000000 0.000000 0.000000 0.069602 0.000000 -0.000647
# 5 -0.003414 0.000042 -0.003549 0.000000 0.027965 0.000000
# 6 0.000000 0.000000 0.000000 -0.000647 0.000000 0.038106
#
#
# Mechanical properties :
#
#
# Convention : Reuss Voigt Hill
#
# Bulk Modulus (GPa) = 50.56773 69.50877 60.03825
# Shear Modulus (GPa) = 23.84109 28.80343 26.32226
#
# Velocity S-wave (km/s) = 3.50141 3.84859 3.67910
# Velocity P-wave (km/s) = 6.50769 7.44933 6.99437
#
# Compressibility (1/GPa) = 0.01977546
#
# Stress axis : x y z
#
# Youngs Moduli (GPa) = 83.92222 62.74423 63.44089
#
# Poissons Ratio (x) = 0.43569 0.33753
# Poissons Ratio (y) = 0.58275 -0.02181
# Poissons Ratio (z) = 0.44649 -0.02158
#
# Static dielectric constant tensor:
#      x y z
#    x 1.980690 0.000000 -0.023270 
#    y 0.000000 1.650120 0.000000 
#    z -0.023270 0.000000 1.775320 
# 
# From -- ./inp_files/92832.got.cif
#   From: 2010.05.17/outbox.cif.g08.bks.cpg/sg10_47_cif.got.tgz:92832.got - 2010.06.03 11:33:40.
