data_PCOD9150441
_publ_section_title
;
Structure prediction by ZEFSAII (Michael W. Deem and Ramdas Pophale) SiO2 
 PCOD9150441
Probable space group: P 2/M
;
_chemical_formula_sum "Si O2"
_cell_formula_units_Z 20
_cell_length_a 18.214934
_cell_length_b 7.647856
_cell_length_c 9.303026
_cell_angle_alpha 90.000000
_cell_angle_beta 50.472661
_cell_angle_gamma 90.000000
_cell_volume 999.601012
_symmetry_space_group_name_H-M "P 2/M"
_symmetry_group_IT_number 10
_symmetry_cell_setting 'monoclinic'
loop_
_space_group_symop_operation_xyz
x,y,z
-x,y,-z
-x,-y,-z
x,-y,z
loop_
_atom_site_type_symbol
_atom_site_label
_atom_site_fract_x
_atom_site_fract_y
_atom_site_fract_z
Si Si1 0.067655 0.196819 0.534614
Si Si2 0.935723 0.697354 0.939963
Si Si3 0.277497 0.299120 0.359855
Si Si4 0.396233 0.000000 0.055285
Si Si5 0.276217 0.710128 0.701812
Si Si6 0.601134 0.000000 0.295351
O O1 0.166109 0.286214 0.455139
O O2 0.000000 0.282284 0.500000
O O3 0.996530 0.189239 0.756605
O O4 0.093279 0.000000 0.453970
O O5 0.927602 0.500000 0.889711
O O6 0.830860 0.754603 0.114667
O O7 0.000000 0.686921 0.000000
O O8 0.308527 0.500000 0.304083
O O9 0.286059 0.251856 0.518808
O O10 0.338180 0.167847 0.186875
O O11 0.500000 0.000000 0.000000
O O12 0.403567 0.000000 0.872506
O O13 0.289866 0.500000 0.702300
O O14 0.344653 0.828496 0.712326
O O15 0.500000 0.000000 0.500000
#
# Coordination Sequence:
#
# PCOD9150441 Si02
#       6
#     4   4   4   2   4   2
#     4  11  24  37  58  95 141 183 224 267 318 387
#     4  10  20  36  58  91 130 175 218 257 310 376
#     4  11  23  44  71 100 136 181 224 273 335 397
#     4  12  28  50  72  98 134 167 220 280 343 411
#     4  10  23  42  69 102 136 174 225 275 327 395
#     4  12  28  48  74  98 126 170 216 280 347 394
#
# _framework density 20.007982999999999
#
# number of rings (size 3 to 8) (size 9 to 14) (size 15 to 20)
#    0.000    1.200    3.000    2.400    4.200    3.600 
#    0.000    0.000    0.000    0.000    0.000    0.000 
#    0.000    0.000    0.000    0.000    0.000    0.000 
#
# Total GULP energy -111680.870383 kJ/mol
# GULP energy per Si atom -5584.043519 kJ/mol
# Density = 1.996244 g / cm^3
# Si number density = 20.007983 Si / 1000 Ang^3
#
#
#
# Elastic Constant Matrix: (Units=GPa)
#
#
# Indices 1 2 3 4 5 6 
#
# 1 153.2879 55.9708 88.1668 0.0000 5.1017 0.0000
# 2 55.9708 88.7567 65.0688 0.0000 -0.8800 0.0000
# 3 88.1668 65.0688 154.3928 0.0000 -4.8359 0.0000
# 4 0.0000 0.0000 0.0000 11.6111 0.0000 10.5607
# 5 5.1017 -0.8800 -4.8359 0.0000 39.3478 0.0000
# 6 0.0000 0.0000 0.0000 10.5607 0.0000 45.9341
#
#
#
# Elastic Compliance Matrix: (Units=1/GPa)
#
#
# Indices 1 2 3 4 5 6 
#
# 1 0.010446 -0.003166 -0.004694 0.000000 -0.002002 0.000000
# 2 -0.003166 0.017273 -0.005468 0.000000 0.000125 0.000000
# 3 -0.004694 -0.005468 0.011521 0.000000 0.001902 0.000000
# 4 0.000000 0.000000 0.000000 0.108896 0.000000 -0.025036
# 5 -0.002002 0.000125 0.001902 0.000000 0.025911 0.000000
# 6 0.000000 0.000000 0.000000 -0.025036 0.000000 0.027526
#
#
# Mechanical properties :
#
#
# Convention : Reuss Voigt Hill
#
# Bulk Modulus (GPa) = 79.45797 90.53893 84.99845
# Shear Modulus (GPa) = 21.51248 31.86068 26.68658
#
# Velocity S-wave (km/s) = 3.28257 3.99482 3.65608
# Velocity P-wave (km/s) = 7.35978 8.16258 7.77155
#
# Compressibility (1/GPa) = 0.01258527
#
# Stress axis : x y z
#
# Youngs Moduli (GPa) = 95.73034 57.89321 86.79658
#
# Poissons Ratio (x) = 0.18331 0.40738
# Poissons Ratio (y) = 0.30311 0.47458
# Poissons Ratio (z) = 0.44931 0.31654
#
# Static dielectric constant tensor:
#      x y z
#    x 1.733460 0.000000 0.013170 
#    y 0.000000 1.795960 0.000000 
#    z 0.013170 0.000000 1.636160 
# 
# From -- ./inp_files/26822.got.cif
#   From: 2010.05.17/outbox.cif.g08.bks.cpg/sg10_14_cif.got.tgz:26822.got - 2010.06.03 11:33:40.
