data_PCOD9150202
_publ_section_title
;
Structure prediction by ZEFSAII (Michael W. Deem and Ramdas Pophale) SiO2 
 PCOD9150202
Probable space group: P 2/M
;
_chemical_formula_sum "Si O2"
_cell_formula_units_Z 32
_cell_length_a 24.363095
_cell_length_b 13.264113
_cell_length_c 8.837837
_cell_angle_alpha 90.000000
_cell_angle_beta 145.403845
_cell_angle_gamma 90.000000
_cell_volume 1621.598205
_symmetry_space_group_name_H-M "P 2/M"
_symmetry_group_IT_number 10
_symmetry_cell_setting 'monoclinic'
loop_
_space_group_symop_operation_xyz
x,y,z
-x,y,-z
-x,-y,-z
x,-y,z
loop_
_atom_site_type_symbol
_atom_site_label
_atom_site_fract_x
_atom_site_fract_y
_atom_site_fract_z
Si Si1 0.950288 0.804467 0.047341
Si Si2 0.397891 0.303302 0.189785
Si Si3 0.218252 0.385141 0.951943
Si Si4 0.698231 0.120486 0.873299
Si Si5 0.254953 0.239019 0.308145
Si Si6 0.975301 0.388726 0.621713
Si Si7 0.920322 0.887155 0.422156
Si Si8 0.392894 0.378951 0.831095
O O1 0.970756 0.695448 0.165271
O O2 0.019507 0.884265 0.288822
O O3 0.835002 0.816531 0.811554
O O4 0.000000 0.800883 0.000000
O O5 0.500000 0.321316 0.500000
O O6 0.320395 0.369211 0.105378
O O7 0.366865 0.188039 0.162311
O O8 0.396530 0.335318 0.010996
O O9 0.203657 0.500000 0.966037
O O10 0.213054 0.316676 0.087959
O O11 0.138142 0.363324 0.642944
O O12 0.689779 0.160552 0.679860
O O13 0.682937 0.000000 0.849479
O O14 0.809996 0.146404 0.173262
O O15 0.321288 0.306437 0.570353
O O16 0.991271 0.500000 0.720908
O O17 0.000000 0.391318 0.500000
O O18 0.000000 0.830634 0.500000
O O19 0.909274 0.000000 0.335032
O O20 0.366260 0.500000 0.770577
O O21 0.500000 0.372751 0.000000
#
# Coordination Sequence:
#
# PCOD9150202 Si02
#       8
#     4   4   4   4   4   4   4   4
#     4  12  24  34  54  85 127 167 196 247 302 362
#     4  11  24  42  67  94 120 155 209 263 312 371
#     4  10  20  36  60  85 114 157 211 261 303 356
#     4  10  22  42  69  95 122 161 211 263 310 363
#     4  11  22  37  60  89 125 163 205 252 310 373
#     4  10  20  36  55  79 115 164 211 243 285 359
#     4  10  20  39  65  90 117 158 210 253 297 356
#     4  11  25  44  65  92 129 165 200 251 316 376
#
# _framework density 19.733619000000001
#
# number of rings (size 3 to 8) (size 9 to 14) (size 15 to 20)
#    0.000    1.375    2.500    4.125    3.500    3.250 
#    0.000    0.625    0.000    1.500    0.000    0.000 
#    0.000    0.000    0.000    0.000    0.000    0.000 
#
# Total GULP energy -178253.592384 kJ/mol
# GULP energy per Si atom -5570.424762 kJ/mol
# Density = 1.968870 g / cm^3
# Si number density = 19.733619 Si / 1000 Ang^3
#
#
#
# Elastic Constant Matrix: (Units=GPa)
#
#
# Indices 1 2 3 4 5 6 
#
# 1 123.0644 16.2396 34.8526 0.0000 -3.9096 0.0000
# 2 16.2396 90.4628 11.6610 0.0000 -13.0095 0.0000
# 3 34.8526 11.6610 84.5569 0.0000 8.5065 0.0000
# 4 0.0000 0.0000 0.0000 -37.0157 0.0000 -1.2875
# 5 -3.9096 -13.0095 8.5065 0.0000 32.1429 0.0000
# 6 0.0000 0.0000 0.0000 -1.2875 0.0000 20.7252
#
#
#
# Elastic Compliance Matrix: (Units=1/GPa)
#
#
# Indices 1 2 3 4 5 6 
#
# 1 0.009421 -0.000923 -0.003938 0.000000 0.001815 0.000000
# 2 -0.000923 0.012222 -0.001841 0.000000 0.005322 0.000000
# 3 -0.003938 -0.001841 0.014205 0.000000 -0.004983 0.000000
# 4 0.000000 0.000000 0.000000 -0.026957 0.000000 -0.001675
# 5 0.001815 0.005322 -0.004983 0.000000 0.034805 0.000000
# 6 0.000000 0.000000 0.000000 -0.001675 0.000000 0.048146
#
#
# Mechanical properties :
#
#
# Convention : Reuss Voigt Hill
#
# Bulk Modulus (GPa) = 44.55370 47.06560 45.80965
# Shear Modulus (GPa) = 44.35521 18.85919 31.60720
#
# Velocity S-wave (km/s) = 4.74613 3.09477 4.00646
# Velocity P-wave (km/s) = 7.25679 6.05578 6.68331
#
# Compressibility (1/GPa) = 0.02244482
#
# Stress axis : x y z
#
# Youngs Moduli (GPa) = 106.15071 81.81635 70.39864
#
# Poissons Ratio (x) = 0.07548 0.27725
# Poissons Ratio (y) = 0.09793 0.12958
# Poissons Ratio (z) = 0.41805 0.15060
#
# Static dielectric constant tensor:
#      x y z
#    x 1.628630 0.000000 0.200730 
#    y 0.000000 1.743980 0.000000 
#    z 0.200730 0.000000 1.577830 
# 
# From -- ./inp_files/36391.got.cif
#   From: 2010.05.17/outbox.cif.g08.bks.cpg/sg10_19_cif.got.tgz:36391.got - 2010.06.03 11:33:40.
