data_PCOD9150908
_publ_section_title
;
Structure prediction by ZEFSAII (Michael W. Deem and Ramdas Pophale) SiO2 
 PCOD9150908
Probable space group: P 2/M
;
_chemical_formula_sum "Si O2"
_cell_formula_units_Z 28
_cell_length_a 10.211533
_cell_length_b 7.280329
_cell_length_c 27.060000
_cell_angle_alpha 90.000000
_cell_angle_beta 39.709733
_cell_angle_gamma 90.000000
_cell_volume 1285.291446
_symmetry_space_group_name_H-M "P 2/M"
_symmetry_group_IT_number 10
_symmetry_cell_setting 'monoclinic'
loop_
_space_group_symop_operation_xyz
x,y,z
-x,y,-z
-x,-y,-z
x,-y,z
loop_
_atom_site_type_symbol
_atom_site_label
_atom_site_fract_x
_atom_site_fract_y
_atom_site_fract_z
Si Si1 0.457278 0.721894 0.640392
Si Si2 0.998656 0.723292 0.752066
Si Si3 0.870196 0.000000 0.111935
Si Si4 0.412699 0.720066 0.079415
Si Si5 0.572731 0.281484 0.237874
Si Si6 0.316749 0.000000 0.943679
Si Si7 0.842575 0.723484 0.690135
Si Si8 0.888909 0.724128 0.481262
O O1 0.452560 0.500000 0.637302
O O2 0.497838 0.761988 0.686072
O O3 0.652077 0.783638 0.552247
O O4 0.229699 0.788059 0.693903
O O5 0.006399 0.500000 0.750036
O O6 0.824605 0.772777 0.842473
O O7 0.919685 0.782124 0.721173
O O8 0.779947 0.176582 0.165716
O O9 0.766919 0.000000 0.087524
O O10 0.112022 0.000000 0.036353
O O11 0.429672 0.500000 0.080571
O O12 0.547711 0.824431 0.080921
O O13 0.500000 0.767704 0.000000
O O14 0.601514 0.500000 0.226117
O O15 0.389727 0.223045 0.254795
O O16 0.843992 0.500000 0.689513
O O17 0.988854 0.782973 0.602781
O O18 0.891767 0.500000 0.480194
O O19 0.000000 0.779176 0.500000
#
# Coordination Sequence:
#
# PCOD9150908 Si02
#       8
#     4   4   2   4   4   2   4   4
#     4   9  17  29  50  79 113 152 196 246 292 343
#     4   9  18  31  49  81 114 145 197 248 292 352
#     4  11  26  40  60  91 123 151 200 250 297 366
#     4  10  22  41  66  89 118 160 201 245 302 365
#     4  10  20  37  60  83 115 161 199 241 296 351
#     4  11  25  44  60  90 124 153 194 252 302 363
#     4   9  16  28  51  78 111 156 198 240 291 350
#     4   9  14  24  44  76 113 153 198 236 284 346
#
# _framework density 21.784943999999999
#
# number of rings (size 3 to 8) (size 9 to 14) (size 15 to 20)
#    0.000    2.429    1.429    1.071    2.000    2.857 
#    0.000    4.286    0.000    1.714    0.000    0.000 
#    0.000    4.571    0.000    0.429    0.000    0.000 
#
# Total GULP energy -156495.522279 kJ/mol
# GULP energy per Si atom -5589.125796 kJ/mol
# Density = 2.173536 g / cm^3
# Si number density = 21.784944 Si / 1000 Ang^3
#
#
#
# Elastic Constant Matrix: (Units=GPa)
#
#
# Indices 1 2 3 4 5 6 
#
# 1 77.2238 2.6671 27.5514 0.0000 -14.8186 0.0000
# 2 2.6671 87.8280 12.3613 0.0000 -2.4635 0.0000
# 3 27.5514 12.3613 157.0765 0.0000 -16.2032 0.0000
# 4 0.0000 0.0000 0.0000 2.1334 0.0000 -1.5285
# 5 -14.8186 -2.4635 -16.2032 0.0000 38.8753 0.0000
# 6 0.0000 0.0000 0.0000 -1.5285 0.0000 2.9826
#
#
#
# Elastic Compliance Matrix: (Units=1/GPa)
#
#
# Indices 1 2 3 4 5 6 
#
# 1 0.014591 -0.000020 -0.002073 0.000000 0.004696 0.000000
# 2 -0.000020 0.011518 -0.000866 0.000000 0.000362 0.000000
# 3 -0.002073 -0.000866 0.007012 0.000000 0.002078 0.000000
# 4 0.000000 0.000000 0.000000 0.740696 0.000000 0.379582
# 5 0.004696 0.000362 0.002078 0.000000 0.028402 0.000000
# 6 0.000000 0.000000 0.000000 0.379582 0.000000 0.529800
#
#
# Mechanical properties :
#
#
# Convention : Reuss Voigt Hill
#
# Bulk Modulus (GPa) = 36.75829 45.25420 41.00624
# Shear Modulus (GPa) = 3.71194 27.43482 15.57338
#
# Velocity S-wave (km/s) = 1.30675 3.55258 2.67660
# Velocity P-wave (km/s) = 4.38026 6.13563 5.33070
#
# Compressibility (1/GPa) = 0.02720475
#
# Stress axis : x y z
#
# Youngs Moduli (GPa) = 68.53563 86.81708 142.60404
#
# Poissons Ratio (x) = 0.00170 0.29566
# Poissons Ratio (y) = 0.00134 0.12346
# Poissons Ratio (z) = 0.14209 0.07516
#
# Static dielectric constant tensor:
#      x y z
#    x 1.749470 0.000000 -0.000640 
#    y 0.000000 1.805230 0.000000 
#    z -0.000640 0.000000 1.775040 
# 
# From -- ./inp_files/92007.got.cif
#   From: 2010.05.17/outbox.cif.g08.bks.cpg/sg10_47_cif.got.tgz:92007.got - 2010.06.03 11:33:40.
