data_PCOD9150150
_publ_section_title
;
Structure prediction by ZEFSAII (Michael W. Deem and Ramdas Pophale) SiO2 
 PCOD9150150
Probable space group: P 2/M
;
_chemical_formula_sum "Si O2"
_cell_formula_units_Z 32
_cell_length_a 23.786751
_cell_length_b 7.816983
_cell_length_c 14.757125
_cell_angle_alpha 90.000000
_cell_angle_beta 31.315710
_cell_angle_gamma 90.000000
_cell_volume 1426.176809
_symmetry_space_group_name_H-M "P 2/M"
_symmetry_group_IT_number 10
_symmetry_cell_setting 'monoclinic'
loop_
_space_group_symop_operation_xyz
x,y,z
-x,y,-z
-x,-y,-z
x,-y,z
loop_
_atom_site_type_symbol
_atom_site_label
_atom_site_fract_x
_atom_site_fract_y
_atom_site_fract_z
Si Si1 0.716655 0.196117 0.130993
Si Si2 0.885571 0.790759 0.763124
Si Si3 0.552220 0.691784 0.213978
Si Si4 0.469103 0.793491 0.143036
Si Si5 0.862306 0.792012 0.597201
Si Si6 0.775142 0.792572 0.526415
Si Si7 0.334277 0.200430 0.602818
Si Si8 0.116066 0.297526 0.804080
O O1 0.625799 0.196567 0.178642
O O2 0.675508 0.271575 0.281635
O O3 0.744409 0.000000 0.116610
O O4 0.821007 0.274431 0.938653
O O5 0.834458 0.734349 0.737370
O O6 0.011572 0.747259 0.590295
O O7 0.880005 0.000000 0.771738
O O8 0.591640 0.500000 0.171517
O O9 0.548563 0.738686 0.113507
O O10 0.429233 0.707846 0.418019
O O11 0.346096 0.738255 0.332898
O O12 0.469920 0.000000 0.140985
O O13 0.500000 0.734318 0.000000
O O14 0.798364 0.733375 0.596935
O O15 0.854634 0.000000 0.608771
O O16 0.861625 0.733172 0.333120
O O17 0.777587 0.000000 0.522678
O O18 0.218094 0.216286 0.715226
O O19 0.365596 0.000000 0.561310
O O20 0.120247 0.500000 0.815806
O O21 0.000000 0.233586 0.000000
#
# Coordination Sequence:
#
# PCOD9150150 Si02
#       8
#     4   4   4   4   4   4   4   4
#     4  10  22  37  61  89 115 148 196 251 300 351
#     4   8  15  30  52  84 119 148 180 235 292 342
#     4  12  25  41  61  85 119 160 196 240 300 367
#     4  10  22  39  62  92 123 158 201 252 304 352
#     4   8  15  28  52  85 119 148 184 230 289 347
#     4  10  20  35  61  92 119 155 199 247 296 352
#     4  11  23  41  64  90 116 150 199 255 304 349
#     4  11  25  42  60  86 123 167 203 241 301 365
#
# _framework density 22.437609999999999
#
# number of rings (size 3 to 8) (size 9 to 14) (size 15 to 20)
#    0.000    2.000    1.250    3.000    3.500    3.750 
#    0.000    0.000    0.000    0.000    0.000    1.750 
#    0.000    0.000    0.000    0.000    0.000    0.000 
#
# Total GULP energy -178782.678287 kJ/mol
# GULP energy per Si atom -5586.958696 kJ/mol
# Density = 2.238654 g / cm^3
# Si number density = 22.437610 Si / 1000 Ang^3
#
#
#
# Elastic Constant Matrix: (Units=GPa)
#
#
# Indices 1 2 3 4 5 6 
#
# 1 71.8999 -5.5210 -19.8249 0.0000 22.2867 0.0000
# 2 -5.5210 39.3186 0.7977 0.0000 4.8181 0.0000
# 3 -19.8249 0.7977 53.4277 0.0000 18.4455 0.0000
# 4 0.0000 0.0000 0.0000 13.8502 0.0000 18.2260
# 5 22.2867 4.8181 18.4455 0.0000 37.6841 0.0000
# 6 0.0000 0.0000 0.0000 18.2260 0.0000 53.4981
#
#
#
# Elastic Compliance Matrix: (Units=1/GPa)
#
#
# Indices 1 2 3 4 5 6 
#
# 1 0.028463 0.006960 0.019947 0.000000 -0.027486 0.000000
# 2 0.006960 0.027577 0.005787 0.000000 -0.010475 0.000000
# 3 0.019947 0.005787 0.036534 0.000000 -0.030419 0.000000
# 4 0.000000 0.000000 0.000000 0.130876 0.000000 -0.044587
# 5 -0.027486 -0.010475 -0.030419 0.000000 0.059021 0.000000
# 6 0.000000 0.000000 0.000000 -0.044587 0.000000 0.033883
#
#
# Mechanical properties :
#
#
# Convention : Reuss Voigt Hill
#
# Bulk Modulus (GPa) = 6.33064 12.83888 9.58476
# Shear Modulus (GPa) = 16.46807 33.61943 25.04375
#
# Velocity S-wave (km/s) = 2.71209 3.87505 3.34451
# Velocity P-wave (km/s) = 3.55455 5.07502 4.38125
#
# Compressibility (1/GPa) = 0.15796183
#
# Stress axis : x y z
#
# Youngs Moduli (GPa) = 35.13388 36.26241 27.37178
#
# Poissons Ratio (x) = -0.25239 -0.54598
# Poissons Ratio (y) = -0.24454 -0.15841
# Poissons Ratio (z) = -0.70081 -0.20986
#
# Static dielectric constant tensor:
#      x y z
#    x 1.816660 0.000000 0.014950 
#    y 0.000000 1.833470 0.000000 
#    z 0.014950 0.000000 1.829580 
# 
# From -- ./inp_files/66573.got.cif
#   From: 2010.05.17/outbox.cif.g08.bks.cpg/sg10_34_cif.got.tgz:66573.got - 2010.06.03 11:33:40.
