data_PCOD9150811
_publ_section_title
;
Structure prediction by ZEFSAII (Michael W. Deem and Ramdas Pophale) SiO2 
 PCOD9150811
Probable space group: P 2/M
;
_chemical_formula_sum "Si O2"
_cell_formula_units_Z 24
_cell_length_a 4.948498
_cell_length_b 12.208750
_cell_length_c 15.800503
_cell_angle_alpha 90.000000
_cell_angle_beta 102.626708
_cell_angle_gamma 90.000000
_cell_volume 931.500278
_symmetry_space_group_name_H-M "P 2/M"
_symmetry_group_IT_number 10
_symmetry_cell_setting 'monoclinic'
loop_
_space_group_symop_operation_xyz
x,y,z
-x,y,-z
-x,-y,-z
x,-y,z
loop_
_atom_site_type_symbol
_atom_site_label
_atom_site_fract_x
_atom_site_fract_y
_atom_site_fract_z
Si Si1 0.796376 0.626599 0.565273
Si Si2 0.362302 0.158980 0.743935
Si Si3 0.326759 0.124151 0.402242
Si Si4 0.502690 0.614316 0.802611
Si Si5 0.911246 0.345616 0.085755
Si Si6 0.047175 0.883501 0.142516
O O1 0.500000 0.624124 0.500000
O O2 0.832317 0.500000 0.607245
O O3 0.810417 0.750398 0.611762
O O4 0.000000 0.633424 0.500000
O O5 0.455034 0.119033 0.659965
O O6 0.365972 0.289464 0.742437
O O7 0.087721 0.121077 0.772585
O O8 0.624360 0.131314 0.823665
O O9 0.500000 0.127751 0.500000
O O10 0.186283 0.000000 0.393605
O O11 0.436448 0.500000 0.757578
O O12 0.830701 0.627269 0.835300
O O13 0.367522 0.617994 0.887535
O O14 0.906470 0.214676 0.083727
O O15 0.000000 0.385402 0.000000
O O16 0.983721 0.000000 0.100457
#
# Coordination Sequence:
#
# PCOD9150811 Si02
#       6
#     4   4   4   4   4   4
#     4   9  19  36  55  77 108 143 178 221 278 340
#     4  10  22  38  56  81 112 147 191 236 282 342
#     4  10  21  37  60  89 117 148 192 246 299 348
#     4  10  21  37  57  81 112 152 190 227 278 338
#     4  10  21  35  55  87 117 143 185 234 280 334
#     4  10  20  37  58  78 109 152 189 226 278 339
#
# _framework density 25.764887999999999
#
# number of rings (size 3 to 8) (size 9 to 14) (size 15 to 20)
#    0.000    2.167    0.000    2.500    0.000    6.000 
#    0.000    3.333    0.000   14.000    0.000    0.000 
#    0.000    0.000    0.000    0.000    0.000    0.000 
#
# Total GULP energy -133947.043899 kJ/mol
# GULP energy per Si atom -5581.126829 kJ/mol
# Density = 2.570625 g / cm^3
# Si number density = 25.764888 Si / 1000 Ang^3
#
#
#
# Elastic Constant Matrix: (Units=GPa)
#
#
# Indices 1 2 3 4 5 6 
#
# 1 125.7497 8.8454 -0.2448 0.0000 -18.4337 0.0000
# 2 8.8454 294.3546 13.6342 0.0000 -3.8940 0.0000
# 3 -0.2448 13.6342 60.9177 0.0000 -23.0243 0.0000
# 4 0.0000 0.0000 0.0000 -169.0572 0.0000 88.1887
# 5 -18.4337 -3.8940 -23.0243 0.0000 33.0022 0.0000
# 6 0.0000 0.0000 0.0000 88.1887 0.0000 -65.6447
#
#
#
# Elastic Compliance Matrix: (Units=1/GPa)
#
#
# Indices 1 2 3 4 5 6 
#
# 1 0.008985 -0.000304 0.002699 0.000000 0.006866 0.000000
# 2 -0.000304 0.003444 -0.000927 0.000000 -0.000410 0.000000
# 3 0.002699 -0.000927 0.023309 0.000000 0.017660 0.000000
# 4 0.000000 0.000000 0.000000 -0.019770 0.000000 -0.026559
# 5 0.006866 -0.000410 0.017660 0.000000 0.046408 0.000000
# 6 0.000000 0.000000 0.000000 -0.026559 0.000000 -0.050914
#
#
# Mechanical properties :
#
#
# Convention : Reuss Voigt Hill
#
# Bulk Modulus (GPa) = 25.85710 58.38795 42.12252
# Shear Modulus (GPa) = 233.44623 -9.75413 111.84605
#
# Velocity S-wave (km/s) = 9.52906 -1.94783 6.59579
# Velocity P-wave (km/s) = 11.45113 4.20146 8.62498
#
# Compressibility (1/GPa) = 0.03867410
#
# Stress axis : x y z
#
# Youngs Moduli (GPa) = 111.29055 290.36681 42.90254
#
# Poissons Ratio (x) = 0.08833 -0.11581
# Poissons Ratio (y) = 0.03386 0.03978
# Poissons Ratio (z) = -0.30041 0.26921
#
# Static dielectric constant tensor:
#      x y z
#    x 1.924540 0.000000 0.000720 
#    y 0.000000 2.172350 0.000000 
#    z 0.000720 0.000000 2.011980 
# 
# From -- ./inp_files/73183.got.cif
#   From: 2010.05.17/outbox.cif.g08.bks.cpg/sg10_37_cif.got.tgz:73183.got - 2010.06.03 11:33:40.
