data_PCOD9150012
_publ_section_title
;
Structure prediction by ZEFSAII (Michael W. Deem and Ramdas Pophale) SiO2 
 PCOD9150012
Probable space group: P 2/M
;
_chemical_formula_sum "Si O2"
_cell_formula_units_Z 28
_cell_length_a 23.540014
_cell_length_b 8.480031
_cell_length_c 18.899410
_cell_angle_alpha 90.000000
_cell_angle_beta 17.355542
_cell_angle_gamma 90.000000
_cell_volume 1125.397771
_symmetry_space_group_name_H-M "P 2/M"
_symmetry_group_IT_number 10
_symmetry_cell_setting 'monoclinic'
loop_
_space_group_symop_operation_xyz
x,y,z
-x,y,-z
-x,-y,-z
x,-y,z
loop_
_atom_site_type_symbol
_atom_site_label
_atom_site_fract_x
_atom_site_fract_y
_atom_site_fract_z
Si Si1 0.279127 0.815859 0.241849
Si Si2 0.420334 0.172735 0.442532
Si Si3 0.333559 0.689412 0.023203
Si Si4 0.140614 0.165676 0.898976
Si Si5 0.768927 0.691989 0.460518
Si Si6 0.505167 0.500000 0.611407
Si Si7 0.799572 0.500000 0.147570
Si Si8 0.984764 0.686257 0.701545
O O1 0.261539 0.764622 0.181540
O O2 0.149992 0.713091 0.447257
O O3 0.228842 0.000000 0.310405
O O4 0.500000 0.795770 0.000000
O O5 0.342550 0.174682 0.616090
O O6 0.253548 0.201747 0.583177
O O7 0.528734 0.338545 0.307806
O O8 0.504383 0.000000 0.330791
O O9 0.308550 0.500000 0.056930
O O10 0.202380 0.752239 0.114889
O O11 0.558784 0.718209 0.745516
O O12 0.104986 0.332399 0.977498
O O13 0.138690 0.000000 0.941510
O O14 0.000000 0.156078 0.000000
O O15 0.779834 0.500000 0.434021
O O16 0.928986 0.744313 0.326439
O O17 0.720326 0.500000 0.322912
O O18 0.368221 0.500000 0.708427
O O19 0.954122 0.500000 0.749973
#
# Coordination Sequence:
#
# PCOD9150012 Si02
#       8
#     4   4   4   4   4   2   2   4
#     4  11  22  35  54  83 115 147 187 236 292 344
#     4  10  20  35  58  81 109 152 193 234 286 346
#     4  10  21  37  59  83 109 145 189 235 290 349
#     4   9  18  33  54  83 116 147 188 237 288 346
#     4  10  20  37  58  78 113 152 189 240 287 340
#     4   9  18  34  52  80 112 139 184 230 277 337
#     4   9  17  30  54  80 109 145 178 224 283 338
#     4  10  21  37  59  84 108 145 191 233 288 349
#
# _framework density 24.880092999999999
#
# number of rings (size 3 to 8) (size 9 to 14) (size 15 to 20)
#    0.000    2.143    2.143    1.071    0.000    4.571 
#    0.000    4.286    0.000    1.714    0.000    0.000 
#    0.000    0.000    0.000    0.000    0.000    0.000 
#
# Total GULP energy -156457.519962 kJ/mol
# GULP energy per Si atom -5587.768570 kJ/mol
# Density = 2.482347 g / cm^3
# Si number density = 24.880093 Si / 1000 Ang^3
#
#
#
# Elastic Constant Matrix: (Units=GPa)
#
#
# Indices 1 2 3 4 5 6 
#
# 1 134.4683 29.6977 31.2344 0.0000 -15.6101 0.0000
# 2 29.6977 164.6496 21.4487 0.0000 -12.2656 0.0000
# 3 31.2344 21.4487 40.7313 0.0000 4.3246 0.0000
# 4 0.0000 0.0000 0.0000 -11.6260 0.0000 -35.2301
# 5 -15.6101 -12.2656 4.3246 0.0000 43.1564 0.0000
# 6 0.0000 0.0000 0.0000 -35.2301 0.0000 -79.7705
#
#
#
# Elastic Compliance Matrix: (Units=1/GPa)
#
#
# Indices 1 2 3 4 5 6 
#
# 1 0.009822 -0.000450 -0.007741 0.000000 0.004200 0.000000
# 2 -0.000450 0.006759 -0.003437 0.000000 0.002103 0.000000
# 3 -0.007741 -0.003437 0.033049 0.000000 -0.007089 0.000000
# 4 0.000000 0.000000 0.000000 0.254247 0.000000 -0.112287
# 5 0.004200 0.002103 -0.007089 0.000000 0.025999 0.000000
# 6 0.000000 0.000000 0.000000 -0.112287 0.000000 0.037055
#
#
# Mechanical properties :
#
#
# Convention : Reuss Voigt Hill
#
# Bulk Modulus (GPa) = 37.91573 56.06784 46.99179
# Shear Modulus (GPa) = 12.53201 7.51656 10.02428
#
# Velocity S-wave (km/s) = 2.24675 1.74002 2.00942
# Velocity P-wave (km/s) = 4.69074 5.15956 4.93072
#
# Compressibility (1/GPa) = 0.02637428
#
# Stress axis : x y z
#
# Youngs Moduli (GPa) = 101.81521 147.94834 30.25765
#
# Poissons Ratio (x) = 0.06662 0.23421
# Poissons Ratio (y) = 0.04585 0.10400
# Poissons Ratio (z) = 0.78810 0.50853
#
# Static dielectric constant tensor:
#      x y z
#    x 1.961000 0.000000 0.025990 
#    y 0.000000 1.964280 0.000000 
#    z 0.025990 0.000000 2.077880 
# 
# From -- ./inp_files/86491.got.cif
#   From: 2010.05.17/outbox.cif.g08.bks.cpg/sg10_44_cif.got.tgz:86491.got - 2010.06.03 11:33:40.
