data_PCOD9150326
_publ_section_title
;
Structure prediction by ZEFSAII (Michael W. Deem and Ramdas Pophale) SiO2 
 PCOD9150326
Probable space group: P 2/M
;
_chemical_formula_sum "Si O2"
_cell_formula_units_Z 28
_cell_length_a 7.371010
_cell_length_b 12.912530
_cell_length_c 15.003540
_cell_angle_alpha 90.000000
_cell_angle_beta 69.186599
_cell_angle_gamma 90.000000
_cell_volume 1334.824341
_symmetry_space_group_name_H-M "P 2/M"
_symmetry_group_IT_number 10
_symmetry_cell_setting 'monoclinic'
loop_
_space_group_symop_operation_xyz
x,y,z
-x,y,-z
-x,-y,-z
x,-y,z
loop_
_atom_site_type_symbol
_atom_site_label
_atom_site_fract_x
_atom_site_fract_y
_atom_site_fract_z
Si Si1 0.712906 0.230343 0.448884
Si Si2 0.093149 0.612542 0.684636
Si Si3 0.821513 0.241262 0.846206
Si Si4 0.471319 0.723840 0.782828
Si Si5 0.246452 0.383370 0.400179
Si Si6 0.827535 0.120043 0.260478
Si Si7 0.228927 0.381571 0.979513
O O1 0.500000 0.184983 0.500000
O O2 0.769336 0.283718 0.532104
O O3 0.838724 0.154471 0.364042
O O4 0.716042 0.331574 0.384562
O O5 0.135544 0.500000 0.711503
O O6 0.971265 0.674844 0.778087
O O7 0.948497 0.610218 0.625142
O O8 0.643639 0.223615 0.810386
O O9 0.967484 0.144241 0.823917
O O10 0.742251 0.296097 0.948387
O O11 0.583837 0.645646 0.698022
O O12 0.338755 0.808930 0.756166
O O13 0.341318 0.657065 0.872914
O O14 0.273745 0.500000 0.434721
O O15 0.779245 0.000000 0.263546
O O16 0.284183 0.500000 0.994643
O O17 0.000000 0.381786 0.000000
#
# Coordination Sequence:
#
# PCOD9150326 Si02
#       7
#     4   4   4   4   4   4   4
#     4  11  21  36  55  86 116 154 202 253 308 368
#     4   9  19  34  56  84 123 166 199 242 298 364
#     4  10  22  41  66  91 126 162 210 253 305 365
#     4  11  22  42  64  92 128 166 209 254 304 366
#     4  10  20  36  57  86 125 166 203 243 298 372
#     4  11  25  46  65  87 119 157 212 273 323 361
#     4  11  22  38  66 102 138 171 198 235 297 369
#
# _framework density 20.976542999999999
#
# number of rings (size 3 to 8) (size 9 to 14) (size 15 to 20)
#    0.000    1.571    2.857    2.143    0.000    5.429 
#    0.000    1.429    0.000    5.143    0.000    0.000 
#    0.000    0.000    0.000    0.000    0.000    0.000 
#
# Total GULP energy -156153.534873 kJ/mol
# GULP energy per Si atom -5576.911960 kJ/mol
# Density = 2.092880 g / cm^3
# Si number density = 20.976543 Si / 1000 Ang^3
#
#
#
# Elastic Constant Matrix: (Units=GPa)
#
#
# Indices 1 2 3 4 5 6 
#
# 1 88.3320 21.9754 20.7877 0.0000 2.7865 0.0000
# 2 21.9754 88.3976 29.3181 0.0000 3.9115 0.0000
# 3 20.7877 29.3181 116.3750 0.0000 -15.5054 0.0000
# 4 0.0000 0.0000 0.0000 14.8897 0.0000 1.9482
# 5 2.7865 3.9115 -15.5054 0.0000 37.3685 0.0000
# 6 0.0000 0.0000 0.0000 1.9482 0.0000 11.9441
#
#
#
# Elastic Compliance Matrix: (Units=1/GPa)
#
#
# Indices 1 2 3 4 5 6 
#
# 1 0.012390 -0.002424 -0.001791 0.000000 -0.001413 0.000000
# 2 -0.002424 0.013088 -0.003200 0.000000 -0.002517 0.000000
# 3 -0.001791 -0.003200 0.010354 0.000000 0.004765 0.000000
# 4 0.000000 0.000000 0.000000 0.068625 0.000000 -0.011193
# 5 -0.001413 -0.002517 0.004765 0.000000 0.029106 0.000000
# 6 0.000000 0.000000 0.000000 -0.011193 0.000000 0.085549
#
#
# Mechanical properties :
#
#
# Convention : Reuss Voigt Hill
#
# Bulk Modulus (GPa) = 47.61204 48.58523 48.09863
# Shear Modulus (GPa) = 20.75201 27.57536 24.16368
#
# Velocity S-wave (km/s) = 3.14872 3.62965 3.39770
# Velocity P-wave (km/s) = 5.99719 6.38575 6.19452
#
# Compressibility (1/GPa) = 0.02100309
#
# Stress axis : x y z
#
# Youngs Moduli (GPa) = 80.71077 76.40854 96.58404
#
# Poissons Ratio (x) = 0.18518 0.17297
# Poissons Ratio (y) = 0.19561 0.30902
# Poissons Ratio (z) = 0.14455 0.24447
#
# Static dielectric constant tensor:
#      x y z
#    x 1.805990 0.000000 0.039640 
#    y 0.000000 1.751380 0.000000 
#    z 0.039640 0.000000 1.801500 
# 
# From -- ./inp_files/28504.got.cif
#   From: 2010.05.17/outbox.cif.g08.bks.cpg/sg10_15_cif.got.tgz:28504.got - 2010.06.03 11:33:40.
