data_PCOD9150019
_publ_section_title
;
Structure prediction by ZEFSAII (Michael W. Deem and Ramdas Pophale) SiO2 
 PCOD9150019
Probable space group: P 2/M
;
_chemical_formula_sum "Si O2"
_cell_formula_units_Z 28
_cell_length_a 18.373601
_cell_length_b 18.976252
_cell_length_c 7.417013
_cell_angle_alpha 90.000000
_cell_angle_beta 145.818516
_cell_angle_gamma 90.000000
_cell_volume 1452.873873
_symmetry_space_group_name_H-M "P 2/M"
_symmetry_group_IT_number 10
_symmetry_cell_setting 'monoclinic'
loop_
_space_group_symop_operation_xyz
x,y,z
-x,y,-z
-x,-y,-z
x,-y,z
loop_
_atom_site_type_symbol
_atom_site_label
_atom_site_fract_x
_atom_site_fract_y
_atom_site_fract_z
Si Si1 0.981545 0.267183 0.750126
Si Si2 0.602166 0.423983 0.871483
Si Si3 0.491741 0.277138 0.192584
Si Si4 0.095183 0.577486 0.525453
Si Si5 0.656464 0.081451 0.824261
Si Si6 0.252115 0.797903 0.257067
Si Si7 0.263338 0.177125 0.716912
O O1 0.944259 0.348769 0.645075
O O2 0.864181 0.214851 0.467346
O O3 0.000000 0.259854 0.000000
O O4 0.115656 0.240497 0.939849
O O5 0.500000 0.425529 0.500000
O O6 0.592627 0.500000 0.948008
O O7 0.559709 0.355768 0.892560
O O8 0.751576 0.417167 0.116028
O O9 0.633477 0.258085 0.553452
O O10 0.500000 0.262193 0.000000
O O11 0.382811 0.223914 0.035695
O O12 0.080456 0.500000 0.400882
O O13 0.000000 0.574112 0.500000
O O14 0.500000 0.089712 0.500000
O O15 0.719362 0.133967 0.806069
O O16 0.685238 0.000000 0.843389
O O17 0.711467 0.103098 0.134328
O O18 0.258243 0.818910 0.486013
#
# Coordination Sequence:
#
# PCOD9150019 Si02
#       7
#     4   4   4   4   4   4   4
#     4  10  22  39  61  87 116 157 202 243 299 353
#     4  10  22  37  54  81 117 155 197 250 303 347
#     4  10  20  35  58  83 112 152 197 245 294 343
#     4  10  22  38  55  81 116 155 200 248 298 350
#     4  11  24  40  64  95 120 156 199 235 296 364
#     4  10  23  39  61  93 123 153 199 249 292 352
#     4  10  21  41  61  90 123 153 197 248 295 348
#
# _framework density 19.272148999999999
#
# number of rings (size 3 to 8) (size 9 to 14) (size 15 to 20)
#    0.000    1.857    2.857    0.000    6.000    1.143 
#    0.000    2.857    0.000    2.571    0.000    0.000 
#    0.000    0.000    0.000    0.000    0.000    0.000 
#
# Total GULP energy -155976.437841 kJ/mol
# GULP energy per Si atom -5570.587066 kJ/mol
# Density = 1.922828 g / cm^3
# Si number density = 19.272149 Si / 1000 Ang^3
#
#
#
# Elastic Constant Matrix: (Units=GPa)
#
#
# Indices 1 2 3 4 5 6 
#
# 1 55.2264 29.6303 50.9046 0.0000 18.9926 0.0000
# 2 29.6303 130.5802 52.8391 0.0000 25.8379 0.0000
# 3 50.9046 52.8391 95.6366 0.0000 39.7484 0.0000
# 4 0.0000 0.0000 0.0000 -3.7013 0.0000 13.7767
# 5 18.9926 25.8379 39.7484 0.0000 35.1290 0.0000
# 6 0.0000 0.0000 0.0000 13.7767 0.0000 18.5751
#
#
#
# Elastic Compliance Matrix: (Units=1/GPa)
#
#
# Indices 1 2 3 4 5 6 
#
# 1 0.035918 -0.000699 -0.020529 0.000000 0.004323 0.000000
# 2 -0.000699 0.009956 -0.004233 0.000000 -0.002155 0.000000
# 3 -0.020529 -0.004233 0.033630 0.000000 -0.023840 0.000000
# 4 0.000000 0.000000 0.000000 -0.071843 0.000000 0.053285
# 5 0.004323 -0.002155 -0.023840 0.000000 0.054690 0.000000
# 6 0.000000 0.000000 0.000000 0.053285 0.000000 0.014316
#
#
# Mechanical properties :
#
#
# Convention : Reuss Voigt Hill
#
# Bulk Modulus (GPa) = 34.98542 60.91013 47.94778
# Shear Modulus (GPa) = 36.46593 19.87184 28.16888
#
# Velocity S-wave (km/s) = 4.35461 3.21458 3.82728
# Velocity P-wave (km/s) = 6.59366 6.74181 6.66814
#
# Compressibility (1/GPa) = 0.02858333
#
# Stress axis : x y z
#
# Youngs Moduli (GPa) = 27.84154 100.44168 29.73512
#
# Poissons Ratio (x) = 0.07018 0.61042
# Poissons Ratio (y) = 0.01945 0.12587
# Poissons Ratio (z) = 0.57155 0.42516
#
# Static dielectric constant tensor:
#      x y z
#    x 1.693050 0.000000 0.002330 
#    y 0.000000 1.709510 0.000000 
#    z 0.002330 0.000000 1.704290 
# 
# From -- ./inp_files/35307.got.cif
#   From: 2010.05.17/outbox.cif.g08.bks.cpg/sg10_18_cif.got.tgz:35307.got - 2010.06.03 11:33:40.
