data_PCOD9150164
_publ_section_title
;
Structure prediction by ZEFSAII (Michael W. Deem and Ramdas Pophale) SiO2 
 PCOD9150164
Probable space group: P 2/M
;
_chemical_formula_sum "Si O2"
_cell_formula_units_Z 24
_cell_length_a 5.877754
_cell_length_b 14.367369
_cell_length_c 14.117844
_cell_angle_alpha 90.000000
_cell_angle_beta 89.533831
_cell_angle_gamma 90.000000
_cell_volume 1192.182261
_symmetry_space_group_name_H-M "P 2/M"
_symmetry_group_IT_number 10
_symmetry_cell_setting 'monoclinic'
loop_
_space_group_symop_operation_xyz
x,y,z
-x,y,-z
-x,-y,-z
x,-y,z
loop_
_atom_site_type_symbol
_atom_site_label
_atom_site_fract_x
_atom_site_fract_y
_atom_site_fract_z
Si Si1 0.339943 0.735157 0.251772
Si Si2 0.029088 0.231649 0.889623
Si Si3 0.702773 0.891838 0.243111
Si Si4 0.744959 0.399200 0.053594
Si Si5 0.943792 0.781911 0.394858
Si Si6 0.611104 0.390529 0.393492
O O1 0.493887 0.823393 0.225551
O O2 0.461701 0.649260 0.305523
O O3 0.186565 0.718819 0.159189
O O4 0.167722 0.771029 0.332579
O O5 0.102706 0.141694 0.830825
O O6 0.229202 0.308761 0.882408
O O7 0.000000 0.208597 0.000000
O O8 0.788066 0.858703 0.345536
O O9 0.654189 0.000000 0.236600
O O10 0.738186 0.500000 0.101739
O O11 0.500000 0.392665 0.000000
O O12 0.000000 0.398573 0.000000
O O13 0.821066 0.681161 0.393713
O O14 0.000000 0.808330 0.500000
O O15 0.500000 0.381470 0.500000
O O16 0.663288 0.500000 0.380467
#
# Coordination Sequence:
#
# PCOD9150164 Si02
#       6
#     4   4   4   4   4   4
#     4  10  22  40  60  89 128 168 206 264 317 388
#     4  10  23  40  67  90 125 170 216 270 329 383
#     4  10  24  42  62  92 123 160 214 275 333 393
#     4   9  19  36  62  93 125 164 212 264 321 387
#     4  10  20  39  64  90 127 166 206 257 319 386
#     4  10  20  35  62  96 130 168 208 252 308 382
#
# _framework density 20.131149000000001
#
# number of rings (size 3 to 8) (size 9 to 14) (size 15 to 20)
#    0.000    2.167    1.667    0.000    4.667    5.000 
#    0.000    8.333    0.000    0.000    0.000    0.000 
#    0.000    0.000    0.000    0.000    0.000    0.000 
#
# Total GULP energy -133642.211264 kJ/mol
# GULP energy per Si atom -5568.425469 kJ/mol
# Density = 2.008533 g / cm^3
# Si number density = 20.131149 Si / 1000 Ang^3
#
#
#
# Elastic Constant Matrix: (Units=GPa)
#
#
# Indices 1 2 3 4 5 6 
#
# 1 70.6876 33.0973 34.3537 0.0000 5.8001 0.0000
# 2 33.0973 152.6823 43.1143 0.0000 1.5110 0.0000
# 3 34.3537 43.1143 133.4396 0.0000 18.5395 0.0000
# 4 0.0000 0.0000 0.0000 40.0013 0.0000 -10.9567
# 5 5.8001 1.5110 18.5395 0.0000 34.2454 0.0000
# 6 0.0000 0.0000 0.0000 -10.9567 0.0000 12.9685
#
#
#
# Elastic Compliance Matrix: (Units=1/GPa)
#
#
# Indices 1 2 3 4 5 6 
#
# 1 0.017164 -0.002752 -0.003398 0.000000 -0.000946 0.000000
# 2 -0.002752 0.007681 -0.001937 0.000000 0.001176 0.000000
# 3 -0.003398 -0.001937 0.009627 0.000000 -0.004551 0.000000
# 4 0.000000 0.000000 0.000000 0.032526 0.000000 0.027481
# 5 -0.000946 0.001176 -0.004551 0.000000 0.031773 0.000000
# 6 0.000000 0.000000 0.000000 0.027481 0.000000 0.100328
#
#
# Mechanical properties :
#
#
# Convention : Reuss Voigt Hill
#
# Bulk Modulus (GPa) = 54.64831 64.21558 59.43194
# Shear Modulus (GPa) = 22.58627 33.85931 28.22279
#
# Velocity S-wave (km/s) = 3.35320 4.10559 3.74832
# Velocity P-wave (km/s) = 6.49592 7.37851 6.95124
#
# Compressibility (1/GPa) = 0.01829883
#
# Stress axis : x y z
#
# Youngs Moduli (GPa) = 58.26010 130.18608 103.87505
#
# Poissons Ratio (x) = 0.35824 0.35301
# Poissons Ratio (y) = 0.16032 0.20118
# Poissons Ratio (z) = 0.19799 0.25214
#
# Static dielectric constant tensor:
#      x y z
#    x 1.964640 0.000000 0.023820 
#    y 0.000000 1.681870 0.000000 
#    z 0.023820 0.000000 1.750390 
# 
# From -- ./inp_files/9294.got.cif
#   From: 2010.05.17/outbox.cif.g08.bks.cpg/sg10_5_cif.got.tgz:9294.got - 2010.06.03 11:33:40.
