data_PCOD9150000
_publ_section_title
;
Structure prediction by ZEFSAII (Michael W. Deem and Ramdas Pophale) SiO2 
 PCOD9150000
Probable space group: P 2/M
;
_chemical_formula_sum "Si O2"
_cell_formula_units_Z 18
_cell_length_a 10.463506
_cell_length_b 13.180494
_cell_length_c 12.822811
_cell_angle_alpha 90.000000
_cell_angle_beta 148.471038
_cell_angle_gamma 90.000000
_cell_volume 924.773322
_symmetry_space_group_name_H-M "P 2/M"
_symmetry_group_IT_number 10
_symmetry_cell_setting 'monoclinic'
loop_
_space_group_symop_operation_xyz
x,y,z
-x,y,-z
-x,-y,-z
x,-y,z
loop_
_atom_site_type_symbol
_atom_site_label
_atom_site_fract_x
_atom_site_fract_y
_atom_site_fract_z
Si Si1 0.715608 0.119246 0.830505
Si Si2 0.500000 0.253116 0.500000
Si Si3 0.622375 0.771122 0.977500
Si Si4 0.270584 0.392811 0.642911
Si Si5 0.923374 0.617109 0.719136
O O1 0.538904 0.182467 0.629469
O O2 0.669562 0.000000 0.783410
O O3 0.684024 0.148710 0.930120
O O4 0.000000 0.139801 0.000000
O O5 0.260428 0.324832 0.331948
O O6 0.851159 0.692875 0.148746
O O7 0.500000 0.809925 0.000000
O O8 0.416096 0.700498 0.785153
O O9 0.387063 0.500000 0.756844
O O10 0.238105 0.390498 0.497410
O O11 0.000000 0.391201 0.500000
O O12 0.989478 0.500000 0.794047
#
# Coordination Sequence:
#
# PCOD9150000 Si02
#       5
#     4   2   4   4   4
#     4  11  25  45  67  90 119 164 218 269 318 367
#     4  12  22  44  68  90 122 168 216 262 304 372
#     4  12  23  39  65  95 132 164 206 257 317 373
#     4  10  20  35  57  88 128 170 205 240 296 375
#     4  11  23  37  60  96 133 168 205 248 305 375
#
# _framework density 19.464229
#
# number of rings (size 3 to 8) (size 9 to 14) (size 15 to 20)
#    0.000    0.889    6.667    1.333    0.000    1.333 
#    0.000    1.111    0.000    2.000    0.000    0.000 
#    0.000    0.000    0.000    0.000    0.000    0.000 
#
# Total GULP energy -100349.321060 kJ/mol
# GULP energy per Si atom -5574.962281 kJ/mol
# Density = 1.941993 g / cm^3
# Si number density = 19.464229 Si / 1000 Ang^3
#
#
#
# Elastic Constant Matrix: (Units=GPa)
#
#
# Indices 1 2 3 4 5 6 
#
# 1 116.2672 44.2612 19.5008 0.0000 1.7635 0.0000
# 2 44.2612 64.9007 13.9135 0.0000 -1.5805 0.0000
# 3 19.5008 13.9135 44.9760 0.0000 1.1813 0.0000
# 4 0.0000 0.0000 0.0000 227.9656 0.0000 -45.5205
# 5 1.7635 -1.5805 1.1813 0.0000 30.5712 0.0000
# 6 0.0000 0.0000 0.0000 -45.5205 0.0000 32.3513
#
#
#
# Elastic Compliance Matrix: (Units=1/GPa)
#
#
# Indices 1 2 3 4 5 6 
#
# 1 0.011977 -0.007587 -0.002820 0.000000 -0.000974 0.000000
# 2 -0.007587 0.021343 -0.003357 0.000000 0.001671 0.000000
# 3 -0.002820 -0.003357 0.024521 0.000000 -0.000958 0.000000
# 4 0.000000 0.000000 0.000000 0.006101 0.000000 0.008584
# 5 -0.000974 0.001671 -0.000958 0.000000 0.032890 0.000000
# 6 0.000000 0.000000 0.000000 0.008584 0.000000 0.042989
#
#
# Mechanical properties :
#
#
# Convention : Reuss Voigt Hill
#
# Bulk Modulus (GPa) = 32.99032 42.38832 37.68932
# Shear Modulus (GPa) = 28.17654 68.07552 48.12603
#
# Velocity S-wave (km/s) = 3.80887 5.92036 4.97786
# Velocity P-wave (km/s) = 6.02738 8.28003 7.24183
#
# Compressibility (1/GPa) = 0.03031192
#
# Stress axis : x y z
#
# Youngs Moduli (GPa) = 83.49314 46.85417 40.78219
#
# Poissons Ratio (x) = 0.35549 0.11502
# Poissons Ratio (y) = 0.63348 0.13689
# Poissons Ratio (z) = 0.23548 0.15727
#
# Static dielectric constant tensor:
#      x y z
#    x 1.778380 0.000000 -0.001560 
#    y 0.000000 1.679550 0.000000 
#    z -0.001560 0.000000 1.672770 
# 
# From -- ./inp_files/38745.got.cif
#   From: 2010.05.17/outbox.cif.g08.bks.cpg/sg10_20_cif.got.tgz:38745.got - 2010.06.03 11:33:40.
