data_PCOD9150275
_publ_section_title
;
Structure prediction by ZEFSAII (Michael W. Deem and Ramdas Pophale) SiO2 
 PCOD9150275
Probable space group: P 2/M
;
_chemical_formula_sum "Si O2"
_cell_formula_units_Z 32
_cell_length_a 9.407757
_cell_length_b 19.987141
_cell_length_c 11.512937
_cell_angle_alpha 90.000000
_cell_angle_beta 49.229814
_cell_angle_gamma 90.000000
_cell_volume 1639.498040
_symmetry_space_group_name_H-M "P 2/M"
_symmetry_group_IT_number 10
_symmetry_cell_setting 'monoclinic'
loop_
_space_group_symop_operation_xyz
x,y,z
-x,y,-z
-x,-y,-z
x,-y,z
loop_
_atom_site_type_symbol
_atom_site_label
_atom_site_fract_x
_atom_site_fract_y
_atom_site_fract_z
Si Si1 0.284333 0.301710 0.147960
Si Si2 0.677197 0.343258 0.488821
Si Si3 0.637033 0.218085 0.679536
Si Si4 0.219887 0.203408 0.846828
Si Si5 0.955296 0.673626 0.156529
Si Si6 0.192513 0.074793 0.466607
Si Si7 0.219359 0.423180 0.348578
Si Si8 0.290381 0.072629 0.664895
O O1 0.255102 0.246854 0.265231
O O2 0.255845 0.373796 0.222611
O O3 0.144134 0.297720 0.114036
O O4 0.500000 0.295858 0.000000
O O5 0.500000 0.347126 0.500000
O O6 0.687101 0.269688 0.547085
O O7 0.854897 0.366028 0.314280
O O8 0.665982 0.393545 0.603658
O O9 0.410266 0.217909 0.817542
O O10 0.693666 0.141531 0.625346
O O11 0.198740 0.267911 0.776619
O O12 0.262585 0.134518 0.761282
O O13 0.000000 0.197848 0.000000
O O14 0.000000 0.648983 0.000000
O O15 0.158570 0.077923 0.622713
O O16 0.000000 0.076817 0.500000
O O17 0.279447 0.000000 0.399343
O O18 0.265806 0.500000 0.299718
O O19 0.000000 0.418443 0.500000
O O20 0.500000 0.074908 0.500000
O O21 0.263393 0.000000 0.735224
#
# Coordination Sequence:
#
# PCOD9150275 Si02
#       8
#     4   4   4   4   4   4   4   4
#     4  11  24  41  64  92 126 164 204 249 309 370
#     4  11  22  38  65  93 124 163 206 252 304 359
#     4  11  23  37  62  93 120 160 211 257 305 369
#     4  11  22  36  55  84 120 152 192 249 307 361
#     4  11  23  38  59  91 125 158 194 252 304 357
#     4  10  22  37  57  85 119 156 204 260 310 363
#     4  10  22  42  67  95 125 162 208 253 298 355
#     4  10  20  36  57  80 109 151 199 247 300 364
#
# _framework density 19.518167999999999
#
# number of rings (size 3 to 8) (size 9 to 14) (size 15 to 20)
#    0.000    1.375    3.750    2.250    5.250    0.750 
#    0.000    0.000    0.000    1.125    0.000    0.000 
#    0.000    0.000    0.000    0.000    0.000    0.000 
#
# Total GULP energy -178215.348414 kJ/mol
# GULP energy per Si atom -5569.229638 kJ/mol
# Density = 1.947374 g / cm^3
# Si number density = 19.518168 Si / 1000 Ang^3
#
#
#
# Elastic Constant Matrix: (Units=GPa)
#
#
# Indices 1 2 3 4 5 6 
#
# 1 124.6955 7.0566 8.2629 0.0000 4.6938 0.0000
# 2 7.0566 107.8969 6.9338 0.0000 9.5795 0.0000
# 3 8.2629 6.9338 57.2001 0.0000 2.5084 0.0000
# 4 0.0000 0.0000 0.0000 40.0108 0.0000 -1.6783
# 5 4.6938 9.5795 2.5084 0.0000 22.8903 0.0000
# 6 0.0000 0.0000 0.0000 -1.6783 0.0000 9.8121
#
#
#
# Elastic Compliance Matrix: (Units=1/GPa)
#
#
# Indices 1 2 3 4 5 6 
#
# 1 0.008163 -0.000339 -0.001076 0.000000 -0.001414 0.000000
# 2 -0.000339 0.009697 -0.000956 0.000000 -0.003884 0.000000
# 3 -0.001076 -0.000956 0.017812 0.000000 -0.001331 0.000000
# 4 0.000000 0.000000 0.000000 0.025174 0.000000 0.004306
# 5 -0.001414 -0.003884 -0.001331 0.000000 0.045748 0.000000
# 6 0.000000 0.000000 0.000000 0.004306 0.000000 0.102651
#
#
# Mechanical properties :
#
#
# Convention : Reuss Voigt Hill
#
# Bulk Modulus (GPa) = 32.33188 37.14433 34.73810
# Shear Modulus (GPa) = 22.29184 32.37859 27.33522
#
# Velocity S-wave (km/s) = 3.38317 4.07737 3.74639
# Velocity P-wave (km/s) = 5.64466 6.42173 6.04569
#
# Compressibility (1/GPa) = 0.03092922
#
# Stress axis : x y z
#
# Youngs Moduli (GPa) = 122.50003 103.12957 56.14131
#
# Poissons Ratio (x) = 0.03498 0.06041
# Poissons Ratio (y) = 0.04155 0.05368
# Poissons Ratio (z) = 0.13182 0.09860
#
# Static dielectric constant tensor:
#      x y z
#    x 1.704630 0.000000 0.000620 
#    y 0.000000 1.703390 0.000000 
#    z 0.000620 0.000000 1.740530 
# 
# From -- ./inp_files/43602.got.cif
#   From: 2010.05.17/outbox.cif.g08.bks.cpg/sg10_22_cif.got.tgz:43602.got - 2010.06.03 11:33:40.
