data_PCOD9150458
_publ_section_title
;
Structure prediction by ZEFSAII (Michael W. Deem and Ramdas Pophale) SiO2 
 PCOD9150458
Probable space group: P 2/M
;
_chemical_formula_sum "Si O2"
_cell_formula_units_Z 28
_cell_length_a 30.117026
_cell_length_b 8.767680
_cell_length_c 9.585416
_cell_angle_alpha 90.000000
_cell_angle_beta 142.728194
_cell_angle_gamma 90.000000
_cell_volume 1532.820774
_symmetry_space_group_name_H-M "P 2/M"
_symmetry_group_IT_number 10
_symmetry_cell_setting 'monoclinic'
loop_
_space_group_symop_operation_xyz
x,y,z
-x,y,-z
-x,-y,-z
x,-y,z
loop_
_atom_site_type_symbol
_atom_site_label
_atom_site_fract_x
_atom_site_fract_y
_atom_site_fract_z
Si Si1 0.928188 0.315567 0.408299
Si Si2 0.636340 0.317313 0.494623
Si Si3 0.503567 0.683772 0.670669
Si Si4 0.799262 0.817067 0.586483
Si Si5 0.795753 0.817128 0.900716
Si Si6 0.369145 0.817476 0.823780
Si Si7 0.929894 0.684018 0.735025
O O1 0.923812 0.500000 0.394108
O O2 0.934281 0.266797 0.584803
O O3 0.000000 0.269866 0.500000
O O4 0.856576 0.248487 0.155513
O O5 0.642766 0.500000 0.507535
O O6 0.571627 0.274870 0.438574
O O7 0.714805 0.246353 0.729610
O O8 0.616645 0.257232 0.291339
O O9 0.500000 0.726839 0.500000
O O10 0.511603 0.500000 0.699664
O O11 0.571708 0.759700 0.918858
O O12 0.813361 0.773320 0.783616
O O13 0.714523 0.776826 0.344408
O O14 0.856609 0.740869 0.626844
O O15 0.806212 0.000000 0.594013
O O16 0.794163 0.000000 0.903320
O O17 0.372364 0.000000 0.816929
O O18 0.930237 0.500000 0.736939
O O19 0.000000 0.736984 0.000000
#
# Coordination Sequence:
#
# PCOD9150458 Si02
#       7
#     4   4   4   4   4   4   4
#     4  10  21  37  57  81 110 144 182 223 269 322
#     4  10  20  36  59  83 108 142 183 224 269 322
#     4  10  22  38  55  79 111 145 183 227 273 322
#     4   9  20  37  55  79 109 141 177 218 267 322
#     4  10  21  37  57  82 111 142 180 224 271 323
#     4  10  21  37  57  82 111 143 182 224 269 325
#     4  10  21  36  56  82 108 139 181 224 266 315
#
# _framework density 18.266974999999999
#
# number of rings (size 3 to 8) (size 9 to 14) (size 15 to 20)
#    0.000    2.143    0.000    3.429    0.000   10.000 
#    0.000    4.286    0.000    0.000    0.000    0.000 
#    0.000    0.000    0.000    0.000    0.000    0.000 
#
# Total GULP energy -156386.617696 kJ/mol
# GULP energy per Si atom -5585.236346 kJ/mol
# Density = 1.822540 g / cm^3
# Si number density = 18.266975 Si / 1000 Ang^3
#
#
#
# Elastic Constant Matrix: (Units=GPa)
#
#
# Indices 1 2 3 4 5 6 
#
# 1 183.5955 45.9913 110.8078 0.0000 -0.1248 0.0000
# 2 45.9913 24.7594 44.9696 0.0000 -2.4050 0.0000
# 3 110.8078 44.9696 182.4009 0.0000 -11.3490 0.0000
# 4 0.0000 0.0000 0.0000 16.5407 0.0000 -5.1750
# 5 -0.1248 -2.4050 -11.3490 0.0000 13.9382 0.0000
# 6 0.0000 0.0000 0.0000 -5.1750 0.0000 4.7037
#
#
#
# Elastic Compliance Matrix: (Units=1/GPa)
#
#
# Indices 1 2 3 4 5 6 
#
# 1 0.011384 -0.015393 -0.003455 0.000000 -0.005367 0.000000
# 2 -0.015393 0.094015 -0.013511 0.000000 0.005083 0.000000
# 3 -0.003455 -0.013511 0.011340 0.000000 0.006871 0.000000
# 4 0.000000 0.000000 0.000000 0.092190 0.000000 0.101427
# 5 -0.005367 0.005083 0.006871 0.000000 0.078169 0.000000
# 6 0.000000 0.000000 0.000000 0.101427 0.000000 0.324191
#
#
# Mechanical properties :
#
#
# Convention : Reuss Voigt Hill
#
# Bulk Modulus (GPa) = 19.22294 88.25481 53.73888
# Shear Modulus (GPa) = 7.21139 19.63567 13.42353
#
# Velocity S-wave (km/s) = 1.98906 3.28216 2.71376
# Velocity P-wave (km/s) = 3.97760 7.92352 6.26911
#
# Compressibility (1/GPa) = 0.05202117
#
# Stress axis : x y z
#
# Youngs Moduli (GPa) = 87.84089 10.63654 88.18477
#
# Poissons Ratio (x) = 0.16373 0.30466
# Poissons Ratio (y) = 1.35214 1.19150
# Poissons Ratio (z) = 0.30347 0.14371
#
# Static dielectric constant tensor:
#      x y z
#    x 1.608770 0.000000 -0.002110 
#    y 0.000000 1.615310 0.000000 
#    z -0.002110 0.000000 1.601260 
# 
# From -- ./inp_files/31514.got.cif
#   From: 2010.05.17/outbox.cif.g08.bks.cpg/sg10_16_cif.got.tgz:31514.got - 2010.06.03 11:33:40.
