data_PCOD9150255
_publ_section_title
;
Structure prediction by ZEFSAII (Michael W. Deem and Ramdas Pophale) SiO2 
 PCOD9150255
Probable space group: P 2/M
;
_chemical_formula_sum "Si O2"
_cell_formula_units_Z 20
_cell_length_a 11.481354
_cell_length_b 18.251117
_cell_length_c 13.685261
_cell_angle_alpha 90.000000
_cell_angle_beta 158.904278
_cell_angle_gamma 90.000000
_cell_volume 1032.167657
_symmetry_space_group_name_H-M "P 2/M"
_symmetry_group_IT_number 10
_symmetry_cell_setting 'monoclinic'
loop_
_space_group_symop_operation_xyz
x,y,z
-x,y,-z
-x,-y,-z
x,-y,z
loop_
_atom_site_type_symbol
_atom_site_label
_atom_site_fract_x
_atom_site_fract_y
_atom_site_fract_z
Si Si1 0.887207 0.155117 0.801148
Si Si2 0.363730 0.751404 0.046929
Si Si3 0.106667 0.500000 0.695296
Si Si4 0.930641 0.340601 0.562156
Si Si5 0.020600 0.000000 0.633026
Si Si6 0.197290 0.000000 0.336400
Si Si7 0.500000 0.868000 0.000000
O O1 0.500000 0.164408 0.500000
O O2 0.076775 0.213113 0.884453
O O3 0.974812 0.075188 0.826678
O O4 0.000000 0.158880 0.000000
O O5 0.552313 0.815679 0.135063
O O6 0.196294 0.702612 0.832144
O O7 0.594371 0.703730 0.297714
O O8 0.000000 0.500000 0.500000
O O9 0.959819 0.424465 0.621621
O O10 0.500000 0.500000 0.000000
O O11 0.000000 0.341813 0.500000
O O12 0.000000 0.000000 0.500000
O O13 0.745389 0.000000 0.501455
O O14 0.213921 0.924322 0.801825
O O15 0.500000 0.000000 0.500000
#
# Coordination Sequence:
#
# PCOD9150255 Si02
#       7
#     4   4   2   4   2   2   2
#     4  11  24  43  62  86 117 162 216 272 315 371
#     4  12  23  38  63  91 122 165 205 258 315 376
#     4  10  20  36  56  90 136 172 198 238 294 391
#     4  11  21  36  59  93 128 164 197 239 312 380
#     4  11  25  41  59  85 123 174 211 268 330 381
#     4  10  22  41  61  87 115 167 222 268 326 382
#     4  11  24  38  54  87 126 158 210 253 322 382
#
# _framework density 19.376698000000001
#
# number of rings (size 3 to 8) (size 9 to 14) (size 15 to 20)
#    0.000    1.000    4.000    3.900    2.800    3.200 
#    0.000    0.000    0.000    0.000    0.000   14.000 
#    0.000    0.000    0.000    0.000    0.000    0.000 
#
# Total GULP energy -111543.770346 kJ/mol
# GULP energy per Si atom -5577.188517 kJ/mol
# Density = 1.933260 g / cm^3
# Si number density = 19.376698 Si / 1000 Ang^3
#
#
#
# Elastic Constant Matrix: (Units=GPa)
#
#
# Indices 1 2 3 4 5 6 
#
# 1 111.4351 34.0537 24.6483 0.0000 3.0272 0.0000
# 2 34.0537 157.1957 55.1379 0.0000 7.7316 0.0000
# 3 24.6483 55.1379 112.7657 0.0000 -5.1117 0.0000
# 4 0.0000 0.0000 0.0000 32.8834 0.0000 -3.5690
# 5 3.0272 7.7316 -5.1117 0.0000 30.0282 0.0000
# 6 0.0000 0.0000 0.0000 -3.5690 0.0000 8.4664
#
#
#
# Elastic Compliance Matrix: (Units=1/GPa)
#
#
# Indices 1 2 3 4 5 6 
#
# 1 0.009792 -0.001590 -0.001400 0.000000 -0.000816 0.000000
# 2 -0.001590 0.008149 -0.003754 0.000000 -0.002577 0.000000
# 3 -0.001400 -0.003754 0.011146 0.000000 0.003005 0.000000
# 4 0.000000 0.000000 0.000000 0.031868 0.000000 0.013434
# 5 -0.000816 -0.002577 0.003005 0.000000 0.034559 0.000000
# 6 0.000000 0.000000 0.000000 0.013434 0.000000 0.123776
#
#
# Mechanical properties :
#
#
# Convention : Reuss Voigt Hill
#
# Bulk Modulus (GPa) = 64.10657 67.67513 65.89085
# Shear Modulus (GPa) = 21.01032 32.11272 26.56152
#
# Velocity S-wave (km/s) = 3.29646 4.07539 3.70644
# Velocity P-wave (km/s) = 6.90254 7.55956 7.23851
#
# Compressibility (1/GPa) = 0.01559902
#
# Stress axis : x y z
#
# Youngs Moduli (GPa) = 102.12922 122.70741 89.72078
#
# Poissons Ratio (x) = 0.19511 0.12559
# Poissons Ratio (y) = 0.16239 0.33681
# Poissons Ratio (z) = 0.14295 0.46065
#
# Static dielectric constant tensor:
#      x y z
#    x 1.968480 0.000000 0.047860 
#    y 0.000000 1.730260 0.000000 
#    z 0.047860 0.000000 1.719490 
# 
# From -- ./inp_files/51862.got.cif
#   From: 2010.05.17/outbox.cif.g08.bks.cpg/sg10_26_cif.got.tgz:51862.got - 2010.06.03 11:33:40.
