data_PCOD9150247
_publ_section_title
;
Structure prediction by ZEFSAII (Michael W. Deem and Ramdas Pophale) SiO2 
 PCOD9150247
Probable space group: P 2/M
;
_chemical_formula_sum "Si O2"
_cell_formula_units_Z 30
_cell_length_a 16.279627
_cell_length_b 7.697805
_cell_length_c 9.661033
_cell_angle_alpha 90.000000
_cell_angle_beta 101.771866
_cell_angle_gamma 90.000000
_cell_volume 1185.231751
_symmetry_space_group_name_H-M "P 2/M"
_symmetry_group_IT_number 10
_symmetry_cell_setting 'monoclinic'
loop_
_space_group_symop_operation_xyz
x,y,z
-x,y,-z
-x,-y,-z
x,-y,z
loop_
_atom_site_type_symbol
_atom_site_label
_atom_site_fract_x
_atom_site_fract_y
_atom_site_fract_z
Si Si1 0.005349 0.303467 0.168144
Si Si2 0.086261 0.000000 0.684174
Si Si3 0.206629 0.707943 0.697135
Si Si4 0.602895 0.298732 0.271183
Si Si5 0.365906 0.210437 0.421936
Si Si6 0.425234 0.202980 0.139052
Si Si7 0.251880 0.304774 0.019160
Si Si8 0.188368 0.803215 0.282251
O O1 0.971788 0.500000 0.179742
O O2 0.102875 0.300235 0.246332
O O3 0.962681 0.153247 0.243132
O O4 0.000000 0.268959 0.000000
O O5 0.139082 0.843655 0.618484
O O6 0.198463 0.500000 0.663465
O O7 0.302538 0.771263 0.705945
O O8 0.202827 0.732431 0.863025
O O9 0.607779 0.500000 0.239427
O O10 0.584908 0.273752 0.428077
O O11 0.524649 0.225395 0.158715
O O12 0.403225 0.265954 0.287594
O O13 0.268369 0.269530 0.392939
O O14 0.366790 0.000000 0.423330
O O15 0.351679 0.291171 0.025734
O O16 0.407697 0.000000 0.122454
O O17 0.233241 0.500000 0.056480
O O18 0.224004 0.189527 0.136964
O O19 0.171385 0.000000 0.319758
#
# Coordination Sequence:
#
# PCOD9150247 Si02
#       8
#     4   2   4   4   4   4   4   4
#     4  11  23  37  59  96 129 155 194 246 296 360
#     4  12  23  38  64  82 115 166 194 242 297 362
#     4  10  25  41  57  87 120 160 209 253 291 348
#     4  11  23  39  58  83 117 155 204 253 297 349
#     4   9  20  37  59  87 120 152 193 248 298 354
#     4  10  21  36  58  88 119 151 197 250 301 358
#     4  10  20  36  56  83 124 160 193 241 295 353
#     4  10  20  36  59  91 124 155 191 238 299 364
#
# _framework density 25.311506000000001
#
# number of rings (size 3 to 8) (size 9 to 14) (size 15 to 20)
#    0.000    1.733    0.667    4.200    5.600    7.467 
#    0.000    2.667    0.000    1.600    0.000    2.800 
#    0.000    0.000    0.000    0.000    0.000    0.000 
#
# Total GULP energy -167267.375765 kJ/mol
# GULP energy per Si atom -5575.579192 kJ/mol
# Density = 2.525390 g / cm^3
# Si number density = 25.311506 Si / 1000 Ang^3
#
#
#
# Elastic Constant Matrix: (Units=GPa)
#
#
# Indices 1 2 3 4 5 6 
#
# 1 130.0493 27.3777 11.2334 0.0000 -0.7068 0.0000
# 2 27.3777 75.2266 17.0755 0.0000 -2.5467 0.0000
# 3 11.2334 17.0755 55.6951 0.0000 11.3475 0.0000
# 4 0.0000 0.0000 0.0000 22.1621 0.0000 -8.8987
# 5 -0.7068 -2.5467 11.3475 0.0000 30.8255 0.0000
# 6 0.0000 0.0000 0.0000 -8.8987 0.0000 44.9159
#
#
#
# Elastic Compliance Matrix: (Units=1/GPa)
#
#
# Indices 1 2 3 4 5 6 
#
# 1 0.008363 -0.002836 -0.000874 0.000000 0.000279 0.000000
# 2 -0.002836 0.015514 -0.004792 0.000000 0.002981 0.000000
# 3 -0.000874 -0.004792 0.021281 0.000000 -0.008250 0.000000
# 4 0.000000 0.000000 0.000000 0.049022 0.000000 0.009712
# 5 0.000279 0.002981 -0.008250 0.000000 0.035730 0.000000
# 6 0.000000 0.000000 0.000000 0.009712 0.000000 0.024188
#
#
# Mechanical properties :
#
#
# Convention : Reuss Voigt Hill
#
# Bulk Modulus (GPa) = 35.51798 41.37158 38.44478
# Shear Modulus (GPa) = 27.70280 33.26632 30.48456
#
# Velocity S-wave (km/s) = 3.31187 3.62923 3.47418
# Velocity P-wave (km/s) = 5.35607 5.82599 5.59597
#
# Compressibility (1/GPa) = 0.02815476
#
# Stress axis : x y z
#
# Youngs Moduli (GPa) = 119.56825 64.45881 46.98980
#
# Poissons Ratio (x) = 0.18279 0.04108
# Poissons Ratio (y) = 0.33908 0.22516
# Poissons Ratio (z) = 0.10454 0.30887
#
# Static dielectric constant tensor:
#      x y z
#    x 2.081830 0.000000 -0.047750 
#    y 0.000000 1.914760 0.000000 
#    z -0.047750 0.000000 2.035860 
# 
# From -- ./inp_files/49280.got.cif
#   From: 2010.05.17/outbox.cif.g08.bks.cpg/sg10_25_cif.got.tgz:49280.got - 2010.06.03 11:33:40.
