data_PCOD9150840
_publ_section_title
;
Structure prediction by ZEFSAII (Michael W. Deem and Ramdas Pophale) SiO2 
 PCOD9150840
Probable space group: P 2/M
;
_chemical_formula_sum "Si O2"
_cell_formula_units_Z 26
_cell_length_a 12.939501
_cell_length_b 13.470853
_cell_length_c 9.713541
_cell_angle_alpha 90.000000
_cell_angle_beta 120.775618
_cell_angle_gamma 90.000000
_cell_volume 1454.699227
_symmetry_space_group_name_H-M "P 2/M"
_symmetry_group_IT_number 10
_symmetry_cell_setting 'monoclinic'
loop_
_space_group_symop_operation_xyz
x,y,z
-x,y,-z
-x,-y,-z
x,-y,z
loop_
_atom_site_type_symbol
_atom_site_label
_atom_site_fract_x
_atom_site_fract_y
_atom_site_fract_z
Si Si1 0.988733 0.618120 0.772035
Si Si2 0.217377 0.885982 0.706369
Si Si3 0.807516 0.684110 0.877299
Si Si4 0.275679 0.887187 0.070390
Si Si5 0.465706 0.386277 0.317059
Si Si6 0.000000 0.740528 0.500000
Si Si7 0.529159 0.795495 0.179887
O O1 0.980134 0.500000 0.751762
O O2 0.875519 0.656970 0.783521
O O3 0.995103 0.672535 0.631438
O O4 0.106588 0.644702 0.942512
O O5 0.346256 0.854204 0.733482
O O6 0.115908 0.811210 0.587470
O O7 0.190025 0.000000 0.652640
O O8 0.229697 0.879421 0.881171
O O9 0.788187 0.801841 0.884879
O O10 0.676684 0.634363 0.795697
O O11 0.417451 0.860314 0.159939
O O12 0.257361 0.000000 0.105223
O O13 0.500000 0.371787 0.500000
O O14 0.493173 0.500000 0.298118
O O15 0.532343 0.305696 0.268457
O O16 0.500000 0.773033 0.000000
#
# Coordination Sequence:
#
# PCOD9150840 Si02
#       7
#     4   4   4   4   4   2   4
#     4  11  23  40  61  82 112 155 196 238 283 334
#     4  10  20  37  58  84 118 153 185 233 293 337
#     4  10  20  40  61  84 114 152 195 232 282 348
#     4   9  17  35  62  88 113 147 190 237 281 338
#     4  10  21  36  57  85 118 152 184 232 290 337
#     4  12  24  38  58  88 116 148 194 244 280 336
#     4   9  19  35  59  85 113 148 192 232 277 344
#
# _framework density 17.87311
#
# number of rings (size 3 to 8) (size 9 to 14) (size 15 to 20)
#    0.000    2.000    1.538    2.769    2.154    2.154 
#    0.000    3.846    0.000    2.308    0.000    0.000 
#    0.000    0.000    0.000    0.000    0.000    0.000 
#
# Total GULP energy -145173.653109 kJ/mol
# GULP energy per Si atom -5583.602043 kJ/mol
# Density = 1.783243 g / cm^3
# Si number density = 17.873110 Si / 1000 Ang^3
#
#
#
# Elastic Constant Matrix: (Units=GPa)
#
#
# Indices 1 2 3 4 5 6 
#
# 1 74.7500 62.2459 38.6257 0.0000 -3.4169 0.0000
# 2 62.2459 176.7144 51.8859 0.0000 -12.9577 0.0000
# 3 38.6257 51.8859 54.7820 0.0000 -8.8105 0.0000
# 4 0.0000 0.0000 0.0000 1.1817 0.0000 -2.0109
# 5 -3.4169 -12.9577 -8.8105 0.0000 21.2237 0.0000
# 6 0.0000 0.0000 0.0000 -2.0109 0.0000 21.0804
#
#
#
# Elastic Compliance Matrix: (Units=1/GPa)
#
#
# Indices 1 2 3 4 5 6 
#
# 1 0.024011 -0.004995 -0.012931 0.000000 -0.004552 0.000000
# 2 -0.004995 0.008944 -0.004501 0.000000 0.002788 0.000000
# 3 -0.012931 -0.004501 0.033066 0.000000 0.008896 0.000000
# 4 0.000000 0.000000 0.000000 1.010231 0.000000 0.096367
# 5 -0.004552 0.002788 0.008896 0.000000 0.051780 0.000000
# 6 0.000000 0.000000 0.000000 0.096367 0.000000 0.056630
#
#
# Mechanical properties :
#
#
# Convention : Reuss Voigt Hill
#
# Bulk Modulus (GPa) = 47.24386 67.97349 57.60867
# Shear Modulus (GPa) = 4.04344 18.92975 11.48659
#
# Velocity S-wave (km/s) = 1.50573 3.25794 2.53785
# Velocity P-wave (km/s) = 5.43261 7.22952 6.39450
#
# Compressibility (1/GPa) = 0.02116677
#
# Stress axis : x y z
#
# Youngs Moduli (GPa) = 41.64773 111.80353 30.24261
#
# Poissons Ratio (x) = 0.55841 0.39107
# Poissons Ratio (y) = 0.20801 0.13613
# Poissons Ratio (z) = 0.53855 0.50328
#
# Static dielectric constant tensor:
#      x y z
#    x 1.592990 0.000000 0.008410 
#    y 0.000000 1.592250 0.000000 
#    z 0.008410 0.000000 1.594200 
# 
# From -- ./inp_files/25111.got.cif
#   From: 2010.05.17/outbox.cif.g08.bks.cpg/sg10_13_cif.got.tgz:25111.got - 2010.06.03 11:33:40.
