data_PCOD9150999
_publ_section_title
;
Structure prediction by ZEFSAII (Michael W. Deem and Ramdas Pophale) SiO2 
 PCOD9150999
Probable space group: P 2/M
;
_chemical_formula_sum "Si O2"
_cell_formula_units_Z 26
_cell_length_a 10.173545
_cell_length_b 13.405507
_cell_length_c 16.612496
_cell_angle_alpha 90.000000
_cell_angle_beta 141.193621
_cell_angle_gamma 90.000000
_cell_volume 1419.853730
_symmetry_space_group_name_H-M "P 2/M"
_symmetry_group_IT_number 10
_symmetry_cell_setting 'monoclinic'
loop_
_space_group_symop_operation_xyz
x,y,z
-x,y,-z
-x,-y,-z
x,-y,z
loop_
_atom_site_type_symbol
_atom_site_label
_atom_site_fract_x
_atom_site_fract_y
_atom_site_fract_z
Si Si1 0.900161 0.117774 0.683373
Si Si2 0.500000 0.259621 0.500000
Si Si3 0.720379 0.611023 0.153511
Si Si4 0.166301 0.882593 0.647763
Si Si5 0.501606 0.718360 0.191003
Si Si6 0.920801 0.737542 0.112893
Si Si7 0.326921 0.380098 0.265671
O O1 0.696202 0.187196 0.573821
O O2 0.061582 0.132081 0.685871
O O3 0.000109 0.156594 0.815236
O O4 0.849081 0.000000 0.661885
O O5 0.438617 0.330242 0.396130
O O6 0.806172 0.500000 0.201844
O O7 0.659278 0.656862 0.209220
O O8 0.869788 0.677649 0.170656
O O9 0.500000 0.606674 0.000000
O O10 0.376409 0.820415 0.734854
O O11 0.000000 0.852652 0.500000
O O12 0.207294 0.000000 0.658351
O O13 0.447868 0.654651 0.243636
O O14 0.288042 0.740200 0.039952
O O15 0.099994 0.673908 0.154547
O O16 0.310512 0.500000 0.263219
#
# Coordination Sequence:
#
# PCOD9150999 Si02
#       7
#     4   2   4   4   4   4   4
#     4  10  20  37  61  87 116 156 199 240 294 355
#     4  10  22  40  62  86 118 156 198 246 292 350
#     4   9  17  31  52  78 111 148 185 227 279 338
#     4  10  21  37  59  84 115 156 199 244 294 347
#     4  11  21  36  58  86 119 150 197 245 292 348
#     4  10  21  36  56  87 118 154 193 241 293 351
#     4  11  23  39  61  86 118 159 199 242 295 352
#
# _framework density 18.311745999999999
#
# number of rings (size 3 to 8) (size 9 to 14) (size 15 to 20)
#    0.000    1.846    1.538    2.769    0.000    3.077 
#    0.000    4.615    0.000    6.462    0.000    0.000 
#    0.000    0.000    0.000    0.000    0.000    0.000 
#
# Total GULP energy -145082.277679 kJ/mol
# GULP energy per Si atom -5580.087603 kJ/mol
# Density = 1.827007 g / cm^3
# Si number density = 18.311746 Si / 1000 Ang^3
#
#
#
# Elastic Constant Matrix: (Units=GPa)
#
#
# Indices 1 2 3 4 5 6 
#
# 1 89.9495 38.7287 16.1498 0.0000 -3.0684 0.0000
# 2 38.7287 110.1825 52.0347 0.0000 2.3203 0.0000
# 3 16.1498 52.0347 84.7199 0.0000 -2.3227 0.0000
# 4 0.0000 0.0000 0.0000 16.3964 0.0000 -2.8104
# 5 -3.0684 2.3203 -2.3227 0.0000 21.7058 0.0000
# 6 0.0000 0.0000 0.0000 -2.8104 0.0000 17.2169
#
#
#
# Elastic Compliance Matrix: (Units=1/GPa)
#
#
# Indices 1 2 3 4 5 6 
#
# 1 0.013243 -0.004996 0.000612 0.000000 0.002472 0.000000
# 2 -0.004996 0.014775 -0.008209 0.000000 -0.003164 0.000000
# 3 0.000612 -0.008209 0.016805 0.000000 0.002762 0.000000
# 4 0.000000 0.000000 0.000000 0.062745 0.000000 0.010242
# 5 0.002472 -0.003164 0.002762 0.000000 0.047054 0.000000
# 6 0.000000 0.000000 0.000000 0.010242 0.000000 0.059754
#
#
# Mechanical properties :
#
#
# Convention : Reuss Voigt Hill
#
# Bulk Modulus (GPa) = 50.92631 55.40871 53.16751
# Shear Modulus (GPa) = 20.31625 22.92639 21.62132
#
# Velocity S-wave (km/s) = 3.33448 3.54221 3.43991
# Velocity P-wave (km/s) = 6.53423 6.85958 6.69888
#
# Compressibility (1/GPa) = 0.01963621
#
# Stress axis : x y z
#
# Youngs Moduli (GPa) = 75.51279 67.67981 59.50620
#
# Poissons Ratio (x) = 0.33811 -0.03640
# Poissons Ratio (y) = 0.37724 0.48851
# Poissons Ratio (z) = -0.04619 0.55562
#
# Static dielectric constant tensor:
#      x y z
#    x 1.621320 0.000000 -0.004230 
#    y 0.000000 1.628360 0.000000 
#    z -0.004230 0.000000 1.623970 
# 
# From -- ./inp_files/62101.got.cif
#   From: 2010.05.17/outbox.cif.g08.bks.cpg/sg10_32_cif.got.tgz:62101.got - 2010.06.03 11:33:40.
