data_PCOD9150806
_publ_section_title
;
Structure prediction by ZEFSAII (Michael W. Deem and Ramdas Pophale) SiO2 
 PCOD9150806
Probable space group: P 2/M
;
_chemical_formula_sum "Si O2"
_cell_formula_units_Z 32
_cell_length_a 9.161015
_cell_length_b 25.176136
_cell_length_c 15.003083
_cell_angle_alpha 90.000000
_cell_angle_beta 28.700859
_cell_angle_gamma 90.000000
_cell_volume 1661.760689
_symmetry_space_group_name_H-M "P 2/M"
_symmetry_group_IT_number 10
_symmetry_cell_setting 'monoclinic'
loop_
_space_group_symop_operation_xyz
x,y,z
-x,y,-z
-x,-y,-z
x,-y,z
loop_
_atom_site_type_symbol
_atom_site_label
_atom_site_fract_x
_atom_site_fract_y
_atom_site_fract_z
Si Si1 0.275068 0.825787 0.538395
Si Si2 0.650362 0.942042 0.157969
Si Si3 0.803696 0.370394 0.696489
Si Si4 0.254493 0.057132 0.551704
Si Si5 0.666314 0.438782 0.149053
Si Si6 0.724021 0.561106 0.459674
Si Si7 0.363852 0.838383 0.296242
Si Si8 0.279358 0.249527 0.201234
O O1 0.500000 0.819419 0.500000
O O2 0.111413 0.884055 0.634280
O O3 0.461868 0.827881 0.345564
O O4 0.036329 0.778576 0.657098
O O5 0.439760 0.943359 0.359402
O O6 0.532023 0.890524 0.170119
O O7 0.620766 0.000000 0.129544
O O8 0.000000 0.935898 0.000000
O O9 0.496281 0.401549 0.835696
O O10 0.758782 0.309671 0.747080
O O11 0.000000 0.371620 0.500000
O O12 0.990563 0.401552 0.672568
O O13 0.500000 0.056560 0.500000
O O14 0.085723 0.000000 0.647014
O O15 0.684983 0.500000 0.106854
O O16 0.465945 0.439252 0.346465
O O17 0.000000 0.421050 0.000000
O O18 0.500000 0.578286 0.500000
O O19 0.817371 0.500000 0.390985
O O20 0.404385 0.787332 0.213823
O O21 0.000000 0.848300 0.500000
O O22 0.500000 0.247545 0.000000
#
# Coordination Sequence:
#
# PCOD9150806 Si02
#       8
#     4   4   4   4   4   4   4   4
#     4   9  18  35  58  79 101 136 179 216 260 322
#     4   9  17  29  49  78 105 129 164 211 261 315
#     4  10  20  37  58  77 107 148 184 219 264 318
#     4   8  14  26  47  75 103 129 161 205 257 316
#     4   9  18  34  57  85 114 142 175 217 265 315
#     4   9  18  33  56  86 115 144 177 212 256 316
#     4   9  19  36  54  73 104 141 173 211 265 321
#     4  11  24  39  53  74 106 140 181 229 271 310
#
# _framework density 19.256684
#
# number of rings (size 3 to 8) (size 9 to 14) (size 15 to 20)
#    0.000    2.750    0.000    1.500    0.000    6.250 
#    0.000    5.000    0.000    4.500    0.000    0.000 
#    0.000    0.000    0.000    0.000    0.000    0.000 
#
# Total GULP energy -178335.238035 kJ/mol
# GULP energy per Si atom -5572.976189 kJ/mol
# Density = 1.921285 g / cm^3
# Si number density = 19.256684 Si / 1000 Ang^3
#
#
#
# Elastic Constant Matrix: (Units=GPa)
#
#
# Indices 1 2 3 4 5 6 
#
# 1 122.8548 88.4479 14.4009 0.0000 -8.0693 0.0000
# 2 88.4479 179.5895 39.4705 0.0000 -28.2839 0.0000
# 3 14.4009 39.4705 28.6469 0.0000 -12.0159 0.0000
# 4 0.0000 0.0000 0.0000 0.2345 0.0000 0.8942
# 5 -8.0693 -28.2839 -12.0159 0.0000 18.3160 0.0000
# 6 0.0000 0.0000 0.0000 0.8942 0.0000 23.7506
#
#
#
# Elastic Compliance Matrix: (Units=1/GPa)
#
#
# Indices 1 2 3 4 5 6 
#
# 1 0.013083 -0.007611 0.001929 0.000000 -0.004725 0.000000
# 2 -0.007611 0.013135 -0.009893 0.000000 0.010441 0.000000
# 3 0.001929 -0.009893 0.057279 0.000000 0.023150 0.000000
# 4 0.000000 0.000000 0.000000 4.978572 0.000000 -0.187443
# 5 -0.004725 0.010441 0.023150 0.000000 0.083825 0.000000
# 6 0.000000 0.000000 0.000000 -0.187443 0.000000 0.049162
#
#
# Mechanical properties :
#
#
# Convention : Reuss Voigt Hill
#
# Bulk Modulus (GPa) = 19.10355 68.41442 43.75898
# Shear Modulus (GPa) = 0.95353 21.04502 10.99928
#
# Velocity S-wave (km/s) = 0.70445 3.30944 2.39256
# Velocity P-wave (km/s) = 3.25633 7.08576 5.51415
#
# Compressibility (1/GPa) = 0.05234630
#
# Stress axis : x y z
#
# Youngs Moduli (GPa) = 76.43510 76.13016 17.45843
#
# Poissons Ratio (x) = 0.57945 -0.03367
# Poissons Ratio (y) = 0.58177 0.17271
# Poissons Ratio (z) = -0.14741 0.75313
#
# Static dielectric constant tensor:
#      x y z
#    x 1.683130 0.000000 0.003370 
#    y 0.000000 1.701170 0.000000 
#    z 0.003370 0.000000 1.680080 
# 
# From -- ./inp_files/62666.got.cif
#   From: 2010.05.17/outbox.cif.g08.bks.cpg/sg10_32_cif.got.tgz:62666.got - 2010.06.03 11:33:40.
