data_PCOD9150675
_publ_section_title
;
Structure prediction by ZEFSAII (Michael W. Deem and Ramdas Pophale) SiO2 
 PCOD9150675
Probable space group: P 2/M
;
_chemical_formula_sum "Si O2"
_cell_formula_units_Z 28
_cell_length_a 13.994623
_cell_length_b 8.653185
_cell_length_c 13.980127
_cell_angle_alpha 90.000000
_cell_angle_beta 119.978341
_cell_angle_gamma 90.000000
_cell_volume 1466.471693
_symmetry_space_group_name_H-M "P 2/M"
_symmetry_group_IT_number 10
_symmetry_cell_setting 'monoclinic'
loop_
_space_group_symop_operation_xyz
x,y,z
-x,y,-z
-x,-y,-z
x,-y,z
loop_
_atom_site_type_symbol
_atom_site_label
_atom_site_fract_x
_atom_site_fract_y
_atom_site_fract_z
Si Si1 0.165309 0.686986 0.327296
Si Si2 0.689084 0.314548 0.948960
Si Si3 0.544709 0.183849 0.237140
Si Si4 0.877701 0.185256 0.905214
Si Si5 0.025226 0.311657 0.620576
Si Si6 0.731330 0.687013 0.190177
Si Si7 0.594700 0.686504 0.471494
O O1 0.162257 0.500000 0.318766
O O2 0.145149 0.755670 0.212943
O O3 0.285276 0.730096 0.428081
O O4 0.069703 0.736626 0.353055
O O5 0.687898 0.500000 0.943553
O O6 0.572428 0.251816 0.854256
O O7 0.786589 0.252369 0.931141
O O8 0.709449 0.269046 0.069370
O O9 0.639235 0.244297 0.213320
O O10 0.571675 0.239865 0.357540
O O11 0.539988 0.000000 0.231736
O O12 0.871965 0.000000 0.904127
O O13 0.000000 0.233268 0.000000
O O14 0.024248 0.500000 0.619194
O O15 0.146435 0.264152 0.715851
O O16 0.000000 0.259953 0.500000
O O17 0.725904 0.500000 0.193702
O O18 0.500000 0.729112 0.500000
O O19 0.592726 0.500000 0.459660
#
# Coordination Sequence:
#
# PCOD9150675 Si02
#       7
#     4   4   4   4   4   4   4
#     4  10  20  36  61  89 117 154 201 249 292 341
#     4  11  23  40  63  87 114 153 202 250 290 338
#     4  12  25  39  59  87 120 155 190 236 298 363
#     4  11  24  40  59  87 125 162 193 235 293 352
#     4   9  17  32  57  87 115 146 189 241 291 339
#     4  10  21  38  60  85 114 151 197 245 291 343
#     4  10  21  38  61  88 117 152 196 244 293 346
#
# _framework density 19.093447000000001
#
# number of rings (size 3 to 8) (size 9 to 14) (size 15 to 20)
#    0.000    1.571    0.000    5.143    0.000    9.429 
#    0.000    0.714    0.000    1.714    0.000    0.000 
#    0.000    0.000    0.000    0.000    0.000    0.000 
#
# Total GULP energy -156586.209379 kJ/mol
# GULP energy per Si atom -5592.364621 kJ/mol
# Density = 1.904999 g / cm^3
# Si number density = 19.093447 Si / 1000 Ang^3
#
#
#
# Elastic Constant Matrix: (Units=GPa)
#
#
# Indices 1 2 3 4 5 6 
#
# 1 239.8369 56.4993 145.5236 0.0000 0.8941 0.0000
# 2 56.4993 34.0964 60.7006 0.0000 -1.1636 0.0000
# 3 145.5236 60.7006 234.1058 0.0000 0.2955 0.0000
# 4 0.0000 0.0000 0.0000 2.5342 0.0000 18.1345
# 5 0.8941 -1.1636 0.2955 0.0000 45.0340 0.0000
# 6 0.0000 0.0000 0.0000 18.1345 0.0000 3.8987
#
#
#
# Elastic Compliance Matrix: (Units=1/GPa)
#
#
# Indices 1 2 3 4 5 6 
#
# 1 0.007686 -0.007880 -0.002734 0.000000 -0.000338 0.000000
# 2 -0.007880 0.062655 -0.011349 0.000000 0.001850 0.000000
# 3 -0.002734 -0.011349 0.008914 0.000000 -0.000297 0.000000
# 4 0.000000 0.000000 0.000000 -0.012223 0.000000 0.056851
# 5 -0.000338 0.001850 -0.000297 0.000000 0.022262 0.000000
# 6 0.000000 0.000000 0.000000 0.056851 0.000000 -0.007945
#
#
# Mechanical properties :
#
#
# Convention : Reuss Voigt Hill
#
# Bulk Modulus (GPa) = 28.30667 114.83179 71.56923
# Shear Modulus (GPa) = 36.48224 26.64775 31.56499
#
# Velocity S-wave (km/s) = 4.37592 3.73989 4.07035
# Velocity P-wave (km/s) = 6.35524 8.88378 7.72369
#
# Compressibility (1/GPa) = 0.03532737
#
# Stress axis : x y z
#
# Youngs Moduli (GPa) = 130.10481 15.96054 112.18015
#
# Poissons Ratio (x) = 0.12577 0.30671
# Poissons Ratio (y) = 1.02527 1.27317
# Poissons Ratio (z) = 0.35572 0.18114
#
# Static dielectric constant tensor:
#      x y z
#    x 1.626890 0.000000 0.007420 
#    y 0.000000 1.642210 0.000000 
#    z 0.007420 0.000000 1.629260 
# 
# From -- ./inp_files/63892.got.cif
#   From: 2010.05.17/outbox.cif.g08.bks.cpg/sg10_32_cif.got.tgz:63892.got - 2010.06.03 11:33:40.
