data_PCOD9150415
_publ_section_title
;
Structure prediction by ZEFSAII (Michael W. Deem and Ramdas Pophale) SiO2 
 PCOD9150415
Probable space group: P 2/M
;
_chemical_formula_sum "Si O2"
_cell_formula_units_Z 32
_cell_length_a 12.696880
_cell_length_b 7.749727
_cell_length_c 30.331990
_cell_angle_alpha 90.000000
_cell_angle_beta 151.052163
_cell_angle_gamma 90.000000
_cell_volume 1444.579626
_symmetry_space_group_name_H-M "P 2/M"
_symmetry_group_IT_number 10
_symmetry_cell_setting 'monoclinic'
loop_
_space_group_symop_operation_xyz
x,y,z
-x,y,-z
-x,-y,-z
x,-y,z
loop_
_atom_site_type_symbol
_atom_site_label
_atom_site_fract_x
_atom_site_fract_y
_atom_site_fract_z
Si Si1 0.267079 0.710732 0.395269
Si Si2 0.893952 0.708235 0.326329
Si Si3 0.803762 0.301267 0.729756
Si Si4 0.715594 0.798754 0.102581
Si Si5 0.466411 0.709023 0.871296
Si Si6 0.944696 0.296529 0.028017
Si Si7 0.835954 0.796433 0.403162
Si Si8 0.646679 0.802170 0.764842
O O1 0.500000 0.758849 0.500000
O O2 0.254679 0.500000 0.389075
O O3 0.241544 0.770668 0.335630
O O4 0.076434 0.766909 0.358370
O O5 0.904281 0.500000 0.332463
O O6 0.659416 0.754881 0.219766
O O7 0.926587 0.777007 0.387191
O O8 0.730630 0.500000 0.704571
O O9 0.693010 0.206626 0.729756
O O10 0.064195 0.293982 0.830364
O O11 0.668935 0.780538 0.137251
O O12 0.740443 0.000000 0.099897
O O13 0.500000 0.729194 0.000000
O O14 0.458836 0.500000 0.872775
O O15 0.715290 0.772031 0.962501
O O16 0.902783 0.500000 0.006476
O O17 0.149612 0.279274 0.135166
O O18 0.000000 0.223339 0.000000
O O19 0.590880 0.722286 0.313690
O O20 0.000000 0.723809 0.500000
O O21 0.810573 0.000000 0.404106
O O22 0.643350 0.000000 0.778689
#
# Coordination Sequence:
#
# PCOD9150415 Si02
#       8
#     4   4   4   4   4   4   4   4
#     4   9  19  36  60  91 122 151 188 246 307 352
#     4  10  20  38  64  92 120 150 197 251 295 351
#     4  11  22  39  63  88 121 159 197 244 300 356
#     4  11  23  37  55  83 119 158 199 240 286 347
#     4  10  20  36  58  86 118 153 192 240 296 350
#     4  10  21  38  62  89 118 155 201 249 297 354
#     4  10  24  44  62  84 120 162 199 242 298 355
#     4  11  24  41  60  86 123 160 200 247 296 354
#
# _framework density 22.151775000000001
#
# number of rings (size 3 to 8) (size 9 to 14) (size 15 to 20)
#    0.000    1.750    1.250    2.625    1.750    6.500 
#    0.000    0.000    0.000    1.875    0.000    0.000 
#    0.000    0.000    0.000    0.000    0.000    0.000 
#
# Total GULP energy -178874.224299 kJ/mol
# GULP energy per Si atom -5589.819509 kJ/mol
# Density = 2.210136 g / cm^3
# Si number density = 22.151775 Si / 1000 Ang^3
#
#
#
# Elastic Constant Matrix: (Units=GPa)
#
#
# Indices 1 2 3 4 5 6 
#
# 1 98.3515 -12.2940 33.2638 0.0000 -5.8658 0.0000
# 2 -12.2940 30.6087 -5.9326 0.0000 5.6491 0.0000
# 3 33.2638 -5.9326 116.2837 0.0000 -5.5217 0.0000
# 4 0.0000 0.0000 0.0000 86.4568 0.0000 -6.0369
# 5 -5.8658 5.6491 -5.5217 0.0000 37.9500 0.0000
# 6 0.0000 0.0000 0.0000 -6.0369 0.0000 25.6758
#
#
#
# Elastic Compliance Matrix: (Units=1/GPa)
#
#
# Indices 1 2 3 4 5 6 
#
# 1 0.011768 0.003978 -0.003127 0.000000 0.000772 0.000000
# 2 0.003978 0.035195 0.000441 0.000000 -0.004560 0.000000
# 3 -0.003127 0.000441 0.009557 0.000000 0.000842 0.000000
# 4 0.000000 0.000000 0.000000 0.011760 0.000000 0.002765
# 5 0.000772 -0.004560 0.000842 0.000000 0.027271 0.000000
# 6 0.000000 0.000000 0.000000 0.002765 0.000000 0.039597
#
#
# Mechanical properties :
#
#
# Convention : Reuss Voigt Hill
#
# Bulk Modulus (GPa) = 16.91890 30.59092 23.75491
# Shear Modulus (GPa) = 32.83748 45.36362 39.10055
#
# Velocity S-wave (km/s) = 3.85435 4.53023 4.20589
# Velocity P-wave (km/s) = 5.24045 6.41901 5.85944
#
# Compressibility (1/GPa) = 0.05910549
#
# Stress axis : x y z
#
# Youngs Moduli (GPa) = 84.97269 28.41283 104.63995
#
# Poissons Ratio (x) = -0.11304 0.32719
# Poissons Ratio (y) = -0.33805 -0.04615
# Poissons Ratio (z) = 0.26570 -0.01253
#
# Static dielectric constant tensor:
#      x y z
#    x 1.786110 0.000000 0.004930 
#    y 0.000000 1.815310 0.000000 
#    z 0.004930 0.000000 1.813520 
# 
# From -- ./inp_files/95012.got.cif
#   From: 2010.05.17/outbox.cif.g08.bks.cpg/sg10_48_cif.got.tgz:95012.got - 2010.06.03 11:33:40.
