data_PCOD9150435
_publ_section_title
;
Structure prediction by ZEFSAII (Michael W. Deem and Ramdas Pophale) SiO2 
 PCOD9150435
Probable space group: P 2/M
;
_chemical_formula_sum "Si O2"
_cell_formula_units_Z 32
_cell_length_a 9.504882
_cell_length_b 13.478681
_cell_length_c 29.333020
_cell_angle_alpha 90.000000
_cell_angle_beta 25.622517
_cell_angle_gamma 90.000000
_cell_volume 1625.088040
_symmetry_space_group_name_H-M "P 2/M"
_symmetry_group_IT_number 10
_symmetry_cell_setting 'monoclinic'
loop_
_space_group_symop_operation_xyz
x,y,z
-x,y,-z
-x,-y,-z
x,-y,z
loop_
_atom_site_type_symbol
_atom_site_label
_atom_site_fract_x
_atom_site_fract_y
_atom_site_fract_z
Si Si1 0.806558 0.712483 0.877065
Si Si2 0.261029 0.115444 0.733282
Si Si3 0.337895 0.275792 0.231901
Si Si4 0.757891 0.386637 0.177584
Si Si5 0.736218 0.883685 0.678733
Si Si6 0.381928 0.612618 0.928605
Si Si7 0.765213 0.760218 0.528000
Si Si8 0.676976 0.385699 0.399432
O O1 0.677502 0.638413 0.876241
O O2 0.941207 0.817618 0.821398
O O3 0.103217 0.664331 0.818066
O O4 0.500000 0.726776 0.000000
O O5 0.422382 0.125000 0.736803
O O6 0.525474 0.160235 0.621507
O O7 0.203181 0.000000 0.741853
O O8 0.454873 0.333833 0.242963
O O9 0.321751 0.163847 0.254575
O O10 0.592603 0.305960 0.118257
O O11 0.001722 0.321228 0.312236
O O12 0.680501 0.500000 0.209338
O O13 0.057428 0.382862 0.053840
O O14 0.019933 0.818988 0.572022
O O15 0.819896 0.000000 0.656080
O O16 0.406555 0.500000 0.902760
O O17 0.556520 0.672235 0.567108
O O18 0.000000 0.723891 0.500000
O O19 0.500000 0.388296 0.500000
O O20 0.747411 0.500000 0.365520
#
# Coordination Sequence:
#
# PCOD9150435 Si02
#       8
#     4   4   4   4   4   4   4   4
#     4  10  20  36  58  89 121 153 190 239 291 346
#     4  10  20  37  62  87 113 149 196 248 298 339
#     4  12  21  37  58  84 116 157 192 234 287 344
#     4  10  20  36  60  87 114 153 199 235 282 348
#     4  10  21  39  62  86 112 149 196 248 294 337
#     4  10  21  36  57  87 122 153 190 241 286 334
#     4  10  21  41  65  87 112 149 198 245 286 341
#     4  11  23  38  56  84 123 157 182 224 286 347
#
# _framework density 19.691241999999999
#
# number of rings (size 3 to 8) (size 9 to 14) (size 15 to 20)
#    0.000    1.625    2.500    3.000    0.000    4.500 
#    0.000    4.375    0.000    2.250    0.000    0.000 
#    0.000    0.000    0.000    0.000    0.000    0.000 
#
# Total GULP energy -178721.738448 kJ/mol
# GULP energy per Si atom -5585.054326 kJ/mol
# Density = 1.964642 g / cm^3
# Si number density = 19.691242 Si / 1000 Ang^3
#
#
#
# Elastic Constant Matrix: (Units=GPa)
#
#
# Indices 1 2 3 4 5 6 
#
# 1 80.9381 41.7511 13.6549 0.0000 -13.0945 0.0000
# 2 41.7511 102.0762 17.3684 0.0000 -7.6415 0.0000
# 3 13.6549 17.3684 30.4681 0.0000 -4.0386 0.0000
# 4 0.0000 0.0000 0.0000 4.1892 0.0000 -1.0091
# 5 -13.0945 -7.6415 -4.0386 0.0000 35.2147 0.0000
# 6 0.0000 0.0000 0.0000 -1.0091 0.0000 31.4163
#
#
#
# Elastic Compliance Matrix: (Units=1/GPa)
#
#
# Indices 1 2 3 4 5 6 
#
# 1 0.016729 -0.005902 -0.003532 0.000000 0.004535 0.000000
# 2 -0.005902 0.013029 -0.004771 0.000000 0.000085 0.000000
# 3 -0.003532 -0.004771 0.037381 0.000000 0.001938 0.000000
# 4 0.000000 0.000000 0.000000 0.240571 0.000000 0.007728
# 5 0.004535 0.000085 0.001938 0.000000 0.030324 0.000000
# 6 0.000000 0.000000 0.000000 0.007728 0.000000 0.032079
#
#
# Mechanical properties :
#
#
# Convention : Reuss Voigt Hill
#
# Bulk Modulus (GPa) = 25.82030 39.89238 32.85634
# Shear Modulus (GPa) = 12.15269 23.54459 17.84864
#
# Velocity S-wave (km/s) = 2.48697 3.46162 3.01396
# Velocity P-wave (km/s) = 4.62469 6.02329 5.36972
#
# Compressibility (1/GPa) = 0.03872921
#
# Stress axis : x y z
#
# Youngs Moduli (GPa) = 59.77568 76.75307 26.75189
#
# Poissons Ratio (x) = 0.45300 0.09449
# Poissons Ratio (y) = 0.35280 0.12762
# Poissons Ratio (z) = 0.21112 0.36616
#
# Static dielectric constant tensor:
#      x y z
#    x 1.709270 0.000000 0.012100 
#    y 0.000000 1.663520 0.000000 
#    z 0.012100 0.000000 1.716180 
# 
# From -- ./inp_files/61232.got.cif
#   From: 2010.05.17/outbox.cif.g08.bks.cpg/sg10_31_cif.got.tgz:61232.got - 2010.06.03 11:33:40.
