data_PCOD9150683
_publ_section_title
;
Structure prediction by ZEFSAII (Michael W. Deem and Ramdas Pophale) SiO2 
 PCOD9150683
Probable space group: P 2/M
;
_chemical_formula_sum "Si O2"
_cell_formula_units_Z 28
_cell_length_a 27.789391
_cell_length_b 9.366233
_cell_length_c 9.206680
_cell_angle_alpha 90.000000
_cell_angle_beta 144.918924
_cell_angle_gamma 90.000000
_cell_volume 1377.256017
_symmetry_space_group_name_H-M "P 2/M"
_symmetry_group_IT_number 10
_symmetry_cell_setting 'monoclinic'
loop_
_space_group_symop_operation_xyz
x,y,z
-x,y,-z
-x,-y,-z
x,-y,z
loop_
_atom_site_type_symbol
_atom_site_label
_atom_site_fract_x
_atom_site_fract_y
_atom_site_fract_z
Si Si1 0.701137 0.827475 0.554946
Si Si2 0.601400 0.660751 0.537207
Si Si3 0.815057 0.173481 0.380732
Si Si4 0.622026 0.160615 0.859487
Si Si5 0.448678 0.777741 0.007662
Si Si6 0.030687 0.174465 0.417723
Si Si7 0.124152 0.172675 0.154591
O O1 0.668062 0.764798 0.623778
O O2 0.797311 0.797328 0.756451
O O3 0.689243 0.000000 0.515839
O O4 0.641278 0.752028 0.287668
O O5 0.632307 0.500000 0.623716
O O6 0.585557 0.729030 0.654516
O O7 0.517007 0.663500 0.230864
O O8 0.876899 0.219007 0.404436
O O9 0.852740 0.224245 0.627437
O O10 0.816619 0.000000 0.388888
O O11 0.717887 0.208470 0.123530
O O12 0.575421 0.152334 0.898786
O O13 0.621119 0.000000 0.794517
O O14 0.500000 0.848938 0.000000
O O15 0.000000 0.221762 0.500000
O O16 0.030550 0.000000 0.419759
O O17 0.962622 0.220934 0.129691
O O18 0.118388 0.000000 0.150342
#
# Coordination Sequence:
#
# PCOD9150683 Si02
#       7
#     4   4   4   4   4   4   4
#     4  10  20  36  61  90 115 147 192 244 291 338
#     4  11  26  42  57  81 117 157 195 236 291 350
#     4   9  17  30  49  78 116 152 188 228 280 338
#     4  11  22  37  60  88 116 150 193 242 289 336
#     4  10  22  38  60  84 112 144 188 241 289 344
#     4   9  17  26  43  77 119 159 186 216 271 340
#     4   9  16  29  50  78 116 151 185 229 282 338
#
# _framework density 20.330279999999998
#
# number of rings (size 3 to 8) (size 9 to 14) (size 15 to 20)
#    0.000    2.143    1.429    1.714    2.000   12.286 
#    0.000    0.000    0.000    0.000    0.000    2.000 
#    0.000    2.286    0.000    0.000    0.000    0.000 
#
# Total GULP energy -155975.628249 kJ/mol
# GULP energy per Si atom -5570.558152 kJ/mol
# Density = 2.028401 g / cm^3
# Si number density = 20.330280 Si / 1000 Ang^3
#
#
#
# Elastic Constant Matrix: (Units=GPa)
#
#
# Indices 1 2 3 4 5 6 
#
# 1 140.7465 26.2351 38.7115 0.0000 -0.4715 0.0000
# 2 26.2351 27.6089 16.9888 0.0000 -4.6736 0.0000
# 3 38.7115 16.9888 72.4991 0.0000 2.3826 0.0000
# 4 0.0000 0.0000 0.0000 9.2486 0.0000 -3.2482
# 5 -0.4715 -4.6736 2.3826 0.0000 36.7120 0.0000
# 6 0.0000 0.0000 0.0000 -3.2482 0.0000 -1.8241
#
#
#
# Elastic Compliance Matrix: (Units=1/GPa)
#
#
# Indices 1 2 3 4 5 6 
#
# 1 0.009303 -0.006878 -0.003338 0.000000 -0.000539 0.000000
# 2 -0.006878 0.048789 -0.007979 0.000000 0.006641 0.000000
# 3 -0.003338 -0.007979 0.017518 0.000000 -0.002195 0.000000
# 4 0.000000 0.000000 0.000000 0.066521 0.000000 -0.118456
# 5 -0.000539 0.006641 -0.002195 0.000000 0.028220 0.000000
# 6 0.000000 0.000000 0.000000 -0.118456 0.000000 -0.337277
#
#
# Mechanical properties :
#
#
# Convention : Reuss Voigt Hill
#
# Bulk Modulus (GPa) = 25.49649 44.96947 35.23298
# Shear Modulus (GPa) = -42.56632 19.42192 -11.57220
#
# Velocity S-wave (km/s) = -4.58070 3.09418 -2.38840
# Velocity P-wave (km/s) = 3.92540 5.91039 3.12442
#
# Compressibility (1/GPa) = 0.03922108
#
# Stress axis : x y z
#
# Youngs Moduli (GPa) = 107.48879 20.49634 57.08560
#
# Poissons Ratio (x) = 0.14096 0.19056
# Poissons Ratio (y) = 0.73926 0.45547
# Poissons Ratio (z) = 0.35882 0.16353
#
# Static dielectric constant tensor:
#      x y z
#    x 1.747110 0.000000 -0.005210 
#    y 0.000000 1.672910 0.000000 
#    z -0.005210 0.000000 1.743410 
# 
# From -- ./inp_files/37248.got.cif
#   From: 2010.05.17/outbox.cif.g08.bks.cpg/sg10_19_cif.got.tgz:37248.got - 2010.06.03 11:33:40.
