data_PCOD9150287
_publ_section_title
;
Structure prediction by ZEFSAII (Michael W. Deem and Ramdas Pophale) SiO2 
 PCOD9150287
Probable space group: P 2/M
;
_chemical_formula_sum "Si O2"
_cell_formula_units_Z 20
_cell_length_a 5.494271
_cell_length_b 21.879416
_cell_length_c 7.493092
_cell_angle_alpha 90.000000
_cell_angle_beta 64.319056
_cell_angle_gamma 90.000000
_cell_volume 811.779851
_symmetry_space_group_name_H-M "P 2/M"
_symmetry_group_IT_number 10
_symmetry_cell_setting 'monoclinic'
loop_
_space_group_symop_operation_xyz
x,y,z
-x,y,-z
-x,-y,-z
x,-y,z
loop_
_atom_site_type_symbol
_atom_site_label
_atom_site_fract_x
_atom_site_fract_y
_atom_site_fract_z
Si Si1 0.158516 0.362132 0.259884
Si Si2 0.658237 0.569984 0.259372
Si Si3 0.768997 0.774986 0.723174
Si Si4 0.764779 0.931517 0.222560
Si Si5 0.500000 0.125792 0.000000
Si Si6 0.500000 0.168516 0.500000
O O1 0.445162 0.394535 0.203414
O O2 0.209972 0.291472 0.198175
O O3 0.000000 0.360753 0.500000
O O4 0.945370 0.397525 0.203512
O O5 0.500000 0.568407 0.500000
O O6 0.694379 0.500000 0.189398
O O7 0.740516 0.826440 0.882037
O O8 0.518367 0.788641 0.668123
O O9 0.000000 0.780246 0.500000
O O10 0.738933 0.880011 0.380977
O O11 0.763339 0.000000 0.295153
O O12 0.515807 0.916212 0.168923
O O13 0.000000 0.927631 0.000000
#
# Coordination Sequence:
#
# PCOD9150287 Si02
#       6
#     4   4   4   4   2   2
#     4   9  18  28  48  75 109 152 191 241 295 347
#     4   9  16  28  46  75 111 148 192 242 292 349
#     4  10  21  34  55  77 114 146 191 237 288 350
#     4  10  20  36  57  81 111 144 186 234 285 344
#     4  10  21  38  54  84 109 150 188 232 290 344
#     4  10  21  34  54  80 109 148 186 232 288 346
#
# _framework density 24.637219999999999
#
# number of rings (size 3 to 8) (size 9 to 14) (size 15 to 20)
#    0.000    2.400    0.000    2.400    7.000    2.400 
#    0.000    0.000    0.000    9.600    0.000    4.200 
#    0.000    0.000    0.000    0.000    0.000    0.000 
#
# Total GULP energy -111596.011752 kJ/mol
# GULP energy per Si atom -5579.800588 kJ/mol
# Density = 2.458115 g / cm^3
# Si number density = 24.637220 Si / 1000 Ang^3
#
#
#
# Elastic Constant Matrix: (Units=GPa)
#
#
# Indices 1 2 3 4 5 6 
#
# 1 110.7307 73.7072 4.3799 0.0000 -15.2382 0.0000
# 2 73.7072 153.3463 1.4356 0.0000 -12.8430 0.0000
# 3 4.3799 1.4356 83.8595 0.0000 -2.4697 0.0000
# 4 0.0000 0.0000 0.0000 16.2012 0.0000 -6.4489
# 5 -15.2382 -12.8430 -2.4697 0.0000 28.2439 0.0000
# 6 0.0000 0.0000 0.0000 -6.4489 0.0000 18.1137
#
#
#
# Elastic Compliance Matrix: (Units=1/GPa)
#
#
# Indices 1 2 3 4 5 6 
#
# 1 0.013855 -0.006271 -0.000481 0.000000 0.004581 0.000000
# 2 -0.006271 0.009618 0.000193 0.000000 0.001007 0.000000
# 3 -0.000481 0.000193 0.011972 0.000000 0.000875 0.000000
# 4 0.000000 0.000000 0.000000 0.071915 0.000000 0.025603
# 5 0.004581 0.001007 0.000875 0.000000 0.038412 0.000000
# 6 0.000000 0.000000 0.000000 0.025603 0.000000 0.064322
#
#
# Mechanical properties :
#
#
# Convention : Reuss Voigt Hill
#
# Bulk Modulus (GPa) = 44.79271 56.33134 50.56202
# Shear Modulus (GPa) = 21.67731 30.40603 26.04167
#
# Velocity S-wave (km/s) = 2.96946 3.51686 3.25469
# Velocity P-wave (km/s) = 5.47515 6.27734 5.88992
#
# Compressibility (1/GPa) = 0.02232506
#
# Stress axis : x y z
#
# Youngs Moduli (GPa) = 72.17702 103.97133 83.52609
#
# Poissons Ratio (x) = 0.65203 0.04020
# Poissons Ratio (y) = 0.45264 -0.01608
# Poissons Ratio (z) = 0.03474 -0.02002
#
# Static dielectric constant tensor:
#      x y z
#    x 2.156330 0.000000 -0.056860 
#    y 0.000000 1.875730 0.000000 
#    z -0.056860 0.000000 1.975910 
# 
# From -- ./inp_files/15173.got.cif
#   From: 2010.05.17/outbox.cif.g08.bks.cpg/sg10_8_cif.got.tgz:15173.got - 2010.06.03 11:33:40.
