data_PCOD9150115
_publ_section_title
;
Structure prediction by ZEFSAII (Michael W. Deem and Ramdas Pophale) SiO2 
 PCOD9150115
Probable space group: P 2/M
;
_chemical_formula_sum "Si O2"
_cell_formula_units_Z 24
_cell_length_a 8.895659
_cell_length_b 12.313323
_cell_length_c 11.299852
_cell_angle_alpha 90.000000
_cell_angle_beta 94.050229
_cell_angle_gamma 90.000000
_cell_volume 1234.639459
_symmetry_space_group_name_H-M "P 2/M"
_symmetry_group_IT_number 10
_symmetry_cell_setting 'monoclinic'
loop_
_space_group_symop_operation_xyz
x,y,z
-x,y,-z
-x,-y,-z
x,-y,z
loop_
_atom_site_type_symbol
_atom_site_label
_atom_site_fract_x
_atom_site_fract_y
_atom_site_fract_z
Si Si1 0.267849 0.000000 0.922445
Si Si2 0.319624 0.626608 0.469196
Si Si3 0.436780 0.623853 0.127517
Si Si4 0.742955 0.789995 0.746102
Si Si5 0.580869 0.000000 0.808901
Si Si6 0.056211 0.792959 0.873370
Si Si7 0.246282 0.373993 0.730700
O O1 0.166298 0.894334 0.898719
O O2 0.406858 0.000000 0.838221
O O3 0.331551 0.000000 0.059850
O O4 0.500000 0.635193 0.500000
O O5 0.291179 0.500000 0.432376
O O6 0.268925 0.713763 0.369549
O O7 0.238829 0.646940 0.590281
O O8 0.382088 0.500000 0.136775
O O9 0.313057 0.711405 0.151542
O O10 0.578793 0.639474 0.222179
O O11 0.500000 0.638235 0.000000
O O12 0.910937 0.825783 0.787676
O O13 0.632449 0.893087 0.741327
O O14 0.144576 0.701139 0.806245
O O15 0.000000 0.757132 0.000000
O O16 0.208654 0.500000 0.749666
#
# Coordination Sequence:
#
# PCOD9150115 Si02
#       7
#     2   4   4   4   2   4   4
#     4  11  24  45  67  92 129 174 217 264 330 399
#     4  10  21  42  70  95 129 175 224 272 314 375
#     4  10  20  35  59  92 127 164 213 268 318 380
#     4  12  23  38  66  97 125 170 220 267 324 386
#     4  11  25  42  71  96 122 170 226 271 320 391
#     4  12  24  41  64  96 138 172 206 268 335 396
#     4  10  22  40  63  94 132 174 215 263 323 383
#
# _framework density 19.438873999999998
#
# number of rings (size 3 to 8) (size 9 to 14) (size 15 to 20)
#    0.000    1.167    3.333    3.250    2.333    2.333 
#    0.000    2.917    0.000    2.000    0.000    0.000 
#    0.000    0.000    0.000    0.000    0.000    0.000 
#
# Total GULP energy -134186.390537 kJ/mol
# GULP energy per Si atom -5591.099606 kJ/mol
# Density = 1.939463 g / cm^3
# Si number density = 19.438874 Si / 1000 Ang^3
#
#
#
# Elastic Constant Matrix: (Units=GPa)
#
#
# Indices 1 2 3 4 5 6 
#
# 1 74.4961 54.2951 33.6153 0.0000 -14.5418 0.0000
# 2 54.2951 107.5331 62.9331 0.0000 -22.0602 0.0000
# 3 33.6153 62.9331 105.8603 0.0000 -9.8292 0.0000
# 4 0.0000 0.0000 0.0000 28.1976 0.0000 2.0858
# 5 -14.5418 -22.0602 -9.8292 0.0000 25.6481 0.0000
# 6 0.0000 0.0000 0.0000 2.0858 0.0000 50.0797
#
#
#
# Elastic Compliance Matrix: (Units=1/GPa)
#
#
# Indices 1 2 3 4 5 6 
#
# 1 0.021527 -0.009707 -0.000733 0.000000 0.003575 0.000000
# 2 -0.009707 0.021187 -0.008640 0.000000 0.009409 0.000000
# 3 -0.000733 -0.008640 0.014607 0.000000 -0.002249 0.000000
# 4 0.000000 0.000000 0.000000 0.035574 0.000000 -0.001482
# 5 0.003575 0.009409 -0.002249 0.000000 0.048247 0.000000
# 6 0.000000 0.000000 0.000000 -0.001482 0.000000 0.020030
#
#
# Mechanical properties :
#
#
# Convention : Reuss Voigt Hill
#
# Bulk Modulus (GPa) = 52.18808 65.50849 58.84828
# Shear Modulus (GPa) = 24.30527 29.92149 27.11338
#
# Velocity S-wave (km/s) = 3.53986 3.92760 3.73876
# Velocity P-wave (km/s) = 6.60401 7.37163 6.99835
#
# Compressibility (1/GPa) = 0.01916147
#
# Stress axis : x y z
#
# Youngs Moduli (GPa) = 46.45379 47.19889 68.46234
#
# Poissons Ratio (x) = 0.45814 0.05020
# Poissons Ratio (y) = 0.45091 0.59149
# Poissons Ratio (z) = 0.03406 0.40778
#
# Static dielectric constant tensor:
#      x y z
#    x 1.696980 0.000000 0.010960 
#    y 0.000000 1.656920 0.000000 
#    z 0.010960 0.000000 1.685660 
# 
# From -- ./inp_files/42018.got.cif
#   From: 2010.05.17/outbox.cif.g08.bks.cpg/sg10_22_cif.got.tgz:42018.got - 2010.06.03 11:33:40.
