data_PCOD9150063
_publ_section_title
;
Structure prediction by ZEFSAII (Michael W. Deem and Ramdas Pophale) SiO2 
 PCOD9150063
Probable space group: P 2/M
;
_chemical_formula_sum "Si O2"
_cell_formula_units_Z 32
_cell_length_a 25.062111
_cell_length_b 9.051260
_cell_length_c 16.466161
_cell_angle_alpha 90.000000
_cell_angle_beta 26.288328
_cell_angle_gamma 90.000000
_cell_volume 1654.297081
_symmetry_space_group_name_H-M "P 2/M"
_symmetry_group_IT_number 10
_symmetry_cell_setting 'monoclinic'
loop_
_space_group_symop_operation_xyz
x,y,z
-x,y,-z
-x,-y,-z
x,-y,z
loop_
_atom_site_type_symbol
_atom_site_label
_atom_site_fract_x
_atom_site_fract_y
_atom_site_fract_z
Si Si1 0.059029 0.327155 0.332894
Si Si2 0.484076 0.676026 0.781654
Si Si3 0.813713 0.823219 0.095048
Si Si4 0.179516 0.673219 0.445867
Si Si5 0.074774 0.677791 0.757781
Si Si6 0.595068 0.175411 0.942175
Si Si7 0.284072 0.823955 0.948690
Si Si8 0.742233 0.323506 0.354699
O O1 0.097174 0.500000 0.282005
O O2 0.000000 0.292937 0.500000
O O3 0.952734 0.310877 0.412554
O O4 0.171155 0.226332 0.157687
O O5 0.467853 0.500000 0.808056
O O6 0.445281 0.746228 0.920047
O O7 0.400013 0.742907 0.826150
O O8 0.622607 0.706707 0.569911
O O9 0.750665 0.781751 0.096085
O O10 0.743047 0.761128 0.268939
O O11 0.821183 0.000000 0.087737
O O12 0.947635 0.755529 0.917824
O O13 0.213242 0.500000 0.394222
O O14 0.164188 0.713928 0.561028
O O15 0.276575 0.766240 0.264385
O O16 0.056605 0.500000 0.780941
O O17 0.140864 0.716808 0.751279
O O18 0.599379 0.000000 0.949557
O O19 0.500000 0.207079 0.000000
O O20 0.300010 0.000000 0.930894
O O21 0.747467 0.500000 0.332717
#
# Coordination Sequence:
#
# PCOD9150063 Si02
#       8
#     4   4   4   4   4   4   4   4
#     4  10  20  35  58  88 117 152 200 247 297 356
#     4  11  24  43  66  90 120 161 212 260 304 361
#     4  11  24  40  61  91 125 162 201 248 310 372
#     4  10  20  35  59  89 121 159 202 251 301 355
#     4  10  20  38  63  91 123 158 201 254 309 364
#     4  11  24  40  60  90 128 167 204 247 304 367
#     4  11  24  41  61  88 125 163 201 249 307 370
#     4  10  23  41  63  90 118 156 207 260 310 362
#
# _framework density 19.343564000000001
#
# number of rings (size 3 to 8) (size 9 to 14) (size 15 to 20)
#    0.000    1.500    1.250    3.375    0.000    9.250 
#    0.000    2.500    0.000    0.000    0.000    0.000 
#    0.000    0.000    0.000    0.000    0.000    0.000 
#
# Total GULP energy -178922.651587 kJ/mol
# GULP energy per Si atom -5591.332862 kJ/mol
# Density = 1.929954 g / cm^3
# Si number density = 19.343564 Si / 1000 Ang^3
#
#
#
# Elastic Constant Matrix: (Units=GPa)
#
#
# Indices 1 2 3 4 5 6 
#
# 1 100.3530 41.8338 26.2654 0.0000 5.3559 0.0000
# 2 41.8338 44.4828 32.9664 0.0000 -0.8458 0.0000
# 3 26.2654 32.9664 66.6008 0.0000 3.3037 0.0000
# 4 0.0000 0.0000 0.0000 -124.0500 0.0000 6.3276
# 5 5.3559 -0.8458 3.3037 0.0000 25.7641 0.0000
# 6 0.0000 0.0000 0.0000 6.3276 0.0000 28.9610
#
#
#
# Elastic Compliance Matrix: (Units=1/GPa)
#
#
# Indices 1 2 3 4 5 6 
#
# 1 0.017017 -0.017810 0.002324 0.000000 -0.004420 0.000000
# 2 -0.017810 0.054450 -0.020330 0.000000 0.008097 0.000000
# 3 0.002324 -0.020330 0.024374 0.000000 -0.004276 0.000000
# 4 0.000000 0.000000 0.000000 -0.007972 0.000000 0.001742
# 5 -0.004420 0.008097 -0.004276 0.000000 0.040547 0.000000
# 6 0.000000 0.000000 0.000000 0.001742 0.000000 0.034149
#
#
# Mechanical properties :
#
#
# Convention : Reuss Voigt Hill
#
# Bulk Modulus (GPa) = 41.30723 45.95199 43.62961
# Shear Modulus (GPa) = 20.63856 -6.50693 7.06582
#
# Velocity S-wave (km/s) = 3.26996 -1.83608 1.91330
# Velocity P-wave (km/s) = 5.97141 4.39458 5.24262
#
# Compressibility (1/GPa) = 0.02420884
#
# Stress axis : x y z
#
# Youngs Moduli (GPa) = 58.76574 18.36538 41.02797
#
# Poissons Ratio (x) = 0.32708 -0.09534
# Poissons Ratio (y) = 1.04659 0.83410
# Poissons Ratio (z) = -0.13656 0.37337
#
# Static dielectric constant tensor:
#      x y z
#    x 1.685220 0.000000 0.003970 
#    y 0.000000 1.646480 0.000000 
#    z 0.003970 0.000000 1.652530 
# 
# From -- ./inp_files/66550.got.cif
#   From: 2010.05.17/outbox.cif.g08.bks.cpg/sg10_34_cif.got.tgz:66550.got - 2010.06.03 11:33:40.
