data_PCOD9150700
_publ_section_title
;
Structure prediction by ZEFSAII (Michael W. Deem and Ramdas Pophale) SiO2 
 PCOD9150700
Probable space group: P 2/M
;
_chemical_formula_sum "Si O2"
_cell_formula_units_Z 26
_cell_length_a 13.881210
_cell_length_b 7.556659
_cell_length_c 9.825749
_cell_angle_alpha 90.000000
_cell_angle_beta 76.900373
_cell_angle_gamma 90.000000
_cell_volume 1003.856681
_symmetry_space_group_name_H-M "P 2/M"
_symmetry_group_IT_number 10
_symmetry_cell_setting 'monoclinic'
loop_
_space_group_symop_operation_xyz
x,y,z
-x,y,-z
-x,-y,-z
x,-y,z
loop_
_atom_site_type_symbol
_atom_site_label
_atom_site_fract_x
_atom_site_fract_y
_atom_site_fract_z
Si Si1 0.360013 0.703853 0.066078
Si Si2 0.924546 0.787494 0.203415
Si Si3 0.201920 0.790879 0.495322
Si Si4 0.149711 0.213010 0.209752
Si Si5 0.628712 0.808498 0.230499
Si Si6 0.792524 0.500000 0.153465
Si Si7 0.583925 0.288540 0.648556
O O1 0.391608 0.500000 0.044972
O O2 0.240690 0.704290 0.098768
O O3 0.386596 0.771412 0.207170
O O4 0.398584 0.803613 0.922464
O O5 0.864405 0.728462 0.359101
O O6 0.876628 0.658066 0.110605
O O7 0.039352 0.755149 0.196608
O O8 0.912980 0.000000 0.181032
O O9 0.165109 0.722705 0.360783
O O10 0.319305 0.757410 0.470064
O O11 0.186542 0.000000 0.496029
O O12 0.165458 0.000000 0.200631
O O13 0.706913 0.652887 0.214414
O O14 0.525588 0.782298 0.342105
O O15 0.672171 0.000000 0.250566
O O16 0.576105 0.500000 0.651330
#
# Coordination Sequence:
#
# PCOD9150700 Si02
#       7
#     4   4   4   4   4   2   4
#     4  10  20  36  61  95 127 152 187 238 300 368
#     4  10  22  41  63  87 120 161 201 246 296 343
#     4   9  18  35  61  94 126 154 189 237 298 365
#     4   9  18  35  61  94 126 154 189 237 298 365
#     4  12  24  42  64  85 116 159 202 247 300 349
#     4  12  26  44  60  84 116 158 216 258 284 336
#     4  10  20  36  61  95 127 152 187 238 300 368
#
# _framework density 25.900110999999999
#
# number of rings (size 3 to 8) (size 9 to 14) (size 15 to 20)
#    0.000    1.846    1.538    2.308    2.154    5.538 
#    0.000    3.846    0.000    5.538    0.000    0.000 
#    0.000    0.000    0.000    0.000    0.000    0.000 
#
# Total GULP energy -145152.447723 kJ/mol
# GULP energy per Si atom -5582.786451 kJ/mol
# Density = 2.584116 g / cm^3
# Si number density = 25.900111 Si / 1000 Ang^3
#
#
#
# Elastic Constant Matrix: (Units=GPa)
#
#
# Indices 1 2 3 4 5 6 
#
# 1 159.3316 29.5227 32.6056 0.0000 -34.0156 0.0000
# 2 29.5227 123.2398 11.9450 0.0000 -6.7930 0.0000
# 3 32.6056 11.9450 133.3316 0.0000 -24.2652 0.0000
# 4 0.0000 0.0000 0.0000 207.2924 0.0000 -170.3757
# 5 -34.0156 -6.7930 -24.2652 0.0000 41.9177 0.0000
# 6 0.0000 0.0000 0.0000 -170.3757 0.0000 207.5769
#
#
#
# Elastic Compliance Matrix: (Units=1/GPa)
#
#
# Indices 1 2 3 4 5 6 
#
# 1 0.007941 -0.001511 -0.000758 0.000000 0.005760 0.000000
# 2 -0.001511 0.008511 -0.000408 0.000000 -0.000083 0.000000
# 3 -0.000758 -0.000408 0.008493 0.000000 0.004235 0.000000
# 4 0.000000 0.000000 0.000000 0.014826 0.000000 0.012169
# 5 0.005760 -0.000083 0.004235 0.000000 0.030969 0.000000
# 6 0.000000 0.000000 0.000000 0.012169 0.000000 0.014805
#
#
# Mechanical properties :
#
#
# Convention : Reuss Voigt Hill
#
# Bulk Modulus (GPa) = 51.04681 62.67218 56.85949
# Shear Modulus (GPa) = 51.31881 114.14605 82.73243
#
# Velocity S-wave (km/s) = 4.45614 6.64585 5.65794
# Velocity P-wave (km/s) = 6.79912 9.11811 8.04264
#
# Compressibility (1/GPa) = 0.01958986
#
# Stress axis : x y z
#
# Youngs Moduli (GPa) = 125.92568 117.49122 117.74693
#
# Poissons Ratio (x) = 0.17757 0.08928
# Poissons Ratio (y) = 0.19032 0.04805
# Poissons Ratio (z) = 0.09548 0.04795
#
# Static dielectric constant tensor:
#      x y z
#    x 2.056950 0.000000 0.103870 
#    y 0.000000 1.972340 0.000000 
#    z 0.103870 0.000000 2.111530 
# 
# From -- ./inp_files/48982.got.cif
#   From: 2010.05.17/outbox.cif.g08.bks.cpg/sg10_25_cif.got.tgz:48982.got - 2010.06.03 11:33:40.
