data_PCOD9150193
_publ_section_title
;
Structure prediction by ZEFSAII (Michael W. Deem and Ramdas Pophale) SiO2 
 PCOD9150193
Probable space group: P 2/M
;
_chemical_formula_sum "Si O2"
_cell_formula_units_Z 24
_cell_length_a 8.991097
_cell_length_b 18.526863
_cell_length_c 11.067955
_cell_angle_alpha 90.000000
_cell_angle_beta 139.525634
_cell_angle_gamma 90.000000
_cell_volume 1196.737147
_symmetry_space_group_name_H-M "P 2/M"
_symmetry_group_IT_number 10
_symmetry_cell_setting 'monoclinic'
loop_
_space_group_symop_operation_xyz
x,y,z
-x,y,-z
-x,-y,-z
x,-y,z
loop_
_atom_site_type_symbol
_atom_site_label
_atom_site_fract_x
_atom_site_fract_y
_atom_site_fract_z
Si Si1 0.249763 0.583074 0.988166
Si Si2 0.678967 0.203323 0.812588
Si Si3 0.965203 0.282583 0.806877
Si Si4 0.754451 0.416210 0.306301
Si Si5 0.228392 0.080832 0.306023
Si Si6 0.854406 0.810794 0.529177
O O1 0.220365 0.500000 0.009356
O O2 0.044269 0.637364 0.887609
O O3 0.251830 0.582923 0.842969
O O4 0.500814 0.612137 0.185962
O O5 0.770139 0.127701 0.815185
O O6 0.411594 0.197277 0.669626
O O7 0.740890 0.258475 0.741843
O O8 0.828510 0.232203 0.015264
O O9 0.930937 0.261530 0.647244
O O10 0.752042 0.500000 0.346603
O O11 0.000000 0.385844 0.500000
O O12 0.500000 0.075793 0.500000
O O13 0.128717 0.126669 0.357287
O O14 0.133732 0.000000 0.238195
O O15 0.000000 0.824751 0.500000
#
# Coordination Sequence:
#
# PCOD9150193 Si02
#       6
#     4   4   4   4   4   4
#     4   9  18  30  47  73 102 136 182 231 273 316
#     4   9  20  38  55  77 108 145 185 217 259 325
#     4  10  20  36  55  75 106 145 183 224 267 319
#     4   8  15  29  46  69 104 138 170 215 273 332
#     4   8  15  33  60  83 108 144 180 215 258 315
#     4  10  21  35  55  84 113 141 176 221 273 322
#
# _framework density 20.05453
#
# number of rings (size 3 to 8) (size 9 to 14) (size 15 to 20)
#    0.000    3.000    0.000    2.500    0.000    5.667 
#    0.000    8.333    0.000    2.000    0.000   15.167 
#    0.000    0.000    0.000    0.000    0.000    0.000 
#
# Total GULP energy -133676.702432 kJ/mol
# GULP energy per Si atom -5569.862601 kJ/mol
# Density = 2.000888 g / cm^3
# Si number density = 20.054530 Si / 1000 Ang^3
#
#
#
# Elastic Constant Matrix: (Units=GPa)
#
#
# Indices 1 2 3 4 5 6 
#
# 1 105.4096 39.8835 29.9773 0.0000 14.7456 0.0000
# 2 39.8835 88.0584 18.8768 0.0000 20.5237 0.0000
# 3 29.9773 18.8768 98.0908 0.0000 15.5214 0.0000
# 4 0.0000 0.0000 0.0000 20.9286 0.0000 1.7765
# 5 14.7456 20.5237 15.5214 0.0000 24.6979 0.0000
# 6 0.0000 0.0000 0.0000 1.7765 0.0000 10.8402
#
#
#
# Elastic Compliance Matrix: (Units=1/GPa)
#
#
# Indices 1 2 3 4 5 6 
#
# 1 0.012194 -0.004530 -0.002552 0.000000 -0.001912 0.000000
# 2 -0.004530 0.015848 -0.000010 0.000000 -0.010458 0.000000
# 3 -0.002552 -0.000010 0.011919 0.000000 -0.005958 0.000000
# 4 0.000000 0.000000 0.000000 0.048456 0.000000 -0.007941
# 5 -0.001912 -0.010458 -0.005958 0.000000 0.054066 0.000000
# 6 0.000000 0.000000 0.000000 -0.007941 0.000000 0.093551
#
#
# Mechanical properties :
#
#
# Convention : Reuss Voigt Hill
#
# Bulk Modulus (GPa) = 38.79703 52.11489 45.45596
# Shear Modulus (GPa) = 19.31908 24.81473 22.06690
#
# Velocity S-wave (km/s) = 3.10712 3.52143 3.32074
# Velocity P-wave (km/s) = 5.67979 6.52510 6.11707
#
# Compressibility (1/GPa) = 0.02577517
#
# Stress axis : x y z
#
# Youngs Moduli (GPa) = 82.00613 63.10092 83.89634
#
# Poissons Ratio (x) = 0.28587 0.21413
# Poissons Ratio (y) = 0.37151 0.00088
# Poissons Ratio (z) = 0.20931 0.00066
#
# Static dielectric constant tensor:
#      x y z
#    x 1.720370 0.000000 0.004580 
#    y 0.000000 1.773200 0.000000 
#    z 0.004580 0.000000 1.732230 
# 
# From -- ./inp_files/43538.got.cif
#   From: 2010.05.17/outbox.cif.g08.bks.cpg/sg10_22_cif.got.tgz:43538.got - 2010.06.03 11:33:40.
