data_PCOD9150734
_publ_section_title
;
Structure prediction by ZEFSAII (Michael W. Deem and Ramdas Pophale) SiO2 
 PCOD9150734
Probable space group: P 2/M
;
_chemical_formula_sum "Si O2"
_cell_formula_units_Z 29
_cell_length_a 25.672572
_cell_length_b 9.552853
_cell_length_c 10.121797
_cell_angle_alpha 90.000000
_cell_angle_beta 40.067147
_cell_angle_gamma 90.000000
_cell_volume 1597.840538
_symmetry_space_group_name_H-M "P 2/M"
_symmetry_group_IT_number 10
_symmetry_cell_setting 'monoclinic'
loop_
_space_group_symop_operation_xyz
x,y,z
-x,y,-z
-x,-y,-z
x,-y,z
loop_
_atom_site_type_symbol
_atom_site_label
_atom_site_fract_x
_atom_site_fract_y
_atom_site_fract_z
Si Si1 0.848650 0.832151 0.037492
Si Si2 0.744613 0.662467 0.026883
Si Si3 0.572701 0.663300 0.764768
Si Si4 0.020152 0.169179 0.609637
Si Si5 0.735090 0.165927 0.504776
Si Si6 0.500000 0.000000 0.500000
Si Si7 0.564755 0.711834 0.475330
Si Si8 0.202748 0.168363 0.321001
O O1 0.804286 0.745886 0.008931
O O2 0.803469 0.803357 0.262446
O O3 0.841955 0.000000 0.023394
O O4 0.943666 0.795221 0.849589
O O5 0.768192 0.500000 0.965964
O O6 0.655241 0.669326 0.262049
O O7 0.746833 0.745078 0.884187
O O8 0.587713 0.500000 0.765279
O O9 0.654224 0.749340 0.630673
O O10 0.548421 0.676957 0.658786
O O11 0.500000 0.712853 0.000000
O O12 0.108869 0.211997 0.484764
O O13 0.000000 0.218376 0.500000
O O14 0.023262 0.000000 0.598409
O O15 0.767157 0.195220 0.589482
O O16 0.717863 0.000000 0.530047
O O17 0.552227 0.876651 0.474105
O O18 0.500000 0.647550 0.500000
O O19 0.209394 0.000000 0.283435
#
# Coordination Sequence:
#
# PCOD9150734 Si02
#       8
#     4   4   4   4   4   1   4   4
#     4  10  20  36  63  87 117 158 198 244 297 355
#     4  12  24  37  60  89 120 159 200 243 294 350
#     4  11  25  43  62  86 121 162 197 240 295 355
#     4   9  16  32  58  90 117 153 197 247 301 349
#     4  10  23  39  60  90 119 156 199 244 299 357
#     4   8  24  40  64  96 116 146 198 254 298 340
#     4  10  24  42  64  89 120 152 196 248 294 350
#     4  10  22  39  60  88 123 156 200 251 298 352
#
# _framework density 18.149495999999999
#
# number of rings (size 3 to 8) (size 9 to 14) (size 15 to 20)
#    0.414    1.379    2.759    0.828    4.828    2.483 
#    2.483    4.138    0.000    0.000    0.000    2.897 
#    0.000    0.000    0.000    0.000    0.000    0.000 
#
# Total GULP energy -161520.242057 kJ/mol
# GULP energy per Si atom -5569.663519 kJ/mol
# Density = 1.810819 g / cm^3
# Si number density = 18.149496 Si / 1000 Ang^3
#
#
#
# Elastic Constant Matrix: (Units=GPa)
#
#
# Indices 1 2 3 4 5 6 
#
# 1 89.2910 15.3907 46.5004 0.0000 12.0326 0.0000
# 2 15.3907 61.8959 27.7968 0.0000 12.5738 0.0000
# 3 46.5004 27.7968 139.5476 0.0000 9.3019 0.0000
# 4 0.0000 0.0000 0.0000 -23.4223 0.0000 13.3684
# 5 12.0326 12.5738 9.3019 0.0000 30.9450 0.0000
# 6 0.0000 0.0000 0.0000 13.3684 0.0000 -18.9478
#
#
#
# Elastic Compliance Matrix: (Units=1/GPa)
#
#
# Indices 1 2 3 4 5 6 
#
# 1 0.014085 -0.000796 -0.004277 0.000000 -0.003868 0.000000
# 2 -0.000796 0.019068 -0.003099 0.000000 -0.006507 0.000000
# 3 -0.004277 -0.003099 0.009198 0.000000 0.000158 0.000000
# 4 0.000000 0.000000 0.000000 -0.071478 0.000000 -0.050431
# 5 -0.003868 -0.006507 0.000158 0.000000 0.036416 0.000000
# 6 0.000000 0.000000 0.000000 -0.050431 0.000000 -0.088357
#
#
# Mechanical properties :
#
#
# Convention : Reuss Voigt Hill
#
# Bulk Modulus (GPa) = 38.45189 52.23450 45.34319
# Shear Modulus (GPa) = -89.19752 11.11810 -39.03971
#
# Velocity S-wave (km/s) = -7.01803 2.47773 -4.64293
# Velocity P-wave (km/s) = 6.66619 6.08508 1.92483
#
# Compressibility (1/GPa) = 0.02600653
#
# Stress axis : x y z
#
# Youngs Moduli (GPa) = 70.99673 52.44483 108.71799
#
# Poissons Ratio (x) = 0.04174 0.46500
# Poissons Ratio (y) = 0.05650 0.33694
# Poissons Ratio (z) = 0.30366 0.16254
#
# Static dielectric constant tensor:
#      x y z
#    x 1.607190 0.000000 0.000250 
#    y 0.000000 1.612420 0.000000 
#    z 0.000250 0.000000 1.627560 
# 
# From -- ./inp_files/37148.got.cif
#   From: 2010.05.17/outbox.cif.g08.bks.cpg/sg10_19_cif.got.tgz:37148.got - 2010.06.03 11:33:40.
