data_PCOD9150948
_publ_section_title
;
Structure prediction by ZEFSAII (Michael W. Deem and Ramdas Pophale) SiO2 
 PCOD9150948
Probable space group: P 2/M
;
_chemical_formula_sum "Si O2"
_cell_formula_units_Z 32
_cell_length_a 23.297466
_cell_length_b 7.859355
_cell_length_c 15.620708
_cell_angle_alpha 90.000000
_cell_angle_beta 148.377759
_cell_angle_gamma 90.000000
_cell_volume 1499.649691
_symmetry_space_group_name_H-M "P 2/M"
_symmetry_group_IT_number 10
_symmetry_cell_setting 'monoclinic'
loop_
_space_group_symop_operation_xyz
x,y,z
-x,y,-z
-x,-y,-z
x,-y,z
loop_
_atom_site_type_symbol
_atom_site_label
_atom_site_fract_x
_atom_site_fract_y
_atom_site_fract_z
Si Si1 0.373970 0.791741 0.331407
Si Si2 0.238102 0.298499 0.637736
Si Si3 0.718664 0.200003 0.605653
Si Si4 0.657342 0.294285 0.054976
Si Si5 0.760185 0.203882 0.004189
Si Si6 0.410088 0.706287 0.715299
Si Si7 0.000833 0.803684 0.277291
Si Si8 0.047755 0.697051 0.149477
O O1 0.500000 0.736622 0.500000
O O2 0.308212 0.739483 0.333002
O O3 0.375102 0.000000 0.332662
O O4 0.314462 0.732900 0.169370
O O5 0.259535 0.500000 0.666767
O O6 0.316194 0.230771 0.661196
O O7 0.111096 0.275489 0.455035
O O8 0.275012 0.230772 0.777008
O O9 0.616374 0.226800 0.412899
O O10 0.821641 0.292680 0.694130
O O11 0.744990 0.000000 0.642551
O O12 0.659550 0.500000 0.058360
O O13 0.530326 0.242271 0.898810
O O14 0.707059 0.238336 0.028078
O O15 0.884355 0.272026 0.157176
O O16 0.767835 0.000000 0.002071
O O17 0.406794 0.500000 0.707553
O O18 0.008574 0.790642 0.184343
O O19 0.003617 0.000000 0.306995
O O20 0.014100 0.500000 0.114869
O O21 0.000000 0.766663 0.000000
#
# Coordination Sequence:
#
# PCOD9150948 Si02
#       8
#     4   4   4   4   4   4   4   4
#     4   9  18  34  56  82 114 154 195 234 285 345
#     4  10  21  39  62  86 118 157 196 244 301 355
#     4  11  21  34  58  88 117 152 195 240 290 350
#     4  10  22  39  61  88 115 154 202 246 298 358
#     4  10  22  40  59  83 118 157 196 245 298 348
#     4  10  20  37  60  87 121 154 192 243 301 358
#     4  11  23  39  60  86 119 156 198 244 295 354
#     4  11  23  38  57  83 116 154 194 238 292 348
#
# _framework density 21.338317
#
# number of rings (size 3 to 8) (size 9 to 14) (size 15 to 20)
#    0.000    1.750    1.250    3.000    0.000    7.000 
#    0.000    3.750    0.000    5.625    0.000    0.000 
#    0.000    0.000    0.000    0.000    0.000    0.000 
#
# Total GULP energy -178853.952414 kJ/mol
# GULP energy per Si atom -5589.186013 kJ/mol
# Density = 2.128975 g / cm^3
# Si number density = 21.338317 Si / 1000 Ang^3
#
#
#
# Elastic Constant Matrix: (Units=GPa)
#
#
# Indices 1 2 3 4 5 6 
#
# 1 116.6429 1.4705 64.2361 0.0000 -2.5328 0.0000
# 2 1.4705 21.4224 -3.5551 0.0000 -0.3546 0.0000
# 3 64.2361 -3.5551 143.2964 0.0000 -10.7807 0.0000
# 4 0.0000 0.0000 0.0000 -42.2679 0.0000 -32.3303
# 5 -2.5328 -0.3546 -10.7807 0.0000 43.0543 0.0000
# 6 0.0000 0.0000 0.0000 -32.3303 0.0000 5.4632
#
#
#
# Elastic Compliance Matrix: (Units=1/GPa)
#
#
# Indices 1 2 3 4 5 6 
#
# 1 0.011458 -0.001665 -0.005227 0.000000 -0.000648 0.000000
# 2 -0.001665 0.047135 0.001975 0.000000 0.000785 0.000000
# 3 -0.005227 0.001975 0.009528 0.000000 0.002095 0.000000
# 4 0.000000 0.000000 0.000000 -0.004281 0.000000 -0.025334
# 5 -0.000648 0.000785 0.002095 0.000000 0.023719 0.000000
# 6 0.000000 0.000000 0.000000 -0.025334 0.000000 0.033121
#
#
# Mechanical properties :
#
#
# Convention : Reuss Voigt Hill
#
# Bulk Modulus (GPa) = 17.15607 45.07383 31.11495
# Shear Modulus (GPa) = 33.34592 15.86395 24.60494
#
# Velocity S-wave (km/s) = 3.95742 2.72958 3.39940
# Velocity P-wave (km/s) = 5.37950 5.57705 5.47917
#
# Compressibility (1/GPa) = 0.05828842
#
# Stress axis : x y z
#
# Youngs Moduli (GPa) = 87.27227 21.21563 104.95318
#
# Poissons Ratio (x) = 0.03532 0.54855
# Poissons Ratio (y) = 0.14528 -0.20725
# Poissons Ratio (z) = 0.45614 -0.04189
#
# Static dielectric constant tensor:
#      x y z
#    x 1.735020 0.000000 0.007410 
#    y 0.000000 1.777980 0.000000 
#    z 0.007410 0.000000 1.778870 
# 
# From -- ./inp_files/71644.got.cif
#   From: 2010.05.17/outbox.cif.g08.bks.cpg/sg10_36_cif.got.tgz:71644.got - 2010.06.03 11:33:40.
