data_PCOD9150288
_publ_section_title
;
Structure prediction by ZEFSAII (Michael W. Deem and Ramdas Pophale) SiO2 
 PCOD9150288
Probable space group: P 2/M
;
_chemical_formula_sum "Si O2"
_cell_formula_units_Z 24
_cell_length_a 15.312392
_cell_length_b 7.356472
_cell_length_c 21.686680
_cell_angle_alpha 90.000000
_cell_angle_beta 153.056899
_cell_angle_gamma 90.000000
_cell_volume 1106.891296
_symmetry_space_group_name_H-M "P 2/M"
_symmetry_group_IT_number 10
_symmetry_cell_setting 'monoclinic'
loop_
_space_group_symop_operation_xyz
x,y,z
-x,y,-z
-x,-y,-z
x,-y,z
loop_
_atom_site_type_symbol
_atom_site_label
_atom_site_fract_x
_atom_site_fract_y
_atom_site_fract_z
Si Si1 0.374455 0.500000 0.330396
Si Si2 0.300347 0.221614 0.663376
Si Si3 0.914059 0.796249 0.877922
Si Si4 0.285788 0.220517 0.038683
Si Si5 0.932772 0.779578 0.361344
Si Si6 0.786288 0.500000 0.631604
Si Si7 0.890475 0.218589 0.196391
O O1 0.275115 0.676128 0.239537
O O2 0.602354 0.500000 0.471488
O O3 0.300225 0.500000 0.354415
O O4 0.200734 0.275179 0.665477
O O5 0.151641 0.278355 0.516158
O O6 0.304076 0.000000 0.663936
O O7 0.521055 0.283935 0.805743
O O8 0.086593 0.718242 0.944490
O O9 0.869184 0.000000 0.827646
O O10 0.000000 0.805319 0.000000
O O11 0.271052 0.263805 0.956607
O O12 0.285249 0.000000 0.043515
O O13 0.859053 0.725837 0.247583
O O14 0.932611 0.000000 0.361731
O O15 0.918319 0.324332 0.703927
O O16 0.916362 0.000000 0.210790
#
# Coordination Sequence:
#
# PCOD9150288 Si02
#       7
#     2   4   4   4   4   2   4
#     4  11  23  40  58  81 111 148 189 231 285 339
#     4   8  14  27  49  80 112 143 185 227 273 332
#     4  10  21  38  60  85 114 147 186 235 285 335
#     4   9  17  30  51  78 108 144 184 226 274 330
#     4   8  15  28  50  80 113 146 180 227 276 327
#     4  11  24  38  58  81 111 150 186 234 284 335
#     4  10  20  36  57  81 111 147 187 230 281 332
#
# _framework density 21.682347
#
# number of rings (size 3 to 8) (size 9 to 14) (size 15 to 20)
#    0.000    2.667    1.667    1.250    0.000    2.667 
#    0.000    8.333    0.000    5.000    0.000    0.000 
#    0.000    0.000    0.000    0.000    0.000    0.000 
#
# Total GULP energy -133920.810305 kJ/mol
# GULP energy per Si atom -5580.033763 kJ/mol
# Density = 2.163300 g / cm^3
# Si number density = 21.682347 Si / 1000 Ang^3
#
#
#
# Elastic Constant Matrix: (Units=GPa)
#
#
# Indices 1 2 3 4 5 6 
#
# 1 33.2275 -10.2729 -13.4852 0.0000 -19.7713 0.0000
# 2 -10.2729 81.5756 11.0017 0.0000 4.5834 0.0000
# 3 -13.4852 11.0017 84.4829 0.0000 5.9075 0.0000
# 4 0.0000 0.0000 0.0000 2.7145 0.0000 6.1279
# 5 -19.7713 4.5834 5.9075 0.0000 29.7326 0.0000
# 6 0.0000 0.0000 0.0000 6.1279 0.0000 4.2942
#
#
#
# Elastic Compliance Matrix: (Units=1/GPa)
#
#
# Indices 1 2 3 4 5 6 
#
# 1 0.053991 0.004113 0.005695 0.000000 0.034137 0.000000
# 2 0.004113 0.012869 -0.001087 0.000000 0.000967 0.000000
# 3 0.005695 -0.001087 0.012788 0.000000 0.001414 0.000000
# 4 0.000000 0.000000 0.000000 -0.165835 0.000000 0.236650
# 5 0.034137 0.000967 0.001414 0.000000 0.055903 0.000000
# 6 0.000000 0.000000 0.000000 0.236650 0.000000 -0.104831
#
#
# Mechanical properties :
#
#
# Convention : Reuss Voigt Hill
#
# Bulk Modulus (GPa) = 10.29958 19.30812 14.80385
# Shear Modulus (GPa) = -41.59945 21.48441 -10.05752
#
# Velocity S-wave (km/s) = -4.38492 3.15123 -2.15607
# Velocity P-wave (km/s) = 4.56904 4.70793 0.80264
#
# Compressibility (1/GPa) = 0.09709133
#
# Stress axis : x y z
#
# Youngs Moduli (GPa) = 18.52161 77.70749 78.19533
#
# Poissons Ratio (x) = -0.31961 -0.44536
# Poissons Ratio (y) = -0.07618 0.08499
# Poissons Ratio (z) = -0.10549 0.08446
#
# Static dielectric constant tensor:
#      x y z
#    x 1.793090 0.000000 -0.026100 
#    y 0.000000 1.817660 0.000000 
#    z -0.026100 0.000000 1.778120 
# 
# From -- ./inp_files/90090.got.cif
#   From: 2010.05.17/outbox.cif.g08.bks.cpg/sg10_46_cif.got.tgz:90090.got - 2010.06.03 11:33:40.
