data_PCOD9150262
_publ_section_title
;
Structure prediction by ZEFSAII (Michael W. Deem and Ramdas Pophale) SiO2 
 PCOD9150262
Probable space group: P 2/M
;
_chemical_formula_sum "Si O2"
_cell_formula_units_Z 28
_cell_length_a 24.271790
_cell_length_b 7.547573
_cell_length_c 22.487372
_cell_angle_alpha 90.000000
_cell_angle_beta 162.262886
_cell_angle_gamma 90.000000
_cell_volume 1255.015674
_symmetry_space_group_name_H-M "P 2/M"
_symmetry_group_IT_number 10
_symmetry_cell_setting 'monoclinic'
loop_
_space_group_symop_operation_xyz
x,y,z
-x,y,-z
-x,-y,-z
x,-y,z
loop_
_atom_site_type_symbol
_atom_site_label
_atom_site_fract_x
_atom_site_fract_y
_atom_site_fract_z
Si Si1 0.312059 0.789484 0.233243
Si Si2 0.789457 0.796332 0.616229
Si Si3 0.839328 0.701070 0.049255
Si Si4 0.744665 0.790385 0.697383
Si Si5 0.498138 0.792575 0.769830
Si Si6 0.477505 0.216584 0.882216
Si Si7 0.205467 0.783900 0.703608
O O1 0.528187 0.773479 0.463938
O O2 0.222051 0.719984 0.201875
O O3 0.272263 0.000000 0.187242
O O4 0.252935 0.707488 0.110676
O O5 0.826241 0.718547 0.719751
O O6 0.630877 0.713237 0.413881
O O7 0.970027 0.794821 0.763478
O O8 0.734413 0.000000 0.572162
O O9 0.875548 0.500000 0.103320
O O10 0.701245 0.780177 0.954580
O O11 0.789795 0.000000 0.748606
O O12 0.474912 0.718948 0.811955
O O13 0.448287 0.000000 0.722577
O O14 0.305835 0.269560 0.745797
O O15 0.479475 0.000000 0.883364
O O16 0.659135 0.270050 0.104140
O O17 0.000000 0.722648 0.500000
O O18 0.201971 0.000000 0.700139
#
# Coordination Sequence:
#
# PCOD9150262 Si02
#       7
#     4   4   4   4   4   4   4
#     4   9  16  33  58  80 101 130 175 223 269 322
#     4  10  20  36  57  79 102 135 181 228 270 316
#     4  12  25  37  51  76 110 145 177 218 276 330
#     4   8  15  30  57  83 100 126 171 226 273 316
#     4  10  20  37  59  79 104 141 188 231 260 302
#     4   8  15  26  44  74 106 138 173 208 253 308
#     4   8  13  23  41  71 113 144 160 195 258 318
#
# _framework density 22.310479999999998
#
# number of rings (size 3 to 8) (size 9 to 14) (size 15 to 20)
#    0.000    2.714    1.429    3.000    0.000    2.286 
#    0.000    9.286    0.000    0.000    0.000    2.000 
#    0.000    5.714    0.000    0.000    0.000    0.000 
#
# Total GULP energy -156271.322319 kJ/mol
# GULP energy per Si atom -5581.118654 kJ/mol
# Density = 2.225970 g / cm^3
# Si number density = 22.310480 Si / 1000 Ang^3
#
#
#
# Elastic Constant Matrix: (Units=GPa)
#
#
# Indices 1 2 3 4 5 6 
#
# 1 173.7740 -0.1732 66.1533 0.0000 -3.6684 0.0000
# 2 -0.1732 50.3541 0.2246 0.0000 -7.9441 0.0000
# 3 66.1533 0.2246 68.9361 0.0000 19.2620 0.0000
# 4 0.0000 0.0000 0.0000 2.9402 0.0000 -6.9079
# 5 -3.6684 -7.9441 19.2620 0.0000 29.3411 0.0000
# 6 0.0000 0.0000 0.0000 -6.9079 0.0000 -25.9780
#
#
#
# Elastic Compliance Matrix: (Units=1/GPa)
#
#
# Indices 1 2 3 4 5 6 
#
# 1 0.011295 0.001846 -0.013936 0.000000 0.011060 0.000000
# 2 0.001846 0.021276 -0.004304 0.000000 0.008817 0.000000
# 3 -0.013936 -0.004304 0.035154 0.000000 -0.025986 0.000000
# 4 0.000000 0.000000 0.000000 0.209333 0.000000 -0.055665
# 5 0.011060 0.008817 -0.025986 0.000000 0.054911 0.000000
# 6 0.000000 0.000000 0.000000 -0.055665 0.000000 -0.023692
#
#
# Mechanical properties :
#
#
# Convention : Reuss Voigt Hill
#
# Bulk Modulus (GPa) = 28.62287 47.27485 37.94886
# Shear Modulus (GPa) = 14.17593 16.38461 15.28027
#
# Velocity S-wave (km/s) = 2.52344 2.71290 2.61988
# Velocity P-wave (km/s) = 4.62033 5.57213 5.11841
#
# Compressibility (1/GPa) = 0.03493710
#
# Stress axis : x y z
#
# Youngs Moduli (GPa) = 88.53486 47.00144 28.44615
#
# Poissons Ratio (x) = -0.08676 0.39641
# Poissons Ratio (y) = -0.16343 0.12244
# Poissons Ratio (z) = 1.23378 0.20231
#
# Static dielectric constant tensor:
#      x y z
#    x 1.832600 0.000000 -0.007400 
#    y 0.000000 1.871000 0.000000 
#    z -0.007400 0.000000 1.816980 
# 
# From -- ./inp_files/86557.got.cif
#   From: 2010.05.17/outbox.cif.g08.bks.cpg/sg10_44_cif.got.tgz:86557.got - 2010.06.03 11:33:40.
