data_PCOD9150930
_publ_section_title
;
Structure prediction by ZEFSAII (Michael W. Deem and Ramdas Pophale) SiO2 
 PCOD9150930
Probable space group: P 2/M
;
_chemical_formula_sum "Si O2"
_cell_formula_units_Z 32
_cell_length_a 13.527823
_cell_length_b 7.684691
_cell_length_c 14.446244
_cell_angle_alpha 90.000000
_cell_angle_beta 111.957280
_cell_angle_gamma 90.000000
_cell_volume 1392.854707
_symmetry_space_group_name_H-M "P 2/M"
_symmetry_group_IT_number 10
_symmetry_cell_setting 'monoclinic'
loop_
_space_group_symop_operation_xyz
x,y,z
-x,y,-z
-x,-y,-z
x,-y,z
loop_
_atom_site_type_symbol
_atom_site_label
_atom_site_fract_x
_atom_site_fract_y
_atom_site_fract_z
Si Si1 0.878068 0.706473 0.442889
Si Si2 0.956885 0.213168 0.084676
Si Si3 0.710442 0.210265 0.240464
Si Si4 0.324069 0.302103 0.176504
Si Si5 0.708869 0.799834 0.537122
Si Si6 0.842820 0.801448 0.748074
Si Si7 0.284668 0.209768 0.964533
Si Si8 0.544663 0.788809 0.339419
O O1 0.874963 0.500000 0.460459
O O2 0.824913 0.737711 0.323712
O O3 0.797722 0.796452 0.487118
O O4 0.000000 0.765308 0.500000
O O5 0.836829 0.267917 0.060208
O O6 0.042207 0.275562 0.190339
O O7 0.958393 0.000000 0.086817
O O8 0.000000 0.268143 0.000000
O O9 0.686805 0.271524 0.128275
O O10 0.620505 0.269016 0.281269
O O11 0.709094 0.000000 0.238940
O O12 0.290410 0.500000 0.172433
O O13 0.224760 0.193731 0.180742
O O14 0.426094 0.267812 0.275785
O O15 0.349335 0.263673 0.078194
O O16 0.766611 0.716326 0.645156
O O17 0.602552 0.725436 0.453055
O O18 0.682130 0.000000 0.553123
O O19 0.861566 0.000000 0.722917
O O20 0.287460 0.000000 0.963900
O O21 0.545904 0.000000 0.341997
#
# Coordination Sequence:
#
# PCOD9150930 Si02
#       8
#     4   4   4   4   4   4   4   4
#     4  10  21  35  52  79 120 161 188 220 277 339
#     4   9  16  30  56  85 112 143 179 222 280 334
#     4   9  20  37  61  87 109 142 192 242 285 326
#     4  12  25  38  55  82 112 152 193 229 281 345
#     4   9  20  37  61  87 109 142 192 242 285 326
#     4  10  20  37  60  86 114 146 186 236 284 333
#     4  10  20  37  60  86 114 146 186 236 284 333
#     4   9  19  39  59  81 111 143 185 240 293 334
#
# _framework density 22.974398000000001
#
# number of rings (size 3 to 8) (size 9 to 14) (size 15 to 20)
#    0.000    2.250    1.250    2.250    1.750    5.000 
#    0.000    6.250    0.000    0.000    0.000    0.000 
#    0.000    0.000    0.000    0.000    0.000    0.000 
#
# Total GULP energy -178706.093586 kJ/mol
# GULP energy per Si atom -5584.565425 kJ/mol
# Density = 2.292211 g / cm^3
# Si number density = 22.974398 Si / 1000 Ang^3
#
#
#
# Elastic Constant Matrix: (Units=GPa)
#
#
# Indices 1 2 3 4 5 6 
#
# 1 33.5659 -5.5647 1.1364 0.0000 17.5344 0.0000
# 2 -5.5647 51.5335 0.7918 0.0000 0.8380 0.0000
# 3 1.1364 0.7918 128.0248 0.0000 15.3187 0.0000
# 4 0.0000 0.0000 0.0000 -58.1235 0.0000 -20.7083
# 5 17.5344 0.8380 15.3187 0.0000 38.8114 0.0000
# 6 0.0000 0.0000 0.0000 -20.7083 0.0000 -22.6957
#
#
#
# Elastic Compliance Matrix: (Units=1/GPa)
#
#
# Indices 1 2 3 4 5 6 
#
# 1 0.040504 0.004656 0.001903 0.000000 -0.019151 0.000000
# 2 0.004656 0.019947 0.000145 0.000000 -0.002592 0.000000
# 3 0.001903 0.000145 0.008288 0.000000 -0.004134 0.000000
# 4 0.000000 0.000000 0.000000 -0.025492 0.000000 0.023259
# 5 -0.019151 -0.002592 -0.004134 0.000000 0.036105 0.000000
# 6 0.000000 0.000000 0.000000 0.023259 0.000000 -0.065284
#
#
# Mechanical properties :
#
#
# Convention : Reuss Voigt Hill
#
# Bulk Modulus (GPa) = 12.17322 22.87237 17.52279
# Shear Modulus (GPa) = 178.30064 6.04916 92.17490
#
# Velocity S-wave (km/s) = 8.81912 1.62441 6.34096
# Velocity P-wave (km/s) = 10.44091 3.67362 7.82650
#
# Compressibility (1/GPa) = 0.08214757
#
# Stress axis : x y z
#
# Youngs Moduli (GPa) = 24.68918 50.13162 120.65845
#
# Poissons Ratio (x) = -0.23340 -0.22963
# Poissons Ratio (y) = -0.11495 -0.01754
# Poissons Ratio (z) = -0.04699 -0.00729
#
# Static dielectric constant tensor:
#      x y z
#    x 1.822700 0.000000 -0.003340 
#    y 0.000000 1.848060 0.000000 
#    z -0.003340 0.000000 1.901370 
# 
# From -- ./inp_files/66564.got.cif
#   From: 2010.05.17/outbox.cif.g08.bks.cpg/sg10_34_cif.got.tgz:66564.got - 2010.06.03 11:33:40.
