data_PCOD9150784
_publ_section_title
;
Structure prediction by ZEFSAII (Michael W. Deem and Ramdas Pophale) SiO2 
 PCOD9150784
Probable space group: P 2/M
;
_chemical_formula_sum "Si O2"
_cell_formula_units_Z 28
_cell_length_a 13.489669
_cell_length_b 14.107566
_cell_length_c 8.547184
_cell_angle_alpha 90.000000
_cell_angle_beta 59.580169
_cell_angle_gamma 90.000000
_cell_volume 1402.665770
_symmetry_space_group_name_H-M "P 2/M"
_symmetry_group_IT_number 10
_symmetry_cell_setting 'monoclinic'
loop_
_space_group_symop_operation_xyz
x,y,z
-x,y,-z
-x,-y,-z
x,-y,z
loop_
_atom_site_type_symbol
_atom_site_label
_atom_site_fract_x
_atom_site_fract_y
_atom_site_fract_z
Si Si1 0.803910 0.755608 0.332484
Si Si2 0.089482 0.391232 0.555722
Si Si3 0.597286 0.206832 0.047511
Si Si4 0.334017 0.603439 0.184986
Si Si5 0.184844 0.113041 0.982079
Si Si6 0.552963 0.679381 0.611484
Si Si7 0.955837 0.105590 0.360339
O O1 0.888092 0.666873 0.303087
O O2 0.813835 0.815363 0.165976
O O3 0.675282 0.721815 0.463403
O O4 0.847301 0.827443 0.430507
O O5 0.055477 0.500000 0.616743
O O6 0.210077 0.392366 0.366691
O O7 0.000000 0.350377 0.500000
O O8 0.703105 0.138338 0.002828
O O9 0.529755 0.237413 0.258587
O O10 0.500000 0.173683 0.000000
O O11 0.648500 0.305118 0.936432
O O12 0.345988 0.500000 0.099615
O O13 0.423439 0.614272 0.257072
O O14 0.187027 0.000000 0.942275
O O15 0.064913 0.132622 0.166771
O O16 0.500000 0.632679 0.500000
O O17 0.000000 0.104466 0.500000
O O18 0.921492 0.000000 0.339927
#
# Coordination Sequence:
#
# PCOD9150784 Si02
#       7
#     4   4   4   4   4   4   4
#     4  11  21  37  64  86 122 163 196 239 312 353
#     4   9  19  36  61  95 128 159 202 248 295 362
#     4  10  22  38  61  85 122 157 202 251 296 356
#     4   9  20  37  60  88 119 160 201 244 298 354
#     4  11  24  42  62  89 122 156 201 255 306 358
#     4  10  20  37  56  87 120 155 197 244 287 362
#     4  10  23  40  62  91 116 150 206 255 298 359
#
# _framework density 19.961988999999999
#
# number of rings (size 3 to 8) (size 9 to 14) (size 15 to 20)
#    0.000    2.000    1.429    1.286    8.000    4.286 
#    0.000    2.857    0.000    1.714    0.000    0.000 
#    0.000    0.000    0.000    0.000    0.000    0.000 
#
# Total GULP energy -156138.635400 kJ/mol
# GULP energy per Si atom -5576.379836 kJ/mol
# Density = 1.991655 g / cm^3
# Si number density = 19.961989 Si / 1000 Ang^3
#
#
#
# Elastic Constant Matrix: (Units=GPa)
#
#
# Indices 1 2 3 4 5 6 
#
# 1 97.7113 36.4923 1.7827 0.0000 7.0686 0.0000
# 2 36.4923 89.4945 29.4072 0.0000 4.7850 0.0000
# 3 1.7827 29.4072 43.6062 0.0000 12.7631 0.0000
# 4 0.0000 0.0000 0.0000 -591.8389 0.0000 702.5973
# 5 7.0686 4.7850 12.7631 0.0000 23.9574 0.0000
# 6 0.0000 0.0000 0.0000 702.5973 0.0000 -764.8792
#
#
#
# Elastic Compliance Matrix: (Units=1/GPa)
#
#
# Indices 1 2 3 4 5 6 
#
# 1 0.013129 -0.006956 0.005784 0.000000 -0.005566 0.000000
# 2 -0.006956 0.018191 -0.013649 0.000000 0.005691 0.000000
# 3 0.005784 -0.013649 0.037440 0.000000 -0.018926 0.000000
# 4 0.000000 0.000000 0.000000 0.018675 0.000000 0.017154
# 5 -0.005566 0.005691 -0.018926 0.000000 0.052329 0.000000
# 6 0.000000 0.000000 0.000000 0.017154 0.000000 0.014450
#
#
# Mechanical properties :
#
#
# Convention : Reuss Voigt Hill
#
# Bulk Modulus (GPa) = 25.56437 40.68628 33.12533
# Shear Modulus (GPa) = 25.39391 -255.67684 -115.14146
#
# Velocity S-wave (km/s) = 3.57054 -11.32960 -7.60300
# Velocity P-wave (km/s) = 5.46193 12.27682 7.77457
#
# Compressibility (1/GPa) = 0.03911694
#
# Stress axis : x y z
#
# Youngs Moduli (GPa) = 76.16507 54.97183 26.70925
#
# Poissons Ratio (x) = 0.38241 -0.15447
# Poissons Ratio (y) = 0.52984 0.36455
# Poissons Ratio (z) = -0.44050 0.75031
#
# Static dielectric constant tensor:
#      x y z
#    x 1.724080 0.000000 0.018110 
#    y 0.000000 1.729290 0.000000 
#    z 0.018110 0.000000 1.698720 
# 
# From -- ./inp_files/25187.got.cif
#   From: 2010.05.17/outbox.cif.g08.bks.cpg/sg10_13_cif.got.tgz:25187.got - 2010.06.03 11:33:40.
