data_PCOD9150099
_publ_section_title
;
Structure prediction by ZEFSAII (Michael W. Deem and Ramdas Pophale) SiO2 
 PCOD9150099
Probable space group: P 2/M
;
_chemical_formula_sum "Si O2"
_cell_formula_units_Z 24
_cell_length_a 11.026565
_cell_length_b 7.541694
_cell_length_c 12.411903
_cell_angle_alpha 90.000000
_cell_angle_beta 100.423547
_cell_angle_gamma 90.000000
_cell_volume 1015.127632
_symmetry_space_group_name_H-M "P 2/M"
_symmetry_group_IT_number 10
_symmetry_cell_setting 'monoclinic'
loop_
_space_group_symop_operation_xyz
x,y,z
-x,y,-z
-x,-y,-z
x,-y,z
loop_
_atom_site_type_symbol
_atom_site_label
_atom_site_fract_x
_atom_site_fract_y
_atom_site_fract_z
Si Si1 0.638318 0.200795 0.508137
Si Si2 0.308095 0.703230 0.251875
Si Si3 0.796028 0.205080 0.179795
Si Si4 0.876108 0.781980 0.417343
Si Si5 0.476687 0.714847 0.873224
Si Si6 0.855431 0.793817 0.959378
O O1 0.500000 0.280200 0.500000
O O2 0.695416 0.196688 0.636961
O O3 0.747612 0.278905 0.452027
O O4 0.617305 0.000000 0.464154
O O5 0.335906 0.500000 0.284203
O O6 0.415325 0.770474 0.189596
O O7 0.187948 0.708813 0.158098
O O8 0.874005 0.276492 0.292145
O O9 0.653358 0.214848 0.188483
O O10 0.834932 0.000000 0.171915
O O11 0.800738 0.286224 0.060907
O O12 0.000000 0.728013 0.500000
O O13 0.873793 0.000000 0.418300
O O14 0.473522 0.500000 0.873265
O O15 0.500000 0.773890 0.000000
O O16 0.818038 0.000000 0.944315
O O17 0.000000 0.784195 0.000000
#
# Coordination Sequence:
#
# PCOD9150099 Si02
#       6
#     4   4   4   4   4   4
#     4  10  21  38  61  87 116 151 196 246 291 340
#     4  11  23  38  59  85 116 154 193 234 286 348
#     4  10  20  35  59  88 113 143 189 237 282 340
#     4   9  19  35  58  85 114 149 187 235 292 343
#     4  10  20  36  55  79 114 151 184 223 282 343
#     4  10  22  37  57  87 118 149 189 238 290 343
#
# _framework density 23.642346
#
# number of rings (size 3 to 8) (size 9 to 14) (size 15 to 20)
#    0.000    2.000    1.667    1.500    2.333    3.667 
#    0.000    0.833    0.000    1.000    0.000    0.000 
#    0.000    0.000    0.000    0.000    0.000    0.000 
#
# Total GULP energy -134073.940642 kJ/mol
# GULP energy per Si atom -5586.414193 kJ/mol
# Density = 2.358853 g / cm^3
# Si number density = 23.642346 Si / 1000 Ang^3
#
#
#
# Elastic Constant Matrix: (Units=GPa)
#
#
# Indices 1 2 3 4 5 6 
#
# 1 65.8424 6.3227 9.9681 0.0000 11.9877 0.0000
# 2 6.3227 56.1584 2.5377 0.0000 -2.1996 0.0000
# 3 9.9681 2.5377 133.1481 0.0000 18.5218 0.0000
# 4 0.0000 0.0000 0.0000 55.7346 0.0000 46.3178
# 5 11.9877 -2.1996 18.5218 0.0000 40.4626 0.0000
# 6 0.0000 0.0000 0.0000 46.3178 0.0000 29.0175
#
#
#
# Elastic Compliance Matrix: (Units=1/GPa)
#
#
# Indices 1 2 3 4 5 6 
#
# 1 0.016315 -0.001997 -0.000530 0.000000 -0.004700 0.000000
# 2 -0.001997 0.018121 -0.000443 0.000000 0.001780 0.000000
# 3 -0.000530 -0.000443 0.008053 0.000000 -0.003553 0.000000
# 4 0.000000 0.000000 0.000000 -0.054952 0.000000 0.087714
# 5 -0.004700 0.001780 -0.003553 0.000000 0.027830 0.000000
# 6 0.000000 0.000000 0.000000 0.087714 0.000000 -0.105547
#
#
# Mechanical properties :
#
#
# Convention : Reuss Voigt Hill
#
# Bulk Modulus (GPa) = 27.36024 32.53400 29.94712
# Shear Modulus (GPa) = -69.39097 40.79764 -14.29667
#
# Velocity S-wave (km/s) = -5.42347 4.15856 -2.46174
# Velocity P-wave (km/s) = 5.25557 6.07033 2.14802
#
# Compressibility (1/GPa) = 0.03654939
#
# Stress axis : x y z
#
# Youngs Moduli (GPa) = 61.29168 55.18344 124.17981
#
# Poissons Ratio (x) = 0.11021 0.06577
# Poissons Ratio (y) = 0.12240 0.05507
# Poissons Ratio (z) = 0.03246 0.02447
#
# Static dielectric constant tensor:
#      x y z
#    x 1.911590 0.000000 -0.021510 
#    y 0.000000 1.920930 0.000000 
#    z -0.021510 0.000000 1.894970 
# 
# From -- ./inp_files/45281.got.cif
#   From: 2010.05.17/outbox.cif.g08.bks.cpg/sg10_23_cif.got.tgz:45281.got - 2010.06.03 11:33:40.
