data_PCOD9150251
_publ_section_title
;
Structure prediction by ZEFSAII (Michael W. Deem and Ramdas Pophale) SiO2 
 PCOD9150251
Probable space group: P 2/M
;
_chemical_formula_sum "Si O2"
_cell_formula_units_Z 30
_cell_length_a 10.571731
_cell_length_b 16.424911
_cell_length_c 8.912457
_cell_angle_alpha 90.000000
_cell_angle_beta 111.993664
_cell_angle_gamma 90.000000
_cell_volume 1434.933707
_symmetry_space_group_name_H-M "P 2/M"
_symmetry_group_IT_number 10
_symmetry_cell_setting 'monoclinic'
loop_
_space_group_symop_operation_xyz
x,y,z
-x,y,-z
-x,-y,-z
x,-y,z
loop_
_atom_site_type_symbol
_atom_site_label
_atom_site_fract_x
_atom_site_fract_y
_atom_site_fract_z
Si Si1 0.414652 0.593284 0.228668
Si Si2 0.622049 0.859541 0.355942
Si Si3 0.600553 0.765371 0.900623
Si Si4 0.125134 0.253069 0.445228
Si Si5 0.717904 0.000000 0.608268
Si Si6 0.952539 0.873191 0.808628
Si Si7 0.707146 0.408902 0.489174
Si Si8 0.753204 0.089684 0.108776
O O1 0.394981 0.500000 0.161082
O O2 0.358767 0.672715 0.118067
O O3 0.351818 0.594350 0.367751
O O4 0.577376 0.607380 0.323387
O O5 0.485363 0.807182 0.272217
O O6 0.744585 0.797244 0.440265
O O7 0.629964 0.928612 0.482768
O O8 0.659140 0.902607 0.213802
O O9 0.500000 0.761263 0.000000
O O10 0.715342 0.831739 0.992659
O O11 0.083998 0.216375 0.266344
O O12 0.173094 0.345103 0.468684
O O13 0.000000 0.239407 0.500000
O O14 0.824329 0.929913 0.720157
O O15 0.087299 0.904012 0.778775
O O16 0.000000 0.877955 0.000000
O O17 0.753956 0.500000 0.479388
O O18 0.728566 0.000000 0.027549
#
# Coordination Sequence:
#
# PCOD9150251 Si02
#       8
#     4   4   4   4   2   4   4   4
#     4   9  18  37  61  86 118 154 195 242 301 367
#     4  10  20  36  56  86 110 149 207 245 290 342
#     4  10  22  35  57  88 122 153 197 250 301 354
#     4  11  21  36  63  88 116 153 200 251 287 353
#     4  10  21  35  61  73 113 155 200 249 285 343
#     4  11  24  38  55  83 115 157 200 243 297 354
#     4   9  19  36  62  90 115 147 191 246 307 358
#     4  11  22  36  57  79 121 162 201 238 297 354
#
# _framework density 20.906891000000002
#
# number of rings (size 3 to 8) (size 9 to 14) (size 15 to 20)
#    0.000    1.867    4.000    1.000    2.800    1.867 
#    0.000    0.000    0.000    2.000    0.000    0.000 
#    0.000    0.000    0.000    0.000    0.000    0.000 
#
# Total GULP energy -167005.398934 kJ/mol
# GULP energy per Si atom -5566.846631 kJ/mol
# Density = 2.085931 g / cm^3
# Si number density = 20.906891 Si / 1000 Ang^3
#
#
#
# Elastic Constant Matrix: (Units=GPa)
#
#
# Indices 1 2 3 4 5 6 
#
# 1 36.2154 21.6946 16.9343 0.0000 3.3641 0.0000
# 2 21.6946 172.9162 49.8307 0.0000 13.3038 0.0000
# 3 16.9343 49.8307 62.9218 0.0000 15.3730 0.0000
# 4 0.0000 0.0000 0.0000 27.8819 0.0000 2.3580
# 5 3.3641 13.3038 15.3730 0.0000 13.2179 0.0000
# 6 0.0000 0.0000 0.0000 2.3580 0.0000 9.7286
#
#
#
# Elastic Compliance Matrix: (Units=1/GPa)
#
#
# Indices 1 2 3 4 5 6 
#
# 1 0.032187 -0.002022 -0.007763 0.000000 0.002872 0.000000
# 2 -0.002022 0.007628 -0.005234 0.000000 -0.001076 0.000000
# 3 -0.007763 -0.005234 0.028438 0.000000 -0.025831 0.000000
# 4 0.000000 0.000000 0.000000 0.036616 0.000000 -0.008875
# 5 0.002872 -0.001076 -0.025831 0.000000 0.106049 0.000000
# 6 0.000000 0.000000 0.000000 -0.008875 0.000000 0.104941
#
#
# Mechanical properties :
#
#
# Convention : Reuss Voigt Hill
#
# Bulk Modulus (GPa) = 26.16758 49.88582 38.02670
# Shear Modulus (GPa) = 13.94175 22.40526 18.17351
#
# Velocity S-wave (km/s) = 2.58514 3.27719 2.95152
# Velocity P-wave (km/s) = 4.63185 6.18326 5.46291
#
# Compressibility (1/GPa) = 0.03821522
#
# Stress axis : x y z
#
# Youngs Moduli (GPa) = 31.06846 131.09771 35.16442
#
# Poissons Ratio (x) = 0.26510 0.27297
# Poissons Ratio (y) = 0.06283 0.18405
# Poissons Ratio (z) = 0.24118 0.68615
#
# Static dielectric constant tensor:
#      x y z
#    x 1.784340 0.000000 -0.040630 
#    y 0.000000 1.741590 0.000000 
#    z -0.040630 0.000000 1.777430 
# 
# From -- ./inp_files/25362.got.cif
#   From: 2010.05.17/outbox.cif.g08.bks.cpg/sg10_13_cif.got.tgz:25362.got - 2010.06.03 11:33:40.
