data_PCOD9150670
_publ_section_title
;
Structure prediction by ZEFSAII (Michael W. Deem and Ramdas Pophale) SiO2 
 PCOD9150670
Probable space group: P 2/M
;
_chemical_formula_sum "Si O2"
_cell_formula_units_Z 32
_cell_length_a 28.974521
_cell_length_b 9.000765
_cell_length_c 12.612360
_cell_angle_alpha 90.000000
_cell_angle_beta 149.398224
_cell_angle_gamma 90.000000
_cell_volume 1674.433586
_symmetry_space_group_name_H-M "P 2/M"
_symmetry_group_IT_number 10
_symmetry_cell_setting 'monoclinic'
loop_
_space_group_symop_operation_xyz
x,y,z
-x,y,-z
-x,-y,-z
x,-y,z
loop_
_atom_site_type_symbol
_atom_site_label
_atom_site_fract_x
_atom_site_fract_y
_atom_site_fract_z
Si Si1 0.709314 0.327630 0.375461
Si Si2 0.233557 0.178064 0.299249
Si Si3 0.325552 0.177345 0.255793
Si Si4 0.024249 0.821826 0.927927
Si Si5 0.141054 0.673355 0.500980
Si Si6 0.538282 0.171792 0.957475
Si Si7 0.504538 0.323460 0.683228
Si Si8 0.288412 0.679637 0.967490
O O1 0.680198 0.500000 0.316510
O O2 0.717254 0.264245 0.508731
O O3 0.804099 0.317303 0.501313
O O4 0.639994 0.229601 0.171117
O O5 0.274882 0.212382 0.266165
O O6 0.244193 0.000000 0.337977
O O7 0.127107 0.215556 0.099377
O O8 0.426964 0.243969 0.462355
O O9 0.329761 0.000000 0.253213
O O10 0.275447 0.249434 0.056796
O O11 0.951651 0.759248 0.701365
O O12 0.017180 0.000000 0.914842
O O13 0.000000 0.769870 0.000000
O O14 0.122014 0.500000 0.483880
O O15 0.210950 0.725498 0.730453
O O16 0.489443 0.272811 0.774568
O O17 0.532157 0.000000 0.912244
O O18 0.500000 0.185271 0.000000
O O19 0.496416 0.500000 0.654395
O O20 0.608522 0.279814 0.863241
O O21 0.286600 0.500000 0.968716
#
# Coordination Sequence:
#
# PCOD9150670 Si02
#       8
#     4   4   4   4   4   4   4   4
#     4  11  21  35  57  85 116 152 192 233 289 351
#     4  10  22  40  58  84 123 155 189 241 294 347
#     4  11  24  40  59  86 118 154 197 244 291 343
#     4  10  20  36  61  89 115 153 194 232 288 352
#     4  10  21  38  59  87 118 147 186 241 292 339
#     4  11  23  36  52  80 119 158 194 237 288 343
#     4  11  22  39  61  85 115 154 198 244 290 342
#     4  10  22  42  62  83 116 155 196 243 291 340
#
# _framework density 19.110941
#
# number of rings (size 3 to 8) (size 9 to 14) (size 15 to 20)
#    0.000    1.500    2.500    2.625    0.000    9.250 
#    0.000    0.625    0.000    3.750    0.000    0.000 
#    0.000    0.000    0.000    0.000    0.000    0.000 
#
# Total GULP energy -178755.368916 kJ/mol
# GULP energy per Si atom -5586.105279 kJ/mol
# Density = 1.906744 g / cm^3
# Si number density = 19.110941 Si / 1000 Ang^3
#
#
#
# Elastic Constant Matrix: (Units=GPa)
#
#
# Indices 1 2 3 4 5 6 
#
# 1 64.3934 19.0475 34.8689 0.0000 -15.5624 0.0000
# 2 19.0475 2.3056 16.2014 0.0000 -4.3224 0.0000
# 3 34.8689 16.2014 115.8557 0.0000 -13.2835 0.0000
# 4 0.0000 0.0000 0.0000 43.5246 0.0000 12.2689
# 5 -15.5624 -4.3224 -13.2835 0.0000 32.5512 0.0000
# 6 0.0000 0.0000 0.0000 12.2689 0.0000 39.0906
#
#
#
# Elastic Compliance Matrix: (Units=1/GPa)
#
#
# Indices 1 2 3 4 5 6 
#
# 1 0.000850 0.072276 -0.009668 0.000000 0.006058 0.000000
# 2 0.072276 -0.270442 0.016692 0.000000 0.005455 0.000000
# 3 -0.009668 0.016692 0.009370 0.000000 0.001418 0.000000
# 4 0.000000 0.000000 0.000000 0.025205 0.000000 -0.007911
# 5 0.006058 0.005455 0.001418 0.000000 0.034920 0.000000
# 6 0.000000 0.000000 0.000000 -0.007911 0.000000 0.028064
#
#
# Mechanical properties :
#
#
# Convention : Reuss Voigt Hill
#
# Bulk Modulus (GPa) = -9.84024 35.86558 13.01267
# Shear Modulus (GPa) = -13.71722 30.52907 8.40592
#
# Velocity S-wave (km/s) = -2.68203 4.00117 2.09953
# Velocity P-wave (km/s) = 3.84073 6.33668 3.56387
#
# Compressibility (1/GPa) = -0.10162356
#
# Stress axis : x y z
#
# Youngs Moduli (GPa) = 1176.60553 -3.69765 106.72722
#
# Poissons Ratio (x) = 0.26725 1.03188
# Poissons Ratio (y) = -85.04052 -1.78144
# Poissons Ratio (z) = 11.37588 0.06172
#
# Static dielectric constant tensor:
#      x y z
#    x 1.685000 0.000000 0.002730 
#    y 0.000000 1.641550 0.000000 
#    z 0.002730 0.000000 1.669820 
# 
# From -- ./inp_files/58174.got.cif
#   From: 2010.05.17/outbox.cif.g08.bks.cpg/sg10_30_cif.got.tgz:58174.got - 2010.06.03 11:33:40.
