data_PCOD9150526
_publ_section_title
;
Structure prediction by ZEFSAII (Michael W. Deem and Ramdas Pophale) SiO2 
 PCOD9150526
Probable space group: P 2/M
;
_chemical_formula_sum "Si O2"
_cell_formula_units_Z 28
_cell_length_a 14.738236
_cell_length_b 13.846822
_cell_length_c 9.194554
_cell_angle_alpha 90.000000
_cell_angle_beta 54.608632
_cell_angle_gamma 90.000000
_cell_volume 1529.672564
_symmetry_space_group_name_H-M "P 2/M"
_symmetry_group_IT_number 10
_symmetry_cell_setting 'monoclinic'
loop_
_space_group_symop_operation_xyz
x,y,z
-x,y,-z
-x,-y,-z
x,-y,z
loop_
_atom_site_type_symbol
_atom_site_label
_atom_site_fract_x
_atom_site_fract_y
_atom_site_fract_z
Si Si1 0.308059 0.887747 0.434079
Si Si2 0.159609 0.389257 0.253321
Si Si3 0.466820 0.789121 0.699777
Si Si4 0.581560 0.610030 0.058557
Si Si5 0.758388 0.112010 0.163649
Si Si6 0.902358 0.790020 0.491883
Si Si7 0.055222 0.731141 0.095951
O O1 0.425714 0.833293 0.320004
O O2 0.264080 0.879462 0.641971
O O3 0.213086 0.845513 0.417766
O O4 0.325802 0.000000 0.387501
O O5 0.127276 0.500000 0.311656
O O6 0.122126 0.313747 0.411316
O O7 0.109833 0.349760 0.147843
O O8 0.292433 0.384762 0.114907
O O9 0.500000 0.778230 0.500000
O O10 0.436643 0.687586 0.799301
O O11 0.358114 0.857475 0.803507
O O12 0.560409 0.500000 0.127958
O O13 0.500000 0.630423 0.000000
O O14 0.786137 0.000000 0.106847
O O15 0.853682 0.186665 0.026239
O O16 0.000000 0.836501 0.500000
O O17 0.957502 0.776769 0.283936
O O18 0.000000 0.693319 0.000000
#
# Coordination Sequence:
#
# PCOD9150526 Si02
#       7
#     4   4   4   4   4   4   4
#     4  10  20  36  59  87 119 155 195 238 288 342
#     4  10  22  41  61  84 116 155 194 238 292 349
#     4  10  20  36  61  88 118 147 189 244 292 343
#     4  10  20  36  61  86 114 154 193 233 292 352
#     4  10  20  36  60  88 116 153 193 238 295 347
#     4  10  22  37  59  84 117 158 193 240 283 341
#     4  11  21  37  61  87 117 150 195 242 290 339
#
# _framework density 18.304570999999999
#
# number of rings (size 3 to 8) (size 9 to 14) (size 15 to 20)
#    0.000    1.857    2.857    1.286    0.000    6.000 
#    0.000    2.143    0.000    2.571    0.000    0.000 
#    0.000    0.000    0.000    0.000    0.000    0.000 
#
# Total GULP energy -156254.526963 kJ/mol
# GULP energy per Si atom -5580.518820 kJ/mol
# Density = 1.826291 g / cm^3
# Si number density = 18.304571 Si / 1000 Ang^3
#
#
#
# Elastic Constant Matrix: (Units=GPa)
#
#
# Indices 1 2 3 4 5 6 
#
# 1 121.5985 30.0047 14.4252 0.0000 -11.8021 0.0000
# 2 30.0047 87.2371 25.4638 0.0000 -12.0831 0.0000
# 3 14.4252 25.4638 51.7157 0.0000 -10.4669 0.0000
# 4 0.0000 0.0000 0.0000 64.4853 0.0000 -91.6468
# 5 -11.8021 -12.0831 -10.4669 0.0000 22.7636 0.0000
# 6 0.0000 0.0000 0.0000 -91.6468 0.0000 249.2155
#
#
#
# Elastic Compliance Matrix: (Units=1/GPa)
#
#
# Indices 1 2 3 4 5 6 
#
# 1 0.009236 -0.002542 -0.000693 0.000000 0.003121 0.000000
# 2 -0.002542 0.014517 -0.005674 0.000000 0.003779 0.000000
# 3 -0.000693 -0.005674 0.023862 0.000000 0.007601 0.000000
# 4 0.000000 0.000000 0.000000 0.032485 0.000000 0.011946
# 5 0.003121 0.003779 0.007601 0.000000 0.051048 0.000000
# 6 0.000000 0.000000 0.000000 0.011946 0.000000 0.008406
#
#
# Mechanical properties :
#
#
# Convention : Reuss Voigt Hill
#
# Bulk Modulus (GPa) = 33.56073 44.48207 39.02140
# Shear Modulus (GPa) = 29.88551 80.00339 54.94445
#
# Velocity S-wave (km/s) = 4.04503 6.61828 5.48470
# Velocity P-wave (km/s) = 6.33962 9.09704 7.84050
#
# Compressibility (1/GPa) = 0.02979673
#
# Stress axis : x y z
#
# Youngs Moduli (GPa) = 108.27011 68.88488 41.90784
#
# Poissons Ratio (x) = 0.17512 0.02904
# Poissons Ratio (y) = 0.27525 0.23778
# Poissons Ratio (z) = 0.07502 0.39085
#
# Static dielectric constant tensor:
#      x y z
#    x 1.642460 0.000000 -0.001640 
#    y 0.000000 1.604550 0.000000 
#    z -0.001640 0.000000 1.614740 
# 
# From -- ./inp_files/28480.got.cif
#   From: 2010.05.17/outbox.cif.g08.bks.cpg/sg10_15_cif.got.tgz:28480.got - 2010.06.03 11:33:40.
