data_PCOD9150591
_publ_section_title
;
Structure prediction by ZEFSAII (Michael W. Deem and Ramdas Pophale) SiO2 
 PCOD9150591
Probable space group: P 2/M
;
_chemical_formula_sum "Si O2"
_cell_formula_units_Z 32
_cell_length_a 23.952149
_cell_length_b 7.538100
_cell_length_c 14.812661
_cell_angle_alpha 90.000000
_cell_angle_beta 148.358856
_cell_angle_gamma 90.000000
_cell_volume 1403.025589
_symmetry_space_group_name_H-M "P 2/M"
_symmetry_group_IT_number 10
_symmetry_cell_setting 'monoclinic'
loop_
_space_group_symop_operation_xyz
x,y,z
-x,y,-z
-x,-y,-z
x,-y,z
loop_
_atom_site_type_symbol
_atom_site_label
_atom_site_fract_x
_atom_site_fract_y
_atom_site_fract_z
Si Si1 0.499286 0.290757 0.771415
Si Si2 0.992006 0.216715 0.385687
Si Si3 0.260479 0.295292 0.431310
Si Si4 0.390608 0.712476 0.902924
Si Si5 0.825221 0.782988 0.011618
Si Si6 0.583278 0.785569 0.689129
Si Si7 0.177419 0.797624 0.508314
Si Si8 0.087885 0.203342 0.055561
O O1 0.489548 0.500000 0.779907
O O2 0.378730 0.219407 0.611022
O O3 0.542657 0.266320 0.731532
O O4 0.582803 0.221493 0.959988
O O5 0.088644 0.276327 0.453994
O O6 0.000000 0.278012 0.500000
O O7 0.884463 0.267332 0.185251
O O8 0.996380 0.000000 0.394459
O O9 0.272218 0.500000 0.419924
O O10 0.196392 0.288295 0.437074
O O11 0.196138 0.203804 0.262633
O O12 0.371197 0.500000 0.875078
O O13 0.289209 0.793930 0.715007
O O14 0.500000 0.744914 0.000000
O O15 0.824485 0.000000 0.007171
O O16 0.703559 0.723238 0.839541
O O17 0.889666 0.720293 0.012115
O O18 0.500000 0.721083 0.500000
O O19 0.584881 0.000000 0.686982
O O20 0.146381 0.000000 0.445574
O O21 0.052988 0.000000 0.991840
O O22 0.000000 0.288620 0.000000
#
# Coordination Sequence:
#
# PCOD9150591 Si02
#       8
#     4   4   4   4   4   4   4   4
#     4  10  22  38  57  80 110 153 194 229 281 346
#     4   9  19  35  55  82 115 150 188 231 284 343
#     4  11  22  38  58  82 115 154 188 229 289 349
#     4  10  20  39  59  79 116 158 188 226 291 353
#     4   9  18  34  55  80 117 154 183 230 295 345
#     4  10  21  36  57  85 116 149 188 238 291 339
#     4  11  22  35  58  89 115 145 194 244 286 334
#     4  10  20  36  60  87 114 146 188 237 289 340
#
# _framework density 22.807853000000001
#
# number of rings (size 3 to 8) (size 9 to 14) (size 15 to 20)
#    0.000    2.000    1.250    2.250    1.750    5.250 
#    0.000    0.625    0.000    3.000    0.000    0.000 
#    0.000    0.000    0.000    0.000    0.000    0.000 
#
# Total GULP energy -178890.661598 kJ/mol
# GULP energy per Si atom -5590.333175 kJ/mol
# Density = 2.275594 g / cm^3
# Si number density = 22.807853 Si / 1000 Ang^3
#
#
#
# Elastic Constant Matrix: (Units=GPa)
#
#
# Indices 1 2 3 4 5 6 
#
# 1 122.3016 -5.2378 43.0381 0.0000 -17.9070 0.0000
# 2 -5.2378 56.3972 0.1803 0.0000 2.4838 0.0000
# 3 43.0381 0.1803 128.4562 0.0000 -19.7965 0.0000
# 4 0.0000 0.0000 0.0000 3.5384 0.0000 -1.1713
# 5 -17.9070 2.4838 -19.7965 0.0000 46.1900 0.0000
# 6 0.0000 0.0000 0.0000 -1.1713 0.0000 3.5406
#
#
#
# Elastic Compliance Matrix: (Units=1/GPa)
#
#
# Indices 1 2 3 4 5 6 
#
# 1 0.009565 0.000789 -0.002827 0.000000 0.002454 0.000000
# 2 0.000789 0.017843 -0.000418 0.000000 -0.000833 0.000000
# 3 -0.002827 -0.000418 0.009173 0.000000 0.002858 0.000000
# 4 0.000000 0.000000 0.000000 0.317372 0.000000 0.104993
# 5 0.002454 -0.000833 0.002858 0.000000 0.023871 0.000000
# 6 0.000000 0.000000 0.000000 0.104993 0.000000 0.317173
#
#
# Mechanical properties :
#
#
# Convention : Reuss Voigt Hill
#
# Bulk Modulus (GPa) = 31.57728 42.56844 37.07286
# Shear Modulus (GPa) = 7.03766 28.59875 17.81820
#
# Velocity S-wave (km/s) = 1.75850 3.54489 2.79808
# Velocity P-wave (km/s) = 4.24241 5.95478 5.16998
#
# Compressibility (1/GPa) = 0.03166834
#
# Stress axis : x y z
#
# Youngs Moduli (GPa) = 104.55248 56.04543 109.01463
#
# Poissons Ratio (x) = -0.04423 0.30824
# Poissons Ratio (y) = -0.08252 0.04554
# Poissons Ratio (z) = 0.29562 0.02341
#
# Static dielectric constant tensor:
#      x y z
#    x 1.811660 0.000000 0.004850 
#    y 0.000000 1.847930 0.000000 
#    z 0.004850 0.000000 1.840850 
# 
# From -- ./inp_files/71460.got.cif
#   From: 2010.05.17/outbox.cif.g08.bks.cpg/sg10_36_cif.got.tgz:71460.got - 2010.06.03 11:33:40.
