data_PCOD9150290
_publ_section_title
;
Structure prediction by ZEFSAII (Michael W. Deem and Ramdas Pophale) SiO2 
 PCOD9150290
Probable space group: P 2/M
;
_chemical_formula_sum "Si O2"
_cell_formula_units_Z 24
_cell_length_a 19.202358
_cell_length_b 8.972712
_cell_length_c 8.047160
_cell_angle_alpha 90.000000
_cell_angle_beta 67.459164
_cell_angle_gamma 90.000000
_cell_volume 1280.583587
_symmetry_space_group_name_H-M "P 2/M"
_symmetry_group_IT_number 10
_symmetry_cell_setting 'monoclinic'
loop_
_space_group_symop_operation_xyz
x,y,z
-x,y,-z
-x,-y,-z
x,-y,z
loop_
_atom_site_type_symbol
_atom_site_label
_atom_site_fract_x
_atom_site_fract_y
_atom_site_fract_z
Si Si1 0.322063 0.678858 0.418148
Si Si2 0.915217 0.673628 0.001763
Si Si3 0.583355 0.679375 0.996013
Si Si4 0.997428 0.164259 0.309407
Si Si5 0.168678 0.176929 0.653976
Si Si6 0.586264 0.176704 0.359477
O O1 0.325587 0.500000 0.426039
O O2 0.360326 0.722001 0.206649
O O3 0.237033 0.737641 0.508245
O O4 0.364043 0.747346 0.541152
O O5 0.900310 0.500000 0.034566
O O6 0.848183 0.766809 0.143902
O O7 0.000000 0.704780 0.000000
O O8 0.934605 0.727636 0.801348
O O9 0.587877 0.500000 0.014991
O O10 0.500000 0.714114 0.000000
O O11 0.595348 0.754860 0.165481
O O12 0.912441 0.215735 0.350205
O O13 0.000000 0.146084 0.500000
O O14 0.007667 0.000000 0.217810
O O15 0.180301 0.000000 0.635694
O O16 0.500000 0.196423 0.500000
O O17 0.602723 0.000000 0.338122
#
# Coordination Sequence:
#
# PCOD9150290 Si02
#       6
#     4   4   4   4   4   4
#     4  11  23  40  62  86 119 158 199 248 300 355
#     4   9  17  31  53  78 104 139 182 225 271 331
#     4  10  21  39  63  88 116 157 202 245 295 353
#     4   9  18  34  56  81 110 147 188 232 284 345
#     4  10  20  36  57  81 112 148 187 235 292 347
#     4  11  23  38  61  91 120 154 198 247 298 356
#
# _framework density 18.741455999999999
#
# number of rings (size 3 to 8) (size 9 to 14) (size 15 to 20)
#    0.000    2.000    1.667    2.000    0.000    5.333 
#    3.000    0.000    0.000    0.000    0.000    0.000 
#    0.000    0.000    0.000    0.000    0.000    0.000 
#
# Total GULP energy -133677.029106 kJ/mol
# GULP energy per Si atom -5569.876213 kJ/mol
# Density = 1.869880 g / cm^3
# Si number density = 18.741456 Si / 1000 Ang^3
#
#
#
# Elastic Constant Matrix: (Units=GPa)
#
#
# Indices 1 2 3 4 5 6 
#
# 1 52.1701 33.7563 53.8483 0.0000 -9.5108 0.0000
# 2 33.7563 55.4425 63.2242 0.0000 -6.7484 0.0000
# 3 53.8483 63.2242 173.3225 0.0000 -6.7578 0.0000
# 4 0.0000 0.0000 0.0000 29.6810 0.0000 -4.7933
# 5 -9.5108 -6.7484 -6.7578 0.0000 31.7932 0.0000
# 6 0.0000 0.0000 0.0000 -4.7933 0.0000 22.5596
#
#
#
# Elastic Compliance Matrix: (Units=1/GPa)
#
#
# Indices 1 2 3 4 5 6 
#
# 1 0.035341 -0.014567 -0.005419 0.000000 0.006328 0.000000
# 2 -0.014567 0.037453 -0.009071 0.000000 0.001664 0.000000
# 3 -0.005419 -0.009071 0.010713 0.000000 -0.001270 0.000000
# 4 0.000000 0.000000 0.000000 0.034889 0.000000 0.007413
# 5 0.006328 0.001664 -0.001270 0.000000 0.033430 0.000000
# 6 0.000000 0.000000 0.000000 0.007413 0.000000 0.045902
#
#
# Mechanical properties :
#
#
# Convention : Reuss Voigt Hill
#
# Bulk Modulus (GPa) = 39.38396 64.73252 52.05824
# Shear Modulus (GPa) = 18.91738 25.48050 22.19894
#
# Velocity S-wave (km/s) = 3.18053 3.69125 3.44537
# Velocity P-wave (km/s) = 5.87773 7.26511 6.60793
#
# Compressibility (1/GPa) = 0.02539105
#
# Stress axis : x y z
#
# Youngs Moduli (GPa) = 28.29582 26.69993 93.34605
#
# Poissons Ratio (x) = 0.38895 0.50587
# Poissons Ratio (y) = 0.41219 0.84678
# Poissons Ratio (z) = 0.15334 0.24221
#
# Static dielectric constant tensor:
#      x y z
#    x 1.673730 0.000000 0.062330 
#    y 0.000000 1.660080 0.000000 
#    z 0.062330 0.000000 1.734630 
# 
# From -- ./inp_files/33438.got.cif
#   From: 2010.05.17/outbox.cif.g08.bks.cpg/sg10_17_cif.got.tgz:33438.got - 2010.06.03 11:33:40.
