data_PCOD9150553
_publ_section_title
;
Structure prediction by ZEFSAII (Michael W. Deem and Ramdas Pophale) SiO2 
 PCOD9150553
Probable space group: P 2/M
;
_chemical_formula_sum "Si O2"
_cell_formula_units_Z 25
_cell_length_a 17.679395
_cell_length_b 13.351208
_cell_length_c 13.806847
_cell_angle_alpha 90.000000
_cell_angle_beta 154.689872
_cell_angle_gamma 90.000000
_cell_volume 1393.274028
_symmetry_space_group_name_H-M "P 2/M"
_symmetry_group_IT_number 10
_symmetry_cell_setting 'monoclinic'
loop_
_space_group_symop_operation_xyz
x,y,z
-x,y,-z
-x,-y,-z
x,-y,z
loop_
_atom_site_type_symbol
_atom_site_label
_atom_site_fract_x
_atom_site_fract_y
_atom_site_fract_z
Si Si1 0.791130 0.758265 0.990131
Si Si2 0.006584 0.881870 0.618697
Si Si3 0.588373 0.760411 0.386959
Si Si4 0.794570 0.882342 0.793533
Si Si5 0.107858 0.610326 0.312462
Si Si6 0.000000 0.500000 0.000000
Si Si7 0.601685 0.882005 0.212328
O O1 0.855222 0.827077 0.152954
O O2 0.940115 0.672661 0.155458
O O3 0.594684 0.718067 0.783080
O O4 0.782536 0.824559 0.882022
O O5 0.000000 0.845809 0.500000
O O6 0.811496 0.869555 0.438536
O O7 0.048054 0.000000 0.663977
O O8 0.684838 0.823530 0.583816
O O9 0.717603 0.677144 0.491194
O O10 0.547743 0.832608 0.249971
O O11 0.740416 0.000000 0.738558
O O12 0.000000 0.881205 0.000000
O O13 0.128770 0.500000 0.384448
O O14 0.063846 0.584992 0.150719
O O15 0.563612 0.000000 0.174162
O O16 0.500000 0.842143 0.000000
#
# Coordination Sequence:
#
# PCOD9150553 Si02
#       7
#     4   4   4   4   4   1   4
#     4  12  23  38  62  90 120 161 204 245 309 369
#     4  10  20  36  59  91 129 166 203 246 293 356
#     4  12  23  38  62  90 120 161 204 245 309 369
#     4  11  22  37  57  84 126 166 197 240 297 365
#     4  10  22  42  62  83 119 146 202 259 309 350
#     4   8  20  40  66  80 110 158 180 268 310 358
#     4  10  20  36  59  91 129 166 203 246 293 356
#
# _framework density 17.943346999999999
#
# number of rings (size 3 to 8) (size 9 to 14) (size 15 to 20)
#    0.480    0.800    3.200    3.360    0.000    7.680 
#    0.000    0.800    0.000    0.960    0.000    0.000 
#    0.000    0.000    0.000    0.000    0.000    0.000 
#
# Total GULP energy -139203.691119 kJ/mol
# GULP energy per Si atom -5568.147645 kJ/mol
# Density = 1.790251 g / cm^3
# Si number density = 17.943347 Si / 1000 Ang^3
#
#
#
# Elastic Constant Matrix: (Units=GPa)
#
#
# Indices 1 2 3 4 5 6 
#
# 1 58.2180 42.4914 52.7125 0.0000 -0.1394 0.0000
# 2 42.4914 92.9873 48.2471 0.0000 15.9717 0.0000
# 3 52.7125 48.2471 98.2730 0.0000 4.7210 0.0000
# 4 0.0000 0.0000 0.0000 2.7644 0.0000 0.0721
# 5 -0.1394 15.9717 4.7210 0.0000 44.9838 0.0000
# 6 0.0000 0.0000 0.0000 0.0721 0.0000 8.1863
#
#
#
# Elastic Compliance Matrix: (Units=1/GPa)
#
#
# Indices 1 2 3 4 5 6 
#
# 1 0.039807 -0.010651 -0.016393 0.000000 0.005625 0.000000
# 2 -0.010651 0.018202 -0.002926 0.000000 -0.006189 0.000000
# 3 -0.016393 -0.002926 0.020461 0.000000 -0.001159 0.000000
# 4 0.000000 0.000000 0.000000 0.361819 0.000000 -0.003185
# 5 0.005625 -0.006189 -0.001159 0.000000 0.024567 0.000000
# 6 0.000000 0.000000 0.000000 -0.003185 0.000000 0.122183
#
#
# Mechanical properties :
#
#
# Convention : Reuss Voigt Hill
#
# Bulk Modulus (GPa) = 53.96607 59.59779 56.78193
# Shear Modulus (GPa) = 7.65514 18.25540 12.95527
#
# Velocity S-wave (km/s) = 2.06774 3.19312 2.68994
# Velocity P-wave (km/s) = 5.98680 6.84698 6.43129
#
# Compressibility (1/GPa) = 0.01853016
#
# Stress axis : x y z
#
# Youngs Moduli (GPa) = 25.12135 54.93796 48.87293
#
# Poissons Ratio (x) = 0.58512 0.80119
# Poissons Ratio (y) = 0.26756 0.14302
# Poissons Ratio (z) = 0.41182 0.16076
#
# Static dielectric constant tensor:
#      x y z
#    x 1.628960 0.000000 0.047180 
#    y 0.000000 1.671210 0.000000 
#    z 0.047180 0.000000 1.659280 
# 
# From -- ./inp_files/51719.got.cif
#   From: 2010.05.17/outbox.cif.g08.bks.cpg/sg10_26_cif.got.tgz:51719.got - 2010.06.03 11:33:40.
