data_PCOD9150463
_publ_section_title
;
Structure prediction by ZEFSAII (Michael W. Deem and Ramdas Pophale) SiO2 
 PCOD9150463
Probable space group: P 2/M
;
_chemical_formula_sum "Si O2"
_cell_formula_units_Z 28
_cell_length_a 9.165326
_cell_length_b 33.250286
_cell_length_c 5.088337
_cell_angle_alpha 90.000000
_cell_angle_beta 121.859428
_cell_angle_gamma 90.000000
_cell_volume 1317.054195
_symmetry_space_group_name_H-M "P 2/M"
_symmetry_group_IT_number 10
_symmetry_cell_setting 'monoclinic'
loop_
_space_group_symop_operation_xyz
x,y,z
-x,y,-z
-x,-y,-z
x,-y,z
loop_
_atom_site_type_symbol
_atom_site_label
_atom_site_fract_x
_atom_site_fract_y
_atom_site_fract_z
Si Si1 0.814120 0.410476 0.683870
Si Si2 0.875422 0.678098 0.633076
Si Si3 0.705157 0.242261 0.650124
Si Si4 0.119937 0.045319 0.860943
Si Si5 0.308939 0.454207 0.935681
Si Si6 0.621099 0.882636 0.866172
Si Si7 0.708057 0.799678 0.154516
O O1 0.779677 0.364756 0.560146
O O2 0.803686 0.436840 0.410878
O O3 0.697396 0.427756 0.806905
O O4 0.000000 0.411418 0.000000
O O5 0.750685 0.715744 0.557111
O O6 0.000000 0.679521 0.500000
O O7 0.000000 0.679749 0.000000
O O8 0.500000 0.239758 0.500000
O O9 0.772680 0.208907 0.508138
O O10 0.774120 0.233053 0.007200
O O11 0.000000 0.056602 0.500000
O O12 0.811249 0.000000 0.124190
O O13 0.263344 0.078250 0.054577
O O14 0.000000 0.043526 0.000000
O O15 0.258669 0.500000 0.954098
O O16 0.500000 0.454290 0.000000
O O17 0.500000 0.874285 0.500000
O O18 0.500000 0.889797 0.000000
O O19 0.731390 0.843240 0.048257
O O20 0.500000 0.796266 0.000000
#
# Coordination Sequence:
#
# PCOD9150463 Si02
#       7
#     4   4   4   4   4   4   4
#     4  11  23  41  63  87 119 160 198 237 289 351
#     4  11  23  41  59  83 119 151 189 244 295 332
#     4  10  20  36  59  83 109 149 193 228 279 352
#     4  10  22  40  58  81 119 159 193 241 303 357
#     4  11  24  41  62  91 124 154 191 245 297 340
#     4  11  21  36  61  88 115 152 198 247 293 345
#     4   9  18  34  55  82 115 145 182 237 291 336
#
# _framework density 21.259567000000001
#
# number of rings (size 3 to 8) (size 9 to 14) (size 15 to 20)
#    0.000    1.571    0.000    6.857    0.000    4.571 
#    0.000    5.714    0.000    0.000    0.000    0.000 
#    0.000    0.000    0.000    0.000    0.000    0.000 
#
# Total GULP energy -156351.070420 kJ/mol
# GULP energy per Si atom -5583.966801 kJ/mol
# Density = 2.121118 g / cm^3
# Si number density = 21.259567 Si / 1000 Ang^3
#
#
#
# Elastic Constant Matrix: (Units=GPa)
#
#
# Indices 1 2 3 4 5 6 
#
# 1 76.2579 54.6749 33.4573 0.0000 -36.3911 0.0000
# 2 54.6749 140.8429 27.0965 0.0000 -11.3390 0.0000
# 3 33.4573 27.0965 85.1517 0.0000 -29.4469 0.0000
# 4 0.0000 0.0000 0.0000 28.5290 0.0000 -9.6195
# 5 -36.3911 -11.3390 -29.4469 0.0000 35.7474 0.0000
# 6 0.0000 0.0000 0.0000 -9.6195 0.0000 35.8069
#
#
#
# Elastic Compliance Matrix: (Units=1/GPa)
#
#
# Indices 1 2 3 4 5 6 
#
# 1 0.039091 -0.012466 0.001401 0.000000 0.036994 0.000000
# 2 -0.012466 0.011547 -0.002655 0.000000 -0.011214 0.000000
# 3 0.001401 -0.002655 0.017116 0.000000 0.014683 0.000000
# 4 0.000000 0.000000 0.000000 0.038544 0.000000 0.010355
# 5 0.036994 -0.011214 0.014683 0.000000 0.074173 0.000000
# 6 0.000000 0.000000 0.000000 0.010355 0.000000 0.030709
#
#
# Mechanical properties :
#
#
# Convention : Reuss Voigt Hill
#
# Bulk Modulus (GPa) = 24.80517 59.18999 41.99758
# Shear Modulus (GPa) = 19.83678 32.48490 26.16084
#
# Velocity S-wave (km/s) = 3.05794 3.91322 3.51172
# Velocity P-wave (km/s) = 4.91540 6.95124 6.02000
#
# Compressibility (1/GPa) = 0.04031418
#
# Stress axis : x y z
#
# Youngs Moduli (GPa) = 25.58149 86.60059 58.42573
#
# Poissons Ratio (x) = 1.07957 -0.08185
# Poissons Ratio (y) = 0.31890 0.15509
# Poissons Ratio (z) = -0.03584 0.22989
#
# Static dielectric constant tensor:
#      x y z
#    x 1.732070 0.000000 0.002440 
#    y 0.000000 1.821920 0.000000 
#    z 0.002440 0.000000 1.744780 
# 
# From -- ./inp_files/5546.got.cif
#   From: 2010.05.17/outbox.cif.g08.bks.cpg/sg10_3_cif.got.tgz:5546.got - 2010.06.03 11:33:40.
