data_PCOD9150227
_publ_section_title
;
Structure prediction by ZEFSAII (Michael W. Deem and Ramdas Pophale) SiO2 
 PCOD9150227
Probable space group: P 2/M
;
_chemical_formula_sum "Si O2"
_cell_formula_units_Z 26
_cell_length_a 29.625362
_cell_length_b 8.085295
_cell_length_c 5.321270
_cell_angle_alpha 90.000000
_cell_angle_beta 110.980463
_cell_angle_gamma 90.000000
_cell_volume 1190.099810
_symmetry_space_group_name_H-M "P 2/M"
_symmetry_group_IT_number 10
_symmetry_cell_setting 'monoclinic'
loop_
_space_group_symop_operation_xyz
x,y,z
-x,y,-z
-x,-y,-z
x,-y,z
loop_
_atom_site_type_symbol
_atom_site_label
_atom_site_fract_x
_atom_site_fract_y
_atom_site_fract_z
Si Si1 0.442730 0.317983 0.930912
Si Si2 0.304196 0.699801 0.816403
Si Si3 0.532870 0.000000 0.809007
Si Si4 0.027380 0.300205 0.804480
Si Si5 0.642462 0.699317 0.580646
Si Si6 0.861195 0.800263 0.953332
Si Si7 0.806639 0.199860 0.344367
O O1 0.425654 0.500000 0.985722
O O2 0.412652 0.273486 0.621415
O O3 0.500000 0.332703 0.000000
O O4 0.437131 0.168069 0.110713
O O5 0.306506 0.500000 0.815582
O O6 0.325663 0.759040 0.593333
O O7 0.248878 0.749036 0.743873
O O8 0.335983 0.761730 0.115556
O O9 0.500000 0.000000 0.500000
O O10 0.500000 0.000000 0.000000
O O11 0.025340 0.500000 0.800150
O O12 0.083138 0.249881 0.917837
O O13 0.000000 0.240536 0.500000
O O14 0.000000 0.240752 0.000000
O O15 0.647034 0.500000 0.602439
O O16 0.831306 0.740658 0.136162
O O17 0.859074 0.000000 0.948239
O O18 0.836609 0.740943 0.646581
O O19 0.808464 0.000000 0.346595
#
# Coordination Sequence:
#
# PCOD9150227 Si02
#       7
#     4   4   2   4   4   4   4
#     4   9  19  38  62  86 117 157 193 238 296 348
#     4  10  20  36  56  79 109 142 178 229 279 328
#     4  10  22  38  56  84 116 144 190 238 274 340
#     4  10  21  36  54  80 113 144 179 224 268 317
#     4   9  19  35  55  81 110 139 181 226 272 336
#     4  10  21  36  56  79 108 144 182 226 269 319
#     4  10  21  37  54  79 109 138 181 229 271 323
#
# _framework density 21.846905
#
# number of rings (size 3 to 8) (size 9 to 14) (size 15 to 20)
#    0.000    2.308    0.000    1.846    0.000    4.615 
#    2.769    4.615    0.000    0.000    0.000    0.000 
#    0.000    0.000    0.000    0.000    0.000    0.000 
#
# Total GULP energy -145258.163292 kJ/mol
# GULP energy per Si atom -5586.852434 kJ/mol
# Density = 2.179718 g / cm^3
# Si number density = 21.846905 Si / 1000 Ang^3
#
#
#
# Elastic Constant Matrix: (Units=GPa)
#
#
# Indices 1 2 3 4 5 6 
#
# 1 139.2778 -6.8399 51.4734 0.0000 6.1202 0.0000
# 2 -6.8399 53.3553 26.2578 0.0000 -2.7028 0.0000
# 3 51.4734 26.2578 161.5588 0.0000 1.2704 0.0000
# 4 0.0000 0.0000 0.0000 16.4831 0.0000 21.9290
# 5 6.1202 -2.7028 1.2704 0.0000 44.7469 0.0000
# 6 0.0000 0.0000 0.0000 21.9290 0.0000 19.4938
#
#
#
# Elastic Compliance Matrix: (Units=1/GPa)
#
#
# Indices 1 2 3 4 5 6 
#
# 1 0.008500 0.002579 -0.003120 0.000000 -0.000918 0.000000
# 2 0.002579 0.021233 -0.004281 0.000000 0.001051 0.000000
# 3 -0.003120 -0.004281 0.007880 0.000000 -0.000056 0.000000
# 4 0.000000 0.000000 0.000000 -0.122171 0.000000 0.137432
# 5 -0.000918 0.001051 -0.000056 0.000000 0.022539 0.000000
# 6 0.000000 0.000000 0.000000 0.137432 0.000000 -0.103302
#
#
# Mechanical properties :
#
#
# Convention : Reuss Voigt Hill
#
# Bulk Modulus (GPa) = 35.75470 55.10829 45.43150
# Shear Modulus (GPa) = -34.16364 35.03146 0.43391
#
# Velocity S-wave (km/s) = -3.95875 4.00871 0.44614
# Velocity P-wave (km/s) = 2.11992 6.83417 4.59412
#
# Compressibility (1/GPa) = 0.02796835
#
# Stress axis : x y z
#
# Youngs Moduli (GPa) = 117.64774 47.09698 126.90479
#
# Poissons Ratio (x) = -0.12144 0.39594
# Poissons Ratio (y) = -0.30337 0.54325
# Poissons Ratio (z) = 0.36706 0.20161
#
# Static dielectric constant tensor:
#      x y z
#    x 1.820420 0.000000 -0.039870 
#    y 0.000000 1.876880 0.000000 
#    z -0.039870 0.000000 1.786110 
# 
# From -- ./inp_files/13577.got.cif
#   From: 2010.05.17/outbox.cif.g08.bks.cpg/sg10_7_cif.got.tgz:13577.got - 2010.06.03 11:33:40.
