data_PCOD9150419
_publ_section_title
;
Structure prediction by ZEFSAII (Michael W. Deem and Ramdas Pophale) SiO2 
 PCOD9150419
Probable space group: P 2/M
;
_chemical_formula_sum "Si O2"
_cell_formula_units_Z 28
_cell_length_a 16.018462
_cell_length_b 8.921221
_cell_length_c 12.090145
_cell_angle_alpha 90.000000
_cell_angle_beta 123.980888
_cell_angle_gamma 90.000000
_cell_volume 1432.677746
_symmetry_space_group_name_H-M "P 2/M"
_symmetry_group_IT_number 10
_symmetry_cell_setting 'monoclinic'
loop_
_space_group_symop_operation_xyz
x,y,z
-x,y,-z
-x,-y,-z
x,-y,z
loop_
_atom_site_type_symbol
_atom_site_label
_atom_site_fract_x
_atom_site_fract_y
_atom_site_fract_z
Si Si1 0.047530 0.823982 0.657350
Si Si2 0.331870 0.680574 0.639601
Si Si3 0.708252 0.178824 0.918235
Si Si4 0.117569 0.321073 0.087772
Si Si5 0.513198 0.180817 0.636420
Si Si6 0.266678 0.679352 0.833885
Si Si7 0.135137 0.679346 0.353067
O O1 0.151467 0.734818 0.741340
O O2 0.000000 0.805485 0.500000
O O3 0.965234 0.761726 0.681564
O O4 0.066485 0.000000 0.690285
O O5 0.340108 0.500000 0.639950
O O6 0.425499 0.753521 0.647559
O O7 0.320958 0.723819 0.759874
O O8 0.228951 0.722760 0.499453
O O9 0.814401 0.238195 0.950938
O O10 0.620934 0.223310 0.767482
O O11 0.710805 0.000000 0.928487
O O12 0.687318 0.248806 0.022336
O O13 0.123413 0.500000 0.071847
O O14 0.156834 0.289439 0.240722
O O15 0.000000 0.279131 0.000000
O O16 0.500000 0.231617 0.500000
O O17 0.506686 0.000000 0.632883
O O18 0.268580 0.500000 0.843560
O O19 0.119166 0.500000 0.352007
#
# Coordination Sequence:
#
# PCOD9150419 Si02
#       7
#     4   4   4   4   4   4   4
#     4  11  22  35  56  89 125 162 202 243 294 354
#     4  10  22  38  60  89 116 154 204 250 295 350
#     4  11  24  41  62  89 121 157 200 248 303 362
#     4  10  21  37  59  88 119 155 198 242 296 357
#     4  10  23  43  65  89 119 156 196 244 304 364
#     4  11  23  40  61  86 122 162 203 248 298 357
#     4  10  20  36  58  86 122 160 202 249 298 355
#
# _framework density 19.543821999999999
#
# number of rings (size 3 to 8) (size 9 to 14) (size 15 to 20)
#    0.000    1.571    1.429    3.000    0.000    6.286 
#    0.000    2.857    0.000    0.000    0.000    0.000 
#    0.000    0.000    0.000    0.000    0.000    0.000 
#
# Total GULP energy -156563.235105 kJ/mol
# GULP energy per Si atom -5591.544111 kJ/mol
# Density = 1.949934 g / cm^3
# Si number density = 19.543822 Si / 1000 Ang^3
#
#
#
# Elastic Constant Matrix: (Units=GPa)
#
#
# Indices 1 2 3 4 5 6 
#
# 1 127.8408 35.1564 56.2227 0.0000 -11.9907 0.0000
# 2 35.1564 30.8888 38.9466 0.0000 -8.9469 0.0000
# 3 56.2227 38.9466 132.1742 0.0000 -16.1999 0.0000
# 4 0.0000 0.0000 0.0000 26.3248 0.0000 -0.0554
# 5 -11.9907 -8.9469 -16.1999 0.0000 29.6111 0.0000
# 6 0.0000 0.0000 0.0000 -0.0554 0.0000 43.9066
#
#
#
# Elastic Compliance Matrix: (Units=1/GPa)
#
#
# Indices 1 2 3 4 5 6 
#
# 1 0.011617 -0.011022 -0.001635 0.000000 0.000480 0.000000
# 2 -0.011022 0.063698 -0.013151 0.000000 0.007588 0.000000
# 3 -0.001635 -0.013151 0.012400 0.000000 0.002148 0.000000
# 4 0.000000 0.000000 0.000000 0.037987 0.000000 0.000048
# 5 0.000480 0.007588 0.002148 0.000000 0.037433 0.000000
# 6 0.000000 0.000000 0.000000 0.000048 0.000000 0.022776
#
#
# Mechanical properties :
#
#
# Convention : Reuss Voigt Hill
#
# Bulk Modulus (GPa) = 27.70129 61.28391 44.49260
# Shear Modulus (GPa) = 20.03523 30.67371 25.35447
#
# Velocity S-wave (km/s) = 3.20526 3.96597 3.60573
# Velocity P-wave (km/s) = 5.28233 7.23859 6.33641
#
# Compressibility (1/GPa) = 0.03609940
#
# Stress axis : x y z
#
# Youngs Moduli (GPa) = 86.07831 15.69901 80.64700
#
# Poissons Ratio (x) = 0.17303 0.13187
# Poissons Ratio (y) = 0.94873 1.06059
# Poissons Ratio (z) = 0.14076 0.20646
#
# Static dielectric constant tensor:
#      x y z
#    x 1.635070 0.000000 -0.006420 
#    y 0.000000 1.654710 0.000000 
#    z -0.006420 0.000000 1.705360 
# 
# From -- ./inp_files/50087.got.cif
#   From: 2010.05.17/outbox.cif.g08.bks.cpg/sg10_26_cif.got.tgz:50087.got - 2010.06.03 11:33:40.
