data_PCOD9150293
_publ_section_title
;
Structure prediction by ZEFSAII (Michael W. Deem and Ramdas Pophale) SiO2 
 PCOD9150293
Probable space group: P 2/M
;
_chemical_formula_sum "Si O2"
_cell_formula_units_Z 32
_cell_length_a 11.815891
_cell_length_b 9.575135
_cell_length_c 14.780800
_cell_angle_alpha 90.000000
_cell_angle_beta 86.393019
_cell_angle_gamma 90.000000
_cell_volume 1668.968587
_symmetry_space_group_name_H-M "P 2/M"
_symmetry_group_IT_number 10
_symmetry_cell_setting 'monoclinic'
loop_
_space_group_symop_operation_xyz
x,y,z
-x,y,-z
-x,-y,-z
x,-y,z
loop_
_atom_site_type_symbol
_atom_site_label
_atom_site_fract_x
_atom_site_fract_y
_atom_site_fract_z
Si Si1 0.222074 0.834743 0.142401
Si Si2 0.018630 0.833852 0.776929
Si Si3 0.959217 0.661832 0.403781
Si Si4 0.366449 0.333245 0.989132
Si Si5 0.272923 0.835695 0.824986
Si Si6 0.310118 0.838168 0.340863
Si Si7 0.287955 0.340316 0.512014
Si Si8 0.575265 0.839937 0.361629
O O1 0.087635 0.804406 0.152525
O O2 0.265994 0.811757 0.242485
O O3 0.238052 0.000000 0.120420
O O4 0.291984 0.739695 0.070723
O O5 0.004772 0.751688 0.683688
O O6 0.141072 0.801290 0.813424
O O7 0.016526 0.000000 0.757812
O O8 0.997119 0.500000 0.392571
O O9 0.823103 0.663476 0.419303
O O10 0.000000 0.713197 0.500000
O O11 0.348813 0.500000 0.988101
O O12 0.327444 0.261524 0.898007
O O13 0.500000 0.307438 0.000000
O O14 0.343102 0.820850 0.728612
O O15 0.279608 0.000000 0.851297
O O16 0.261381 0.737604 0.419807
O O17 0.445994 0.819810 0.338072
O O18 0.284300 0.000000 0.364278
O O19 0.317808 0.500000 0.492329
O O20 0.385661 0.260570 0.560757
O O21 0.587986 0.000000 0.392868
#
# Coordination Sequence:
#
# PCOD9150293 Si02
#       8
#     4   4   4   4   4   4   4   4
#     4  10  22  41  64  90 119 152 195 244 296 351
#     4  10  21  38  62  91 118 151 199 249 294 347
#     4  10  21  36  54  79 116 162 204 241 290 353
#     4  11  25  43  64  92 122 154 195 241 294 358
#     4  10  21  39  64  90 119 156 197 246 302 354
#     4  10  21  36  56  82 113 153 197 242 293 349
#     4  11  22  34  52  81 115 153 196 242 295 348
#     4  10  20  36  57  81 113 153 196 240 291 351
#
# _framework density 19.173518999999999
#
# number of rings (size 3 to 8) (size 9 to 14) (size 15 to 20)
#    0.000    1.750    1.250    2.625    0.000    7.250 
#    0.000    2.500    0.000    0.000    0.000    0.000 
#    0.000    0.000    0.000    0.000    0.000    0.000 
#
# Total GULP energy -178821.398863 kJ/mol
# GULP energy per Si atom -5588.168714 kJ/mol
# Density = 1.912988 g / cm^3
# Si number density = 19.173519 Si / 1000 Ang^3
#
#
#
# Elastic Constant Matrix: (Units=GPa)
#
#
# Indices 1 2 3 4 5 6 
#
# 1 87.1730 47.5621 35.3529 0.0000 -5.7388 0.0000
# 2 47.5621 79.5232 60.6769 0.0000 -2.6523 0.0000
# 3 35.3529 60.6769 77.3479 0.0000 -2.3691 0.0000
# 4 0.0000 0.0000 0.0000 3.5870 0.0000 2.8173
# 5 -5.7388 -2.6523 -2.3691 0.0000 30.0541 0.0000
# 6 0.0000 0.0000 0.0000 2.8173 0.0000 19.3677
#
#
#
# Elastic Compliance Matrix: (Units=1/GPa)
#
#
# Indices 1 2 3 4 5 6 
#
# 1 0.017206 -0.010628 0.000546 0.000000 0.002391 0.000000
# 2 -0.010628 0.037909 -0.024901 0.000000 -0.000647 0.000000
# 3 0.000546 -0.024901 0.032227 0.000000 0.000447 0.000000
# 4 0.000000 0.000000 0.000000 0.314744 0.000000 -0.045784
# 5 0.002391 -0.000647 0.000447 0.000000 0.033708 0.000000
# 6 0.000000 0.000000 0.000000 -0.045784 0.000000 0.058292
#
#
# Mechanical properties :
#
#
# Convention : Reuss Voigt Hill
#
# Bulk Modulus (GPa) = 57.54768 59.02533 58.28650
# Shear Modulus (GPa) = 8.77434 17.29857 13.03645
#
# Velocity S-wave (km/s) = 2.14154 3.00694 2.61036
# Velocity P-wave (km/s) = 6.01617 6.55036 6.28894
#
# Compressibility (1/GPa) = 0.01737690
#
# Stress axis : x y z
#
# Youngs Moduli (GPa) = 58.11980 26.37867 31.03010
#
# Poissons Ratio (x) = 0.28034 -0.01695
# Poissons Ratio (y) = 0.61767 0.77268
# Poissons Ratio (z) = -0.03174 0.65686
#
# Static dielectric constant tensor:
#      x y z
#    x 1.691000 0.000000 -0.002610 
#    y 0.000000 1.647060 0.000000 
#    z -0.002610 0.000000 1.632980 
# 
# From -- ./inp_files/58145.got.cif
#   From: 2010.05.17/outbox.cif.g08.bks.cpg/sg10_30_cif.got.tgz:58145.got - 2010.06.03 11:33:40.
