data_PCOD9150866
_publ_section_title
;
Structure prediction by ZEFSAII (Michael W. Deem and Ramdas Pophale) SiO2 
 PCOD9150866
Probable space group: P 2/M
;
_chemical_formula_sum "Si O2"
_cell_formula_units_Z 28
_cell_length_a 13.081007
_cell_length_b 7.758800
_cell_length_c 14.072354
_cell_angle_alpha 90.000000
_cell_angle_beta 63.453320
_cell_angle_gamma 90.000000
_cell_volume 1277.665235
_symmetry_space_group_name_H-M "P 2/M"
_symmetry_group_IT_number 10
_symmetry_cell_setting 'monoclinic'
loop_
_space_group_symop_operation_xyz
x,y,z
-x,y,-z
-x,-y,-z
x,-y,z
loop_
_atom_site_type_symbol
_atom_site_label
_atom_site_fract_x
_atom_site_fract_y
_atom_site_fract_z
Si Si1 0.725617 0.194846 0.509793
Si Si2 0.400848 0.695603 0.607660
Si Si3 0.365471 0.196839 0.830474
Si Si4 0.817273 0.797373 0.813178
Si Si5 0.380909 0.211806 0.242886
Si Si6 0.881023 0.788478 0.998203
Si Si7 0.026949 0.307460 0.598577
O O1 0.698585 0.303223 0.427451
O O2 0.672933 0.261933 0.631510
O O3 0.861077 0.193492 0.451495
O O4 0.682732 0.000000 0.516272
O O5 0.500000 0.768277 0.500000
O O6 0.430699 0.500000 0.623467
O O7 0.379317 0.798558 0.711298
O O8 0.486561 0.269925 0.818769
O O9 0.362126 0.000000 0.867229
O O10 0.239264 0.269427 0.904094
O O11 0.702977 0.729169 0.807436
O O12 0.861965 0.732182 0.896616
O O13 0.920732 0.772072 0.697472
O O14 0.795267 0.000000 0.836801
O O15 0.380676 0.000000 0.243046
O O16 0.885371 0.000000 0.999585
O O17 0.000000 0.732004 0.000000
O O18 0.048740 0.500000 0.628714
O O19 0.000000 0.326520 0.500000
#
# Coordination Sequence:
#
# PCOD9150866 Si02
#       7
#     4   4   4   4   4   4   4
#     4  11  21  35  56  84 118 154 196 241 288 347
#     4  11  23  37  55  85 122 156 191 234 293 353
#     4  10  20  37  59  84 115 153 198 244 293 347
#     4  10  20  37  59  84 115 153 198 244 293 347
#     4   9  18  32  55  86 114 146 193 242 287 343
#     4   9  20  37  58  86 115 145 193 251 298 342
#     4  11  23  37  55  85 122 156 191 234 293 353
#
# _framework density 21.914973
#
# number of rings (size 3 to 8) (size 9 to 14) (size 15 to 20)
#    0.000    1.857    2.857    1.286    2.000    1.714 
#    0.000    4.286    0.000    0.857    0.000    2.000 
#    0.000    0.000    0.000    0.000    0.000    0.000 
#
# Total GULP energy -156031.064129 kJ/mol
# GULP energy per Si atom -5572.538005 kJ/mol
# Density = 2.186509 g / cm^3
# Si number density = 21.914973 Si / 1000 Ang^3
#
#
#
# Elastic Constant Matrix: (Units=GPa)
#
#
# Indices 1 2 3 4 5 6 
#
# 1 203.6695 13.7415 82.8926 0.0000 -14.9396 0.0000
# 2 13.7415 35.8446 -9.0651 0.0000 3.2613 0.0000
# 3 82.8926 -9.0651 116.4883 0.0000 -9.5157 0.0000
# 4 0.0000 0.0000 0.0000 -6.8261 0.0000 0.4174
# 5 -14.9396 3.2613 -9.5157 0.0000 38.4044 0.0000
# 6 0.0000 0.0000 0.0000 0.4174 0.0000 10.0495
#
#
#
# Elastic Compliance Matrix: (Units=1/GPa)
#
#
# Indices 1 2 3 4 5 6 
#
# 1 0.007656 -0.004541 -0.005641 0.000000 0.001966 0.000000
# 2 -0.004541 0.031289 0.005414 0.000000 -0.003082 0.000000
# 3 -0.005641 0.005414 0.013068 0.000000 0.000584 0.000000
# 4 0.000000 0.000000 0.000000 -0.146126 0.000000 0.006070
# 5 0.001966 -0.003082 0.000584 0.000000 0.027210 0.000000
# 6 0.000000 0.000000 0.000000 0.006070 0.000000 0.099256
#
#
# Mechanical properties :
#
#
# Convention : Reuss Voigt Hill
#
# Bulk Modulus (GPa) = 23.54170 59.01559 41.27865
# Shear Modulus (GPa) = 89.21184 26.22111 57.71647
#
# Velocity S-wave (km/s) = 6.38722 3.46279 5.13748
# Velocity P-wave (km/s) = 8.07224 6.55558 7.35312
#
# Compressibility (1/GPa) = 0.04247782
#
# Stress axis : x y z
#
# Youngs Moduli (GPa) = 130.61052 31.96054 76.52483
#
# Poissons Ratio (x) = 0.14512 0.43167
# Poissons Ratio (y) = 0.59306 -0.41432
# Poissons Ratio (z) = 0.73677 -0.17304
#
# Static dielectric constant tensor:
#      x y z
#    x 2.024700 0.000000 0.025170 
#    y 0.000000 1.863340 0.000000 
#    z 0.025170 0.000000 1.756380 
# 
# From -- ./inp_files/63635.got.cif
#   From: 2010.05.17/outbox.cif.g08.bks.cpg/sg10_32_cif.got.tgz:63635.got - 2010.06.03 11:33:40.
