data_PCOD9150539
_publ_section_title
;
Structure prediction by ZEFSAII (Michael W. Deem and Ramdas Pophale) SiO2 
 PCOD9150539
Probable space group: P 2/M
;
_chemical_formula_sum "Si O2"
_cell_formula_units_Z 32
_cell_length_a 15.302523
_cell_length_b 8.328885
_cell_length_c 25.139955
_cell_angle_alpha 90.000000
_cell_angle_beta 26.410397
_cell_angle_gamma 90.000000
_cell_volume 1425.203711
_symmetry_space_group_name_H-M "P 2/M"
_symmetry_group_IT_number 10
_symmetry_cell_setting 'monoclinic'
loop_
_space_group_symop_operation_xyz
x,y,z
-x,y,-z
-x,-y,-z
x,-y,z
loop_
_atom_site_type_symbol
_atom_site_label
_atom_site_fract_x
_atom_site_fract_y
_atom_site_fract_z
Si Si1 0.302019 0.808600 0.859941
Si Si2 0.833643 0.184406 0.696685
Si Si3 0.667602 0.807449 0.448747
Si Si4 0.880664 0.809370 0.146321
Si Si5 0.543836 0.690179 0.038105
Si Si6 0.013438 0.804860 0.187017
Si Si7 0.761185 0.686088 0.508255
Si Si8 0.704912 0.688037 0.657837
O O1 0.473993 0.712451 0.794188
O O2 0.266415 0.747336 0.818881
O O3 0.348207 0.000000 0.834240
O O4 0.097309 0.792769 0.002534
O O5 0.819747 0.223567 0.641707
O O6 0.005969 0.290462 0.627852
O O7 0.885373 0.000000 0.677624
O O8 0.622599 0.222060 0.836928
O O9 0.500000 0.746649 0.500000
O O10 0.646718 0.760362 0.521317
O O11 0.878958 0.756474 0.310137
O O12 0.662077 0.000000 0.449453
O O13 0.899797 0.747998 0.195632
O O14 0.838364 0.000000 0.172916
O O15 0.523961 0.500000 0.057884
O O16 0.765198 0.742714 0.930881
O O17 0.500000 0.724273 0.000000
O O18 0.022539 0.000000 0.180011
O O19 0.710814 0.500000 0.538402
O O20 0.728988 0.755106 0.584981
O O21 0.758047 0.500000 0.630078
#
# Coordination Sequence:
#
# PCOD9150539 Si02
#       8
#     4   4   4   4   4   4   4   4
#     4   9  17  32  56  84 115 155 203 248 300 364
#     4  12  25  42  67  96 125 162 210 262 315 374
#     4  10  23  41  64  95 128 166 216 268 313 364
#     4   8  16  31  53  83 116 152 196 247 301 357
#     4  11  24  41  63  92 127 166 205 250 312 378
#     4  10  20  36  59  88 123 160 204 256 308 361
#     4  11  25  44  64  88 125 169 210 261 321 379
#     4  11  24  40  60  89 126 164 206 255 315 377
#
# _framework density 22.452931
#
# number of rings (size 3 to 8) (size 9 to 14) (size 15 to 20)
#    0.000    1.750    0.000    4.875    1.750    8.250 
#    0.000    1.875    0.000    0.000    0.000    0.000 
#    0.000    0.000    0.000    0.000    0.000    0.000 
#
# Total GULP energy -178921.825887 kJ/mol
# GULP energy per Si atom -5591.307059 kJ/mol
# Density = 2.240183 g / cm^3
# Si number density = 22.452931 Si / 1000 Ang^3
#
#
#
# Elastic Constant Matrix: (Units=GPa)
#
#
# Indices 1 2 3 4 5 6 
#
# 1 105.1347 7.0206 0.0840 0.0000 7.8845 0.0000
# 2 7.0206 16.1171 6.6360 0.0000 9.8814 0.0000
# 3 0.0840 6.6360 41.2539 0.0000 5.3068 0.0000
# 4 0.0000 0.0000 0.0000 32.2505 0.0000 5.2501
# 5 7.8845 9.8814 5.3068 0.0000 41.5417 0.0000
# 6 0.0000 0.0000 0.0000 5.2501 0.0000 14.1945
#
#
#
# Elastic Compliance Matrix: (Units=1/GPa)
#
#
# Indices 1 2 3 4 5 6 
#
# 1 0.009853 -0.003975 0.000751 0.000000 -0.001020 0.000000
# 2 -0.003975 0.078203 -0.010447 0.000000 -0.016513 0.000000
# 3 0.000751 -0.010447 0.026046 0.000000 -0.000985 0.000000
# 4 0.000000 0.000000 0.000000 0.032994 0.000000 -0.012203
# 5 -0.001020 -0.016513 -0.000985 0.000000 0.028319 0.000000
# 6 0.000000 0.000000 0.000000 -0.012203 0.000000 0.074963
#
#
# Mechanical properties :
#
#
# Convention : Reuss Voigt Hill
#
# Bulk Modulus (GPa) = 11.52636 21.10965 16.31800
# Shear Modulus (GPa) = 16.30569 27.51501 21.91035
#
# Velocity S-wave (km/s) = 2.69776 3.50444 3.12722
# Velocity P-wave (km/s) = 3.85339 5.07907 4.50808
#
# Compressibility (1/GPa) = 0.08675766
#
# Stress axis : x y z
#
# Youngs Moduli (GPa) = 101.49194 12.78725 38.39398
#
# Poissons Ratio (x) = 0.05084 -0.02882
# Poissons Ratio (y) = 0.40348 0.40111
# Poissons Ratio (z) = -0.07619 0.13359
#
# Static dielectric constant tensor:
#      x y z
#    x 1.833860 0.000000 0.022780 
#    y 0.000000 1.769980 0.000000 
#    z 0.022780 0.000000 1.855240 
# 
# From -- ./inp_files/89563.got.cif
#   From: 2010.05.17/outbox.cif.g08.bks.cpg/sg10_45_cif.got.tgz:89563.got - 2010.06.03 11:33:40.
