data_PCOD9150032
_publ_section_title
;
Structure prediction by ZEFSAII (Michael W. Deem and Ramdas Pophale) SiO2 
 PCOD9150032
Probable space group: P 2/M
;
_chemical_formula_sum "Si O2"
_cell_formula_units_Z 28
_cell_length_a 9.503470
_cell_length_b 14.248242
_cell_length_c 23.709240
_cell_angle_alpha 90.000000
_cell_angle_beta 152.069526
_cell_angle_gamma 90.000000
_cell_volume 1503.757557
_symmetry_space_group_name_H-M "P 2/M"
_symmetry_group_IT_number 10
_symmetry_cell_setting 'monoclinic'
loop_
_space_group_symop_operation_xyz
x,y,z
-x,y,-z
-x,-y,-z
x,-y,z
loop_
_atom_site_type_symbol
_atom_site_label
_atom_site_fract_x
_atom_site_fract_y
_atom_site_fract_z
Si Si1 0.798016 0.745048 0.984209
Si Si2 0.890913 0.257221 0.296666
Si Si3 0.193848 0.391500 0.196092
Si Si4 0.836065 0.892900 0.094718
Si Si5 0.724113 0.894320 0.525327
Si Si6 0.862241 0.391203 0.390890
Si Si7 0.258135 0.242142 0.315349
O O1 0.449088 0.733344 0.845193
O O2 0.838164 0.837651 0.036593
O O3 0.000000 0.750613 0.000000
O O4 0.927844 0.659589 0.067912
O O5 0.947495 0.328374 0.367956
O O6 0.964729 0.151792 0.344457
O O7 0.123815 0.272003 0.328024
O O8 0.126506 0.500000 0.184307
O O9 0.500951 0.387601 0.268875
O O10 0.263523 0.331226 0.276497
O O11 0.032453 0.833151 0.207761
O O12 0.941735 0.000000 0.127337
O O13 0.500000 0.893396 0.000000
O O14 0.500000 0.899662 0.500000
O O15 0.564626 0.816629 0.429883
O O16 0.752225 0.000000 0.512702
O O17 0.953527 0.500000 0.415227
O O18 0.000000 0.360632 0.500000
#
# Coordination Sequence:
#
# PCOD9150032 Si02
#       7
#     4   4   4   4   4   4   4
#     4  11  22  38  57  84 120 158 195 245 289 349
#     4  11  21  36  59  88 115 152 196 246 293 345
#     4  10  22  38  59  85 119 160 195 242 297 353
#     4  10  20  35  58  84 116 154 192 238 290 349
#     4   9  19  35  58  86 114 149 190 236 290 348
#     4  10  21  38  59  83 113 156 202 240 296 357
#     4  10  20  37  61  87 119 149 196 244 296 349
#
# _framework density 18.620021999999999
#
# number of rings (size 3 to 8) (size 9 to 14) (size 15 to 20)
#    0.000    1.857    2.857    1.286    0.000    2.857 
#    0.000    0.714    0.000    6.429    0.000    0.000 
#    0.000    0.000    0.000    0.000    0.000    0.000 
#
# Total GULP energy -156232.892126 kJ/mol
# GULP energy per Si atom -5579.746147 kJ/mol
# Density = 1.857764 g / cm^3
# Si number density = 18.620022 Si / 1000 Ang^3
#
#
#
# Elastic Constant Matrix: (Units=GPa)
#
#
# Indices 1 2 3 4 5 6 
#
# 1 73.5664 65.0167 20.8395 0.0000 -23.3558 0.0000
# 2 65.0167 160.2859 47.5090 0.0000 -18.9967 0.0000
# 3 20.8395 47.5090 100.5654 0.0000 -6.5366 0.0000
# 4 0.0000 0.0000 0.0000 17.7382 0.0000 4.3335
# 5 -23.3558 -18.9967 -6.5366 0.0000 27.8517 0.0000
# 6 0.0000 0.0000 0.0000 4.3335 0.0000 21.9973
#
#
#
# Elastic Compliance Matrix: (Units=1/GPa)
#
#
# Indices 1 2 3 4 5 6 
#
# 1 0.026586 -0.008767 -0.000312 0.000000 0.016241 0.000000
# 2 -0.008767 0.010666 -0.003277 0.000000 -0.000846 0.000000
# 3 -0.000312 -0.003277 0.011571 0.000000 0.000219 0.000000
# 4 0.000000 0.000000 0.000000 0.059226 0.000000 -0.011668
# 5 0.016241 -0.000846 0.000219 0.000000 0.048999 0.000000
# 6 0.000000 0.000000 0.000000 -0.011668 0.000000 0.047759
#
#
# Mechanical properties :
#
#
# Convention : Reuss Voigt Hill
#
# Bulk Modulus (GPa) = 41.47483 66.79423 54.13453
# Shear Modulus (GPa) = 21.04785 26.92093 23.98439
#
# Velocity S-wave (km/s) = 3.36577 3.80650 3.59290
# Velocity P-wave (km/s) = 6.11778 7.43434 6.80796
#
# Compressibility (1/GPa) = 0.02411101
#
# Stress axis : x y z
#
# Youngs Moduli (GPa) = 37.61436 93.75640 86.42417
#
# Poissons Ratio (x) = 0.82192 0.02697
# Poissons Ratio (y) = 0.32975 0.28322
# Poissons Ratio (z) = 0.01174 0.30725
#
# Static dielectric constant tensor:
#      x y z
#    x 1.627770 0.000000 -0.003310 
#    y 0.000000 1.632520 0.000000 
#    z -0.003310 0.000000 1.672020 
# 
# From -- ./inp_files/25179.got.cif
#   From: 2010.05.17/outbox.cif.g08.bks.cpg/sg10_13_cif.got.tgz:25179.got - 2010.06.03 11:33:40.
