data_PCOD9150628
_publ_section_title
;
Structure prediction by ZEFSAII (Michael W. Deem and Ramdas Pophale) SiO2 
 PCOD9150628
Probable space group: P 2/M
;
_chemical_formula_sum "Si O2"
_cell_formula_units_Z 20
_cell_length_a 15.369314
_cell_length_b 7.612726
_cell_length_c 8.128784
_cell_angle_alpha 90.000000
_cell_angle_beta 74.308915
_cell_angle_gamma 90.000000
_cell_volume 915.643682
_symmetry_space_group_name_H-M "P 2/M"
_symmetry_group_IT_number 10
_symmetry_cell_setting 'monoclinic'
loop_
_space_group_symop_operation_xyz
x,y,z
-x,y,-z
-x,-y,-z
x,-y,z
loop_
_atom_site_type_symbol
_atom_site_label
_atom_site_fract_x
_atom_site_fract_y
_atom_site_fract_z
Si Si1 0.790899 0.787470 0.408425
Si Si2 0.216229 0.793038 0.231944
Si Si3 0.401492 0.215050 0.990495
Si Si4 0.597251 0.213755 0.388015
Si Si5 0.900262 0.295531 0.025013
O O1 0.685575 0.735244 0.444470
O O2 0.845322 0.721538 0.222835
O O3 0.821790 0.727114 0.574012
O O4 0.796489 0.000000 0.393339
O O5 0.229816 0.000000 0.252774
O O6 0.315720 0.720948 0.137754
O O7 0.154063 0.777035 0.103376
O O8 0.388565 0.265663 0.807859
O O9 0.401475 0.000000 0.996601
O O10 0.500000 0.272232 0.000000
O O11 0.500000 0.276484 0.500000
O O12 0.594293 0.000000 0.394578
O O13 0.911362 0.500000 0.980480
O O14 0.000000 0.217112 0.000000
#
# Coordination Sequence:
#
# PCOD9150628 Si02
#       5
#     4   4   4   4   4
#     4  10  20  36  60  90 119 148 189 241 294 344
#     4  10  20  36  60  90 119 148 189 241 294 344
#     4   9  15  25  46  81 120 151 182 225 278 336
#     4   9  15  25  46  81 120 151 182 225 278 336
#     4  11  25  43  61  81 111 155 201 243 292 351
#
# _framework density 21.842559999999999
#
# number of rings (size 3 to 8) (size 9 to 14) (size 15 to 20)
#    0.000    2.200    2.000    1.800    0.000    8.000 
#    0.000    4.000    0.000    1.200    0.000    0.000 
#    0.000    0.000    0.000    0.000    0.000    0.000 
#
# Total GULP energy -111663.705086 kJ/mol
# GULP energy per Si atom -5583.185254 kJ/mol
# Density = 2.179284 g / cm^3
# Si number density = 21.842560 Si / 1000 Ang^3
#
#
#
# Elastic Constant Matrix: (Units=GPa)
#
#
# Indices 1 2 3 4 5 6 
#
# 1 111.3235 -13.3843 50.1830 0.0000 1.4044 0.0000
# 2 -13.3843 36.6405 -16.2242 0.0000 0.2085 0.0000
# 3 50.1830 -16.2242 123.4569 0.0000 21.0250 0.0000
# 4 0.0000 0.0000 0.0000 -4.5084 0.0000 -16.5387
# 5 1.4044 0.2085 21.0250 0.0000 35.3935 0.0000
# 6 0.0000 0.0000 0.0000 -16.5387 0.0000 8.9848
#
#
#
# Elastic Compliance Matrix: (Units=1/GPa)
#
#
# Indices 1 2 3 4 5 6 
#
# 1 0.011334 0.002027 -0.004742 0.000000 0.002355 0.000000
# 2 0.002027 0.029576 0.003456 0.000000 -0.002307 0.000000
# 3 -0.004742 0.003456 0.011630 0.000000 -0.006741 0.000000
# 4 0.000000 0.000000 0.000000 -0.028611 0.000000 -0.052665
# 5 0.002355 -0.002307 -0.006741 0.000000 0.032178 0.000000
# 6 0.000000 0.000000 0.000000 -0.052665 0.000000 0.014356
#
#
# Mechanical properties :
#
#
# Convention : Reuss Voigt Hill
#
# Bulk Modulus (GPa) = 18.51096 34.72998 26.62047
# Shear Modulus (GPa) = 57.47855 24.69708 41.08781
#
# Velocity S-wave (km/s) = 5.13537 3.36622 4.34186
# Velocity P-wave (km/s) = 6.60726 5.57164 6.11143
#
# Compressibility (1/GPa) = 0.05402204
#
# Stress axis : x y z
#
# Youngs Moduli (GPa) = 88.22669 33.81117 85.98770
#
# Poissons Ratio (x) = -0.06854 0.40775
# Poissons Ratio (y) = -0.17886 -0.29715
# Poissons Ratio (z) = 0.41836 -0.11684
#
# Static dielectric constant tensor:
#      x y z
#    x 1.804370 0.000000 0.005800 
#    y 0.000000 1.834930 0.000000 
#    z 0.005800 0.000000 1.781960 
# 
# From -- ./inp_files/23572.got.cif
#   From: 2010.05.17/outbox.cif.g08.bks.cpg/sg10_12_cif.got.tgz:23572.got - 2010.06.03 11:33:40.
