data_PCOD9150893
_publ_section_title
;
Structure prediction by ZEFSAII (Michael W. Deem and Ramdas Pophale) SiO2 
 PCOD9150893
Probable space group: P 2/M
;
_chemical_formula_sum "Si O2"
_cell_formula_units_Z 28
_cell_length_a 21.849178
_cell_length_b 14.215911
_cell_length_c 5.032734
_cell_angle_alpha 90.000000
_cell_angle_beta 82.088818
_cell_angle_gamma 90.000000
_cell_volume 1548.319684
_symmetry_space_group_name_H-M "P 2/M"
_symmetry_group_IT_number 10
_symmetry_cell_setting 'monoclinic'
loop_
_space_group_symop_operation_xyz
x,y,z
-x,y,-z
-x,-y,-z
x,-y,z
loop_
_atom_site_type_symbol
_atom_site_label
_atom_site_fract_x
_atom_site_fract_y
_atom_site_fract_z
Si Si1 0.958142 0.607980 0.264102
Si Si2 0.958333 0.108016 0.285715
Si Si3 0.849778 0.751621 0.376226
Si Si4 0.767556 0.224048 0.934992
Si Si5 0.643783 0.768395 0.757166
Si Si6 0.664599 0.110002 0.211836
Si Si7 0.544613 0.392819 0.720436
O O1 0.943601 0.500000 0.200127
O O2 0.895789 0.663598 0.359114
O O3 0.000000 0.608489 0.500000
O O4 0.000000 0.649241 0.000000
O O5 0.895590 0.163402 0.275081
O O6 0.000000 0.149528 0.500000
O O7 0.944035 0.000000 0.365916
O O8 0.000000 0.109093 0.000000
O O9 0.799135 0.735359 0.178292
O O10 0.817548 0.777885 0.672528
O O11 0.734048 0.127711 0.053361
O O12 0.707505 0.274052 0.841103
O O13 0.658174 0.831776 0.489153
O O14 0.596559 0.686290 0.717974
O O15 0.623459 0.838889 0.008489
O O16 0.652196 0.000000 0.252491
O O17 0.500000 0.373719 0.500000
O O18 0.569564 0.500000 0.678803
O O19 0.500000 0.390550 0.000000
#
# Coordination Sequence:
#
# PCOD9150893 Si02
#       7
#     4   4   4   4   4   4   4
#     4  10  21  37  56  77 101 139 185 230 287 350
#     4  10  21  35  49  71 102 134 171 224 290 338
#     4  12  20  35  56  78 107 137 188 232 284 341
#     4  10  22  35  54  82 112 143 189 229 281 343
#     4  10  20  39  58  85 125 154 191 243 286 334
#     4  10  20  37  60  81 114 160 198 230 280 340
#     4  10  21  38  66  97 121 156 201 239 285 341
#
# _framework density 18.084119000000001
#
# number of rings (size 3 to 8) (size 9 to 14) (size 15 to 20)
#    0.857    0.857    1.429    3.857    0.000    1.143 
#    0.000    1.429    0.000    8.571    0.000    0.000 
#    0.000    0.000    0.000    0.000    0.000    0.000 
#
# Total GULP energy -155965.882183 kJ/mol
# GULP energy per Si atom -5570.210078 kJ/mol
# Density = 1.804296 g / cm^3
# Si number density = 18.084119 Si / 1000 Ang^3
#
#
#
# Elastic Constant Matrix: (Units=GPa)
#
#
# Indices 1 2 3 4 5 6 
#
# 1 86.2465 61.3228 29.8190 0.0000 13.3031 0.0000
# 2 61.3228 99.7871 16.2165 0.0000 3.5002 0.0000
# 3 29.8190 16.2165 99.3324 0.0000 22.7631 0.0000
# 4 0.0000 0.0000 0.0000 12.5797 0.0000 -10.7982
# 5 13.3031 3.5002 22.7631 0.0000 26.4606 0.0000
# 6 0.0000 0.0000 0.0000 -10.7982 0.0000 17.5009
#
#
#
# Elastic Compliance Matrix: (Units=1/GPa)
#
#
# Indices 1 2 3 4 5 6 
#
# 1 0.023564 -0.013711 -0.003159 0.000000 -0.007316 0.000000
# 2 -0.013711 0.018273 0.000133 0.000000 0.004361 0.000000
# 3 -0.003159 0.000133 0.013245 0.000000 -0.009824 0.000000
# 4 0.000000 0.000000 0.000000 0.169003 0.000000 0.104276
# 5 -0.007316 0.004361 -0.009824 0.000000 0.049344 0.000000
# 6 0.000000 0.000000 0.000000 0.104276 0.000000 0.121480
#
#
# Mechanical properties :
#
#
# Convention : Reuss Voigt Hill
#
# Bulk Modulus (GPa) = 46.27809 55.56474 50.92141
# Shear Modulus (GPa) = 11.47885 23.17541 17.32713
#
# Velocity S-wave (km/s) = 2.52215 3.58374 3.09874
# Velocity P-wave (km/s) = 5.84189 6.92218 6.40485
#
# Compressibility (1/GPa) = 0.02160850
#
# Stress axis : x y z
#
# Youngs Moduli (GPa) = 42.43768 54.72691 75.50071
#
# Poissons Ratio (x) = 0.75036 0.23850
# Poissons Ratio (y) = 0.58186 -0.01007
# Poissons Ratio (z) = 0.13406 -0.00730
#
# Static dielectric constant tensor:
#      x y z
#    x 1.639770 0.000000 0.006000 
#    y 0.000000 1.629990 0.000000 
#    z 0.006000 0.000000 1.625460 
# 
# From -- ./inp_files/12582.got.cif
#   From: 2010.05.17/outbox.cif.g08.bks.cpg/sg10_7_cif.got.tgz:12582.got - 2010.06.03 11:33:40.
