data_PCOD9150317
_publ_section_title
;
Structure prediction by ZEFSAII (Michael W. Deem and Ramdas Pophale) SiO2 
 PCOD9150317
Probable space group: P 2/M
;
_chemical_formula_sum "Si O2"
_cell_formula_units_Z 24
_cell_length_a 22.232883
_cell_length_b 12.081695
_cell_length_c 16.192795
_cell_angle_alpha 90.000000
_cell_angle_beta 162.512506
_cell_angle_gamma 90.000000
_cell_volume 1307.032872
_symmetry_space_group_name_H-M "P 2/M"
_symmetry_group_IT_number 10
_symmetry_cell_setting 'monoclinic'
loop_
_space_group_symop_operation_xyz
x,y,z
-x,y,-z
-x,-y,-z
x,-y,z
loop_
_atom_site_type_symbol
_atom_site_label
_atom_site_fract_x
_atom_site_fract_y
_atom_site_fract_z
Si Si1 0.678572 0.000000 0.981081
Si Si2 0.000000 0.190483 0.000000
Si Si3 0.783900 0.759504 0.175844
Si Si4 0.104590 0.631407 0.832906
Si Si5 0.734100 0.242433 0.799477
Si Si6 0.695128 0.621681 0.201771
Si Si7 0.200856 0.000000 0.371521
Si Si8 0.170246 0.000000 0.010371
O O1 0.439636 0.000000 0.682369
O O2 0.759558 0.111962 0.127398
O O3 0.753512 0.000000 0.983930
O O4 0.154502 0.255212 0.142818
O O5 0.127818 0.108368 0.225944
O O6 0.763405 0.692548 0.064070
O O7 0.647208 0.708807 0.067604
O O8 0.000000 0.736897 0.500000
O O9 0.140562 0.500000 0.883700
O O10 0.879583 0.649684 0.503891
O O11 0.146846 0.689662 0.974904
O O12 0.500000 0.273555 0.500000
O O13 0.749410 0.111550 0.841649
O O14 0.744705 0.500000 0.229359
O O15 0.500000 0.612589 0.000000
O O16 0.070257 0.000000 0.285523
#
# Coordination Sequence:
#
# PCOD9150317 Si02
#       8
#     2   2   4   4   4   4   2   2
#     4  12  20  35  58  87 117 150 188 222 294 350
#     4   9  20  36  55  84 116 144 195 239 276 334
#     4  10  21  37  57  83 115 150 184 234 284 339
#     4  10  21  38  58  83 113 148 195 239 280 338
#     4  11  21  37  60  85 114 157 190 235 289 341
#     4   9  19  38  62  85 111 150 196 237 280 336
#     4   9  20  35  55  83 112 149 192 237 271 333
#     4  10  20  36  57  85 114 149 192 236 279 336
#
# _framework density 18.362200000000001
#
# number of rings (size 3 to 8) (size 9 to 14) (size 15 to 20)
#    0.000    2.000    1.667    2.500    0.000    5.000 
#    0.000    0.833    0.000    0.000    0.000    0.000 
#    0.000    0.000    0.000    0.000    0.000    0.000 
#
# Total GULP energy -133750.430941 kJ/mol
# GULP energy per Si atom -5572.934623 kJ/mol
# Density = 1.832041 g / cm^3
# Si number density = 18.362200 Si / 1000 Ang^3
#
#
#
# Elastic Constant Matrix: (Units=GPa)
#
#
# Indices 1 2 3 4 5 6 
#
# 1 128.5564 39.8288 44.7595 0.0000 18.8057 0.0000
# 2 39.8288 78.2498 13.2683 0.0000 -5.0800 0.0000
# 3 44.7595 13.2683 37.5010 0.0000 4.2069 0.0000
# 4 0.0000 0.0000 0.0000 14.4933 0.0000 -3.5669
# 5 18.8057 -5.0800 4.2069 0.0000 19.4987 0.0000
# 6 0.0000 0.0000 0.0000 -3.5669 0.0000 15.9997
#
#
#
# Elastic Compliance Matrix: (Units=1/GPa)
#
#
# Indices 1 2 3 4 5 6 
#
# 1 0.018674 -0.007531 -0.017814 0.000000 -0.016129 0.000000
# 2 -0.007531 0.017065 0.001678 0.000000 0.011348 0.000000
# 3 -0.017814 0.001678 0.046483 0.000000 0.007589 0.000000
# 4 0.000000 0.000000 0.000000 0.073003 0.000000 0.016275
# 5 -0.016129 0.011348 0.007589 0.000000 0.068160 0.000000
# 6 0.000000 0.000000 0.000000 0.016275 0.000000 0.066129
#
#
# Mechanical properties :
#
#
# Convention : Reuss Voigt Hill
#
# Bulk Modulus (GPa) = 28.66366 48.89115 38.77741
# Shear Modulus (GPa) = 14.34813 19.76171 17.05492
#
# Velocity S-wave (km/s) = 2.79838 3.28413 3.05094
# Velocity P-wave (km/s) = 5.10737 6.40816 5.79438
#
# Compressibility (1/GPa) = 0.03488738
#
# Stress axis : x y z
#
# Youngs Moduli (GPa) = 53.55117 58.59902 21.51327
#
# Poissons Ratio (x) = 0.44133 0.38324
# Poissons Ratio (y) = 0.40331 -0.03610
# Poissons Ratio (z) = 0.95397 -0.09834
#
# Static dielectric constant tensor:
#      x y z
#    x 1.666720 0.000000 0.028010 
#    y 0.000000 1.623020 0.000000 
#    z 0.028010 0.000000 1.631820 
# 
# From -- ./inp_files/70621.got.cif
#   From: 2010.05.17/outbox.cif.g08.bks.cpg/sg10_36_cif.got.tgz:70621.got - 2010.06.03 11:33:40.
