data_PCOD9150860
_publ_section_title
;
Structure prediction by ZEFSAII (Michael W. Deem and Ramdas Pophale) SiO2 
 PCOD9150860
Probable space group: P 2/M
;
_chemical_formula_sum "Si O2"
_cell_formula_units_Z 32
_cell_length_a 12.106319
_cell_length_b 7.480824
_cell_length_c 15.574289
_cell_angle_alpha 90.000000
_cell_angle_beta 89.180050
_cell_angle_gamma 90.000000
_cell_volume 1410.344817
_symmetry_space_group_name_H-M "P 2/M"
_symmetry_group_IT_number 10
_symmetry_cell_setting 'monoclinic'
loop_
_space_group_symop_operation_xyz
x,y,z
-x,y,-z
-x,-y,-z
x,-y,z
loop_
_atom_site_type_symbol
_atom_site_label
_atom_site_fract_x
_atom_site_fract_y
_atom_site_fract_z
Si Si1 0.475005 0.703765 0.593933
Si Si2 0.940266 0.784048 0.585589
Si Si3 0.324117 0.280537 0.751956
Si Si4 0.711681 0.784230 0.846387
Si Si5 0.927636 0.793655 0.925680
Si Si6 0.930888 0.289798 0.240244
Si Si7 0.286922 0.214726 0.347353
Si Si8 0.527140 0.296163 0.092785
O O1 0.500000 0.787738 0.500000
O O2 0.436965 0.500000 0.577414
O O3 0.389168 0.779897 0.664964
O O4 0.594573 0.703192 0.636820
O O5 0.813340 0.723238 0.592337
O O6 0.000000 0.717802 0.500000
O O7 0.007974 0.736932 0.670061
O O8 0.936519 0.000000 0.582814
O O9 0.330179 0.500000 0.751432
O O10 0.196107 0.226219 0.753793
O O11 0.387084 0.220265 0.838351
O O12 0.806604 0.716779 0.908742
O O13 0.749340 0.747203 0.749314
O O14 0.591870 0.704281 0.861035
O O15 0.701623 0.000000 0.854524
O O16 0.997926 0.792859 0.837407
O O17 0.906795 0.000000 0.950666
O O18 0.000000 0.709693 0.000000
O O19 0.926584 0.500000 0.221600
O O20 0.299947 0.000000 0.355570
O O21 0.564755 0.500000 0.075053
O O22 0.500000 0.211676 0.000000
#
# Coordination Sequence:
#
# PCOD9150860 Si02
#       8
#     4   4   4   4   4   4   4   4
#     4  10  21  37  59  83 111 151 190 227 280 342
#     4  10  22  41  62  84 116 157 195 236 289 346
#     4   9  20  38  53  78 118 149 182 231 282 331
#     4  10  20  37  59  83 113 145 187 243 284 325
#     4  10  22  41  62  84 116 157 195 236 289 346
#     4  11  23  38  59  86 120 153 188 243 292 339
#     4  10  20  37  59  83 113 145 187 243 284 325
#     4  10  21  37  59  83 111 151 190 227 280 342
#
# _framework density 22.689485999999999
#
# number of rings (size 3 to 8) (size 9 to 14) (size 15 to 20)
#    0.000    2.000    2.500    0.375    3.500    2.000 
#    0.000    2.500    0.000    0.000    0.000    0.000 
#    0.000    0.000    0.000    0.000    0.000    0.000 
#
# Total GULP energy -178713.446264 kJ/mol
# GULP energy per Si atom -5584.795196 kJ/mol
# Density = 2.263784 g / cm^3
# Si number density = 22.689486 Si / 1000 Ang^3
#
#
#
# Elastic Constant Matrix: (Units=GPa)
#
#
# Indices 1 2 3 4 5 6 
#
# 1 99.3236 -16.5078 -9.4210 0.0000 7.7388 0.0000
# 2 -16.5078 58.9446 -12.7921 0.0000 2.2480 0.0000
# 3 -9.4210 -12.7921 76.0299 0.0000 7.8523 0.0000
# 4 0.0000 0.0000 0.0000 6.0963 0.0000 -5.5795
# 5 7.7388 2.2480 7.8523 0.0000 36.5686 0.0000
# 6 0.0000 0.0000 0.0000 -5.5795 0.0000 26.9365
#
#
#
# Elastic Compliance Matrix: (Units=1/GPa)
#
#
# Indices 1 2 3 4 5 6 
#
# 1 0.011153 0.003747 0.002332 0.000000 -0.003091 0.000000
# 2 0.003747 0.018978 0.003947 0.000000 -0.002807 0.000000
# 3 0.002332 0.003947 0.014503 0.000000 -0.003850 0.000000
# 4 0.000000 0.000000 0.000000 0.202407 0.000000 0.041926
# 5 -0.003091 -0.002807 -0.003850 0.000000 0.028999 0.000000
# 6 0.000000 0.000000 0.000000 0.041926 0.000000 0.045809
#
#
# Mechanical properties :
#
#
# Convention : Reuss Voigt Hill
#
# Bulk Modulus (GPa) = 15.45886 17.42846 16.44366
# Shear Modulus (GPa) = 15.46269 32.12155 23.79212
#
# Velocity S-wave (km/s) = 2.61337 3.76666 3.24172
# Velocity P-wave (km/s) = 3.99178 5.15897 4.61244
#
# Compressibility (1/GPa) = 0.06468781
#
# Stress axis : x y z
#
# Youngs Moduli (GPa) = 89.66231 52.69179 68.94902
#
# Poissons Ratio (x) = -0.19746 -0.16077
# Poissons Ratio (y) = -0.33600 -0.27217
# Poissons Ratio (z) = -0.20907 -0.20800
#
# Static dielectric constant tensor:
#      x y z
#    x 1.799320 0.000000 -0.001880 
#    y 0.000000 1.858940 0.000000 
#    z -0.001880 0.000000 1.861820 
# 
# From -- ./inp_files/63768.got.cif
#   From: 2010.05.17/outbox.cif.g08.bks.cpg/sg10_32_cif.got.tgz:63768.got - 2010.06.03 11:33:40.
