data_PCOD9150721
_publ_section_title
;
Structure prediction by ZEFSAII (Michael W. Deem and Ramdas Pophale) SiO2 
 PCOD9150721
Probable space group: P 2/M
;
_chemical_formula_sum "Si O2"
_cell_formula_units_Z 26
_cell_length_a 17.117509
_cell_length_b 13.166755
_cell_length_c 5.231231
_cell_angle_alpha 90.000000
_cell_angle_beta 106.182972
_cell_angle_gamma 90.000000
_cell_volume 1132.308502
_symmetry_space_group_name_H-M "P 2/M"
_symmetry_group_IT_number 10
_symmetry_cell_setting 'monoclinic'
loop_
_space_group_symop_operation_xyz
x,y,z
-x,y,-z
-x,-y,-z
x,-y,z
loop_
_atom_site_type_symbol
_atom_site_label
_atom_site_fract_x
_atom_site_fract_y
_atom_site_fract_z
Si Si1 0.403006 0.888702 0.918111
Si Si2 0.786294 0.237340 0.378412
Si Si3 0.282108 0.616260 0.044574
Si Si4 0.896876 0.617928 0.248194
Si Si5 0.402896 0.241527 0.417465
Si Si6 0.000000 0.759038 0.000000
Si Si7 0.832751 0.121450 0.902012
O O1 0.386798 0.818721 0.661787
O O2 0.364484 0.000000 0.861642
O O3 0.500000 0.900176 0.000000
O O4 0.385681 0.837062 0.171436
O O5 0.862206 0.316489 0.452582
O O6 0.779939 0.175568 0.632374
O O7 0.717694 0.313840 0.207903
O O8 0.806290 0.161330 0.158959
O O9 0.302163 0.500000 0.010662
O O10 0.344365 0.663948 0.301558
O O11 0.184381 0.620133 0.012233
O O12 0.913020 0.500000 0.315332
O O13 0.969383 0.680312 0.189565
O O14 0.500000 0.268294 0.500000
O O15 0.922793 0.835345 0.918404
O O16 0.829294 0.000000 0.886479
#
# Coordination Sequence:
#
# PCOD9150721 Si02
#       7
#     4   4   4   4   4   2   4
#     4   9  18  35  59  88 123 161 199 246 302 353
#     4   9  21  40  59  84 116 155 200 240 290 359
#     4   9  20  42  63  86 123 162 199 253 313 361
#     4   8  17  37  60  87 116 155 198 248 300 350
#     4  10  20  36  62  93 124 160 206 252 299 364
#     4  10  20  36  64  92 122 156 198 254 294 372
#     4  11  22  39  61  87 120 158 194 240 299 356
#
# _framework density 22.961939999999998
#
# number of rings (size 3 to 8) (size 9 to 14) (size 15 to 20)
#    0.923    1.692    0.000    1.385    0.000    5.846 
#    0.000   20.769    0.000    2.769    0.000    0.000 
#    0.000    0.000    0.000    0.000    0.000    0.000 
#
# Total GULP energy -145025.692153 kJ/mol
# GULP energy per Si atom -5577.911237 kJ/mol
# Density = 2.290968 g / cm^3
# Si number density = 22.961940 Si / 1000 Ang^3
#
#
#
# Elastic Constant Matrix: (Units=GPa)
#
#
# Indices 1 2 3 4 5 6 
#
# 1 75.0517 45.6237 55.6439 0.0000 11.3294 0.0000
# 2 45.6237 212.8992 73.8283 0.0000 -0.5576 0.0000
# 3 55.6439 73.8283 131.7810 0.0000 -3.3734 0.0000
# 4 0.0000 0.0000 0.0000 37.7042 0.0000 4.1324
# 5 11.3294 -0.5576 -3.3734 0.0000 52.5913 0.0000
# 6 0.0000 0.0000 0.0000 4.1324 0.0000 27.6288
#
#
#
# Elastic Compliance Matrix: (Units=1/GPa)
#
#
# Indices 1 2 3 4 5 6 
#
# 1 0.021144 -0.001742 -0.008083 0.000000 -0.005092 0.000000
# 2 -0.001742 0.005974 -0.002605 0.000000 0.000271 0.000000
# 3 -0.008083 -0.002605 0.012525 0.000000 0.002517 0.000000
# 4 0.000000 0.000000 0.000000 0.026964 0.000000 -0.004033
# 5 -0.005092 0.000271 0.002517 0.000000 0.020276 0.000000
# 6 0.000000 0.000000 0.000000 -0.004033 0.000000 0.036797
#
#
# Mechanical properties :
#
#
# Convention : Reuss Voigt Hill
#
# Bulk Modulus (GPa) = 67.63432 85.54708 76.59070
# Shear Modulus (GPa) = 32.58038 39.89391 36.23714
#
# Velocity S-wave (km/s) = 3.77090 4.17273 3.97689
# Velocity P-wave (km/s) = 6.96265 7.78154 7.38346
#
# Compressibility (1/GPa) = 0.01478539
#
# Stress axis : x y z
#
# Youngs Moduli (GPa) = 47.29471 167.38611 79.84140
#
# Poissons Ratio (x) = 0.29152 0.64533
# Poissons Ratio (y) = 0.08237 0.20796
# Poissons Ratio (z) = 0.38226 0.43598
#
# Static dielectric constant tensor:
#      x y z
#    x 2.003760 0.000000 0.087010 
#    y 0.000000 1.842010 0.000000 
#    z 0.087010 0.000000 1.909630 
# 
# From -- ./inp_files/12489.got.cif
#   From: 2010.05.17/outbox.cif.g08.bks.cpg/sg10_7_cif.got.tgz:12489.got - 2010.06.03 11:33:40.
