data_PCOD9150239
_publ_section_title
;
Structure prediction by ZEFSAII (Michael W. Deem and Ramdas Pophale) SiO2 
 PCOD9150239
Probable space group: P 2/M
;
_chemical_formula_sum "Si O2"
_cell_formula_units_Z 32
_cell_length_a 15.225619
_cell_length_b 8.250032
_cell_length_c 12.258603
_cell_angle_alpha 90.000000
_cell_angle_beta 86.556351
_cell_angle_gamma 90.000000
_cell_volume 1537.045353
_symmetry_space_group_name_H-M "P 2/M"
_symmetry_group_IT_number 10
_symmetry_cell_setting 'monoclinic'
loop_
_space_group_symop_operation_xyz
x,y,z
-x,y,-z
-x,-y,-z
x,-y,z
loop_
_atom_site_type_symbol
_atom_site_label
_atom_site_fract_x
_atom_site_fract_y
_atom_site_fract_z
Si Si1 0.683577 0.808870 0.414553
Si Si2 0.993132 0.802097 0.626568
Si Si3 0.162589 0.803424 0.754846
Si Si4 0.175170 0.192573 0.221361
Si Si5 0.522411 0.693654 0.307280
Si Si6 0.784240 0.693690 0.012184
Si Si7 0.584114 0.697974 0.066171
Si Si8 0.674513 0.308320 0.645119
O O1 0.752936 0.746377 0.320851
O O2 0.588601 0.732665 0.399575
O O3 0.714354 0.771640 0.534110
O O4 0.675674 0.000000 0.401251
O O5 0.904897 0.750295 0.696067
O O6 0.000000 0.747938 0.500000
O O7 0.076416 0.752883 0.693875
O O8 0.992856 0.000000 0.624153
O O9 0.163328 0.000000 0.757584
O O10 0.171610 0.740677 0.876640
O O11 0.165710 0.233327 0.095122
O O12 0.264505 0.273462 0.256987
O O13 0.182664 0.000000 0.234004
O O14 0.515388 0.500000 0.298236
O O15 0.565500 0.752985 0.191239
O O16 0.424025 0.757125 0.329848
O O17 0.783464 0.500000 0.001782
O O18 0.681490 0.750812 0.021978
O O19 0.585465 0.500000 0.064209
O O20 0.500000 0.748056 0.000000
O O21 0.669787 0.500000 0.626609
#
# Coordination Sequence:
#
# PCOD9150239 Si02
#       8
#     4   4   4   4   4   4   4   4
#     4  11  22  36  58  87 121 155 195 251 304 349
#     4   9  19  39  66  91 116 154 200 241 292 360
#     4  10  21  39  63  89 119 157 203 249 296 355
#     4  11  23  40  63  89 119 152 195 250 300 349
#     4  10  20  36  56  81 115 158 205 242 287 357
#     4  11  22  38  61  87 121 159 198 246 298 356
#     4   9  17  32  55  79 108 153 204 244 280 336
#     4  11  23  38  59  85 118 159 201 244 296 360
#
# _framework density 20.819163
#
# number of rings (size 3 to 8) (size 9 to 14) (size 15 to 20)
#    0.000    1.750    1.250    3.375    0.000    7.500 
#    0.000    3.750    0.000    4.500    0.000    0.000 
#    0.000    0.000    0.000    0.000    0.000    0.000 
#
# Total GULP energy -178819.099965 kJ/mol
# GULP energy per Si atom -5588.096874 kJ/mol
# Density = 2.077178 g / cm^3
# Si number density = 20.819163 Si / 1000 Ang^3
#
#
#
# Elastic Constant Matrix: (Units=GPa)
#
#
# Indices 1 2 3 4 5 6 
#
# 1 99.8203 6.1061 38.7181 0.0000 2.5493 0.0000
# 2 6.1061 -0.3426 -6.2366 0.0000 -7.6868 0.0000
# 3 38.7181 -6.2366 124.6265 0.0000 -8.8704 0.0000
# 4 0.0000 0.0000 0.0000 31.7069 0.0000 5.6608
# 5 2.5493 -7.6868 -8.8704 0.0000 36.1706 0.0000
# 6 0.0000 0.0000 0.0000 5.6608 0.0000 16.6674
#
#
#
# Elastic Compliance Matrix: (Units=1/GPa)
#
#
# Indices 1 2 3 4 5 6 
#
# 1 0.008259 0.030403 -0.000637 0.000000 0.005723 0.000000
# 2 0.030403 -0.285725 -0.028719 0.000000 -0.069906 0.000000
# 3 -0.000637 -0.028719 0.006466 0.000000 -0.004473 0.000000
# 4 0.000000 0.000000 0.000000 0.033575 0.000000 -0.011403
# 5 0.005723 -0.069906 -0.004473 0.000000 0.011290 0.000000
# 6 0.000000 0.000000 0.000000 -0.011403 0.000000 0.063870
#
#
# Mechanical properties :
#
#
# Convention : Reuss Voigt Hill
#
# Bulk Modulus (GPa) = -3.71876 33.47550 14.87837
# Shear Modulus (GPa) = -19.68563 29.27676 4.79556
#
# Velocity S-wave (km/s) = -3.07832 3.75406 1.51935
# Velocity P-wave (km/s) = 3.79801 5.90802 3.19999
#
# Compressibility (1/GPa) = -0.26890654
#
# Stress axis : x y z
#
# Youngs Moduli (GPa) = 121.07691 -3.49987 154.64506
#
# Poissons Ratio (x) = 0.10641 0.09854
# Poissons Ratio (y) = -3.68110 4.44130
# Poissons Ratio (z) = 0.07715 -0.10051
#
# Static dielectric constant tensor:
#      x y z
#    x 1.748580 0.000000 -0.009500 
#    y 0.000000 1.726610 0.000000 
#    z -0.009500 0.000000 1.735550 
# 
# From -- ./inp_files/49802.got.cif
#   From: 2010.05.17/outbox.cif.g08.bks.cpg/sg10_25_cif.got.tgz:49802.got - 2010.06.03 11:33:40.
