data_PCOD9150060
_publ_section_title
;
Structure prediction by ZEFSAII (Michael W. Deem and Ramdas Pophale) SiO2 
 PCOD9150060
Probable space group: P 2/M
;
_chemical_formula_sum "Si O2"
_cell_formula_units_Z 28
_cell_length_a 25.499455
_cell_length_b 8.467259
_cell_length_c 23.184007
_cell_angle_alpha 90.000000
_cell_angle_beta 163.110180
_cell_angle_gamma 90.000000
_cell_volume 1454.308345
_symmetry_space_group_name_H-M "P 2/M"
_symmetry_group_IT_number 10
_symmetry_cell_setting 'monoclinic'
loop_
_space_group_symop_operation_xyz
x,y,z
-x,y,-z
-x,-y,-z
x,-y,z
loop_
_atom_site_type_symbol
_atom_site_label
_atom_site_fract_x
_atom_site_fract_y
_atom_site_fract_z
Si Si1 0.044545 0.309795 0.633627
Si Si2 0.707964 0.810164 0.207966
Si Si3 0.139717 0.310161 0.326430
Si Si4 0.546994 0.689839 0.733707
Si Si5 0.888253 0.306908 0.164764
Si Si6 0.505292 0.179809 0.441937
Si Si7 0.931352 0.179811 0.867997
O O1 0.043357 0.500000 0.630055
O O2 0.203208 0.249865 0.758283
O O3 0.078190 0.256706 0.734563
O O4 0.851867 0.249875 0.406943
O O5 0.710452 0.000000 0.210456
O O6 0.500000 0.758858 0.000000
O O7 0.143419 0.500000 0.331441
O O8 0.346700 0.253460 0.540101
O O9 0.036767 0.261121 0.159581
O O10 0.040530 0.254903 0.279622
O O11 0.544601 0.500000 0.732622
O O12 0.586046 0.738878 0.708860
O O13 0.698559 0.745100 0.937651
O O14 0.888484 0.500000 0.165456
O O15 0.500000 0.254681 0.500000
O O16 0.716154 0.174352 0.648464
O O17 0.436146 0.000000 0.374162
O O18 0.001867 0.000000 0.939882
O O19 0.000000 0.254680 0.000000
#
# Coordination Sequence:
#
# PCOD9150060 Si02
#       7
#     4   4   4   4   4   4   4
#     4  10  20  35  58  88 116 144 188 234 270 320
#     4  10  21  38  59  83 118 156 185 221 270 319
#     4   9  18  33  50  69  96 129 165 206 254 309
#     4   9  18  33  50  69  96 129 165 206 254 309
#     4   9  19  34  53  78 106 136 170 214 264 312
#     4   9  18  31  46  66  92 121 159 208 259 310
#     4   9  18  31  46  66  92 121 159 208 259 310
#
# _framework density 19.253139000000001
#
# number of rings (size 3 to 8) (size 9 to 14) (size 15 to 20)
#    0.000    2.714    0.000    1.714    2.000    2.857 
#    0.000    5.714    0.000    3.429    0.000    0.000 
#    0.000    0.000    0.000    0.000    0.000    0.000 
#
# Total GULP energy -156078.234409 kJ/mol
# GULP energy per Si atom -5574.222657 kJ/mol
# Density = 1.920932 g / cm^3
# Si number density = 19.253139 Si / 1000 Ang^3
#
#
#
# Elastic Constant Matrix: (Units=GPa)
#
#
# Indices 1 2 3 4 5 6 
#
# 1 181.7439 24.4935 112.5489 0.0000 -28.0362 0.0000
# 2 24.4935 21.6139 23.9772 0.0000 -0.4891 0.0000
# 3 112.5489 23.9772 142.9155 0.0000 -8.6468 0.0000
# 4 0.0000 0.0000 0.0000 61.0555 0.0000 -65.5262
# 5 -28.0362 -0.4891 -8.6468 0.0000 38.0713 0.0000
# 6 0.0000 0.0000 0.0000 -65.5262 0.0000 130.4669
#
#
#
# Elastic Compliance Matrix: (Units=1/GPa)
#
#
# Indices 1 2 3 4 5 6 
#
# 1 0.012666 -0.004438 -0.008790 0.000000 0.007274 0.000000
# 2 -0.004438 0.058481 -0.006559 0.000000 -0.004006 0.000000
# 3 -0.008790 -0.006559 0.014827 0.000000 -0.003190 0.000000
# 4 0.000000 0.000000 0.000000 0.035530 0.000000 0.017845
# 5 0.007274 -0.004006 -0.003190 0.000000 0.030847 0.000000
# 6 0.000000 0.000000 0.000000 0.017845 0.000000 0.016627
#
#
# Mechanical properties :
#
#
# Convention : Reuss Voigt Hill
#
# Bulk Modulus (GPa) = 21.55158 74.25693 47.90426
# Shear Modulus (GPa) = 22.31964 58.26900 40.29432
#
# Velocity S-wave (km/s) = 3.40850 5.50730 4.57975
# Velocity P-wave (km/s) = 5.16804 8.89342 7.27329
#
# Compressibility (1/GPa) = 0.04640031
#
# Stress axis : x y z
#
# Youngs Moduli (GPa) = 78.95318 17.09954 67.44511
#
# Poissons Ratio (x) = 0.07588 0.59284
# Poissons Ratio (y) = 0.35036 0.44239
# Poissons Ratio (z) = 0.69399 0.11216
#
# Static dielectric constant tensor:
#      x y z
#    x 1.674520 0.000000 0.008130 
#    y 0.000000 1.676060 0.000000 
#    z 0.008130 0.000000 1.683130 
# 
# From -- ./inp_files/86546.got.cif
#   From: 2010.05.17/outbox.cif.g08.bks.cpg/sg10_44_cif.got.tgz:86546.got - 2010.06.03 11:33:40.
