data_PCOD9150101
_publ_section_title
;
Structure prediction by ZEFSAII (Michael W. Deem and Ramdas Pophale) SiO2 
 PCOD9150101
Probable space group: P 2/M
;
_chemical_formula_sum "Si O2"
_cell_formula_units_Z 30
_cell_length_a 8.580923
_cell_length_b 17.478714
_cell_length_c 19.603700
_cell_angle_alpha 90.000000
_cell_angle_beta 146.792720
_cell_angle_gamma 90.000000
_cell_volume 1610.275238
_symmetry_space_group_name_H-M "P 2/M"
_symmetry_group_IT_number 10
_symmetry_cell_setting 'monoclinic'
loop_
_space_group_symop_operation_xyz
x,y,z
-x,y,-z
-x,-y,-z
x,-y,z
loop_
_atom_site_type_symbol
_atom_site_label
_atom_site_fract_x
_atom_site_fract_y
_atom_site_fract_z
Si Si1 0.580130 0.086351 0.650579
Si Si2 0.811578 0.156358 0.114129
Si Si3 0.302487 0.414275 0.821698
Si Si4 0.500000 0.205973 0.500000
Si Si5 0.107754 0.262864 0.117093
Si Si6 0.119210 0.748576 0.723557
Si Si7 0.284183 0.816098 0.645726
Si Si8 0.936964 0.583624 0.116313
O O1 0.499912 0.149930 0.565210
O O2 0.394663 0.106236 0.649974
O O3 0.919108 0.099639 0.784284
O O4 0.524626 0.000000 0.608016
O O5 0.804764 0.213535 0.176425
O O6 0.883775 0.210551 0.076541
O O7 0.500000 0.119443 0.000000
O O8 0.251668 0.500000 0.773391
O O9 0.250836 0.335814 0.761806
O O10 0.112655 0.407548 0.820966
O O11 0.625421 0.413743 0.967356
O O12 0.779405 0.256795 0.600126
O O13 0.423103 0.232160 0.248553
O O14 0.104521 0.347701 0.145263
O O15 0.000000 0.261734 0.000000
O O16 0.200887 0.808589 0.694296
O O17 0.000000 0.791128 0.500000
O O18 0.061499 0.500000 0.148656
#
# Coordination Sequence:
#
# PCOD9150101 Si02
#       8
#     4   4   4   2   4   4   4   4
#     4  10  22  40  60  86 117 146 187 236 293 354
#     4  10  20  35  59  88 115 150 194 237 289 345
#     4   9  17  30  53  83 115 150 193 245 291 331
#     4  10  21  38  61  86 106 148 196 240 275 340
#     4  11  21  34  57  86 119 157 196 246 290 347
#     4  11  20  36  60  81 114 152 200 239 284 342
#     4  11  23  39  57  87 117 154 192 242 296 345
#     4   9  17  30  50  82 117 150 192 241 292 336
#
# _framework density 18.630355999999999
#
# number of rings (size 3 to 8) (size 9 to 14) (size 15 to 20)
#    0.000    1.867    2.667    3.400    0.000    0.800 
#    0.000    1.667    0.000   15.200    0.000    0.000 
#    0.000    0.000    0.000    0.000    0.000    0.000 
#
# Total GULP energy -167151.573386 kJ/mol
# GULP energy per Si atom -5571.719113 kJ/mol
# Density = 1.858795 g / cm^3
# Si number density = 18.630356 Si / 1000 Ang^3
#
#
#
# Elastic Constant Matrix: (Units=GPa)
#
#
# Indices 1 2 3 4 5 6 
#
# 1 53.5203 -9.7616 0.3999 0.0000 7.4092 0.0000
# 2 -9.7616 40.5680 -3.3849 0.0000 4.5452 0.0000
# 3 0.3999 -3.3849 59.4957 0.0000 24.5383 0.0000
# 4 0.0000 0.0000 0.0000 6.7514 0.0000 1.1774
# 5 7.4092 4.5452 24.5383 0.0000 24.5839 0.0000
# 6 0.0000 0.0000 0.0000 1.1774 0.0000 13.8884
#
#
#
# Elastic Compliance Matrix: (Units=1/GPa)
#
#
# Indices 1 2 3 4 5 6 
#
# 1 0.021917 0.007346 0.006043 0.000000 -0.013995 0.000000
# 2 0.007346 0.028823 0.007991 0.000000 -0.015519 0.000000
# 3 0.006043 0.007991 0.031585 0.000000 -0.034825 0.000000
# 4 0.000000 0.000000 0.000000 0.150340 0.000000 -0.012745
# 5 -0.013995 -0.015519 -0.034825 0.000000 0.082525 0.000000
# 6 0.000000 0.000000 0.000000 -0.012745 0.000000 0.073083
#
#
# Mechanical properties :
#
#
# Convention : Reuss Voigt Hill
#
# Bulk Modulus (GPa) = 7.99464 14.23232 11.11348
# Shear Modulus (GPa) = 12.91296 20.13343 16.52320
#
# Velocity S-wave (km/s) = 2.63556 3.29093 2.98131
# Velocity P-wave (km/s) = 3.68267 4.70066 4.22246
#
# Compressibility (1/GPa) = 0.12508379
#
# Stress axis : x y z
#
# Youngs Moduli (GPa) = 45.62759 34.69447 31.66044
#
# Poissons Ratio (x) = -0.25486 -0.19131
# Poissons Ratio (y) = -0.33517 -0.25300
# Poissons Ratio (z) = -0.27571 -0.27725
#
# Static dielectric constant tensor:
#      x y z
#    x 1.680300 0.000000 0.002150 
#    y 0.000000 1.631810 0.000000 
#    z 0.002150 0.000000 1.654180 
# 
# From -- ./inp_files/83051.got.cif
#   From: 2010.05.17/outbox.cif.g08.bks.cpg/sg10_42_cif.got.tgz:83051.got - 2010.06.03 11:33:40.
