data_PCOD9150496
_publ_section_title
;
Structure prediction by ZEFSAII (Michael W. Deem and Ramdas Pophale) SiO2 
 PCOD9150496
Probable space group: P 2/M
;
_chemical_formula_sum "Si O2"
_cell_formula_units_Z 28
_cell_length_a 14.470892
_cell_length_b 18.013149
_cell_length_c 8.450554
_cell_angle_alpha 90.000000
_cell_angle_beta 139.967353
_cell_angle_gamma 90.000000
_cell_volume 1416.877692
_symmetry_space_group_name_H-M "P 2/M"
_symmetry_group_IT_number 10
_symmetry_cell_setting 'monoclinic'
loop_
_space_group_symop_operation_xyz
x,y,z
-x,y,-z
-x,-y,-z
x,-y,z
loop_
_atom_site_type_symbol
_atom_site_label
_atom_site_fract_x
_atom_site_fract_y
_atom_site_fract_z
Si Si1 0.345001 0.583375 0.217208
Si Si2 0.846167 0.830733 0.013050
Si Si3 0.834921 0.684800 0.805528
Si Si4 0.832250 0.214457 0.492914
Si Si5 0.390933 0.300404 0.995173
Si Si6 0.265166 0.915070 0.438221
Si Si7 0.546530 0.839923 0.734547
O O1 0.500000 0.580692 0.500000
O O2 0.299891 0.500000 0.112386
O O3 0.248849 0.616196 0.233072
O O4 0.355911 0.637265 0.079157
O O5 0.002398 0.815237 0.293377
O O6 0.809639 0.748673 0.902811
O O7 0.831380 0.881304 0.833776
O O8 0.715375 0.859346 0.949619
O O9 0.806973 0.728787 0.606529
O O10 0.000000 0.663796 0.000000
O O11 0.758220 0.261722 0.257981
O O12 0.753289 0.138265 0.435567
O O13 0.500000 0.327653 0.000000
O O14 0.473425 0.230033 0.178794
O O15 0.433452 0.905078 0.616830
O O16 0.227310 0.000000 0.414994
O O17 0.500000 0.812604 0.500000
#
# Coordination Sequence:
#
# PCOD9150496 Si02
#       7
#     4   4   4   4   4   4   4
#     4  11  24  40  64  94 123 159 204 260 314 362
#     4   9  19  34  59  88 119 154 211 253 300 357
#     4   9  18  38  62  87 119 158 207 253 291 370
#     4  10  21  36  59  93 122 161 209 253 309 364
#     4  12  22  37  63  89 123 165 207 253 309 371
#     4  10  20  36  60  92 124 160 209 261 310 363
#     4  10  20  36  59  85 117 160 211 255 297 365
#
# _framework density 19.761762999999998
#
# number of rings (size 3 to 8) (size 9 to 14) (size 15 to 20)
#    0.000    1.857    2.857    2.571    2.000    4.857 
#    0.000    2.143    0.000    4.286    0.000    6.000 
#    0.000    0.000    0.000    0.000    0.000    0.000 
#
# Total GULP energy -155902.223161 kJ/mol
# GULP energy per Si atom -5567.936541 kJ/mol
# Density = 1.971678 g / cm^3
# Si number density = 19.761763 Si / 1000 Ang^3
#
#
#
# Elastic Constant Matrix: (Units=GPa)
#
#
# Indices 1 2 3 4 5 6 
#
# 1 64.0716 36.6191 24.4580 0.0000 12.5525 0.0000
# 2 36.6191 127.5688 41.9255 0.0000 -0.4110 0.0000
# 3 24.4580 41.9255 78.9313 0.0000 14.5530 0.0000
# 4 0.0000 0.0000 0.0000 17.1224 0.0000 3.1295
# 5 12.5525 -0.4110 14.5530 0.0000 32.6460 0.0000
# 6 0.0000 0.0000 0.0000 3.1295 0.0000 -62.5128
#
#
#
# Elastic Compliance Matrix: (Units=1/GPa)
#
#
# Indices 1 2 3 4 5 6 
#
# 1 0.020890 -0.005231 -0.002399 0.000000 -0.007029 0.000000
# 2 -0.005231 0.011010 -0.005038 0.000000 0.004396 0.000000
# 3 -0.002399 -0.005038 0.017357 0.000000 -0.006878 0.000000
# 4 0.000000 0.000000 0.000000 0.057874 0.000000 0.002897
# 5 -0.007029 0.004396 -0.006878 0.000000 0.036456 0.000000
# 6 0.000000 0.000000 0.000000 0.002897 0.000000 -0.015852
#
#
# Mechanical properties :
#
#
# Convention : Reuss Voigt Hill
#
# Bulk Modulus (GPa) = 41.80244 52.95299 47.37772
# Shear Modulus (GPa) = 31.04757 8.62240 19.83499
#
# Velocity S-wave (km/s) = 3.96800 2.09109 3.17157
# Velocity P-wave (km/s) = 6.49558 5.71700 6.11868
#
# Compressibility (1/GPa) = 0.02392205
#
# Stress axis : x y z
#
# Youngs Moduli (GPa) = 47.87031 90.82401 57.61480
#
# Poissons Ratio (x) = 0.47509 0.13820
# Poissons Ratio (y) = 0.25040 0.29026
# Poissons Ratio (z) = 0.11482 0.45756
#
# Static dielectric constant tensor:
#      x y z
#    x 1.847030 0.000000 0.006540 
#    y 0.000000 1.674340 0.000000 
#    z 0.006540 0.000000 1.778710 
# 
# From -- ./inp_files/30204.got.cif
#   From: 2010.05.17/outbox.cif.g08.bks.cpg/sg10_16_cif.got.tgz:30204.got - 2010.06.03 11:33:40.
