data_PCOD9150878
_publ_section_title
;
Structure prediction by ZEFSAII (Michael W. Deem and Ramdas Pophale) SiO2 
 PCOD9150878
Probable space group: P 2/M
;
_chemical_formula_sum "Si O2"
_cell_formula_units_Z 24
_cell_length_a 11.800079
_cell_length_b 7.206638
_cell_length_c 23.201788
_cell_angle_alpha 90.000000
_cell_angle_beta 143.816244
_cell_angle_gamma 90.000000
_cell_volume 1164.845710
_symmetry_space_group_name_H-M "P 2/M"
_symmetry_group_IT_number 10
_symmetry_cell_setting 'monoclinic'
loop_
_space_group_symop_operation_xyz
x,y,z
-x,y,-z
-x,-y,-z
x,-y,z
loop_
_atom_site_type_symbol
_atom_site_label
_atom_site_fract_x
_atom_site_fract_y
_atom_site_fract_z
Si Si1 0.028604 0.776553 0.579274
Si Si2 0.583915 0.774970 0.202687
Si Si3 0.849459 0.774489 0.985873
Si Si4 0.675175 0.775083 0.111793
Si Si5 0.227506 0.500000 0.451173
Si Si6 0.032531 0.777794 0.183285
Si Si7 0.685479 0.500000 0.650126
O O1 0.883639 0.672409 0.563663
O O2 0.000000 0.732985 0.500000
O O3 0.247428 0.722035 0.684944
O O4 0.008010 0.000000 0.578085
O O5 0.649564 0.715366 0.166252
O O6 0.578103 0.000000 0.201567
O O7 0.364487 0.712531 0.118102
O O8 0.931418 0.721498 0.081874
O O9 0.843108 0.000000 0.984340
O O10 0.000000 0.716264 0.000000
O O11 0.877406 0.725641 0.167980
O O12 0.666820 0.000000 0.108157
O O13 0.500000 0.712090 0.000000
O O14 0.455356 0.500000 0.558267
O O15 0.235483 0.500000 0.384025
O O16 0.226388 0.675194 0.279640
O O17 0.058154 0.000000 0.192678
#
# Coordination Sequence:
#
# PCOD9150878 Si02
#       7
#     4   4   4   4   2   4   2
#     4  10  22  41  68  96 120 156 211 264 312 367
#     4   9  16  29  52  84 118 151 191 241 292 351
#     4   9  17  30  52  84 122 160 193 232 295 369
#     4   9  14  25  51  81 110 150 192 231 286 348
#     4  11  25  46  63  86 125 161 202 267 322 362
#     4  10  20  37  59  85 120 160 201 249 302 362
#     4  11  26  42  61  89 122 163 213 254 307 381
#
# _framework density 20.603587000000001
#
# number of rings (size 3 to 8) (size 9 to 14) (size 15 to 20)
#    0.000    2.333    1.667    1.250    0.000    4.000 
#    0.000    6.667    0.000    0.000    0.000    0.000 
#    0.000    0.000    0.000    0.000    0.000    0.000 
#
# Total GULP energy -133987.732139 kJ/mol
# GULP energy per Si atom -5582.822172 kJ/mol
# Density = 2.055669 g / cm^3
# Si number density = 20.603587 Si / 1000 Ang^3
#
#
#
# Elastic Constant Matrix: (Units=GPa)
#
#
# Indices 1 2 3 4 5 6 
#
# 1 137.4023 23.4254 91.6410 0.0000 10.1909 0.0000
# 2 23.4254 116.1953 38.5686 0.0000 5.0957 0.0000
# 3 91.6410 38.5686 218.9196 0.0000 3.5378 0.0000
# 4 0.0000 0.0000 0.0000 -18.2872 0.0000 -7.8949
# 5 10.1909 5.0957 3.5378 0.0000 31.2250 0.0000
# 6 0.0000 0.0000 0.0000 -7.8949 0.0000 23.7832
#
#
#
# Elastic Compliance Matrix: (Units=1/GPa)
#
#
# Indices 1 2 3 4 5 6 
#
# 1 0.010387 -0.000576 -0.004201 0.000000 -0.002820 0.000000
# 2 -0.000576 0.009227 -0.001366 0.000000 -0.001163 0.000000
# 3 -0.004201 -0.001366 0.006553 0.000000 0.000851 0.000000
# 4 0.000000 0.000000 0.000000 -0.047829 0.000000 -0.015877
# 5 -0.002820 -0.001163 0.000851 0.000000 0.033039 0.000000
# 6 0.000000 0.000000 0.000000 -0.015877 0.000000 0.036776
#
#
# Mechanical properties :
#
#
# Convention : Reuss Voigt Hill
#
# Bulk Modulus (GPa) = 72.03688 86.64301 79.33995
# Shear Modulus (GPa) = 76.84469 28.60303 52.72386
#
# Velocity S-wave (km/s) = 6.11373 3.72997 5.06411
# Velocity P-wave (km/s) = 9.21282 7.79063 8.53141
#
# Compressibility (1/GPa) = 0.01388178
#
# Stress axis : x y z
#
# Youngs Moduli (GPa) = 96.27243 108.38218 152.59444
#
# Poissons Ratio (x) = 0.06242 0.64106
# Poissons Ratio (y) = 0.05545 0.20839
# Poissons Ratio (z) = 0.40445 0.14801
#
# Static dielectric constant tensor:
#      x y z
#    x 1.692250 0.000000 -0.012550 
#    y 0.000000 1.819370 0.000000 
#    z -0.012550 0.000000 1.700780 
# 
# From -- ./inp_files/88764.got.cif
#   From: 2010.05.17/outbox.cif.g08.bks.cpg/sg10_45_cif.got.tgz:88764.got - 2010.06.03 11:33:40.
