data_PCOD9150682
_publ_section_title
;
Structure prediction by ZEFSAII (Michael W. Deem and Ramdas Pophale) SiO2 
 PCOD9150682
Probable space group: P 2/M
;
_chemical_formula_sum "Si O2"
_cell_formula_units_Z 19
_cell_length_a 6.923306
_cell_length_b 23.161231
_cell_length_c 7.739280
_cell_angle_alpha 90.000000
_cell_angle_beta 137.756861
_cell_angle_gamma 90.000000
_cell_volume 834.304776
_symmetry_space_group_name_H-M "P 2/M"
_symmetry_group_IT_number 10
_symmetry_cell_setting 'monoclinic'
loop_
_space_group_symop_operation_xyz
x,y,z
-x,y,-z
-x,-y,-z
x,-y,z
loop_
_atom_site_type_symbol
_atom_site_label
_atom_site_fract_x
_atom_site_fract_y
_atom_site_fract_z
Si Si1 0.000000 0.000000 0.500000
Si Si2 0.164927 0.818920 0.925902
Si Si3 0.342022 0.626492 0.573922
Si Si4 0.658892 0.500000 0.288721
Si Si5 0.332029 0.890249 0.572379
Si Si6 0.830818 0.312717 0.074603
O O1 0.231805 0.949352 0.593112
O O2 0.182605 0.753288 0.873370
O O3 0.955407 0.855734 0.667741
O O4 0.460166 0.851489 0.169470
O O5 0.000000 0.815303 0.000000
O O6 0.500000 0.639398 0.500000
O O7 0.403392 0.559842 0.656819
O O8 0.014954 0.644784 0.319381
O O9 0.513456 0.664706 0.824147
O O10 0.000000 0.500000 0.500000
O O11 0.500000 0.500000 0.000000
O O12 0.500000 0.900613 0.500000
O O13 0.000000 0.313031 0.000000
#
# Coordination Sequence:
#
# PCOD9150682 Si02
#       6
#     1   4   4   2   4   4
#     4  12  26  42  64  88 128 162 214 248 296 364
#     4   9  18  36  62  91 120 153 194 247 310 366
#     4  10  20  36  61  90 114 151 206 254 297 358
#     4  12  25  40  57  78 124 168 200 242 307 364
#     4  10  22  39  62  89 122 162 203 251 308 361
#     4   9  17  32  61  92 115 145 194 253 307 357
#
# _framework density 22.773454000000001
#
# number of rings (size 3 to 8) (size 9 to 14) (size 15 to 20)
#    0.000    2.105    0.000    3.158    0.000    7.579 
#    0.000    7.368   23.158    0.000    0.000    0.000 
#    0.000    0.000    0.000    0.000    0.000    0.000 
#
# Total GULP energy -106021.897729 kJ/mol
# GULP energy per Si atom -5580.099880 kJ/mol
# Density = 2.272162 g / cm^3
# Si number density = 22.773454 Si / 1000 Ang^3
#
#
#
# Elastic Constant Matrix: (Units=GPa)
#
#
# Indices 1 2 3 4 5 6 
#
# 1 70.9486 0.4881 29.5158 0.0000 3.9857 0.0000
# 2 0.4881 202.5075 91.3174 0.0000 3.4445 0.0000
# 3 29.5158 91.3174 194.0317 0.0000 15.6264 0.0000
# 4 0.0000 0.0000 0.0000 -11.9195 0.0000 17.3025
# 5 3.9857 3.4445 15.6264 0.0000 41.1712 0.0000
# 6 0.0000 0.0000 0.0000 17.3025 0.0000 20.1410
#
#
#
# Elastic Compliance Matrix: (Units=1/GPa)
#
#
# Indices 1 2 3 4 5 6 
#
# 1 0.015316 0.001275 -0.002890 0.000000 -0.000492 0.000000
# 2 0.001275 0.006390 -0.003247 0.000000 0.000575 0.000000
# 3 -0.002890 -0.003247 0.007300 0.000000 -0.002219 0.000000
# 4 0.000000 0.000000 0.000000 -0.037336 0.000000 0.032074
# 5 -0.000492 0.000575 -0.002219 0.000000 0.025131 0.000000
# 6 0.000000 0.000000 0.000000 0.032074 0.000000 0.022096
#
#
# Mechanical properties :
#
#
# Convention : Reuss Voigt Hill
#
# Bulk Modulus (GPa) = 51.86575 78.90339 65.38457
# Shear Modulus (GPa) = 90.82932 32.95632 61.89282
#
# Velocity S-wave (km/s) = 6.32222 3.80825 5.21887
# Velocity P-wave (km/s) = 8.72456 7.35251 8.06776
#
# Compressibility (1/GPa) = 0.01928055
#
# Stress axis : x y z
#
# Youngs Moduli (GPa) = 65.29155 156.50532 136.97785
#
# Poissons Ratio (x) = -0.19950 0.39588
# Poissons Ratio (y) = -0.08323 0.44481
# Poissons Ratio (z) = 0.18870 0.50822
#
# Static dielectric constant tensor:
#      x y z
#    x 1.946530 0.000000 -0.029420 
#    y 0.000000 4.776110 0.000000 
#    z -0.029420 0.000000 1.799240 
# 
# From -- ./inp_files/4660.got.cif
#   From: 2010.05.17/outbox.cif.g08.bks.cpg/sg10_3_cif.got.tgz:4660.got - 2010.06.03 11:33:40.
