data_PCOD9150493
_publ_section_title
;
Structure prediction by ZEFSAII (Michael W. Deem and Ramdas Pophale) SiO2 
 PCOD9150493
Probable space group: P 2/M
;
_chemical_formula_sum "Si O2"
_cell_formula_units_Z 32
_cell_length_a 16.714217
_cell_length_b 7.800260
_cell_length_c 25.413016
_cell_angle_alpha 90.000000
_cell_angle_beta 26.050410
_cell_angle_gamma 90.000000
_cell_volume 1455.043029
_symmetry_space_group_name_H-M "P 2/M"
_symmetry_group_IT_number 10
_symmetry_cell_setting 'monoclinic'
loop_
_space_group_symop_operation_xyz
x,y,z
-x,y,-z
-x,-y,-z
x,-y,z
loop_
_atom_site_type_symbol
_atom_site_label
_atom_site_fract_x
_atom_site_fract_y
_atom_site_fract_z
Si Si1 0.860378 0.796844 0.537760
Si Si2 0.858980 0.707359 0.247877
Si Si3 0.731326 0.290357 0.004497
Si Si4 0.552887 0.292319 0.216881
Si Si5 0.569672 0.708917 0.901000
Si Si6 0.706866 0.193217 0.447532
Si Si7 0.628056 0.697701 0.288946
Si Si8 0.980848 0.302479 0.664710
O O1 0.652228 0.763029 0.675396
O O2 0.000000 0.737215 0.500000
O O3 0.906404 0.707377 0.455722
O O4 0.886944 0.000000 0.514362
O O5 0.859661 0.500000 0.245606
O O6 0.735174 0.756052 0.370584
O O7 0.773508 0.773100 0.243819
O O8 0.067242 0.765590 0.131289
O O9 0.730767 0.500000 0.003261
O O10 0.684653 0.239160 0.091729
O O11 0.571500 0.231146 0.059843
O O12 0.552114 0.500000 0.219018
O O13 0.603584 0.226538 0.245217
O O14 0.571419 0.500000 0.896688
O O15 0.778772 0.765925 0.772376
O O16 0.500000 0.755688 0.000000
O O17 0.563118 0.299736 0.566618
O O18 0.902901 0.208665 0.359728
O O19 0.639754 0.000000 0.490352
O O20 0.682334 0.500000 0.248444
O O21 0.963387 0.500000 0.692635
#
# Coordination Sequence:
#
# PCOD9150493 Si02
#       8
#     4   4   4   4   4   4   4   4
#     4  11  23  37  54  81 117 155 194 235 285 342
#     4  10  21  38  61  86 116 152 194 244 296 348
#     4   9  18  34  57  87 118 151 195 244 290 343
#     4  10  20  36  59  85 116 153 197 243 290 346
#     4   9  17  30  52  83 115 148 189 236 287 340
#     4  12  24  38  58  85 119 154 194 243 298 356
#     4  10  21  37  59  88 117 151 194 244 297 348
#     4  11  21  35  59  86 113 149 193 240 291 344
#
# _framework density 21.992477999999998
#
# number of rings (size 3 to 8) (size 9 to 14) (size 15 to 20)
#    0.000    1.750    1.250    3.750    0.000    6.500 
#    0.000    3.125    0.000    8.250    0.000    2.625 
#    0.000    0.000    0.000    0.000    0.000    0.000 
#
# Total GULP energy -178866.474978 kJ/mol
# GULP energy per Si atom -5589.577343 kJ/mol
# Density = 2.194242 g / cm^3
# Si number density = 21.992478 Si / 1000 Ang^3
#
#
#
# Elastic Constant Matrix: (Units=GPa)
#
#
# Indices 1 2 3 4 5 6 
#
# 1 110.0489 -2.5830 6.3140 0.0000 3.0702 0.0000
# 2 -2.5830 36.1481 -11.1592 0.0000 -0.7918 0.0000
# 3 6.3140 -11.1592 64.7923 0.0000 2.2840 0.0000
# 4 0.0000 0.0000 0.0000 -33.7922 0.0000 -41.9384
# 5 3.0702 -0.7918 2.2840 0.0000 37.6209 0.0000
# 6 0.0000 0.0000 0.0000 -41.9384 0.0000 -108.1302
#
#
#
# Elastic Compliance Matrix: (Units=1/GPa)
#
#
# Indices 1 2 3 4 5 6 
#
# 1 0.009161 0.000392 -0.000801 0.000000 -0.000691 0.000000
# 2 0.000392 0.029238 0.004988 0.000000 0.000281 0.000000
# 3 -0.000801 0.004988 0.016400 0.000000 -0.000825 0.000000
# 4 0.000000 0.000000 0.000000 -0.057057 0.000000 0.022130
# 5 -0.000691 0.000281 -0.000825 0.000000 0.026693 0.000000
# 6 0.000000 0.000000 0.000000 0.022130 0.000000 -0.017831
#
#
# Mechanical properties :
#
#
# Convention : Reuss Voigt Hill
#
# Bulk Modulus (GPa) = 15.63550 21.79254 18.71402
# Shear Modulus (GPa) = 266.44280 -6.29913 130.07184
#
# Velocity S-wave (km/s) = 11.01884 -1.69424 7.69884
# Velocity P-wave (km/s) = 13.00043 2.47050 9.35721
#
# Compressibility (1/GPa) = 0.06395703
#
# Stress axis : x y z
#
# Youngs Moduli (GPa) = 109.15483 34.20228 60.97535
#
# Poissons Ratio (x) = -0.01342 0.04883
# Poissons Ratio (y) = -0.04282 -0.30411
# Poissons Ratio (z) = 0.08742 -0.17058
#
# Static dielectric constant tensor:
#      x y z
#    x 1.803780 0.000000 -0.014080 
#    y 0.000000 1.800630 0.000000 
#    z -0.014080 0.000000 1.778080 
# 
# From -- ./inp_files/89478.got.cif
#   From: 2010.05.17/outbox.cif.g08.bks.cpg/sg10_45_cif.got.tgz:89478.got - 2010.06.03 11:33:40.
