data_PCOD9150360
_publ_section_title
;
Structure prediction by ZEFSAII (Michael W. Deem and Ramdas Pophale) SiO2 
 PCOD9150360
Probable space group: P 2/M
;
_chemical_formula_sum "Si O2"
_cell_formula_units_Z 28
_cell_length_a 27.824795
_cell_length_b 8.935721
_cell_length_c 21.427147
_cell_angle_alpha 90.000000
_cell_angle_beta 16.839026
_cell_angle_gamma 90.000000
_cell_volume 1543.299154
_symmetry_space_group_name_H-M "P 2/M"
_symmetry_group_IT_number 10
_symmetry_cell_setting 'monoclinic'
loop_
_space_group_symop_operation_xyz
x,y,z
-x,y,-z
-x,-y,-z
x,-y,z
loop_
_atom_site_type_symbol
_atom_site_label
_atom_site_fract_x
_atom_site_fract_y
_atom_site_fract_z
Si Si1 0.307287 0.829539 0.255148
Si Si2 0.786246 0.822009 0.948498
Si Si3 0.687151 0.668193 0.622819
Si Si4 0.929619 0.681322 0.155577
Si Si5 0.990358 0.678344 0.439356
Si Si6 0.414024 0.178643 0.373082
Si Si7 0.069881 0.331269 0.107328
O O1 0.299333 0.775737 0.335618
O O2 0.192226 0.722669 0.357494
O O3 0.248089 0.000000 0.321155
O O4 0.500000 0.822455 0.000000
O O5 0.883955 0.750395 0.767836
O O6 0.851110 0.760449 0.934252
O O7 0.812388 0.000000 0.913301
O O8 0.589507 0.791791 0.187828
O O9 0.630560 0.500000 0.709530
O O10 0.579611 0.741078 0.702062
O O11 0.874487 0.657494 0.365277
O O12 0.911739 0.500000 0.183056
O O13 0.749923 0.755835 0.389826
O O14 0.059045 0.728009 0.049687
O O15 0.000000 0.716304 0.000000
O O16 0.014562 0.500000 0.407218
O O17 0.000000 0.727427 0.500000
O O18 0.394853 0.000000 0.389312
O O19 0.140519 0.500000 0.019855
#
# Coordination Sequence:
#
# PCOD9150360 Si02
#       7
#     4   4   4   4   4   4   4
#     4  11  24  39  57  82 112 147 189 238 293 349
#     4  11  23  38  58  83 116 156 195 239 289 348
#     4  10  20  36  58  82 108 145 192 239 284 337
#     4   9  19  38  63  90 118 150 190 236 287 344
#     4  11  25  42  59  83 113 152 199 246 297 347
#     4  10  22  37  56  86 118 151 193 234 286 345
#     4   9  18  34  58  85 111 144 187 233 281 340
#
# _framework density 18.142949000000002
#
# number of rings (size 3 to 8) (size 9 to 14) (size 15 to 20)
#    0.000    1.857    1.429    3.000    2.000    7.143 
#    0.000    0.714    0.000    4.286    0.000    0.000 
#    0.000    0.000    0.000    0.000    0.000    0.000 
#
# Total GULP energy -156136.498704 kJ/mol
# GULP energy per Si atom -5576.303525 kJ/mol
# Density = 1.810166 g / cm^3
# Si number density = 18.142949 Si / 1000 Ang^3
#
#
#
# Elastic Constant Matrix: (Units=GPa)
#
#
# Indices 1 2 3 4 5 6 
#
# 1 156.5343 38.0019 54.1419 0.0000 -3.4976 0.0000
# 2 38.0019 42.0742 25.5990 0.0000 -12.5645 0.0000
# 3 54.1419 25.5990 54.7001 0.0000 -8.6497 0.0000
# 4 0.0000 0.0000 0.0000 -22.4238 0.0000 27.7485
# 5 -3.4976 -12.5645 -8.6497 0.0000 28.2177 0.0000
# 6 0.0000 0.0000 0.0000 27.7485 0.0000 22.3624
#
#
#
# Elastic Compliance Matrix: (Units=1/GPa)
#
#
# Indices 1 2 3 4 5 6 
#
# 1 0.010576 -0.005509 -0.008481 0.000000 -0.003742 0.000000
# 2 -0.005509 0.039376 -0.010835 0.000000 0.013529 0.000000
# 3 -0.008481 -0.010835 0.032388 0.000000 0.004052 0.000000
# 4 0.000000 0.000000 0.000000 -0.017588 0.000000 0.021825
# 5 -0.003742 0.013529 0.004052 0.000000 0.042241 0.000000
# 6 0.000000 0.000000 0.000000 0.021825 0.000000 0.017637
#
#
# Mechanical properties :
#
#
# Convention : Reuss Voigt Hill
#
# Bulk Modulus (GPa) = 30.59221 54.31047 42.45134
# Shear Modulus (GPa) = 27.00134 14.66897 20.83515
#
# Velocity S-wave (km/s) = 3.86198 2.84654 3.39246
# Velocity P-wave (km/s) = 6.06505 6.38776 6.22849
#
# Compressibility (1/GPa) = 0.03268806
#
# Stress axis : x y z
#
# Youngs Moduli (GPa) = 94.55575 25.39617 30.87606
#
# Poissons Ratio (x) = 0.13992 0.26187
# Poissons Ratio (y) = 0.52095 0.33454
# Poissons Ratio (z) = 0.80195 0.27517
#
# Static dielectric constant tensor:
#      x y z
#    x 1.637520 0.000000 -0.001540 
#    y 0.000000 1.627700 0.000000 
#    z -0.001540 0.000000 1.539600 
# 
# From -- ./inp_files/85654.got.cif
#   From: 2010.05.17/outbox.cif.g08.bks.cpg/sg10_43_cif.got.tgz:85654.got - 2010.06.03 11:33:40.
