data_PCOD9150495
_publ_section_title
;
Structure prediction by ZEFSAII (Michael W. Deem and Ramdas Pophale) SiO2 
 PCOD9150495
Probable space group: P 2/M
;
_chemical_formula_sum "Si O2"
_cell_formula_units_Z 32
_cell_length_a 29.069739
_cell_length_b 8.352264
_cell_length_c 11.981016
_cell_angle_alpha 90.000000
_cell_angle_beta 31.693271
_cell_angle_gamma 90.000000
_cell_volume 1528.289713
_symmetry_space_group_name_H-M "P 2/M"
_symmetry_group_IT_number 10
_symmetry_cell_setting 'monoclinic'
loop_
_space_group_symop_operation_xyz
x,y,z
-x,y,-z
-x,-y,-z
x,-y,z
loop_
_atom_site_type_symbol
_atom_site_label
_atom_site_fract_x
_atom_site_fract_y
_atom_site_fract_z
Si Si1 0.008506 0.804020 0.611409
Si Si2 0.354208 0.192955 0.863624
Si Si3 0.783353 0.688348 0.452303
Si Si4 0.155657 0.807248 0.901402
Si Si5 0.811036 0.807042 0.646023
Si Si6 0.525185 0.314497 0.209938
Si Si7 0.662961 0.193257 0.361018
Si Si8 0.407620 0.813701 0.145903
O O1 0.099374 0.752571 0.480145
O O2 0.000000 0.753516 0.500000
O O3 0.008171 0.000000 0.611461
O O4 0.926690 0.750965 0.855868
O O5 0.439827 0.272656 0.739649
O O6 0.337191 0.231640 0.770092
O O7 0.363575 0.000000 0.851584
O O8 0.271999 0.245995 0.109021
O O9 0.792746 0.500000 0.435953
O O10 0.842898 0.757153 0.230390
O O11 0.804133 0.755534 0.531989
O O12 0.682264 0.732412 0.633843
O O13 0.246942 0.753259 0.768634
O O14 0.155442 0.000000 0.906396
O O15 0.810401 0.000000 0.649709
O O16 0.540250 0.500000 0.153126
O O17 0.423751 0.270051 0.408392
O O18 0.581531 0.206543 0.009166
O O19 0.655841 0.000000 0.387454
O O20 0.402232 0.000000 0.189207
O O21 0.500000 0.746627 0.000000
#
# Coordination Sequence:
#
# PCOD9150495 Si02
#       8
#     4   4   4   4   4   4   4   4
#     4   9  18  36  66 101 126 149 197 257 305 354
#     4  10  20  36  59  85 117 157 203 249 297 358
#     4  12  25  40  59  86 123 162 204 249 297 360
#     4  10  21  39  63  90 122 156 198 251 304 357
#     4  10  20  37  64  92 121 159 201 251 307 359
#     4  12  24  36  54  84 120 158 199 245 299 359
#     4  10  21  37  58  85 117 158 203 250 302 357
#     4  11  23  40  62  85 113 154 204 255 305 359
#
# _framework density 20.938438999999999
#
# number of rings (size 3 to 8) (size 9 to 14) (size 15 to 20)
#    0.000    1.500    1.250    4.500    0.000   10.000 
#    0.000    3.125    0.000    3.000    0.000    0.000 
#    0.000    0.000    0.000    0.000    0.000    0.000 
#
# Total GULP energy -178939.834121 kJ/mol
# GULP energy per Si atom -5591.869816 kJ/mol
# Density = 2.089078 g / cm^3
# Si number density = 20.938439 Si / 1000 Ang^3
#
#
#
# Elastic Constant Matrix: (Units=GPa)
#
#
# Indices 1 2 3 4 5 6 
#
# 1 93.7960 1.5878 37.3056 0.0000 -3.4382 0.0000
# 2 1.5878 8.6971 5.6693 0.0000 -4.8392 0.0000
# 3 37.3056 5.6693 127.6150 0.0000 3.2534 0.0000
# 4 0.0000 0.0000 0.0000 -17.4954 0.0000 -3.6861
# 5 -3.4382 -4.8392 3.2534 0.0000 39.5156 0.0000
# 6 0.0000 0.0000 0.0000 -3.6861 0.0000 -19.5945
#
#
#
# Elastic Compliance Matrix: (Units=1/GPa)
#
#
# Indices 1 2 3 4 5 6 
#
# 1 0.012143 0.000970 -0.003630 0.000000 0.001474 0.000000
# 2 0.000970 0.128030 -0.006386 0.000000 0.016289 0.000000
# 3 -0.003630 -0.006386 0.009228 0.000000 -0.001858 0.000000
# 4 0.000000 0.000000 0.000000 -0.059517 0.000000 0.011196
# 5 0.001474 0.016289 -0.001858 0.000000 0.027583 0.000000
# 6 0.000000 0.000000 0.000000 0.011196 0.000000 -0.053141
#
#
# Mechanical properties :
#
#
# Convention : Reuss Voigt Hill
#
# Bulk Modulus (GPa) = 7.61574 35.47039 21.54306
# Shear Modulus (GPa) = 39.62311 12.85483 26.23897
#
# Velocity S-wave (km/s) = 4.35485 2.48046 3.54382
# Velocity P-wave (km/s) = 5.37879 5.01803 5.20154
#
# Compressibility (1/GPa) = 0.13130705
#
# Stress axis : x y z
#
# Youngs Moduli (GPa) = 82.35207 7.81069 108.36085
#
# Poissons Ratio (x) = -0.00758 0.39340
# Poissons Ratio (y) = -0.07987 0.69204
# Poissons Ratio (z) = 0.29897 0.04988
#
# Static dielectric constant tensor:
#      x y z
#    x 1.765940 0.000000 0.011260 
#    y 0.000000 1.719920 0.000000 
#    z 0.011260 0.000000 1.745280 
# 
# From -- ./inp_files/58197.got.cif
#   From: 2010.05.17/outbox.cif.g08.bks.cpg/sg10_30_cif.got.tgz:58197.got - 2010.06.03 11:33:40.
