data_PCOD9150757
_publ_section_title
;
Structure prediction by ZEFSAII (Michael W. Deem and Ramdas Pophale) SiO2 
 PCOD9150757
Probable space group: P 2/M
;
_chemical_formula_sum "Si O2"
_cell_formula_units_Z 26
_cell_length_a 13.732895
_cell_length_b 11.406756
_cell_length_c 9.425687
_cell_angle_alpha 90.000000
_cell_angle_beta 114.828216
_cell_angle_gamma 90.000000
_cell_volume 1340.040060
_symmetry_space_group_name_H-M "P 2/M"
_symmetry_group_IT_number 10
_symmetry_cell_setting 'monoclinic'
loop_
_space_group_symop_operation_xyz
x,y,z
-x,y,-z
-x,-y,-z
x,-y,z
loop_
_atom_site_type_symbol
_atom_site_label
_atom_site_fract_x
_atom_site_fract_y
_atom_site_fract_z
Si Si1 0.757816 0.737314 0.391539
Si Si2 0.997586 0.500000 0.167276
Si Si3 0.568168 0.500000 0.898466
Si Si4 0.190269 0.863527 0.845067
Si Si5 0.972425 0.275593 0.648449
Si Si6 0.583144 0.138940 0.926851
Si Si7 0.519498 0.289697 0.347853
Si Si8 0.220638 0.500000 0.787251
O O1 0.758196 0.841729 0.278076
O O2 0.853882 0.775157 0.554579
O O3 0.645830 0.715340 0.396954
O O4 0.777136 0.616307 0.311257
O O5 0.883833 0.500000 0.178655
O O6 0.048808 0.384070 0.262557
O O7 0.000000 0.500000 0.000000
O O8 0.536164 0.388918 0.783609
O O9 0.500000 0.500000 0.000000
O O10 0.685432 0.500000 0.038796
O O11 0.075031 0.797032 0.769734
O O12 0.170389 0.000000 0.862279
O O13 0.292508 0.816942 0.997535
O O14 0.000000 0.307535 0.500000
O O15 0.530576 0.171206 0.745775
O O16 0.591460 0.000000 0.953997
O O17 0.500000 0.184082 0.000000
O O18 0.500000 0.310305 0.500000
#
# Coordination Sequence:
#
# PCOD9150757 Si02
#       8
#     4   2   2   4   4   4   4   2
#     4  11  21  37  62  87 122 162 201 248 303 366
#     4  12  24  37  58  93 119 154 202 252 293 356
#     4  12  23  38  64  87 121 166 205 249 299 370
#     4  10  20  36  64  94 115 150 213 258 289 348
#     4  10  21  38  62  85 121 162 197 245 303 356
#     4  10  20  38  64  87 116 162 211 252 296 365
#     4  12  25  39  59  95 128 158 198 256 322 370
#     4  12  21  38  64  89 114 165 210 246 293 364
#
# _framework density 19.402405999999999
#
# number of rings (size 3 to 8) (size 9 to 14) (size 15 to 20)
#    0.000    1.077    6.154    2.308    0.000    4.308 
#    0.000    0.000    0.000    0.462    0.000    0.000 
#    0.000    0.000    0.000    0.000    0.000    0.000 
#
# Total GULP energy -144788.902543 kJ/mol
# GULP energy per Si atom -5568.803944 kJ/mol
# Density = 1.935825 g / cm^3
# Si number density = 19.402406 Si / 1000 Ang^3
#
#
#
# Elastic Constant Matrix: (Units=GPa)
#
#
# Indices 1 2 3 4 5 6 
#
# 1 88.9260 4.8990 47.7586 0.0000 25.2963 0.0000
# 2 4.8990 35.7653 17.1646 0.0000 -1.3688 0.0000
# 3 47.7586 17.1646 93.7409 0.0000 12.6810 0.0000
# 4 0.0000 0.0000 0.0000 10.6830 0.0000 -0.4014
# 5 25.2963 -1.3688 12.6810 0.0000 28.9747 0.0000
# 6 0.0000 0.0000 0.0000 -0.4014 0.0000 -4.3695
#
#
#
# Elastic Compliance Matrix: (Units=1/GPa)
#
#
# Indices 1 2 3 4 5 6 
#
# 1 0.019407 0.000783 -0.008231 0.000000 -0.013304 0.000000
# 2 0.000783 0.031162 -0.006602 0.000000 0.003678 0.000000
# 3 -0.008231 -0.006602 0.016093 0.000000 -0.000169 0.000000
# 4 0.000000 0.000000 0.000000 0.093285 0.000000 -0.008569
# 5 -0.013304 0.003678 -0.000169 0.000000 0.046376 0.000000
# 6 0.000000 0.000000 0.000000 -0.008569 0.000000 -0.228070
#
#
# Mechanical properties :
#
#
# Convention : Reuss Voigt Hill
#
# Bulk Modulus (GPa) = 25.93281 39.78628 32.85954
# Shear Modulus (GPa) = 260.29341 16.96495 138.62918
#
# Velocity S-wave (km/s) = 11.59511 2.96019 8.46195
# Velocity P-wave (km/s) = 13.88008 5.67750 10.60403
#
# Compressibility (1/GPa) = 0.03856119
#
# Stress axis : x y z
#
# Youngs Moduli (GPa) = 51.52680 32.09009 62.13849
#
# Poissons Ratio (x) = -0.02512 0.51147
# Poissons Ratio (y) = -0.04034 0.41026
# Poissons Ratio (z) = 0.42413 0.21187
#
# Static dielectric constant tensor:
#      x y z
#    x 1.632090 0.000000 -0.040780 
#    y 0.000000 1.734060 0.000000 
#    z -0.040780 0.000000 1.606640 
# 
# From -- ./inp_files/28435.got.cif
#   From: 2010.05.17/outbox.cif.g08.bks.cpg/sg10_15_cif.got.tgz:28435.got - 2010.06.03 11:33:40.
