data_PCOD9150801
_publ_section_title
;
Structure prediction by ZEFSAII (Michael W. Deem and Ramdas Pophale) SiO2 
 PCOD9150801
Probable space group: P 2/M
;
_chemical_formula_sum "Si O2"
_cell_formula_units_Z 28
_cell_length_a 20.219811
_cell_length_b 14.404637
_cell_length_c 6.474660
_cell_angle_alpha 90.000000
_cell_angle_beta 136.152314
_cell_angle_gamma 90.000000
_cell_volume 1306.378200
_symmetry_space_group_name_H-M "P 2/M"
_symmetry_group_IT_number 10
_symmetry_cell_setting 'monoclinic'
loop_
_space_group_symop_operation_xyz
x,y,z
-x,y,-z
-x,-y,-z
x,-y,z
loop_
_atom_site_type_symbol
_atom_site_label
_atom_site_fract_x
_atom_site_fract_y
_atom_site_fract_z
Si Si1 0.612513 0.397837 0.723648
Si Si2 0.149859 0.249625 0.355125
Si Si3 0.696323 0.203302 0.984159
Si Si4 0.239143 0.604309 0.251040
Si Si5 0.580607 0.104834 0.037198
Si Si6 0.226835 0.892314 0.254351
Si Si7 0.088011 0.607842 0.542692
O O1 0.500000 0.393211 0.500000
O O2 0.644694 0.500000 0.872711
O O3 0.660138 0.308439 0.927678
O O4 0.651115 0.392000 0.574845
O O5 0.211003 0.322802 0.358831
O O6 0.139442 0.166130 0.162949
O O7 0.083589 0.317579 0.346424
O O8 0.210414 0.197877 0.665549
O O9 0.731050 0.165076 0.844002
O O10 0.608373 0.146952 0.880876
O O11 0.216117 0.500000 0.268573
O O12 0.177950 0.620145 0.901732
O O13 0.680509 0.104552 0.386779
O O14 0.547887 0.000000 0.926112
O O15 0.500000 0.151306 0.000000
O O16 0.202343 0.000000 0.151048
O O17 0.088564 0.500000 0.470526
O O18 0.000000 0.619693 0.500000
#
# Coordination Sequence:
#
# PCOD9150801 Si02
#       7
#     4   4   4   4   4   4   4
#     4  10  21  35  52  76 111 154 196 233 269 321
#     4  11  20  36  58  85 112 152 189 235 286 345
#     4  11  21  34  57  76 108 153 193 238 291 336
#     4  10  20  37  57  83 118 152 191 234 279 334
#     4   9  20  34  50  78 108 139 189 247 298 346
#     4  10  21  36  53  79 109 144 191 239 290 345
#     4  10  21  37  60  91 122 150 183 228 286 348
#
# _framework density 21.433302999999999
#
# number of rings (size 3 to 8) (size 9 to 14) (size 15 to 20)
#    0.000    1.857    2.857    0.857    2.000    1.714 
#    0.000    4.286    0.000    3.429    0.000    4.000 
#    0.000    0.000    0.000    0.000    0.000    0.000 
#
# Total GULP energy -155878.600335 kJ/mol
# GULP energy per Si atom -5567.092869 kJ/mol
# Density = 2.138452 g / cm^3
# Si number density = 21.433303 Si / 1000 Ang^3
#
#
#
# Elastic Constant Matrix: (Units=GPa)
#
#
# Indices 1 2 3 4 5 6 
#
# 1 127.5577 52.5962 17.3299 0.0000 -11.1685 0.0000
# 2 52.5962 107.4464 13.7974 0.0000 -16.8496 0.0000
# 3 17.3299 13.7974 27.9063 0.0000 -9.8088 0.0000
# 4 0.0000 0.0000 0.0000 13.0001 0.0000 -8.2913
# 5 -11.1685 -16.8496 -9.8088 0.0000 23.3800 0.0000
# 6 0.0000 0.0000 0.0000 -8.2913 0.0000 35.9959
#
#
#
# Elastic Compliance Matrix: (Units=1/GPa)
#
#
# Indices 1 2 3 4 5 6 
#
# 1 0.010253 -0.004498 -0.004177 0.000000 -0.000096 0.000000
# 2 -0.004498 0.012680 -0.001195 0.000000 0.006488 0.000000
# 3 -0.004177 -0.001195 0.044591 0.000000 0.015850 0.000000
# 4 0.000000 0.000000 0.000000 0.090169 0.000000 0.020770
# 5 -0.000096 0.006488 0.015850 0.000000 0.054051 0.000000
# 6 0.000000 0.000000 0.000000 0.020770 0.000000 0.032565
#
#
# Mechanical properties :
#
#
# Convention : Reuss Voigt Hill
#
# Bulk Modulus (GPa) = 20.92817 47.81749 34.37283
# Shear Modulus (GPa) = 17.85858 26.42100 22.13979
#
# Velocity S-wave (km/s) = 2.88968 3.51480 3.21746
# Velocity P-wave (km/s) = 4.57375 6.23138 5.46577
#
# Compressibility (1/GPa) = 0.04778248
#
# Stress axis : x y z
#
# Youngs Moduli (GPa) = 97.52983 78.86684 22.42621
#
# Poissons Ratio (x) = 0.35472 0.09368
# Poissons Ratio (y) = 0.43866 0.02681
# Poissons Ratio (z) = 0.40742 0.09428
#
# Static dielectric constant tensor:
#      x y z
#    x 1.859610 0.000000 0.040790 
#    y 0.000000 1.847970 0.000000 
#    z 0.040790 0.000000 1.825650 
# 
# From -- ./inp_files/11374.got.cif
#   From: 2010.05.17/outbox.cif.g08.bks.cpg/sg10_6_cif.got.tgz:11374.got - 2010.06.03 11:33:40.
