data_PCOD9150448
_publ_section_title
;
Structure prediction by ZEFSAII (Michael W. Deem and Ramdas Pophale) SiO2 
 PCOD9150448
Probable space group: P 2/M
;
_chemical_formula_sum "Si O2"
_cell_formula_units_Z 28
_cell_length_a 27.574105
_cell_length_b 7.582095
_cell_length_c 9.149576
_cell_angle_alpha 90.000000
_cell_angle_beta 131.881410
_cell_angle_gamma 90.000000
_cell_volume 1424.205837
_symmetry_space_group_name_H-M "P 2/M"
_symmetry_group_IT_number 10
_symmetry_cell_setting 'monoclinic'
loop_
_space_group_symop_operation_xyz
x,y,z
-x,y,-z
-x,-y,-z
x,-y,z
loop_
_atom_site_type_symbol
_atom_site_label
_atom_site_fract_x
_atom_site_fract_y
_atom_site_fract_z
Si Si1 0.429564 0.500000 0.285224
Si Si2 0.059060 0.294316 0.520194
Si Si3 0.194885 0.784429 0.301713
Si Si4 0.327063 0.792909 0.726273
Si Si5 0.430831 0.500000 0.937100
Si Si6 0.675397 0.792675 0.929402
Si Si7 0.065895 0.794824 0.199503
Si Si8 0.809693 0.786760 0.044209
O O1 0.500000 0.500000 0.500000
O O2 0.438396 0.500000 0.127746
O O3 0.385359 0.670215 0.234739
O O4 0.044936 0.500000 0.466667
O O5 0.064193 0.212054 0.370554
O O6 0.126960 0.276535 0.741869
O O7 0.000000 0.221016 0.500000
O O8 0.262799 0.731953 0.511574
O O9 0.132733 0.720409 0.268632
O O10 0.195728 0.000000 0.306741
O O11 0.189100 0.729826 0.121852
O O12 0.338794 0.000000 0.719183
O O13 0.388073 0.671189 0.810993
O O14 0.315081 0.775904 0.876450
O O15 0.500000 0.500000 0.000000
O O16 0.663884 0.000000 0.874028
O O17 0.741867 0.735287 0.983839
O O18 0.066414 0.000000 0.154654
O O19 0.000000 0.715223 0.000000
O O20 0.811880 0.000000 0.051969
#
# Coordination Sequence:
#
# PCOD9150448 Si02
#       8
#     2   4   4   4   2   4   4   4
#     4  10  22  38  58  84 117 152 185 232 280 336
#     4  11  24  38  52  76 113 151 187 231 283 338
#     4   9  18  34  56  84 112 138 180 233 284 336
#     4   9  18  36  57  80 114 149 185 232 280 332
#     4  10  22  38  56  84 113 144 191 226 274 342
#     4   9  19  36  59  84 113 151 191 233 283 338
#     4  10  20  36  59  82 106 143 189 236 282 333
#     4  10  20  36  59  84 109 142 186 235 283 336
#
# _framework density 19.660080000000001
#
# number of rings (size 3 to 8) (size 9 to 14) (size 15 to 20)
#    0.000    2.286    0.000    2.143    1.000    6.571 
#    5.143    0.000    0.000    0.000    0.000    0.000 
#    0.000    0.000    0.000    0.000    0.000    0.000 
#
# Total GULP energy -156380.987273 kJ/mol
# GULP energy per Si atom -5585.035260 kJ/mol
# Density = 1.961533 g / cm^3
# Si number density = 19.660080 Si / 1000 Ang^3
#
#
#
# Elastic Constant Matrix: (Units=GPa)
#
#
# Indices 1 2 3 4 5 6 
#
# 1 168.8131 35.8253 74.0954 0.0000 32.9054 0.0000
# 2 35.8253 60.0234 31.3995 0.0000 12.2240 0.0000
# 3 74.0954 31.3995 161.6203 0.0000 29.3476 0.0000
# 4 0.0000 0.0000 0.0000 2.7992 0.0000 6.0379
# 5 32.9054 12.2240 29.3476 0.0000 29.5210 0.0000
# 6 0.0000 0.0000 0.0000 6.0379 0.0000 18.5986
#
#
#
# Elastic Compliance Matrix: (Units=1/GPa)
#
#
# Indices 1 2 3 4 5 6 
#
# 1 0.008758 -0.002717 -0.002342 0.000000 -0.006309 0.000000
# 2 -0.002717 0.020013 -0.002059 0.000000 -0.003211 0.000000
# 3 -0.002342 -0.002059 0.008581 0.000000 -0.005068 0.000000
# 4 0.000000 0.000000 0.000000 1.191930 0.000000 -0.386954
# 5 -0.006309 -0.003211 -0.005068 0.000000 0.047274 0.000000
# 6 0.000000 0.000000 0.000000 -0.386954 0.000000 0.179390
#
#
# Mechanical properties :
#
#
# Convention : Reuss Voigt Hill
#
# Bulk Modulus (GPa) = 43.26051 74.78858 59.02455
# Shear Modulus (GPa) = 3.38321 26.79286 15.08803
#
# Velocity S-wave (km/s) = 1.31323 3.69562 2.77329
# Velocity P-wave (km/s) = 4.93472 7.50557 6.35158
#
# Compressibility (1/GPa) = 0.02311577
#
# Stress axis : x y z
#
# Youngs Moduli (GPa) = 114.18261 49.96684 116.53382
#
# Poissons Ratio (x) = 0.13578 0.27287
# Poissons Ratio (y) = 0.31029 0.23998
# Poissons Ratio (z) = 0.26736 0.10290
#
# Static dielectric constant tensor:
#      x y z
#    x 1.661370 0.000000 -0.005950 
#    y 0.000000 1.732310 0.000000 
#    z -0.005950 0.000000 1.636660 
# 
# From -- ./inp_files/37370.got.cif
#   From: 2010.05.17/outbox.cif.g08.bks.cpg/sg10_19_cif.got.tgz:37370.got - 2010.06.03 11:33:40.
