data_PCOD9150560
_publ_section_title
;
Structure prediction by ZEFSAII (Michael W. Deem and Ramdas Pophale) SiO2 
 PCOD9150560
Probable space group: P 2/M
;
_chemical_formula_sum "Si O2"
_cell_formula_units_Z 22
_cell_length_a 16.169650
_cell_length_b 10.351110
_cell_length_c 13.517163
_cell_angle_alpha 90.000000
_cell_angle_beta 152.350722
_cell_angle_gamma 90.000000
_cell_volume 1049.893893
_symmetry_space_group_name_H-M "P 2/M"
_symmetry_group_IT_number 10
_symmetry_cell_setting 'monoclinic'
loop_
_space_group_symop_operation_xyz
x,y,z
-x,y,-z
-x,-y,-z
x,-y,z
loop_
_atom_site_type_symbol
_atom_site_label
_atom_site_fract_x
_atom_site_fract_y
_atom_site_fract_z
Si Si1 0.873396 0.861195 0.458388
Si Si2 0.488256 0.147922 0.604601
Si Si3 0.488120 0.644490 0.206498
Si Si4 0.500000 0.753045 0.000000
Si Si5 0.937221 0.140484 0.822191
Si Si6 0.080772 0.354627 0.340279
O O1 0.941755 0.738219 0.590513
O O2 0.000000 0.870832 0.500000
O O3 0.876187 0.000000 0.515221
O O4 0.671982 0.835271 0.211614
O O5 0.500000 0.186143 0.500000
O O6 0.566493 0.247091 0.769875
O O7 0.277599 0.140567 0.405908
O O8 0.558877 0.000000 0.687525
O O9 0.420057 0.500000 0.156489
O O10 0.704144 0.638415 0.443558
O O11 0.453385 0.677389 0.053304
O O12 0.998079 0.268396 0.830728
O O13 0.999713 0.000000 0.850976
O O14 0.000000 0.148923 0.000000
O O15 0.014176 0.500000 0.278426
#
# Coordination Sequence:
#
# PCOD9150560 Si02
#       6
#     4   4   4   2   4   4
#     4  10  21  37  57  82 110 142 182 225 269 321
#     4   9  18  33  51  74 105 138 175 222 271 319
#     4   9  18  33  55  79 105 142 181 220 269 326
#     4  10  20  36  60  84 112 144 184 226 276 326
#     4   9  17  31  52  74  99 136 177 217 266 318
#     4   9  18  33  53  76 105 140 176 219 269 320
#
# _framework density 20.954498999999998
#
# number of rings (size 3 to 8) (size 9 to 14) (size 15 to 20)
#    0.000    2.727    0.000    1.091    0.000    6.909 
#    3.273    0.000    0.000    0.000    0.000    0.000 
#    0.000    0.000    0.000    0.000    0.000    0.000 
#
# Total GULP energy -122556.918923 kJ/mol
# GULP energy per Si atom -5570.769042 kJ/mol
# Density = 2.090681 g / cm^3
# Si number density = 20.954499 Si / 1000 Ang^3
#
#
#
# Elastic Constant Matrix: (Units=GPa)
#
#
# Indices 1 2 3 4 5 6 
#
# 1 85.0915 82.9465 32.9711 0.0000 -31.0481 0.0000
# 2 82.9465 230.1905 44.3389 0.0000 -47.7536 0.0000
# 3 32.9711 44.3389 51.6331 0.0000 -24.6413 0.0000
# 4 0.0000 0.0000 0.0000 -51.3031 0.0000 31.8339
# 5 -31.0481 -47.7536 -24.6413 0.0000 46.6168 0.0000
# 6 0.0000 0.0000 0.0000 31.8339 0.0000 -9.1852
#
#
#
# Elastic Compliance Matrix: (Units=1/GPa)
#
#
# Indices 1 2 3 4 5 6 
#
# 1 0.021471 -0.005367 -0.006555 0.000000 0.005338 0.000000
# 2 -0.005367 0.007161 -0.001240 0.000000 0.003106 0.000000
# 3 -0.006555 -0.001240 0.029326 0.000000 0.009866 0.000000
# 4 0.000000 0.000000 0.000000 0.016942 0.000000 0.058716
# 5 0.005338 0.003106 0.009866 0.000000 0.033403 0.000000
# 6 0.000000 0.000000 0.000000 0.058716 0.000000 0.094626
#
#
# Mechanical properties :
#
#
# Convention : Reuss Voigt Hill
#
# Bulk Modulus (GPa) = 31.61036 76.38088 53.99562
# Shear Modulus (GPa) = 20.85083 11.00292 15.92688
#
# Velocity S-wave (km/s) = 3.15787 2.29396 2.75993
# Velocity P-wave (km/s) = 5.33049 6.59896 5.99835
#
# Compressibility (1/GPa) = 0.03163520
#
# Stress axis : x y z
#
# Youngs Moduli (GPa) = 46.57400 139.63764 34.09914
#
# Poissons Ratio (x) = 0.74944 0.22350
# Poissons Ratio (y) = 0.24996 0.04229
# Poissons Ratio (z) = 0.30527 0.17319
#
# Static dielectric constant tensor:
#      x y z
#    x 1.776960 0.000000 0.007280 
#    y 0.000000 1.782420 0.000000 
#    z 0.007280 0.000000 1.742870 
# 
# From -- ./inp_files/68782.got.cif
#   From: 2010.05.17/outbox.cif.g08.bks.cpg/sg10_35_cif.got.tgz:68782.got - 2010.06.03 11:33:40.
