data_PCOD9150610
_publ_section_title
;
Structure prediction by ZEFSAII (Michael W. Deem and Ramdas Pophale) SiO2 
 PCOD9150610
Probable space group: P 2/M
;
_chemical_formula_sum "Si O2"
_cell_formula_units_Z 26
_cell_length_a 21.429777
_cell_length_b 9.863883
_cell_length_c 7.672219
_cell_angle_alpha 90.000000
_cell_angle_beta 124.126470
_cell_angle_gamma 90.000000
_cell_volume 1342.494844
_symmetry_space_group_name_H-M "P 2/M"
_symmetry_group_IT_number 10
_symmetry_cell_setting 'monoclinic'
loop_
_space_group_symop_operation_xyz
x,y,z
-x,y,-z
-x,-y,-z
x,-y,z
loop_
_atom_site_type_symbol
_atom_site_label
_atom_site_fract_x
_atom_site_fract_y
_atom_site_fract_z
Si Si1 0.436248 0.352281 0.252694
Si Si2 0.338392 0.152307 0.646179
Si Si3 0.311793 0.841468 0.190665
Si Si4 0.169494 0.660367 0.867942
Si Si5 0.500000 0.744303 0.000000
Si Si6 0.920314 0.336099 0.945620
Si Si7 0.796532 0.339498 0.471427
O O1 0.500000 0.343149 0.500000
O O2 0.397944 0.500000 0.209454
O O3 0.378513 0.230440 0.189077
O O4 0.476537 0.341486 0.130865
O O5 0.331085 0.169265 0.426074
O O6 0.425165 0.172804 0.833473
O O7 0.281806 0.258908 0.645468
O O8 0.314318 0.000000 0.654189
O O9 0.303833 0.000000 0.134621
O O10 0.237417 0.755480 0.035335
O O11 0.187094 0.500000 0.923986
O O12 0.161961 0.678498 0.648979
O O13 0.099445 0.693474 0.884515
O O14 0.922658 0.500000 0.933553
O O15 0.851211 0.292533 0.713201
O O16 0.000000 0.283547 0.000000
O O17 0.781324 0.500000 0.469190
#
# Coordination Sequence:
#
# PCOD9150610 Si02
#       7
#     4   4   4   4   2   4   4
#     4  11  24  41  60  84 113 148 190 242 296 348
#     4  11  24  40  61  86 116 156 200 246 296 350
#     4  11  23  40  61  85 114 155 199 243 293 349
#     4  10  20  36  60  88 117 154 195 238 287 345
#     4  12  24  42  62  88 114 154 198 248 296 352
#     4   9  18  34  58  90 125 156 188 236 292 344
#     4  10  21  37  61  89 118 155 198 240 289 350
#
# _framework density 19.366927
#
# number of rings (size 3 to 8) (size 9 to 14) (size 15 to 20)
#    0.000    1.538    3.077    1.846    0.000    7.077 
#    0.000    3.077    0.000    1.846    0.000    2.154 
#    0.000    0.000    0.000    0.000    0.000    0.000 
#
# Total GULP energy -145191.612480 kJ/mol
# GULP energy per Si atom -5584.292788 kJ/mol
# Density = 1.932285 g / cm^3
# Si number density = 19.366927 Si / 1000 Ang^3
#
#
#
# Elastic Constant Matrix: (Units=GPa)
#
#
# Indices 1 2 3 4 5 6 
#
# 1 131.1767 41.9683 20.2781 0.0000 -6.4475 0.0000
# 2 41.9683 69.3430 10.5416 0.0000 -6.3553 0.0000
# 3 20.2781 10.5416 37.2852 0.0000 -10.7869 0.0000
# 4 0.0000 0.0000 0.0000 76.8562 0.0000 -57.5283
# 5 -6.4475 -6.3553 -10.7869 0.0000 31.7762 0.0000
# 6 0.0000 0.0000 0.0000 -57.5283 0.0000 29.4143
#
#
#
# Elastic Compliance Matrix: (Units=1/GPa)
#
#
# Indices 1 2 3 4 5 6 
#
# 1 0.009969 -0.005465 -0.004001 0.000000 -0.000428 0.000000
# 2 -0.005465 0.018151 -0.001586 0.000000 0.001983 0.000000
# 3 -0.004001 -0.001586 0.032289 0.000000 0.009832 0.000000
# 4 0.000000 0.000000 0.000000 -0.028045 0.000000 -0.054850
# 5 -0.000428 0.001983 0.009832 0.000000 0.035117 0.000000
# 6 0.000000 0.000000 0.000000 -0.054850 0.000000 -0.073278
#
#
# Mechanical properties :
#
#
# Convention : Reuss Voigt Hill
#
# Bulk Modulus (GPa) = 26.10528 42.59786 34.35157
# Shear Modulus (GPa) = 171.96320 38.61049 105.28684
#
# Velocity S-wave (km/s) = 9.43318 4.46985 7.38121
# Velocity P-wave (km/s) = 11.49588 6.97727 9.50888
#
# Compressibility (1/GPa) = 0.03830642
#
# Stress axis : x y z
#
# Youngs Moduli (GPa) = 100.31063 55.09257 30.97025
#
# Poissons Ratio (x) = 0.30106 0.12390
# Poissons Ratio (y) = 0.54816 0.04912
# Poissons Ratio (z) = 0.40131 0.08739
#
# Static dielectric constant tensor:
#      x y z
#    x 1.680340 0.000000 -0.024890 
#    y 0.000000 1.653200 0.000000 
#    z -0.024890 0.000000 1.678500 
# 
# From -- ./inp_files/34293.got.cif
#   From: 2010.05.17/outbox.cif.g08.bks.cpg/sg10_18_cif.got.tgz:34293.got - 2010.06.03 11:33:40.
