data_PCOD9150882
_publ_section_title
;
Structure prediction by ZEFSAII (Michael W. Deem and Ramdas Pophale) SiO2 
 PCOD9150882
Probable space group: P 2/M
;
_chemical_formula_sum "Si O2"
_cell_formula_units_Z 28
_cell_length_a 14.681696
_cell_length_b 10.772897
_cell_length_c 9.356680
_cell_angle_alpha 90.000000
_cell_angle_beta 73.530072
_cell_angle_gamma 90.000000
_cell_volume 1419.171661
_symmetry_space_group_name_H-M "P 2/M"
_symmetry_group_IT_number 10
_symmetry_cell_setting 'monoclinic'
loop_
_space_group_symop_operation_xyz
x,y,z
-x,y,-z
-x,-y,-z
x,-y,z
loop_
_atom_site_type_symbol
_atom_site_label
_atom_site_fract_x
_atom_site_fract_y
_atom_site_fract_z
Si Si1 0.657615 0.634389 0.113744
Si Si2 0.182025 0.642747 0.175989
Si Si3 0.515672 0.858769 0.161373
Si Si4 0.599743 0.853427 0.528250
Si Si5 0.220019 0.748347 0.714656
Si Si6 0.102086 0.352806 0.513054
Si Si7 0.105981 0.861325 0.014565
O O1 0.608942 0.500000 0.141532
O O2 0.590791 0.752320 0.163385
O O3 0.737631 0.641727 0.201370
O O4 0.713298 0.645852 0.939153
O O5 0.146070 0.500000 0.167701
O O6 0.173995 0.665133 0.348289
O O7 0.125673 0.749910 0.116409
O O8 0.420545 0.834707 0.294784
O O9 0.547461 0.000000 0.185710
O O10 0.500000 0.855721 0.000000
O O11 0.500000 0.813042 0.500000
O O12 0.691345 0.791929 0.419895
O O13 0.609274 0.000000 0.499307
O O14 0.138476 0.709351 0.640949
O O15 0.177841 0.844182 0.848951
O O16 0.094395 0.500000 0.543636
O O17 0.000000 0.308953 0.500000
O O18 0.118707 0.000000 0.070728
O O19 0.000000 0.851165 0.000000
#
# Coordination Sequence:
#
# PCOD9150882 Si02
#       7
#     4   4   4   4   4   4   4
#     4  10  21  37  57  86 121 155 197 245 295 356
#     4   9  20  37  57  82 113 151 196 242 294 358
#     4  10  22  39  60  84 115 154 201 245 290 355
#     4  10  20  37  59  86 117 153 201 248 291 352
#     4  11  21  36  62  87 121 162 202 245 308 361
#     4  10  21  38  60  87 119 156 203 257 309 365
#     4  10  21  37  58  86 118 153 197 247 301 361
#
# _framework density 19.72982
#
# number of rings (size 3 to 8) (size 9 to 14) (size 15 to 20)
#    0.000    2.000    1.429    1.714    2.000    3.429 
#    0.000    3.571    0.000    3.857    0.000    0.000 
#    0.000    0.000    0.000    0.000    0.000    0.000 
#
# Total GULP energy -156129.870264 kJ/mol
# GULP energy per Si atom -5576.066795 kJ/mol
# Density = 1.968491 g / cm^3
# Si number density = 19.729820 Si / 1000 Ang^3
#
#
#
# Elastic Constant Matrix: (Units=GPa)
#
#
# Indices 1 2 3 4 5 6 
#
# 1 42.3812 16.6611 0.8688 0.0000 -2.7648 0.0000
# 2 16.6611 103.6445 6.7849 0.0000 3.6507 0.0000
# 3 0.8688 6.7849 87.8054 0.0000 -2.1811 0.0000
# 4 0.0000 0.0000 0.0000 15.0544 0.0000 -1.5836
# 5 -2.7648 3.6507 -2.1811 0.0000 33.0503 0.0000
# 6 0.0000 0.0000 0.0000 -1.5836 0.0000 7.9922
#
#
#
# Elastic Compliance Matrix: (Units=1/GPa)
#
#
# Indices 1 2 3 4 5 6 
#
# 1 0.025407 -0.004185 0.000136 0.000000 0.002597 0.000000
# 2 -0.004185 0.010428 -0.000803 0.000000 -0.001555 0.000000
# 3 0.000136 -0.000803 0.011471 0.000000 0.000857 0.000000
# 4 0.000000 0.000000 0.000000 0.067840 0.000000 0.013442
# 5 0.002597 -0.001555 0.000857 0.000000 0.030702 0.000000
# 6 0.000000 0.000000 0.000000 0.013442 0.000000 0.127785
#
#
# Mechanical properties :
#
#
# Convention : Reuss Voigt Hill
#
# Bulk Modulus (GPa) = 26.59303 31.38452 28.98877
# Shear Modulus (GPa) = 16.89925 25.18714 21.04319
#
# Velocity S-wave (km/s) = 2.92983 3.57683 3.26938
# Velocity P-wave (km/s) = 4.99531 5.74456 5.38299
#
# Compressibility (1/GPa) = 0.03760385
#
# Stress axis : x y z
#
# Youngs Moduli (GPa) = 39.35915 95.89202 87.17772
#
# Poissons Ratio (x) = 0.40127 -0.01190
# Poissons Ratio (y) = 0.16470 0.07001
# Poissons Ratio (z) = -0.00537 0.07701
#
# Static dielectric constant tensor:
#      x y z
#    x 1.701260 0.000000 0.001090 
#    y 0.000000 1.697600 0.000000 
#    z 0.001090 0.000000 1.710340 
# 
# From -- ./inp_files/28224.got.cif
#   From: 2010.05.17/outbox.cif.g08.bks.cpg/sg10_15_cif.got.tgz:28224.got - 2010.06.03 11:33:40.
