data_PCOD9150356
_publ_section_title
;
Structure prediction by ZEFSAII (Michael W. Deem and Ramdas Pophale) SiO2 
 PCOD9150356
Probable space group: P 2/M
;
_chemical_formula_sum "Si O2"
_cell_formula_units_Z 32
_cell_length_a 13.970638
_cell_length_b 28.396368
_cell_length_c 8.130031
_cell_angle_alpha 90.000000
_cell_angle_beta 30.993797
_cell_angle_gamma 90.000000
_cell_volume 1660.857272
_symmetry_space_group_name_H-M "P 2/M"
_symmetry_group_IT_number 10
_symmetry_cell_setting 'monoclinic'
loop_
_space_group_symop_operation_xyz
x,y,z
-x,y,-z
-x,-y,-z
x,-y,z
loop_
_atom_site_type_symbol
_atom_site_label
_atom_site_fract_x
_atom_site_fract_y
_atom_site_fract_z
Si Si1 0.285956 0.800147 0.373127
Si Si2 0.966088 0.384992 0.243300
Si Si3 0.175314 0.296644 0.367704
Si Si4 0.558624 0.861770 0.593951
Si Si5 0.210408 0.946782 0.625039
Si Si6 0.648443 0.637287 0.142000
Si Si7 0.674669 0.447404 0.863157
Si Si8 0.179160 0.112501 0.346835
O O1 0.221452 0.749930 0.401747
O O2 0.317485 0.819506 0.510931
O O3 0.152827 0.838880 0.485998
O O4 0.500000 0.804461 0.000000
O O5 0.856840 0.337127 0.448706
O O6 0.850086 0.426052 0.504817
O O7 0.000000 0.392565 0.000000
O O8 0.158760 0.375251 0.052107
O O9 0.000000 0.289912 0.500000
O O10 0.328006 0.319295 0.019497
O O11 0.500000 0.848247 0.500000
O O12 0.679096 0.909198 0.428715
O O13 0.367837 0.876283 0.969170
O O14 0.214514 0.927226 0.432188
O O15 0.284037 0.000000 0.525404
O O16 0.000000 0.947081 0.000000
O O17 0.500000 0.647279 0.500000
O O18 0.612482 0.590133 0.091211
O O19 0.716421 0.500000 0.864704
O O20 0.500000 0.450389 0.000000
O O21 0.000000 0.102192 0.500000
#
# Coordination Sequence:
#
# PCOD9150356 Si02
#       8
#     4   4   4   4   4   4   4   4
#     4   9  19  35  56  81 109 144 185 232 280 331
#     4  10  21  37  56  82 114 147 187 231 280 336
#     4   9  19  37  58  81 111 144 184 231 282 337
#     4  10  21  38  58  83 115 150 189 231 280 333
#     4  10  21  37  58  85 114 147 189 233 280 335
#     4  10  21  37  59  84 113 150 187 231 283 336
#     4  10  21  37  58  83 112 149 190 234 283 334
#     4  10  20  36  58  81 112 149 185 231 283 333
#
# _framework density 19.267157000000001
#
# number of rings (size 3 to 8) (size 9 to 14) (size 15 to 20)
#    0.000    2.250    0.000    4.125    0.000    6.000 
#    0.000   11.250    0.000    4.500    0.000    0.000 
#    0.000    0.000    0.000    0.000    0.000    0.000 
#
# Total GULP energy -178298.964673 kJ/mol
# GULP energy per Si atom -5571.842646 kJ/mol
# Density = 1.922330 g / cm^3
# Si number density = 19.267157 Si / 1000 Ang^3
#
#
#
# Elastic Constant Matrix: (Units=GPa)
#
#
# Indices 1 2 3 4 5 6 
#
# 1 52.6324 43.2881 0.8264 0.0000 12.9314 0.0000
# 2 43.2881 137.0661 19.3365 0.0000 9.9357 0.0000
# 3 0.8264 19.3365 65.6209 0.0000 10.3864 0.0000
# 4 0.0000 0.0000 0.0000 7.8833 0.0000 -4.8800
# 5 12.9314 9.9357 10.3864 0.0000 29.0773 0.0000
# 6 0.0000 0.0000 0.0000 -4.8800 0.0000 5.6818
#
#
#
# Elastic Compliance Matrix: (Units=1/GPa)
#
#
# Indices 1 2 3 4 5 6 
#
# 1 0.029063 -0.008930 0.004058 0.000000 -0.011323 0.000000
# 2 -0.008930 0.010457 -0.003214 0.000000 0.001546 0.000000
# 3 0.004058 -0.003214 0.017220 0.000000 -0.006857 0.000000
# 4 0.000000 0.000000 0.000000 0.270858 0.000000 0.232634
# 5 -0.011323 0.001546 -0.006857 0.000000 0.041348 0.000000
# 6 0.000000 0.000000 0.000000 0.232634 0.000000 0.375804
#
#
# Mechanical properties :
#
#
# Convention : Reuss Voigt Hill
#
# Bulk Modulus (GPa) = 24.65013 42.46905 33.55959
# Shear Modulus (GPa) = 6.45623 21.31971 13.88797
#
# Velocity S-wave (km/s) = 1.83253 3.33007 2.68770
# Velocity P-wave (km/s) = 4.15923 6.07255 5.20457
#
# Compressibility (1/GPa) = 0.04056774
#
# Stress axis : x y z
#
# Youngs Moduli (GPa) = 34.40844 95.62629 58.07087
#
# Poissons Ratio (x) = 0.85396 -0.23563
# Poissons Ratio (y) = 0.30727 0.18662
# Poissons Ratio (z) = -0.13962 0.30732
#
# Static dielectric constant tensor:
#      x y z
#    x 3.397480 0.000000 0.547970 
#    y 0.000000 1.689780 0.000000 
#    z 0.547970 0.000000 1.861600 
# 
# From -- ./inp_files/30642.got.cif
#   From: 2010.05.17/outbox.cif.g08.bks.cpg/sg10_16_cif.got.tgz:30642.got - 2010.06.03 11:33:40.
