data_PCOD9150472
_publ_section_title
;
Structure prediction by ZEFSAII (Michael W. Deem and Ramdas Pophale) SiO2 
 PCOD9150472
Probable space group: P 2/M
;
_chemical_formula_sum "Si O2"
_cell_formula_units_Z 30
_cell_length_a 14.842719
_cell_length_b 7.657447
_cell_length_c 12.402827
_cell_angle_alpha 90.000000
_cell_angle_beta 114.381147
_cell_angle_gamma 90.000000
_cell_volume 1283.957035
_symmetry_space_group_name_H-M "P 2/M"
_symmetry_group_IT_number 10
_symmetry_cell_setting 'monoclinic'
loop_
_space_group_symop_operation_xyz
x,y,z
-x,y,-z
-x,-y,-z
x,-y,z
loop_
_atom_site_type_symbol
_atom_site_label
_atom_site_fract_x
_atom_site_fract_y
_atom_site_fract_z
Si Si1 0.500000 0.740529 0.500000
Si Si2 0.295758 0.794359 0.472366
Si Si3 0.882414 0.787361 0.772043
Si Si4 0.573984 0.301360 0.123209
Si Si5 0.766932 0.706787 0.321751
Si Si6 0.790098 0.786718 0.945890
Si Si7 0.907367 0.789342 0.211479
Si Si8 0.570865 0.199916 0.773961
O O1 0.396196 0.686497 0.505564
O O2 0.448009 0.804741 0.362906
O O3 0.212841 0.740727 0.345854
O O4 0.248364 0.781264 0.567199
O O5 0.323453 0.000000 0.470157
O O6 0.863267 0.732691 0.885424
O O7 0.983971 0.726200 0.768749
O O8 0.885742 0.000000 0.773997
O O9 0.592667 0.500000 0.094263
O O10 0.679521 0.219126 0.201665
O O11 0.513803 0.301635 0.204926
O O12 0.500000 0.218384 0.000000
O O13 0.751212 0.500000 0.323905
O O14 0.868735 0.737805 0.309827
O O15 0.679076 0.731813 0.860086
O O16 0.788928 0.000000 0.945485
O O17 0.830944 0.728075 0.081116
O O18 0.909037 0.000000 0.208932
O O19 0.563764 0.000000 0.808337
#
# Coordination Sequence:
#
# PCOD9150472 Si02
#       8
#     2   4   4   4   4   4   4   4
#     4  12  21  34  59  88 117 144 175 226 281 326
#     4  11  21  37  61  85 112 145 183 224 271 332
#     4   9  18  33  57  87 114 142 180 227 278 328
#     4  10  22  39  55  75 109 150 187 223 269 325
#     4  11  24  40  56  78 111 150 189 230 276 322
#     4   9  17  31  55  88 118 140 175 228 280 328
#     4  10  20  36  59  84 110 144 186 231 275 322
#     4  11  20  32  56  87 113 142 179 221 274 329
#
# _framework density 23.365268
#
# number of rings (size 3 to 8) (size 9 to 14) (size 15 to 20)
#    0.000    1.733    2.667    2.800    0.000    2.933 
#    0.000    4.667    0.000    3.200    0.000    0.000 
#    0.000    0.000    0.000    0.000    0.000    0.000 
#
# Total GULP energy -167408.338659 kJ/mol
# GULP energy per Si atom -5580.277955 kJ/mol
# Density = 2.331209 g / cm^3
# Si number density = 23.365268 Si / 1000 Ang^3
#
#
#
# Elastic Constant Matrix: (Units=GPa)
#
#
# Indices 1 2 3 4 5 6 
#
# 1 154.4556 5.5885 30.8558 0.0000 -18.8568 0.0000
# 2 5.5885 55.7561 7.0328 0.0000 4.3865 0.0000
# 3 30.8558 7.0328 94.7506 0.0000 -17.7953 0.0000
# 4 0.0000 0.0000 0.0000 -28.0703 0.0000 30.4501
# 5 -18.8568 4.3865 -17.7953 0.0000 39.0979 0.0000
# 6 0.0000 0.0000 0.0000 30.4501 0.0000 -53.5162
#
#
#
# Elastic Compliance Matrix: (Units=1/GPa)
#
#
# Indices 1 2 3 4 5 6 
#
# 1 0.007189 -0.000712 -0.001774 0.000000 0.002740 0.000000
# 2 -0.000712 0.018479 -0.001742 0.000000 -0.003210 0.000000
# 3 -0.001774 -0.001742 0.012178 0.000000 0.004883 0.000000
# 4 0.000000 0.000000 0.000000 -0.093071 0.000000 -0.052956
# 5 0.002740 -0.003210 0.004883 0.000000 0.029481 0.000000
# 6 0.000000 0.000000 0.000000 -0.052956 0.000000 -0.048817
#
#
# Mechanical properties :
#
#
# Convention : Reuss Voigt Hill
#
# Bulk Modulus (GPa) = 34.02636 43.54626 38.78631
# Shear Modulus (GPa) = -88.79741 8.93463 -39.93139
#
# Velocity S-wave (km/s) = -6.17143 1.95760 -4.13850
# Velocity P-wave (km/s) = 6.01561 4.87722 2.49002
#
# Compressibility (1/GPa) = 0.02938898
#
# Stress axis : x y z
#
# Youngs Moduli (GPa) = 139.10243 54.11556 82.11525
#
# Poissons Ratio (x) = 0.03855 0.14564
# Poissons Ratio (y) = 0.09909 0.14308
# Poissons Ratio (z) = 0.24672 0.09429
#
# Static dielectric constant tensor:
#      x y z
#    x 1.859020 0.000000 0.006180 
#    y 0.000000 1.918650 0.000000 
#    z 0.006180 0.000000 1.854870 
# 
# From -- ./inp_files/50014.got.cif
#   From: 2010.05.17/outbox.cif.g08.bks.cpg/sg10_26_cif.got.tgz:50014.got - 2010.06.03 11:33:40.
