data_PCOD9150003
_publ_section_title
;
Structure prediction by ZEFSAII (Michael W. Deem and Ramdas Pophale) SiO2 
 PCOD9150003
Probable space group: P 2/M
;
_chemical_formula_sum "Si O2"
_cell_formula_units_Z 18
_cell_length_a 10.207551
_cell_length_b 11.724541
_cell_length_c 12.522330
_cell_angle_alpha 90.000000
_cell_angle_beta 145.887286
_cell_angle_gamma 90.000000
_cell_volume 840.481500
_symmetry_space_group_name_H-M "P 2/M"
_symmetry_group_IT_number 10
_symmetry_cell_setting 'monoclinic'
loop_
_space_group_symop_operation_xyz
x,y,z
-x,y,-z
-x,-y,-z
x,-y,z
loop_
_atom_site_type_symbol
_atom_site_label
_atom_site_fract_x
_atom_site_fract_y
_atom_site_fract_z
Si Si1 0.513502 0.630446 0.821446
Si Si2 0.086673 0.878683 0.179088
Si Si3 0.000000 0.270258 0.500000
Si Si4 0.260882 0.179443 0.879397
Si Si5 0.278224 0.373442 0.275769
O O1 0.529790 0.500000 0.864226
O O2 0.237839 0.662789 0.628459
O O3 0.639051 0.643603 0.791002
O O4 0.644009 0.706360 0.997324
O O5 0.176613 0.747684 0.247313
O O6 0.878514 0.882330 0.122773
O O7 0.223345 0.000000 0.287991
O O8 0.000000 0.883154 0.000000
O O9 0.911008 0.201312 0.336224
O O10 0.500000 0.124319 0.000000
O O11 0.500000 0.386229 0.500000
O O12 0.155011 0.500000 0.200476
#
# Coordination Sequence:
#
# PCOD9150003 Si02
#       5
#     4   4   2   4   4
#     4  10  20  35  57  89 126 168 211 259 319 379
#     4  11  23  41  66  94 125 166 215 265 319 379
#     4  10  21  36  59  86 128 168 212 260 316 384
#     4  10  22  40  61  88 125 167 210 264 320 380
#     4  10  21  38  63  94 130 167 209 263 322 382
#
# _framework density 21.416297
#
# number of rings (size 3 to 8) (size 9 to 14) (size 15 to 20)
#    0.000    1.778    2.222    1.667    0.000    7.111 
#    0.000    0.556    0.000    0.000    0.000    0.000 
#    0.000    0.000    0.000    0.000    0.000    0.000 
#
# Total GULP energy -100217.918787 kJ/mol
# GULP energy per Si atom -5567.662155 kJ/mol
# Density = 2.136755 g / cm^3
# Si number density = 21.416297 Si / 1000 Ang^3
#
#
#
# Elastic Constant Matrix: (Units=GPa)
#
#
# Indices 1 2 3 4 5 6 
#
# 1 127.8168 62.8473 33.6177 0.0000 -9.0339 0.0000
# 2 62.8473 202.4614 54.0852 0.0000 14.7435 0.0000
# 3 33.6177 54.0852 125.1471 0.0000 -16.1823 0.0000
# 4 0.0000 0.0000 0.0000 43.2335 0.0000 3.3355
# 5 -9.0339 14.7435 -16.1823 0.0000 35.2448 0.0000
# 6 0.0000 0.0000 0.0000 3.3355 0.0000 87.2626
#
#
#
# Elastic Compliance Matrix: (Units=1/GPa)
#
#
# Indices 1 2 3 4 5 6 
#
# 1 0.009794 -0.003054 -0.000873 0.000000 0.003387 0.000000
# 2 -0.003054 0.007019 -0.002864 0.000000 -0.005034 0.000000
# 3 -0.000873 -0.002864 0.010194 0.000000 0.005655 0.000000
# 4 0.000000 0.000000 0.000000 0.023199 0.000000 -0.000887
# 5 0.003387 -0.005034 0.005655 0.000000 0.033943 0.000000
# 6 0.000000 0.000000 0.000000 -0.000887 0.000000 0.011494
#
#
# Mechanical properties :
#
#
# Convention : Reuss Voigt Hill
#
# Bulk Modulus (GPa) = 74.48625 84.05840 79.27233
# Shear Modulus (GPa) = 43.97567 53.47318 48.72442
#
# Velocity S-wave (km/s) = 4.53633 5.00227 4.77499
# Velocity P-wave (km/s) = 7.89262 8.52634 8.21559
#
# Compressibility (1/GPa) = 0.01342530
#
# Stress axis : x y z
#
# Youngs Moduli (GPa) = 102.10081 142.47597 98.09595
#
# Poissons Ratio (x) = 0.43507 0.08567
# Poissons Ratio (y) = 0.31178 0.28094
# Poissons Ratio (z) = 0.08917 0.40804
#
# Static dielectric constant tensor:
#      x y z
#    x 1.785100 0.000000 0.047830 
#    y 0.000000 1.883520 0.000000 
#    z 0.047830 0.000000 1.749640 
# 
# From -- ./inp_files/64710.got.cif
#   From: 2010.05.17/outbox.cif.g08.bks.cpg/sg10_33_cif.got.tgz:64710.got - 2010.06.03 11:33:40.
