data_PCOD9150256
_publ_section_title
;
Structure prediction by ZEFSAII (Michael W. Deem and Ramdas Pophale) SiO2 
 PCOD9150256
Probable space group: P 2/M
;
_chemical_formula_sum "Si O2"
_cell_formula_units_Z 20
_cell_length_a 5.247069
_cell_length_b 22.693501
_cell_length_c 7.637131
_cell_angle_alpha 90.000000
_cell_angle_beta 73.902933
_cell_angle_gamma 90.000000
_cell_volume 873.732528
_symmetry_space_group_name_H-M "P 2/M"
_symmetry_group_IT_number 10
_symmetry_cell_setting 'monoclinic'
loop_
_space_group_symop_operation_xyz
x,y,z
-x,y,-z
-x,-y,-z
x,-y,z
loop_
_atom_site_type_symbol
_atom_site_label
_atom_site_fract_x
_atom_site_fract_y
_atom_site_fract_z
Si Si1 0.386632 0.169751 0.720482
Si Si2 0.500000 0.000000 0.000000
Si Si3 0.591870 0.305289 0.276988
Si Si4 0.000000 0.000000 0.500000
Si Si5 0.088877 0.628166 0.281731
Si Si6 0.160032 0.097636 0.185556
Si Si7 0.201000 0.500000 0.122887
O O1 0.500000 0.165814 0.500000
O O2 0.337746 0.237862 0.775073
O O3 0.619730 0.144519 0.797016
O O4 0.115168 0.132451 0.784879
O O5 0.276033 0.947368 0.018981
O O6 0.500000 0.305681 0.500000
O O7 0.346829 0.330905 0.214748
O O8 0.844320 0.347743 0.215500
O O9 0.133715 0.948759 0.351187
O O10 0.152505 0.560344 0.235362
O O11 0.000000 0.633670 0.500000
O O12 0.500000 0.500000 0.000000
O O13 0.000000 0.500000 0.000000
#
# Coordination Sequence:
#
# PCOD9150256 Si02
#       7
#     4   1   4   1   4   4   2
#     4  11  20  37  64  96 116 150 200 260 307 359
#     4  10  28  44  56  84 120 168 200 246 308 372
#     4   9  19  34  62  94 124 151 199 257 309 352
#     4  10  20  36  56  92 104 160 188 254 304 360
#     4  10  20  39  64  93 124 164 205 251 301 365
#     4  11  23  38  62  83 124 153 201 251 304 365
#     4  12  25  40  63  92 132 168 208 254 301 356
#
# _framework density 22.890298999999999
#
# number of rings (size 3 to 8) (size 9 to 14) (size 15 to 20)
#    0.000    1.600    2.000    2.700    0.000    8.800 
#    0.000    4.000   22.000    0.000    0.000    0.000 
#    0.000    0.000    0.000    0.000    0.000    0.000 
#
# Total GULP energy -111339.685829 kJ/mol
# GULP energy per Si atom -5566.984291 kJ/mol
# Density = 2.283820 g / cm^3
# Si number density = 22.890299 Si / 1000 Ang^3
#
#
#
# Elastic Constant Matrix: (Units=GPa)
#
#
# Indices 1 2 3 4 5 6 
#
# 1 192.7019 82.3988 13.3073 0.0000 -32.7861 0.0000
# 2 82.3988 201.4479 19.3943 0.0000 -32.4384 0.0000
# 3 13.3073 19.3943 44.0981 0.0000 -14.9231 0.0000
# 4 0.0000 0.0000 0.0000 58.4039 0.0000 -49.8950
# 5 -32.7861 -32.4384 -14.9231 0.0000 21.9021 0.0000
# 6 0.0000 0.0000 0.0000 -49.8950 0.0000 50.8519
#
#
#
# Elastic Compliance Matrix: (Units=1/GPa)
#
#
# Indices 1 2 3 4 5 6 
#
# 1 0.007459 -0.001613 0.001857 0.000000 0.010043 0.000000
# 2 -0.001613 0.006877 0.000119 0.000000 0.007852 0.000000
# 3 0.001857 0.000119 0.029976 0.000000 0.023381 0.000000
# 4 0.000000 0.000000 0.000000 0.105846 0.000000 0.103854
# 5 0.010043 0.007852 0.023381 0.000000 0.088251 0.000000
# 6 0.000000 0.000000 0.000000 0.103854 0.000000 0.121565
#
#
# Mechanical properties :
#
#
# Convention : Reuss Voigt Hill
#
# Bulk Modulus (GPa) = 22.20288 74.27207 48.23748
# Shear Modulus (GPa) = 13.35973 47.77474 30.56724
#
# Velocity S-wave (km/s) = 2.41849 4.57345 3.65825
# Velocity P-wave (km/s) = 4.18563 7.77213 6.24202
#
# Compressibility (1/GPa) = 0.04503921
#
# Stress axis : x y z
#
# Youngs Moduli (GPa) = 134.05863 145.42111 33.35995
#
# Poissons Ratio (x) = 0.23453 -0.06194
# Poissons Ratio (y) = 0.21620 -0.00399
# Poissons Ratio (z) = -0.24893 -0.01737
#
# Static dielectric constant tensor:
#      x y z
#    x 1.850510 0.000000 -0.022350 
#    y 0.000000 1.786620 0.000000 
#    z -0.022350 0.000000 1.825680 
# 
# From -- ./inp_files/7468.got.cif
#   From: 2010.05.17/outbox.cif.g08.bks.cpg/sg10_4_cif.got.tgz:7468.got - 2010.06.03 11:33:40.
