data_PCOD9150892
_publ_section_title
;
Structure prediction by ZEFSAII (Michael W. Deem and Ramdas Pophale) SiO2 
 PCOD9150892
Probable space group: P 2/M
;
_chemical_formula_sum "Si O2"
_cell_formula_units_Z 32
_cell_length_a 12.539207
_cell_length_b 15.162425
_cell_length_c 18.502521
_cell_angle_alpha 90.000000
_cell_angle_beta 152.208904
_cell_angle_gamma 90.000000
_cell_volume 1640.165651
_symmetry_space_group_name_H-M "P 2/M"
_symmetry_group_IT_number 10
_symmetry_cell_setting 'monoclinic'
loop_
_space_group_symop_operation_xyz
x,y,z
-x,y,-z
-x,-y,-z
x,-y,z
loop_
_atom_site_type_symbol
_atom_site_label
_atom_site_fract_x
_atom_site_fract_y
_atom_site_fract_z
Si Si1 0.862368 0.841764 0.479728
Si Si2 0.852219 0.273866 0.092579
Si Si3 0.354492 0.599128 0.580713
Si Si4 0.095205 0.292873 0.711592
Si Si5 0.433772 0.896482 0.569036
Si Si6 0.373601 0.324422 0.742061
Si Si7 0.712495 0.604562 0.682564
Si Si8 0.127127 0.893164 0.248118
O O1 0.665640 0.881807 0.411448
O O2 0.748961 0.759889 0.368836
O O3 0.000000 0.893261 0.500000
O O4 0.043830 0.802776 0.646203
O O5 0.073154 0.333728 0.206110
O O6 0.912578 0.171300 0.114808
O O7 0.801052 0.286797 0.147166
O O8 0.633214 0.303175 0.916470
O O9 0.306549 0.500000 0.527103
O O10 0.358411 0.604478 0.669511
O O11 0.596654 0.624718 0.690792
O O12 0.152570 0.661242 0.431692
O O13 0.240570 0.342754 0.737015
O O14 0.257904 0.866271 0.401156
O O15 0.689643 0.866414 0.704082
O O16 0.445905 0.000000 0.562942
O O17 0.500000 0.618794 0.500000
O O18 0.773905 0.500000 0.716255
O O19 0.084522 0.000000 0.221746
#
# Coordination Sequence:
#
# PCOD9150892 Si02
#       8
#     4   4   4   4   4   4   4   4
#     4   9  18  35  54  77 111 147 186 231 277 346
#     4  12  22  36  64  84 117 161 189 242 305 334
#     4  10  21  40  62  84 117 154 191 241 294 350
#     4  10  20  37  60  81 110 150 201 239 276 340
#     4   9  17  32  55  83 107 134 189 249 284 331
#     4  10  24  37  52  88 117 148 195 236 285 354
#     4  10  22  38  59  90 116 145 200 243 279 350
#     4   9  20  34  56  88 114 144 195 247 290 347
#
# _framework density 19.510224000000001
#
# number of rings (size 3 to 8) (size 9 to 14) (size 15 to 20)
#    0.000    2.125    2.500    2.250    5.250    2.250 
#    0.000    1.875    0.000    6.000    0.000    0.000 
#    0.000    0.000    0.000    0.000    0.000    0.000 
#
# Total GULP energy -178341.511332 kJ/mol
# GULP energy per Si atom -5573.172229 kJ/mol
# Density = 1.946582 g / cm^3
# Si number density = 19.510224 Si / 1000 Ang^3
#
#
#
# Elastic Constant Matrix: (Units=GPa)
#
#
# Indices 1 2 3 4 5 6 
#
# 1 124.7756 12.9581 0.1253 0.0000 10.8459 0.0000
# 2 12.9581 44.8171 10.6875 0.0000 5.4933 0.0000
# 3 0.1253 10.6875 54.0339 0.0000 4.0299 0.0000
# 4 0.0000 0.0000 0.0000 -1.0902 0.0000 -2.8088
# 5 10.8459 5.4933 4.0299 0.0000 16.7982 0.0000
# 6 0.0000 0.0000 0.0000 -2.8088 0.0000 17.7805
#
#
#
# Elastic Compliance Matrix: (Units=1/GPa)
#
#
# Indices 1 2 3 4 5 6 
#
# 1 0.008672 -0.002065 0.000769 0.000000 -0.005109 0.000000
# 2 -0.002065 0.024666 -0.004451 0.000000 -0.005665 0.000000
# 3 0.000769 -0.004451 0.019666 0.000000 -0.003759 0.000000
# 4 0.000000 0.000000 0.000000 -0.651904 0.000000 -0.102983
# 5 -0.005109 -0.005665 -0.003759 0.000000 0.065583 0.000000
# 6 0.000000 0.000000 0.000000 -0.102983 0.000000 0.039973
#
#
# Mechanical properties :
#
#
# Convention : Reuss Voigt Hill
#
# Bulk Modulus (GPa) = 24.09048 30.12981 27.11015
# Shear Modulus (GPa) = -10.68345 20.02141 4.66898
#
# Velocity S-wave (km/s) = -2.34259 3.20691 1.54864
# Velocity P-wave (km/s) = 2.24888 5.40268 4.13802
#
# Compressibility (1/GPa) = 0.04151017
#
# Stress axis : x y z
#
# Youngs Moduli (GPa) = 115.31254 40.54201 50.84947
#
# Poissons Ratio (x) = 0.08371 -0.03912
# Poissons Ratio (y) = 0.23808 0.22635
# Poissons Ratio (z) = -0.08871 0.18047
#
# Static dielectric constant tensor:
#      x y z
#    x 1.773170 0.000000 0.005400 
#    y 0.000000 1.689040 0.000000 
#    z 0.005400 0.000000 1.648560 
# 
# From -- ./inp_files/77138.got.cif
#   From: 2010.05.17/outbox.cif.g08.bks.cpg/sg10_39_cif.got.tgz:77138.got - 2010.06.03 11:33:40.
