data_PCOD9150530
_publ_section_title
;
Structure prediction by ZEFSAII (Michael W. Deem and Ramdas Pophale) SiO2 
 PCOD9150530
Probable space group: P 2/M
;
_chemical_formula_sum "Si O2"
_cell_formula_units_Z 28
_cell_length_a 14.497482
_cell_length_b 8.483643
_cell_length_c 19.768110
_cell_angle_alpha 90.000000
_cell_angle_beta 27.940781
_cell_angle_gamma 90.000000
_cell_volume 1139.210930
_symmetry_space_group_name_H-M "P 2/M"
_symmetry_group_IT_number 10
_symmetry_cell_setting 'monoclinic'
loop_
_space_group_symop_operation_xyz
x,y,z
-x,y,-z
-x,-y,-z
x,-y,z
loop_
_atom_site_type_symbol
_atom_site_label
_atom_site_fract_x
_atom_site_fract_y
_atom_site_fract_z
Si Si1 0.858168 0.316978 0.268215
Si Si2 0.949988 0.820124 0.637881
Si Si3 0.676369 0.000000 0.330176
Si Si4 0.298651 0.324267 0.481246
Si Si5 0.220200 0.180559 0.102447
Si Si6 0.220560 0.000000 0.882869
Si Si7 0.649672 0.330489 0.164577
Si Si8 0.401973 0.672901 0.190862
O O1 0.823924 0.500000 0.268244
O O2 0.794247 0.165358 0.265818
O O3 0.738541 0.291466 0.416205
O O4 0.086416 0.294574 0.142873
O O5 0.840207 0.791963 0.781024
O O6 0.824716 0.718788 0.666857
O O7 0.173720 0.786232 0.513009
O O8 0.928683 0.000000 0.631300
O O9 0.500000 0.000000 0.500000
O O10 0.634277 0.000000 0.276852
O O11 0.215836 0.500000 0.523025
O O12 0.524857 0.328107 0.314574
O O13 0.166668 0.000000 0.121233
O O14 0.449867 0.208747 0.942374
O O15 0.246874 0.162592 0.905951
O O16 0.000000 0.000000 0.000000
O O17 0.759151 0.500000 0.090816
O O18 0.486788 0.332848 0.211323
O O19 0.429093 0.500000 0.142545
#
# Coordination Sequence:
#
# PCOD9150530 Si02
#       8
#     4   4   2   4   4   2   4   4
#     4  10  21  38  66  96 123 162 206 260 322 382
#     4  10  21  34  56  94 129 169 213 263 310 357
#     4  12  26  44  70 101 126 159 210 272 332 396
#     4   9  19  39  64  91 131 171 208 258 311 369
#     4  10  20  36  59  87 128 167 210 261 310 367
#     4  12  30  48  72  98 128 171 204 271 346 398
#     4  10  25  46  67  92 125 170 214 258 317 388
#     4  11  23  37  58  87 126 173 218 261 302 370
#
# _framework density 24.578415
#
# number of rings (size 3 to 8) (size 9 to 14) (size 15 to 20)
#    0.000    1.714    0.714    2.571    6.000    5.143 
#    0.000    2.857    0.000    0.000    0.000    0.000 
#    0.000    0.000    0.000    0.000    0.000    0.000 
#
# Total GULP energy -156537.170284 kJ/mol
# GULP energy per Si atom -5590.613224 kJ/mol
# Density = 2.452247 g / cm^3
# Si number density = 24.578415 Si / 1000 Ang^3
#
#
#
# Elastic Constant Matrix: (Units=GPa)
#
#
# Indices 1 2 3 4 5 6 
#
# 1 54.9425 63.2887 -7.3240 0.0000 -5.2818 0.0000
# 2 63.2887 180.0234 4.5196 0.0000 -17.3640 0.0000
# 3 -7.3240 4.5196 67.7554 0.0000 13.9788 0.0000
# 4 0.0000 0.0000 0.0000 -3.7527 0.0000 0.1395
# 5 -5.2818 -17.3640 13.9788 0.0000 22.3969 0.0000
# 6 0.0000 0.0000 0.0000 0.1395 0.0000 35.6055
#
#
#
# Elastic Compliance Matrix: (Units=1/GPa)
#
#
# Indices 1 2 3 4 5 6 
#
# 1 0.032156 -0.011916 0.005294 0.000000 -0.004959 0.000000
# 2 -0.011916 0.010567 -0.003562 0.000000 0.007606 0.000000
# 3 0.005294 -0.003562 0.018228 0.000000 -0.012890 0.000000
# 4 0.000000 0.000000 0.000000 -0.266436 0.000000 0.001044
# 5 -0.004959 0.007606 -0.012890 0.000000 0.057421 0.000000
# 6 0.000000 0.000000 0.000000 0.001044 0.000000 0.028081
#
#
# Mechanical properties :
#
#
# Convention : Reuss Voigt Hill
#
# Bulk Modulus (GPa) = 24.64095 47.07666 35.85880
# Shear Modulus (GPa) = -58.08109 26.99906 -15.54101
#
# Velocity S-wave (km/s) = -4.86644 3.31794 -2.51729
# Velocity P-wave (km/s) = 4.63995 5.82010 2.48439
#
# Compressibility (1/GPa) = 0.04058285
#
# Stress axis : x y z
#
# Youngs Moduli (GPa) = 31.09864 94.63472 54.85998
#
# Poissons Ratio (x) = 1.12765 -0.29042
# Poissons Ratio (y) = 0.37057 0.19541
# Poissons Ratio (z) = -0.16463 0.33709
#
# Static dielectric constant tensor:
#      x y z
#    x 1.937650 0.000000 0.034640 
#    y 0.000000 1.976350 0.000000 
#    z 0.034640 0.000000 1.963390 
# 
# From -- ./inp_files/84928.got.cif
#   From: 2010.05.17/outbox.cif.g08.bks.cpg/sg10_43_cif.got.tgz:84928.got - 2010.06.03 11:33:40.
