data_PCOD9150942
_publ_section_title
;
Structure prediction by ZEFSAII (Michael W. Deem and Ramdas Pophale) SiO2 
 PCOD9150942
Probable space group: P 2/M
;
_chemical_formula_sum "Si O2"
_cell_formula_units_Z 32
_cell_length_a 12.157117
_cell_length_b 8.966442
_cell_length_c 29.245554
_cell_angle_alpha 90.000000
_cell_angle_beta 30.247004
_cell_angle_gamma 90.000000
_cell_volume 1605.858888
_symmetry_space_group_name_H-M "P 2/M"
_symmetry_group_IT_number 10
_symmetry_cell_setting 'monoclinic'
loop_
_space_group_symop_operation_xyz
x,y,z
-x,y,-z
-x,-y,-z
x,-y,z
loop_
_atom_site_type_symbol
_atom_site_label
_atom_site_fract_x
_atom_site_fract_y
_atom_site_fract_z
Si Si1 0.752173 0.822716 0.532880
Si Si2 0.607102 0.180718 0.414271
Si Si3 0.072433 0.179050 0.208161
Si Si4 0.373973 0.676763 0.169058
Si Si5 0.446091 0.324300 0.311143
Si Si6 0.204070 0.823298 0.318145
Si Si7 0.838988 0.175247 0.016971
Si Si8 0.895763 0.174043 0.172410
O O1 0.553557 0.785593 0.570038
O O2 0.722379 0.730949 0.589680
O O3 0.975657 0.795026 0.425713
O O4 0.743102 0.000000 0.547008
O O5 0.500000 0.235661 0.500000
O O6 0.852258 0.228732 0.314150
O O7 0.615779 0.000000 0.414332
O O8 0.280550 0.256905 0.155540
O O9 0.029703 0.210221 0.170127
O O10 0.094198 0.000000 0.205609
O O11 0.369303 0.500000 0.170006
O O12 0.220451 0.740858 0.264303
O O13 0.615366 0.735118 0.093936
O O14 0.431537 0.500000 0.309129
O O15 0.391517 0.237439 0.284237
O O16 0.683351 0.275224 0.243506
O O17 0.225670 0.000000 0.303347
O O18 0.787883 0.000000 0.043492
O O19 0.000000 0.224343 0.000000
O O20 0.962729 0.186996 0.924191
O O21 0.824368 0.000000 0.202730
#
# Coordination Sequence:
#
# PCOD9150942 Si02
#       8
#     4   4   4   4   4   4   4   4
#     4  10  20  37  60  87 118 160 216 264 306 361
#     4   9  16  30  56  86 115 153 207 264 305 344
#     4  10  20  38  63  88 121 162 211 262 302 358
#     4  12  26  42  62  91 130 164 197 249 317 385
#     4  12  24  37  58  90 132 168 200 252 318 382
#     4  11  23  40  64  88 118 163 216 265 306 362
#     4  10  22  42  69  97 122 155 205 260 310 367
#     4  10  21  40  67  93 120 162 215 265 306 359
#
# _framework density 19.927029999999998
#
# number of rings (size 3 to 8) (size 9 to 14) (size 15 to 20)
#    0.000    1.500    1.250    4.500    0.000    7.250 
#    0.000    2.500    0.000    1.500    0.000    0.000 
#    0.000    0.000    0.000    0.000    0.000    0.000 
#
# Total GULP energy -178944.599515 kJ/mol
# GULP energy per Si atom -5592.018735 kJ/mol
# Density = 1.988168 g / cm^3
# Si number density = 19.927030 Si / 1000 Ang^3
#
#
#
# Elastic Constant Matrix: (Units=GPa)
#
#
# Indices 1 2 3 4 5 6 
#
# 1 128.4239 40.3765 37.0116 0.0000 -10.8774 0.0000
# 2 40.3765 65.4680 37.3409 0.0000 -12.0078 0.0000
# 3 37.0116 37.3409 59.2562 0.0000 -4.6002 0.0000
# 4 0.0000 0.0000 0.0000 3.7197 0.0000 3.6248
# 5 -10.8774 -12.0078 -4.6002 0.0000 32.7435 0.0000
# 6 0.0000 0.0000 0.0000 3.6248 0.0000 -10.5435
#
#
#
# Elastic Compliance Matrix: (Units=1/GPa)
#
#
# Indices 1 2 3 4 5 6 
#
# 1 0.010229 -0.003845 -0.003854 0.000000 0.001446 0.000000
# 2 -0.003845 0.026842 -0.014001 0.000000 0.006599 0.000000
# 3 -0.003854 -0.014001 0.027912 0.000000 -0.002493 0.000000
# 4 0.000000 0.000000 0.000000 0.201375 0.000000 0.069231
# 5 0.001446 0.006599 -0.002493 0.000000 0.033091 0.000000
# 6 0.000000 0.000000 0.000000 0.069231 0.000000 -0.071044
#
#
# Mechanical properties :
#
#
# Convention : Reuss Voigt Hill
#
# Bulk Modulus (GPa) = 46.33101 53.62291 49.97696
# Shear Modulus (GPa) = 17.92124 14.41187 16.16655
#
# Velocity S-wave (km/s) = 3.00216 2.69221 2.85140
# Velocity P-wave (km/s) = 5.94290 6.05244 5.99792
#
# Compressibility (1/GPa) = 0.02158382
#
# Stress axis : x y z
#
# Youngs Moduli (GPa) = 97.76367 37.25481 35.82686
#
# Poissons Ratio (x) = 0.14325 0.13806
# Poissons Ratio (y) = 0.37592 0.50161
# Poissons Ratio (z) = 0.37673 0.52160
#
# Static dielectric constant tensor:
#      x y z
#    x 1.709300 0.000000 0.005640 
#    y 0.000000 1.663870 0.000000 
#    z 0.005640 0.000000 1.709170 
# 
# From -- ./inp_files/94960.got.cif
#   From: 2010.05.17/outbox.cif.g08.bks.cpg/sg10_48_cif.got.tgz:94960.got - 2010.06.03 11:33:40.
