data_PCOD9150816
_publ_section_title
;
Structure prediction by ZEFSAII (Michael W. Deem and Ramdas Pophale) SiO2 
 PCOD9150816
Probable space group: P 2/M
;
_chemical_formula_sum "Si O2"
_cell_formula_units_Z 24
_cell_length_a 16.731946
_cell_length_b 11.736862
_cell_length_c 10.995082
_cell_angle_alpha 90.000000
_cell_angle_beta 145.258985
_cell_angle_gamma 90.000000
_cell_volume 1230.470269
_symmetry_space_group_name_H-M "P 2/M"
_symmetry_group_IT_number 10
_symmetry_cell_setting 'monoclinic'
loop_
_space_group_symop_operation_xyz
x,y,z
-x,y,-z
-x,-y,-z
x,-y,z
loop_
_atom_site_type_symbol
_atom_site_label
_atom_site_fract_x
_atom_site_fract_y
_atom_site_fract_z
Si Si1 0.500000 0.314554 0.500000
Si Si2 0.830037 0.134098 0.534994
Si Si3 0.588404 0.255425 0.345712
Si Si4 0.926701 0.749530 0.282033
Si Si5 0.263996 0.500000 0.219599
Si Si6 0.012890 0.500000 0.726464
Si Si7 0.675184 0.864487 0.081540
Si Si8 0.705800 0.500000 0.456770
O O1 0.533622 0.252900 0.415659
O O2 0.362568 0.393525 0.306657
O O3 0.738319 0.194576 0.522443
O O4 0.743039 0.152680 0.299874
O O5 0.980802 0.192001 0.706449
O O6 0.843264 0.000000 0.569970
O O7 0.614033 0.384915 0.331119
O O8 0.477595 0.188537 0.124541
O O9 0.772305 0.798728 0.105216
O O10 0.000000 0.784473 0.500000
O O11 0.943320 0.614619 0.288620
O O12 0.247965 0.500000 0.344379
O O13 0.113446 0.500000 0.969723
O O14 0.846824 0.500000 0.551222
O O15 0.673577 0.000000 0.057264
#
# Coordination Sequence:
#
# PCOD9150816 Si02
#       8
#     2   4   4   4   2   2   4   2
#     4   9  20  36  55  84 112 144 183 229 280 334
#     4  10  20  37  58  80 111 150 191 232 271 324
#     4  11  20  37  57  82 113 146 183 236 276 329
#     4  10  21  35  56  84 118 146 179 227 284 332
#     4   9  19  35  57  78 107 148 189 223 265 331
#     4  12  19  35  57  86 113 148 178 226 280 338
#     4  10  21  37  59  84 109 149 197 227 265 332
#     4  10  22  36  55  85 113 139 190 230 276 333
#
# _framework density 19.504738
#
# number of rings (size 3 to 8) (size 9 to 14) (size 15 to 20)
#    0.000    1.833    1.667    3.500    0.000    4.000 
#    0.000    4.167    0.000    0.000    0.000    4.667 
#    0.000    0.000    0.000    0.000    0.000    0.000 
#
# Total GULP energy -133916.305326 kJ/mol
# GULP energy per Si atom -5579.846055 kJ/mol
# Density = 1.946034 g / cm^3
# Si number density = 19.504738 Si / 1000 Ang^3
#
#
#
# Elastic Constant Matrix: (Units=GPa)
#
#
# Indices 1 2 3 4 5 6 
#
# 1 95.3984 47.1169 15.7092 0.0000 24.6225 0.0000
# 2 47.1169 77.1199 -1.0839 0.0000 14.0939 0.0000
# 3 15.7092 -1.0839 20.4957 0.0000 14.4700 0.0000
# 4 0.0000 0.0000 0.0000 64.0625 0.0000 12.4926
# 5 24.6225 14.0939 14.4700 0.0000 28.7773 0.0000
# 6 0.0000 0.0000 0.0000 12.4926 0.0000 7.2572
#
#
#
# Elastic Compliance Matrix: (Units=1/GPa)
#
#
# Indices 1 2 3 4 5 6 
#
# 1 0.019101 -0.010878 -0.011533 0.000000 -0.005216 0.000000
# 2 -0.010878 0.021541 0.016052 0.000000 -0.009314 0.000000
# 3 -0.011533 0.016052 0.088469 0.000000 -0.042479 0.000000
# 4 0.000000 0.000000 0.000000 0.023497 0.000000 -0.040449
# 5 -0.005216 -0.009314 -0.042479 0.000000 0.065134 0.000000
# 6 0.000000 0.000000 0.000000 -0.040449 0.000000 0.207422
#
#
# Mechanical properties :
#
#
# Convention : Reuss Voigt Hill
#
# Bulk Modulus (GPa) = 8.59157 35.16649 21.87903
# Shear Modulus (GPa) = 10.48925 28.77085 19.63005
#
# Velocity S-wave (km/s) = 2.32152 3.84483 3.17586
# Velocity P-wave (km/s) = 3.40593 6.14647 4.96888
#
# Compressibility (1/GPa) = 0.11639322
#
# Stress axis : x y z
#
# Youngs Moduli (GPa) = 52.35454 46.42359 11.30341
#
# Poissons Ratio (x) = 0.50501 0.13036
# Poissons Ratio (y) = 0.56953 -0.18145
# Poissons Ratio (z) = 0.60378 -0.74521
#
# Static dielectric constant tensor:
#      x y z
#    x 1.719330 0.000000 0.014380 
#    y 0.000000 1.674030 0.000000 
#    z 0.014380 0.000000 1.672280 
# 
# From -- ./inp_files/53763.got.cif
#   From: 2010.05.17/outbox.cif.g08.bks.cpg/sg10_27_cif.got.tgz:53763.got - 2010.06.03 11:33:40.
