data_PCOD9150863
_publ_section_title
;
Structure prediction by ZEFSAII (Michael W. Deem and Ramdas Pophale) SiO2 
 PCOD9150863
Probable space group: P 2/M
;
_chemical_formula_sum "Si O2"
_cell_formula_units_Z 32
_cell_length_a 19.501694
_cell_length_b 7.694939
_cell_length_c 12.292435
_cell_angle_alpha 90.000000
_cell_angle_beta 54.385285
_cell_angle_gamma 90.000000
_cell_volume 1499.615540
_symmetry_space_group_name_H-M "P 2/M"
_symmetry_group_IT_number 10
_symmetry_cell_setting 'monoclinic'
loop_
_space_group_symop_operation_xyz
x,y,z
-x,y,-z
-x,-y,-z
x,-y,z
loop_
_atom_site_type_symbol
_atom_site_label
_atom_site_fract_x
_atom_site_fract_y
_atom_site_fract_z
Si Si1 0.661034 0.809111 0.631159
Si Si2 0.979896 0.287423 0.820462
Si Si3 0.747576 0.302663 0.746467
Si Si4 0.505830 0.212387 0.123063
Si Si5 0.307848 0.205532 0.973775
Si Si6 0.825242 0.708536 0.340482
Si Si7 0.180758 0.709743 0.898776
Si Si8 0.079253 0.712091 0.359064
O O1 0.684077 0.811536 0.738073
O O2 0.569856 0.720140 0.728832
O O3 0.746361 0.746096 0.493108
O O4 0.646414 0.000000 0.598756
O O5 0.982709 0.500000 0.820372
O O6 0.933464 0.232417 0.752378
O O7 0.077915 0.229400 0.727675
O O8 0.913313 0.233614 0.975267
O O9 0.739561 0.500000 0.712771
O O10 0.736444 0.301424 0.885320
O O11 0.840388 0.229320 0.648270
O O12 0.500290 0.000000 0.125257
O O13 0.500000 0.269705 0.000000
O O14 0.594392 0.256457 0.099364
O O15 0.302977 0.000000 0.999251
O O16 0.255314 0.240124 0.913000
O O17 0.831929 0.500000 0.334163
O O18 0.803081 0.769178 0.238966
O O19 0.178454 0.500000 0.900709
O O20 0.084393 0.500000 0.353106
O O21 0.000000 0.766045 0.500000
#
# Coordination Sequence:
#
# PCOD9150863 Si02
#       8
#     4   4   4   4   4   4   4   4
#     4  11  22  38  59  82 113 149 186 232 283 338
#     4   9  16  31  55  82 110 147 193 228 264 326
#     4  11  20  33  55  83 115 146 182 227 278 334
#     4   9  18  36  59  81 108 147 189 223 269 342
#     4  11  21  36  59  84 111 144 185 232 282 332
#     4  10  21  37  59  84 112 148 192 237 278 325
#     4  10  20  37  59  84 113 149 193 236 275 324
#     4   9  16  26  46  76 109 143 179 219 261 316
#
# _framework density 21.338802999999999
#
# number of rings (size 3 to 8) (size 9 to 14) (size 15 to 20)
#    0.000    2.000    2.500    2.250    0.000    4.000 
#    0.000    4.375    0.000    6.750    0.000    0.000 
#    0.000    0.000    0.000    0.000    0.000    0.000 
#
# Total GULP energy -178287.514653 kJ/mol
# GULP energy per Si atom -5571.484833 kJ/mol
# Density = 2.129023 g / cm^3
# Si number density = 21.338803 Si / 1000 Ang^3
#
#
#
# Elastic Constant Matrix: (Units=GPa)
#
#
# Indices 1 2 3 4 5 6 
#
# 1 99.5362 3.6082 37.3269 0.0000 -29.2524 0.0000
# 2 3.6082 40.1972 7.1583 0.0000 -4.8802 0.0000
# 3 37.3269 7.1583 91.9708 0.0000 -17.6750 0.0000
# 4 0.0000 0.0000 0.0000 2.4329 0.0000 -5.8852
# 5 -29.2524 -4.8802 -17.6750 0.0000 40.9764 0.0000
# 6 0.0000 0.0000 0.0000 -5.8852 0.0000 12.0636
#
#
#
# Elastic Compliance Matrix: (Units=1/GPa)
#
#
# Indices 1 2 3 4 5 6 
#
# 1 0.014012 0.000483 -0.004134 0.000000 0.008277 0.000000
# 2 0.000483 0.025453 -0.001667 0.000000 0.002658 0.000000
# 3 -0.004134 -0.001667 0.013167 0.000000 0.002530 0.000000
# 4 0.000000 0.000000 0.000000 -2.281851 0.000000 -1.113199
# 5 0.008277 0.002658 0.002530 0.000000 0.031721 0.000000
# 6 0.000000 0.000000 0.000000 -1.113199 0.000000 -0.460179
#
#
# Mechanical properties :
#
#
# Convention : Reuss Voigt Hill
#
# Bulk Modulus (GPa) = 23.81061 36.43235 30.12148
# Shear Modulus (GPa) = -1.89894 23.33530 10.71818
#
# Velocity S-wave (km/s) = -0.94437 3.31049 2.24360
# Velocity P-wave (km/s) = 3.16125 5.63230 4.56707
#
# Compressibility (1/GPa) = 0.04199808
#
# Stress axis : x y z
#
# Youngs Moduli (GPa) = 71.36833 39.28747 75.94976
#
# Poissons Ratio (x) = -0.01899 0.31395
# Poissons Ratio (y) = -0.03449 0.12657
# Poissons Ratio (z) = 0.29501 0.06547
#
# Static dielectric constant tensor:
#      x y z
#    x 1.784310 0.000000 -0.033830 
#    y 0.000000 1.809550 0.000000 
#    z -0.033830 0.000000 1.830630 
# 
# From -- ./inp_files/55254.got.cif
#   From: 2010.05.17/outbox.cif.g08.bks.cpg/sg10_28_cif.got.tgz:55254.got - 2010.06.03 11:33:40.
