data_PCOD9150310
_publ_section_title
;
Structure prediction by ZEFSAII (Michael W. Deem and Ramdas Pophale) SiO2 
 PCOD9150310
Probable space group: P 2/M
;
_chemical_formula_sum "Si O2"
_cell_formula_units_Z 24
_cell_length_a 25.461824
_cell_length_b 12.464785
_cell_length_c 11.546323
_cell_angle_alpha 90.000000
_cell_angle_beta 20.903400
_cell_angle_gamma 90.000000
_cell_volume 1307.479420
_symmetry_space_group_name_H-M "P 2/M"
_symmetry_group_IT_number 10
_symmetry_cell_setting 'monoclinic'
loop_
_space_group_symop_operation_xyz
x,y,z
-x,y,-z
-x,-y,-z
x,-y,z
loop_
_atom_site_type_symbol
_atom_site_label
_atom_site_fract_x
_atom_site_fract_y
_atom_site_fract_z
Si Si1 0.176515 0.877747 0.153699
Si Si2 0.227455 0.790453 0.810716
Si Si3 0.876964 0.187565 0.480887
Si Si4 0.724451 0.000000 0.653655
Si Si5 0.124916 0.380588 0.663636
Si Si6 0.377270 0.000000 0.402456
Si Si7 0.625460 0.621651 0.660969
O O1 0.194850 0.842598 0.248314
O O2 0.000000 0.882843 0.500000
O O3 0.232474 0.000000 0.021390
O O4 0.232510 0.796297 0.940118
O O5 0.315682 0.894074 0.588103
O O6 0.304564 0.690207 0.587361
O O7 0.055298 0.807535 0.128840
O O8 0.815939 0.101977 0.513445
O O9 0.834046 0.305375 0.526029
O O10 0.694828 0.000000 0.577569
O O11 0.554430 0.000000 0.046058
O O12 0.075344 0.500000 0.728918
O O13 0.251887 0.391177 0.494389
O O14 0.000000 0.326371 0.000000
O O15 0.578633 0.500000 0.721167
O O16 0.500000 0.676102 0.000000
#
# Coordination Sequence:
#
# PCOD9150310 Si02
#       7
#     4   4   4   2   4   2   4
#     4   9  18  36  55  80 113 152 192 234 277 327
#     4  11  21  37  61  81 112 152 194 229 281 338
#     4  11  21  37  60  83 111 153 192 230 283 340
#     4  11  25  36  53  84 121 145 185 237 287 345
#     4  10  20  36  57  84 113 142 185 238 286 332
#     4  11  25  36  51  84 120 150 180 237 287 335
#     4  10  22  38  59  84 115 152 185 229 290 347
#
# _framework density 18.355929
#
# number of rings (size 3 to 8) (size 9 to 14) (size 15 to 20)
#    0.000    1.667    3.333    1.500    4.667    0.667 
#    0.000    2.500    0.000    3.000    0.000    3.500 
#    0.000    0.000    0.000    0.000    0.000    0.000 
#
# Total GULP energy -133645.021817 kJ/mol
# GULP energy per Si atom -5568.542576 kJ/mol
# Density = 1.831415 g / cm^3
# Si number density = 18.355929 Si / 1000 Ang^3
#
#
#
# Elastic Constant Matrix: (Units=GPa)
#
#
# Indices 1 2 3 4 5 6 
#
# 1 57.1028 31.3829 23.7892 0.0000 15.8911 0.0000
# 2 31.3829 90.9359 25.6386 0.0000 17.9116 0.0000
# 3 23.7892 25.6386 69.5870 0.0000 21.4576 0.0000
# 4 0.0000 0.0000 0.0000 1.0316 0.0000 9.7892
# 5 15.8911 17.9116 21.4576 0.0000 16.9673 0.0000
# 6 0.0000 0.0000 0.0000 9.7892 0.0000 23.3668
#
#
#
# Elastic Compliance Matrix: (Units=1/GPa)
#
#
# Indices 1 2 3 4 5 6 
#
# 1 0.025620 -0.005118 -0.001868 0.000000 -0.016229 0.000000
# 2 -0.005118 0.014947 -0.000606 0.000000 -0.010218 0.000000
# 3 -0.001868 -0.000606 0.023762 0.000000 -0.027661 0.000000
# 4 0.000000 0.000000 0.000000 -0.325796 0.000000 0.136487
# 5 -0.016229 -0.010218 -0.027661 0.000000 0.119904 0.000000
# 6 0.000000 0.000000 0.000000 0.136487 0.000000 -0.014384
#
#
# Mechanical properties :
#
#
# Convention : Reuss Voigt Hill
#
# Bulk Modulus (GPa) = 20.34898 42.13856 31.24377
# Shear Modulus (GPa) = -40.19970 17.39414 -11.40278
#
# Velocity S-wave (km/s) = -4.68483 3.08166 -2.49510
# Velocity P-wave (km/s) = 4.26072 5.97230 2.95928
#
# Compressibility (1/GPa) = 0.04914251
#
# Stress axis : x y z
#
# Youngs Moduli (GPa) = 39.03208 66.90415 42.08403
#
# Poissons Ratio (x) = 0.34244 0.07863
# Poissons Ratio (y) = 0.19978 0.02552
# Poissons Ratio (z) = 0.07293 0.04057
#
# Static dielectric constant tensor:
#      x y z
#    x 1.521040 0.000000 0.220310 
#    y 0.000000 1.654060 0.000000 
#    z 0.220310 0.000000 1.257550 
# 
# From -- ./inp_files/57726.got.cif
#   From: 2010.05.17/outbox.cif.g08.bks.cpg/sg10_29_cif.got.tgz:57726.got - 2010.06.03 11:33:40.
