data_PCOD9150706
_publ_section_title
;
Structure prediction by ZEFSAII (Michael W. Deem and Ramdas Pophale) SiO2 
 PCOD9150706
Probable space group: P 2/M
;
_chemical_formula_sum "Si O2"
_cell_formula_units_Z 28
_cell_length_a 15.384407
_cell_length_b 17.131558
_cell_length_c 9.497205
_cell_angle_alpha 90.000000
_cell_angle_beta 37.301984
_cell_angle_gamma 90.000000
_cell_volume 1516.901865
_symmetry_space_group_name_H-M "P 2/M"
_symmetry_group_IT_number 10
_symmetry_cell_setting 'monoclinic'
loop_
_space_group_symop_operation_xyz
x,y,z
-x,y,-z
-x,-y,-z
x,-y,z
loop_
_atom_site_type_symbol
_atom_site_label
_atom_site_fract_x
_atom_site_fract_y
_atom_site_fract_z
Si Si1 0.161712 0.114289 0.334995
Si Si2 0.138849 0.741409 0.735269
Si Si3 0.862908 0.703690 0.590389
Si Si4 0.538078 0.294089 0.614159
Si Si5 0.533034 0.137285 0.125364
Si Si6 0.606013 0.410700 0.996834
Si Si7 0.223036 0.915871 0.581346
O O1 0.167478 0.208396 0.318134
O O2 0.181474 0.087981 0.470024
O O3 0.000000 0.090823 0.500000
O O4 0.312190 0.095092 0.062804
O O5 0.116307 0.716657 0.602564
O O6 0.290268 0.706694 0.589098
O O7 0.159207 0.835599 0.723878
O O8 0.000000 0.716796 0.000000
O O9 0.736274 0.644652 0.785091
O O10 0.000000 0.675803 0.500000
O O11 0.500000 0.286225 0.500000
O O12 0.476648 0.220195 0.782224
O O13 0.471724 0.370795 0.770565
O O14 0.395975 0.090999 0.361095
O O15 0.500000 0.149797 0.000000
O O16 0.648284 0.500000 0.970519
O O17 0.500000 0.410054 0.000000
O O18 0.178231 0.000000 0.698373
#
# Coordination Sequence:
#
# PCOD9150706 Si02
#       7
#     4   4   4   4   4   4   4
#     4   9  17  28  51  81 110 142 188 237 280 330
#     4  10  22  38  58  86 114 149 197 234 287 343
#     4  10  20  36  62  86 115 148 193 242 277 333
#     4  11  22  35  60  86 115 151 193 241 279 333
#     4   9  17  33  56  77 108 148 195 237 276 339
#     4  11  22  39  64  88 117 155 191 233 290 338
#     4   9  19  33  51  78 110 148 186 234 290 342
#
# _framework density 18.458676000000001
#
# number of rings (size 3 to 8) (size 9 to 14) (size 15 to 20)
#    0.000    2.143    2.857    1.286    2.000    4.857 
#    0.000    0.000    0.000    7.714    0.000    0.000 
#    0.000    0.000    0.000    0.000    0.000    0.000 
#
# Total GULP energy -156081.292434 kJ/mol
# GULP energy per Si atom -5574.331873 kJ/mol
# Density = 1.841666 g / cm^3
# Si number density = 18.458676 Si / 1000 Ang^3
#
#
#
# Elastic Constant Matrix: (Units=GPa)
#
#
# Indices 1 2 3 4 5 6 
#
# 1 94.4771 18.6040 45.1513 0.0000 -20.0301 0.0000
# 2 18.6040 112.2500 30.4395 0.0000 -3.9647 0.0000
# 3 45.1513 30.4395 111.2309 0.0000 -20.3831 0.0000
# 4 0.0000 0.0000 0.0000 -41.5123 0.0000 0.0921
# 5 -20.0301 -3.9647 -20.3831 0.0000 32.0024 0.0000
# 6 0.0000 0.0000 0.0000 0.0921 0.0000 -0.1442
#
#
#
# Elastic Compliance Matrix: (Units=1/GPa)
#
#
# Indices 1 2 3 4 5 6 
#
# 1 0.014125 -0.000941 -0.004390 0.000000 0.005928 0.000000
# 2 -0.000941 0.009694 -0.002444 0.000000 -0.000945 0.000000
# 3 -0.004390 -0.002444 0.012320 0.000000 0.004797 0.000000
# 4 0.000000 0.000000 0.000000 -0.024123 0.000000 -0.015410
# 5 0.005928 -0.000945 0.004797 0.000000 0.037896 0.000000
# 6 0.000000 0.000000 0.000000 -0.015410 0.000000 -6.946561
#
#
# Mechanical properties :
#
#
# Convention : Reuss Voigt Hill
#
# Bulk Modulus (GPa) = 48.56963 56.26086 52.41524
# Shear Modulus (GPa) = -0.72735 12.98673 6.12969
#
# Velocity S-wave (km/s) = -0.62841 2.65534 1.82427
# Velocity P-wave (km/s) = 5.08362 6.32034 5.73541
#
# Compressibility (1/GPa) = 0.02058900
#
# Stress axis : x y z
#
# Youngs Moduli (GPa) = 70.79876 103.15611 81.16913
#
# Poissons Ratio (x) = 0.09709 0.35630
# Poissons Ratio (y) = 0.06664 0.19837
# Poissons Ratio (z) = 0.31078 0.25211
#
# Static dielectric constant tensor:
#      x y z
#    x 1.126070 0.000000 0.500100 
#    y 0.000000 1.655840 0.000000 
#    z 0.500100 0.000000 1.075300 
# 
# From -- ./inp_files/30100.got.cif
#   From: 2010.05.17/outbox.cif.g08.bks.cpg/sg10_16_cif.got.tgz:30100.got - 2010.06.03 11:33:40.
