data_PCOD9150822
_publ_section_title
;
Structure prediction by ZEFSAII (Michael W. Deem and Ramdas Pophale) SiO2 
 PCOD9150822
Probable space group: P 2/M
;
_chemical_formula_sum "Si O2"
_cell_formula_units_Z 32
_cell_length_a 12.872054
_cell_length_b 8.290936
_cell_length_c 19.290877
_cell_angle_alpha 90.000000
_cell_angle_beta 49.061035
_cell_angle_gamma 90.000000
_cell_volume 1555.195471
_symmetry_space_group_name_H-M "P 2/M"
_symmetry_group_IT_number 10
_symmetry_cell_setting 'monoclinic'
loop_
_space_group_symop_operation_xyz
x,y,z
-x,y,-z
-x,-y,-z
x,-y,z
loop_
_atom_site_type_symbol
_atom_site_label
_atom_site_fract_x
_atom_site_fract_y
_atom_site_fract_z
Si Si1 0.565575 0.808123 0.321729
Si Si2 0.181644 0.308437 0.716039
Si Si3 0.571667 0.195054 0.761709
Si Si4 0.411979 0.803058 0.971337
Si Si5 0.175717 0.682736 0.271940
Si Si6 0.872242 0.186702 0.852247
Si Si7 0.321436 0.695035 0.512461
Si Si8 0.087171 0.687177 0.522760
O O1 0.723015 0.759141 0.264516
O O2 0.499792 0.749351 0.278034
O O3 0.475377 0.740704 0.425159
O O4 0.555240 0.000000 0.327191
O O5 0.195656 0.500000 0.709390
O O6 0.251108 0.245778 0.613943
O O7 0.020939 0.267959 0.791200
O O8 0.722548 0.265067 0.711208
O O9 0.580431 0.000000 0.756446
O O10 0.483609 0.242709 0.868144
O O11 0.253998 0.747667 0.046900
O O12 0.409549 0.000000 0.974750
O O13 0.500000 0.749709 0.000000
O O14 0.209479 0.500000 0.235955
O O15 0.183599 0.796290 0.202119
O O16 0.019692 0.682843 0.367028
O O17 0.892935 0.000000 0.860026
O O18 0.312394 0.500000 0.517121
O O19 0.227128 0.758815 0.490135
O O20 0.115809 0.500000 0.489092
O O21 0.000000 0.767381 0.500000
#
# Coordination Sequence:
#
# PCOD9150822 Si02
#       8
#     4   4   4   4   4   4   4   4
#     4  11  24  39  58  86 117 149 193 247 293 333
#     4  11  23  41  62  83 114 155 198 239 283 343
#     4  10  21  39  59  84 118 153 192 238 287 345
#     4   9  17  34  61  87 113 152 192 226 280 351
#     4  11  20  33  55  84 118 153 190 232 283 342
#     4  11  21  36  61  88 115 147 189 240 289 335
#     4  10  20  37  58  81 112 154 197 232 278 343
#     4   9  17  30  49  75 110 150 188 222 267 336
#
# _framework density 20.576191000000001
#
# number of rings (size 3 to 8) (size 9 to 14) (size 15 to 20)
#    0.000    1.750    2.500    2.625    0.000    4.500 
#    0.000    2.500    0.000    6.375    0.000    0.000 
#    0.000    0.000    0.000    0.000    0.000    0.000 
#
# Total GULP energy -178661.576375 kJ/mol
# GULP energy per Si atom -5583.174262 kJ/mol
# Density = 2.052936 g / cm^3
# Si number density = 20.576191 Si / 1000 Ang^3
#
#
#
# Elastic Constant Matrix: (Units=GPa)
#
#
# Indices 1 2 3 4 5 6 
#
# 1 120.4391 4.8303 31.4683 0.0000 -17.6798 0.0000
# 2 4.8303 16.9187 4.8634 0.0000 0.0166 0.0000
# 3 31.4683 4.8634 83.1998 0.0000 -11.4992 0.0000
# 4 0.0000 0.0000 0.0000 18.9946 0.0000 -7.3276
# 5 -17.6798 0.0166 -11.4992 0.0000 26.1971 0.0000
# 6 0.0000 0.0000 0.0000 -7.3276 0.0000 26.0465
#
#
#
# Elastic Compliance Matrix: (Units=1/GPa)
#
#
# Indices 1 2 3 4 5 6 
#
# 1 0.009937 -0.002012 -0.002889 0.000000 0.005439 0.000000
# 2 -0.002012 0.060593 -0.003166 0.000000 -0.002786 0.000000
# 3 -0.002889 -0.003166 0.013869 0.000000 0.004140 0.000000
# 4 0.000000 0.000000 0.000000 0.059056 0.000000 0.016614
# 5 0.005439 -0.002786 0.004140 0.000000 0.043662 0.000000
# 6 0.000000 0.000000 0.000000 0.016614 0.000000 0.043067
#
#
# Mechanical properties :
#
#
# Convention : Reuss Voigt Hill
#
# Bulk Modulus (GPa) = 14.64864 33.65350 24.15107
# Shear Modulus (GPa) = 18.58228 26.20734 22.39481
#
# Velocity S-wave (km/s) = 3.00842 3.57273 3.30265
# Velocity P-wave (km/s) = 4.38202 5.78016 5.12895
#
# Compressibility (1/GPa) = 0.06826571
#
# Stress axis : x y z
#
# Youngs Moduli (GPa) = 100.63449 16.50345 72.10190
#
# Poissons Ratio (x) = 0.03320 0.20830
# Poissons Ratio (y) = 0.20246 0.22828
# Poissons Ratio (z) = 0.29074 0.05225
#
# Static dielectric constant tensor:
#      x y z
#    x 1.752580 0.000000 0.011590 
#    y 0.000000 1.707100 0.000000 
#    z 0.011590 0.000000 1.740730 
# 
# From -- ./inp_files/83548.got.cif
#   From: 2010.05.17/outbox.cif.g08.bks.cpg/sg10_42_cif.got.tgz:83548.got - 2010.06.03 11:33:40.
