data_PCOD9150708
_publ_section_title
;
Structure prediction by ZEFSAII (Michael W. Deem and Ramdas Pophale) SiO2 
 PCOD9150708
Probable space group: P 2/M
;
_chemical_formula_sum "Si O2"
_cell_formula_units_Z 32
_cell_length_a 9.592461
_cell_length_b 13.144501
_cell_length_c 25.996068
_cell_angle_alpha 90.000000
_cell_angle_beta 154.605428
_cell_angle_gamma 90.000000
_cell_volume 1405.680990
_symmetry_space_group_name_H-M "P 2/M"
_symmetry_group_IT_number 10
_symmetry_cell_setting 'monoclinic'
loop_
_space_group_symop_operation_xyz
x,y,z
-x,y,-z
-x,-y,-z
x,-y,z
loop_
_atom_site_type_symbol
_atom_site_label
_atom_site_fract_x
_atom_site_fract_y
_atom_site_fract_z
Si Si1 0.450544 0.622775 0.605973
Si Si2 0.644718 0.735875 0.764960
Si Si3 0.874117 0.880010 0.136617
Si Si4 0.988663 0.113741 0.294903
Si Si5 0.164025 0.615094 0.796241
Si Si6 0.160825 0.319643 0.407034
Si Si7 0.348141 0.885906 0.142625
Si Si8 0.139957 0.619814 0.991423
O O1 0.424099 0.500000 0.602364
O O2 0.412881 0.686073 0.645639
O O3 0.193259 0.662602 0.477956
O O4 0.823201 0.647170 0.709457
O O5 0.534491 0.801213 0.777583
O O6 0.887655 0.814306 0.818379
O O7 0.859913 0.643573 0.857958
O O8 0.980868 0.866101 0.231583
O O9 0.905044 0.000000 0.135459
O O10 0.500000 0.852729 0.000000
O O11 0.614006 0.112211 0.186804
O O12 0.141904 0.203818 0.379892
O O13 0.122669 0.000000 0.349104
O O14 0.198615 0.500000 0.826355
O O15 0.521231 0.665256 0.918169
O O16 0.106541 0.622270 0.715412
O O17 0.500000 0.365394 0.500000
O O18 0.341302 0.000000 0.163926
O O19 0.000000 0.869183 0.000000
O O20 0.195477 0.500000 0.015600
O O21 0.000000 0.655360 0.000000
#
# Coordination Sequence:
#
# PCOD9150708 Si02
#       8
#     4   4   4   4   4   4   4   4
#     4  10  22  40  60  88 121 158 204 256 306 356
#     4  12  23  35  61  89 124 164 193 247 307 369
#     4  10  21  35  55  89 129 159 192 242 300 360
#     4  10  22  40  63  90 121 159 205 251 296 359
#     4   9  19  36  60  86 116 155 203 252 297 356
#     4  10  20  36  62  88 117 158 208 254 297 352
#     4  10  22  41  63  90 124 163 205 243 295 370
#     4  10  23  39  57  88 125 161 200 248 305 368
#
# _framework density 22.764768
#
# number of rings (size 3 to 8) (size 9 to 14) (size 15 to 20)
#    0.000    1.875    0.000    3.750    7.000    3.750 
#    0.000    3.750    0.000    2.250    0.000    0.000 
#    0.000    0.000    0.000    0.000    0.000    0.000 
#
# Total GULP energy -178597.568343 kJ/mol
# GULP energy per Si atom -5581.174011 kJ/mol
# Density = 2.271295 g / cm^3
# Si number density = 22.764768 Si / 1000 Ang^3
#
#
#
# Elastic Constant Matrix: (Units=GPa)
#
#
# Indices 1 2 3 4 5 6 
#
# 1 72.3712 0.4656 -4.5672 0.0000 -1.9024 0.0000
# 2 0.4656 101.0145 -5.6323 0.0000 -5.6834 0.0000
# 3 -4.5672 -5.6323 40.5067 0.0000 -12.6600 0.0000
# 4 0.0000 0.0000 0.0000 37.6971 0.0000 3.6446
# 5 -1.9024 -5.6834 -12.6600 0.0000 33.1144 0.0000
# 6 0.0000 0.0000 0.0000 3.6446 0.0000 41.2283
#
#
#
# Elastic Compliance Matrix: (Units=1/GPa)
#
#
# Indices 1 2 3 4 5 6 
#
# 1 0.013993 0.000145 0.002109 0.000000 0.001635 0.000000
# 2 0.000145 0.010171 0.002247 0.000000 0.002613 0.000000
# 3 0.002109 0.002247 0.028842 0.000000 0.011534 0.000000
# 4 0.000000 0.000000 0.000000 0.026756 0.000000 -0.002365
# 5 0.001635 0.002613 0.011534 0.000000 0.035150 0.000000
# 6 0.000000 0.000000 0.000000 -0.002365 0.000000 0.024464
#
#
# Mechanical properties :
#
#
# Convention : Reuss Voigt Hill
#
# Bulk Modulus (GPa) = 16.12672 21.60275 18.86473
# Shear Modulus (GPa) = 33.10303 37.31638 35.20970
#
# Velocity S-wave (km/s) = 3.81745 4.05312 3.93705
# Velocity P-wave (km/s) = 5.15073 5.60480 5.38256
#
# Compressibility (1/GPa) = 0.06200889
#
# Stress axis : x y z
#
# Youngs Moduli (GPa) = 71.46543 98.31652 34.67137
#
# Poissons Ratio (x) = -0.01426 -0.07312
# Poissons Ratio (y) = -0.01037 -0.07792
# Poissons Ratio (z) = -0.15071 -0.22095
#
# Static dielectric constant tensor:
#      x y z
#    x 1.934960 0.000000 -0.011140 
#    y 0.000000 1.874080 0.000000 
#    z -0.011140 0.000000 1.833390 
# 
# From -- ./inp_files/88266.got.cif
#   From: 2010.05.17/outbox.cif.g08.bks.cpg/sg10_45_cif.got.tgz:88266.got - 2010.06.03 11:33:40.
