data_PCOD9150858
_publ_section_title
;
Structure prediction by ZEFSAII (Michael W. Deem and Ramdas Pophale) SiO2 
 PCOD9150858
Probable space group: P 2/M
;
_chemical_formula_sum "Si O2"
_cell_formula_units_Z 32
_cell_length_a 31.296770
_cell_length_b 8.461858
_cell_length_c 13.343825
_cell_angle_alpha 90.000000
_cell_angle_beta 152.322961
_cell_angle_gamma 90.000000
_cell_volume 1641.418528
_symmetry_space_group_name_H-M "P 2/M"
_symmetry_group_IT_number 10
_symmetry_cell_setting 'monoclinic'
loop_
_space_group_symop_operation_xyz
x,y,z
-x,y,-z
-x,-y,-z
x,-y,z
loop_
_atom_site_type_symbol
_atom_site_label
_atom_site_fract_x
_atom_site_fract_y
_atom_site_fract_z
Si Si1 0.594968 0.309407 0.955960
Si Si2 0.794407 0.191203 0.082084
Si Si3 0.561297 0.309197 0.222918
Si Si4 0.783609 0.309754 0.451734
Si Si5 0.106306 0.808226 0.916093
Si Si6 0.401327 0.189872 0.259391
Si Si7 0.768886 0.188456 0.638466
Si Si8 0.898395 0.310417 0.495955
O O1 0.596182 0.500000 0.949035
O O2 0.679108 0.266380 0.204001
O O3 0.498039 0.261615 0.803260
O O4 0.611295 0.234958 0.882284
O O5 0.846870 0.243537 0.090985
O O6 0.844923 0.247062 0.287635
O O7 0.794777 0.000000 0.082974
O O8 0.688254 0.245901 0.866110
O O9 0.565879 0.500000 0.229560
O O10 0.664156 0.246126 0.433572
O O11 0.500000 0.259457 0.000000
O O12 0.787594 0.500000 0.465486
O O13 0.805050 0.243686 0.605466
O O14 0.848881 0.257119 0.496099
O O15 0.003157 0.745680 0.709912
O O16 0.103534 0.000000 0.910054
O O17 0.167655 0.755401 0.137945
O O18 0.500000 0.253017 0.500000
O O19 0.403542 0.000000 0.272896
O O20 0.768605 0.000000 0.640133
O O21 0.894117 0.500000 0.484914
#
# Coordination Sequence:
#
# PCOD9150858 Si02
#       8
#     4   4   4   4   4   4   4   4
#     4  10  20  37  59  83 116 158 197 238 291 350
#     4  10  21  40  63  86 119 161 195 235 299 358
#     4  10  20  37  59  82 115 158 193 229 286 348
#     4  10  21  40  62  85 121 158 193 244 300 353
#     4  10  24  43  60  84 122 160 193 240 303 358
#     4  10  22  37  58  88 121 157 194 239 292 347
#     4  11  24  39  60  90 121 156 200 247 288 346
#     4  11  23  40  65  92 114 147 200 254 297 347
#
# _framework density 19.495332000000001
#
# number of rings (size 3 to 8) (size 9 to 14) (size 15 to 20)
#    0.000    1.750    2.500    1.125    1.750    6.000 
#    0.000    2.500    0.000    0.000    0.000    0.000 
#    0.000    0.000    0.000    0.000    0.000    0.000 
#
# Total GULP energy -178762.115290 kJ/mol
# GULP energy per Si atom -5586.316103 kJ/mol
# Density = 1.945096 g / cm^3
# Si number density = 19.495332 Si / 1000 Ang^3
#
#
#
# Elastic Constant Matrix: (Units=GPa)
#
#
# Indices 1 2 3 4 5 6 
#
# 1 174.8732 22.5768 82.6604 0.0000 11.4130 0.0000
# 2 22.5768 7.2211 19.4790 0.0000 4.0675 0.0000
# 3 82.6604 19.4790 136.8302 0.0000 15.7912 0.0000
# 4 0.0000 0.0000 0.0000 36.7315 0.0000 -7.1938
# 5 11.4130 4.0675 15.7912 0.0000 24.8119 0.0000
# 6 0.0000 0.0000 0.0000 -7.1938 0.0000 31.0259
#
#
#
# Elastic Compliance Matrix: (Units=1/GPa)
#
#
# Indices 1 2 3 4 5 6 
#
# 1 0.010165 -0.025178 -0.002691 0.000000 0.001164 0.000000
# 2 -0.025178 0.294702 -0.024288 0.000000 -0.021272 0.000000
# 3 -0.002691 -0.024288 0.012724 0.000000 -0.002878 0.000000
# 4 0.000000 0.000000 0.000000 0.028520 0.000000 0.006613
# 5 0.001164 -0.021272 -0.002878 0.000000 0.045087 0.000000
# 6 0.000000 0.000000 0.000000 0.006613 0.000000 0.033764
#
#
# Mechanical properties :
#
#
# Convention : Reuss Voigt Hill
#
# Bulk Modulus (GPa) = 4.68874 63.15078 33.91976
# Shear Modulus (GPa) = 8.32822 31.46109 19.89466
#
# Velocity S-wave (km/s) = 2.06910 4.02154 3.19797
# Velocity P-wave (km/s) = 2.84930 7.35029 5.57429
#
# Compressibility (1/GPa) = 0.21327679
#
# Stress axis : x y z
#
# Youngs Moduli (GPa) = 98.37741 3.39325 78.59366
#
# Poissons Ratio (x) = 0.08544 0.21148
# Poissons Ratio (y) = 2.47697 1.90889
# Poissons Ratio (z) = 0.26471 0.08242
#
# Static dielectric constant tensor:
#      x y z
#    x 1.678950 0.000000 0.007350 
#    y 0.000000 1.672460 0.000000 
#    z 0.007350 0.000000 1.660920 
# 
# From -- ./inp_files/58282.got.cif
#   From: 2010.05.17/outbox.cif.g08.bks.cpg/sg10_30_cif.got.tgz:58282.got - 2010.06.03 11:33:40.
