data_PCOD9150845
_publ_section_title
;
Structure prediction by ZEFSAII (Michael W. Deem and Ramdas Pophale) SiO2 
 PCOD9150845
Probable space group: P 2/M
;
_chemical_formula_sum "Si O2"
_cell_formula_units_Z 32
_cell_length_a 20.593895
_cell_length_b 13.555581
_cell_length_c 13.137267
_cell_angle_alpha 90.000000
_cell_angle_beta 28.118921
_cell_angle_gamma 90.000000
_cell_volume 1728.470660
_symmetry_space_group_name_H-M "P 2/M"
_symmetry_group_IT_number 10
_symmetry_cell_setting 'monoclinic'
loop_
_space_group_symop_operation_xyz
x,y,z
-x,y,-z
-x,-y,-z
x,-y,z
loop_
_atom_site_type_symbol
_atom_site_label
_atom_site_fract_x
_atom_site_fract_y
_atom_site_fract_z
Si Si1 0.683872 0.618891 0.154122
Si Si2 0.554262 0.880489 0.039734
Si Si3 0.935673 0.790994 0.330220
Si Si4 0.868286 0.113496 0.622206
Si Si5 0.031509 0.616896 0.336423
Si Si6 0.373226 0.617830 0.539987
Si Si7 0.122164 0.112420 0.915657
Si Si8 0.695327 0.788291 0.497119
O O1 0.677482 0.500000 0.160351
O O2 0.532568 0.651375 0.329082
O O3 0.698570 0.643492 0.253173
O O4 0.810864 0.646850 0.907750
O O5 0.447366 0.830022 0.263624
O O6 0.549917 0.000000 0.055630
O O7 0.500000 0.858339 0.000000
O O8 0.711833 0.846272 0.842937
O O9 0.910664 0.876788 0.446423
O O10 0.808073 0.793099 0.429918
O O11 0.945923 0.690451 0.381862
O O12 0.070117 0.817249 0.077962
O O13 0.000000 0.157456 0.500000
O O14 0.857440 0.000000 0.670320
O O15 0.013511 0.500000 0.335121
O O16 0.000000 0.625414 0.500000
O O17 0.367793 0.500000 0.535462
O O18 0.310963 0.676499 0.533023
O O19 0.253220 0.149766 0.671671
O O20 0.139338 0.000000 0.927748
O O21 0.000000 0.112760 0.000000
#
# Coordination Sequence:
#
# PCOD9150845 Si02
#       8
#     4   4   4   4   4   4   4   4
#     4   8  16  35  57  76  99 137 188 229 272 326
#     4  10  20  37  59  79 107 146 185 231 279 328
#     4  11  21  34  53  79 112 148 183 226 279 337
#     4  10  21  37  58  83 108 141 189 237 281 331
#     4  10  21  36  54  76 105 143 186 229 273 327
#     4   9  18  33  56  81 107 139 179 231 277 325
#     4   9  19  34  53  78 108 142 180 225 272 326
#     4  11  21  33  54  84 114 143 187 223 276 343
#
# _framework density 18.513476000000001
#
# number of rings (size 3 to 8) (size 9 to 14) (size 15 to 20)
#    0.000    2.250    1.250    2.625    0.000    3.500 
#    0.000    0.000    0.000    4.875    0.000    7.875 
#    0.000    0.000    0.000    0.000    0.000    0.000 
#
# Total GULP energy -178285.573293 kJ/mol
# GULP energy per Si atom -5571.424165 kJ/mol
# Density = 1.847134 g / cm^3
# Si number density = 18.513476 Si / 1000 Ang^3
#
#
#
# Elastic Constant Matrix: (Units=GPa)
#
#
# Indices 1 2 3 4 5 6 
#
# 1 86.6828 21.5853 49.1747 0.0000 0.8492 0.0000
# 2 21.5853 59.5617 23.2958 0.0000 0.5448 0.0000
# 3 49.1747 23.2958 155.4182 0.0000 9.3527 0.0000
# 4 0.0000 0.0000 0.0000 20.8018 0.0000 8.8209
# 5 0.8492 0.5448 9.3527 0.0000 25.7480 0.0000
# 6 0.0000 0.0000 0.0000 8.8209 0.0000 17.7172
#
#
#
# Elastic Compliance Matrix: (Units=1/GPa)
#
#
# Indices 1 2 3 4 5 6 
#
# 1 0.014842 -0.003745 -0.004202 0.000000 0.001116 0.000000
# 2 -0.003745 0.018789 -0.001651 0.000000 0.000326 0.000000
# 3 -0.004202 -0.001651 0.008179 0.000000 -0.002798 0.000000
# 4 0.000000 0.000000 0.000000 0.060938 0.000000 -0.030340
# 5 0.001116 0.000326 -0.002798 0.000000 0.039811 0.000000
# 6 0.000000 0.000000 0.000000 -0.030340 0.000000 0.071548
#
#
# Mechanical properties :
#
#
# Convention : Reuss Voigt Hill
#
# Bulk Modulus (GPa) = 44.21953 54.41936 49.31944
# Shear Modulus (GPa) = 20.76058 26.69386 23.72722
#
# Velocity S-wave (km/s) = 3.35233 3.80130 3.58385
# Velocity P-wave (km/s) = 6.23867 6.98032 6.61989
#
# Compressibility (1/GPa) = 0.02261444
#
# Stress axis : x y z
#
# Youngs Moduli (GPa) = 67.37792 53.22154 122.25717
#
# Poissons Ratio (x) = 0.19934 0.51369
# Poissons Ratio (y) = 0.25236 0.20183
# Poissons Ratio (z) = 0.28310 0.08786
#
# Static dielectric constant tensor:
#      x y z
#    x 1.647410 0.000000 -0.013480 
#    y 0.000000 1.646120 0.000000 
#    z -0.013480 0.000000 1.654560 
# 
# From -- ./inp_files/53985.got.cif
#   From: 2010.05.17/outbox.cif.g08.bks.cpg/sg10_27_cif.got.tgz:53985.got - 2010.06.03 11:33:40.
