data_PCOD9150459
_publ_section_title
;
Structure prediction by ZEFSAII (Michael W. Deem and Ramdas Pophale) SiO2 
 PCOD9150459
Probable space group: P 2/M
;
_chemical_formula_sum "Si O2"
_cell_formula_units_Z 28
_cell_length_a 10.337160
_cell_length_b 14.178765
_cell_length_c 23.385812
_cell_angle_alpha 90.000000
_cell_angle_beta 156.276102
_cell_angle_gamma 90.000000
_cell_volume 1379.031387
_symmetry_space_group_name_H-M "P 2/M"
_symmetry_group_IT_number 10
_symmetry_cell_setting 'monoclinic'
loop_
_space_group_symop_operation_xyz
x,y,z
-x,y,-z
-x,-y,-z
x,-y,z
loop_
_atom_site_type_symbol
_atom_site_label
_atom_site_fract_x
_atom_site_fract_y
_atom_site_fract_z
Si Si1 0.907149 0.887142 0.854957
Si Si2 0.633470 0.108799 0.183532
Si Si3 0.273866 0.810986 0.659440
Si Si4 0.865104 0.394157 0.128866
Si Si5 0.876126 0.797502 0.172463
Si Si6 0.982622 0.392954 0.931050
Si Si7 0.743009 0.600675 0.346029
O O1 0.616431 0.830524 0.767181
O O2 0.943275 0.858969 0.802661
O O3 0.851094 0.000000 0.838157
O O4 0.254152 0.864624 0.024198
O O5 0.744424 0.121744 0.293386
O O6 0.851924 0.164117 0.226561
O O7 0.646869 0.000000 0.171438
O O8 0.241909 0.705128 0.673538
O O9 0.000000 0.822567 0.500000
O O10 0.011151 0.500000 0.188856
O O11 0.009934 0.309296 0.223889
O O12 0.858061 0.355041 0.061019
O O13 0.500000 0.404889 0.000000
O O14 0.500000 0.796456 0.000000
O O15 0.116781 0.500000 0.992388
O O16 0.607004 0.400444 0.766976
O O17 0.000000 0.345916 0.000000
O O18 0.774446 0.500000 0.326149
O O19 0.000000 0.599655 0.500000
#
# Coordination Sequence:
#
# PCOD9150459 Si02
#       7
#     4   4   4   4   4   4   4
#     4  10  20  36  59  83 108 142 184 228 275 327
#     4  10  21  38  59  82 109 142 182 230 281 331
#     4  11  23  37  56  84 114 143 179 226 278 330
#     4   9  17  29  46  75 115 148 174 218 278 325
#     4   9  18  33  53  78 107 143 185 224 266 323
#     4   9  17  29  49  78 108 140 181 225 265 310
#     4   9  19  35  52  73 106 146 181 214 259 317
#
# _framework density 20.304106999999998
#
# number of rings (size 3 to 8) (size 9 to 14) (size 15 to 20)
#    0.000    2.429    0.000    2.143    0.000    8.571 
#    0.000    2.857    0.000    1.714    0.000    3.000 
#    0.000   30.857    0.000    0.000    0.000    0.000 
#
# Total GULP energy -155903.385720 kJ/mol
# GULP energy per Si atom -5567.978061 kJ/mol
# Density = 2.025789 g / cm^3
# Si number density = 20.304107 Si / 1000 Ang^3
#
#
#
# Elastic Constant Matrix: (Units=GPa)
#
#
# Indices 1 2 3 4 5 6 
#
# 1 124.7393 25.5323 35.0315 0.0000 -11.0303 0.0000
# 2 25.5323 113.3932 17.2907 0.0000 -2.7129 0.0000
# 3 35.0315 17.2907 64.0143 0.0000 -8.3289 0.0000
# 4 0.0000 0.0000 0.0000 17.8927 0.0000 0.7994
# 5 -11.0303 -2.7129 -8.3289 0.0000 9.2979 0.0000
# 6 0.0000 0.0000 0.0000 0.7994 0.0000 32.5583
#
#
#
# Elastic Compliance Matrix: (Units=1/GPa)
#
#
# Indices 1 2 3 4 5 6 
#
# 1 0.010183 -0.001471 -0.004142 0.000000 0.007941 0.000000
# 2 -0.001471 0.009412 -0.001819 0.000000 -0.000629 0.000000
# 3 -0.004142 -0.001819 0.020002 0.000000 0.012473 0.000000
# 4 0.000000 0.000000 0.000000 0.055950 0.000000 -0.001374
# 5 0.007941 -0.000629 0.012473 0.000000 0.127961 0.000000
# 6 0.000000 0.000000 0.000000 -0.001374 0.000000 0.030748
#
#
# Mechanical properties :
#
#
# Convention : Reuss Voigt Hill
#
# Bulk Modulus (GPa) = 40.43125 50.87289 45.65207
# Shear Modulus (GPa) = 18.02667 26.90261 22.46464
#
# Velocity S-wave (km/s) = 2.98289 3.64398 3.32988
# Velocity P-wave (km/s) = 5.64088 6.54329 6.10877
#
# Compressibility (1/GPa) = 0.02473334
#
# Stress axis : x y z
#
# Youngs Moduli (GPa) = 98.19944 106.24172 49.99379
#
# Poissons Ratio (x) = 0.15632 0.20708
# Poissons Ratio (y) = 0.14449 0.09094
# Poissons Ratio (z) = 0.40676 0.19325
#
# Static dielectric constant tensor:
#      x y z
#    x 1.716710 0.000000 -0.011930 
#    y 0.000000 1.845330 0.000000 
#    z -0.011930 0.000000 1.703730 
# 
# From -- ./inp_files/82945.got.cif
#   From: 2010.05.17/outbox.cif.g08.bks.cpg/sg10_42_cif.got.tgz:82945.got - 2010.06.03 11:33:40.
