data_PCOD9150387
_publ_section_title
;
Structure prediction by ZEFSAII (Michael W. Deem and Ramdas Pophale) SiO2 
 PCOD9150387
Probable space group: P 2/M
;
_chemical_formula_sum "Si O2"
_cell_formula_units_Z 28
_cell_length_a 9.109588
_cell_length_b 19.770567
_cell_length_c 15.364623
_cell_angle_alpha 90.000000
_cell_angle_beta 30.828565
_cell_angle_gamma 90.000000
_cell_volume 1418.107310
_symmetry_space_group_name_H-M "P 2/M"
_symmetry_group_IT_number 10
_symmetry_cell_setting 'monoclinic'
loop_
_space_group_symop_operation_xyz
x,y,z
-x,y,-z
-x,-y,-z
x,-y,z
loop_
_atom_site_type_symbol
_atom_site_label
_atom_site_fract_x
_atom_site_fract_y
_atom_site_fract_z
Si Si1 0.334637 0.074994 0.848330
Si Si2 0.364589 0.788801 0.936125
Si Si3 0.320215 0.344610 0.851187
Si Si4 0.962713 0.793724 0.722479
Si Si5 0.684459 0.663146 0.489376
Si Si6 0.175733 0.422226 0.318952
Si Si7 0.862672 0.922674 0.473176
O O1 0.399223 0.137363 0.877324
O O2 0.524417 0.083002 0.665110
O O3 0.409053 0.000000 0.846042
O O4 0.000000 0.076327 0.000000
O O5 0.295471 0.731079 0.902025
O O6 0.671093 0.771330 0.822236
O O7 0.121709 0.792787 0.133485
O O8 0.488441 0.342603 0.674508
O O9 0.520997 0.386961 0.814996
O O10 0.000000 0.371948 0.000000
O O11 0.208418 0.739999 0.576924
O O12 0.040341 0.867009 0.644688
O O13 0.500000 0.642256 0.500000
O O14 0.970827 0.618672 0.357844
O O15 0.212506 0.500000 0.273872
O O16 0.000000 0.421306 0.500000
O O17 0.000000 0.910942 0.500000
O O18 0.928491 0.000000 0.414223
#
# Coordination Sequence:
#
# PCOD9150387 Si02
#       7
#     4   4   4   4   4   4   4
#     4  10  21  37  57  82 115 155 202 253 308 367
#     4  11  22  37  58  88 120 161 204 257 311 362
#     4  11  22  39  65  92 127 167 205 253 308 367
#     4  11  23  36  59  88 121 155 208 263 303 362
#     4  11  23  40  64  94 126 164 208 254 306 366
#     4   9  20  40  66  94 126 166 207 247 300 366
#     4  10  20  36  58  83 114 158 208 254 309 375
#
# _framework density 19.744627000000001
#
# number of rings (size 3 to 8) (size 9 to 14) (size 15 to 20)
#    0.000    1.571    2.857    2.143    0.000    2.286 
#    0.000    1.429    0.000    9.000    0.000    0.000 
#    0.000    0.000    0.000    0.000    0.000    0.000 
#
# Total GULP energy -156365.609110 kJ/mol
# GULP energy per Si atom -5584.486040 kJ/mol
# Density = 1.969969 g / cm^3
# Si number density = 19.744627 Si / 1000 Ang^3
#
#
#
# Elastic Constant Matrix: (Units=GPa)
#
#
# Indices 1 2 3 4 5 6 
#
# 1 102.9975 59.4840 44.2552 0.0000 -11.5862 0.0000
# 2 59.4840 122.9036 40.5508 0.0000 -4.1447 0.0000
# 3 44.2552 40.5508 110.3828 0.0000 -20.1755 0.0000
# 4 0.0000 0.0000 0.0000 13.9406 0.0000 -1.7672
# 5 -11.5862 -4.1447 -20.1755 0.0000 30.3275 0.0000
# 6 0.0000 0.0000 0.0000 -1.7672 0.0000 8.9391
#
#
#
# Elastic Compliance Matrix: (Units=1/GPa)
#
#
# Indices 1 2 3 4 5 6 
#
# 1 0.014907 -0.006047 -0.003261 0.000000 0.002699 0.000000
# 2 -0.006047 0.011747 -0.002299 0.000000 -0.002235 0.000000
# 3 -0.003261 -0.002299 0.012439 0.000000 0.006715 0.000000
# 4 0.000000 0.000000 0.000000 0.073577 0.000000 0.014545
# 5 0.002699 -0.002235 0.006715 0.000000 0.038166 0.000000
# 6 0.000000 0.000000 0.000000 0.014545 0.000000 0.114744
#
#
# Mechanical properties :
#
#
# Convention : Reuss Voigt Hill
#
# Bulk Modulus (GPa) = 62.98887 69.42933 66.20910
# Shear Modulus (GPa) = 17.00178 23.44103 20.22141
#
# Velocity S-wave (km/s) = 2.93761 3.44933 3.20370
# Velocity P-wave (km/s) = 6.59371 7.14869 6.87681
#
# Compressibility (1/GPa) = 0.01587582
#
# Stress axis : x y z
#
# Youngs Moduli (GPa) = 67.08477 85.13100 80.39276
#
# Poissons Ratio (x) = 0.51483 0.26220
# Poissons Ratio (y) = 0.40569 0.18483
# Poissons Ratio (z) = 0.21880 0.19573
#
# Static dielectric constant tensor:
#      x y z
#    x 1.708060 0.000000 -0.031440 
#    y 0.000000 1.678660 0.000000 
#    z -0.031440 0.000000 1.698960 
# 
# From -- ./inp_files/30420.got.cif
#   From: 2010.05.17/outbox.cif.g08.bks.cpg/sg10_16_cif.got.tgz:30420.got - 2010.06.03 11:33:40.
