data_PCOD9150603
_publ_section_title
;
Structure prediction by ZEFSAII (Michael W. Deem and Ramdas Pophale) SiO2 
 PCOD9150603
Probable space group: P 2/M
;
_chemical_formula_sum "Si O2"
_cell_formula_units_Z 32
_cell_length_a 26.387125
_cell_length_b 7.754098
_cell_length_c 17.919866
_cell_angle_alpha 90.000000
_cell_angle_beta 24.333920
_cell_angle_gamma 90.000000
_cell_volume 1510.817809
_symmetry_space_group_name_H-M "P 2/M"
_symmetry_group_IT_number 10
_symmetry_cell_setting 'monoclinic'
loop_
_space_group_symop_operation_xyz
x,y,z
-x,y,-z
-x,-y,-z
x,-y,z
loop_
_atom_site_type_symbol
_atom_site_label
_atom_site_fract_x
_atom_site_fract_y
_atom_site_fract_z
Si Si1 0.160651 0.791845 0.856019
Si Si2 0.683011 0.797533 0.634200
Si Si3 0.365042 0.294968 0.700408
Si Si4 0.000143 0.792851 0.585413
Si Si5 0.736667 0.292341 0.005455
Si Si6 0.885307 0.211187 0.250655
Si Si7 0.729180 0.790479 0.735105
Si Si8 0.427315 0.298992 0.910958
O O1 0.271992 0.730937 0.757096
O O2 0.163432 0.736678 0.765774
O O3 0.161874 0.000000 0.854768
O O4 0.027479 0.736030 0.066270
O O5 0.796116 0.724341 0.434986
O O6 0.673087 0.729736 0.731776
O O7 0.557722 0.781825 0.756492
O O8 0.709775 0.000000 0.607807
O O9 0.500000 0.223529 0.500000
O O10 0.379683 0.500000 0.692081
O O11 0.305283 0.226322 0.857299
O O12 0.127469 0.739877 0.453191
O O13 0.000000 0.727114 0.500000
O O14 0.876512 0.746774 0.794882
O O15 0.003226 0.000000 0.577317
O O16 0.727505 0.500000 0.017871
O O17 0.645478 0.226721 0.062724
O O18 0.884242 0.000000 0.252719
O O19 0.719875 0.000000 0.752823
O O20 0.659238 0.720507 0.900798
O O21 0.450833 0.500000 0.865645
#
# Coordination Sequence:
#
# PCOD9150603 Si02
#       8
#     4   4   4   4   4   4   4   4
#     4   9  18  36  61  85 112 142 182 230 279 332
#     4  10  21  36  57  81 111 148 185 225 278 336
#     4  10  23  41  59  81 116 155 189 231 284 338
#     4  10  20  36  60  88 114 144 188 236 278 332
#     4  10  23  40  57  81 113 153 192 230 285 339
#     4   8  17  35  58  85 113 143 177 228 287 331
#     4  10  21  37  57  83 114 147 183 225 280 334
#     4  11  23  38  56  79 111 148 190 233 274 325
#
# _framework density 21.180579999999999
#
# number of rings (size 3 to 8) (size 9 to 14) (size 15 to 20)
#    0.000    2.250    1.250    1.500    3.500    4.000 
#    0.000    1.875    0.000    0.000    0.000    0.000 
#    0.000    0.000    0.000    0.000    0.000    0.000 
#
# Total GULP energy -178710.664747 kJ/mol
# GULP energy per Si atom -5584.708273 kJ/mol
# Density = 2.113237 g / cm^3
# Si number density = 21.180580 Si / 1000 Ang^3
#
#
#
# Elastic Constant Matrix: (Units=GPa)
#
#
# Indices 1 2 3 4 5 6 
#
# 1 59.9390 -8.5030 34.6525 0.0000 -11.3655 0.0000
# 2 -8.5030 23.3459 -3.1730 0.0000 5.4188 0.0000
# 3 34.6525 -3.1730 99.5640 0.0000 1.7149 0.0000
# 4 0.0000 0.0000 0.0000 7.7427 0.0000 -4.9241
# 5 -11.3655 5.4188 1.7149 0.0000 24.4319 0.0000
# 6 0.0000 0.0000 0.0000 -4.9241 0.0000 27.2190
#
#
#
# Elastic Compliance Matrix: (Units=1/GPa)
#
#
# Indices 1 2 3 4 5 6 
#
# 1 0.024388 0.005223 -0.008507 0.000000 0.010784 0.000000
# 2 0.005223 0.046538 -0.000199 0.000000 -0.007878 0.000000
# 3 -0.008507 -0.000199 0.013082 0.000000 -0.004832 0.000000
# 4 0.000000 0.000000 0.000000 0.145944 0.000000 0.026402
# 5 0.010784 -0.007878 -0.004832 0.000000 0.048033 0.000000
# 6 0.000000 0.000000 0.000000 0.026402 0.000000 0.041515
#
#
# Mechanical properties :
#
#
# Convention : Reuss Voigt Hill
#
# Bulk Modulus (GPa) = 12.98013 25.42244 19.20128
# Shear Modulus (GPa) = 14.19868 22.53690 18.36779
#
# Velocity S-wave (km/s) = 2.59195 3.26550 2.94802
# Velocity P-wave (km/s) = 3.88577 5.12315 4.54675
#
# Compressibility (1/GPa) = 0.07704082
#
# Stress axis : x y z
#
# Youngs Moduli (GPa) = 41.00442 21.48789 76.44367
#
# Poissons Ratio (x) = -0.11224 0.65032
# Poissons Ratio (y) = -0.21418 0.01522
# Poissons Ratio (z) = 0.34883 0.00428
#
# Static dielectric constant tensor:
#      x y z
#    x 1.748650 0.000000 0.014860 
#    y 0.000000 1.795890 0.000000 
#    z 0.014860 0.000000 1.739020 
# 
# From -- ./inp_files/71447.got.cif
#   From: 2010.05.17/outbox.cif.g08.bks.cpg/sg10_36_cif.got.tgz:71447.got - 2010.06.03 11:33:40.
