data_PCOD9150359
_publ_section_title
;
Structure prediction by ZEFSAII (Michael W. Deem and Ramdas Pophale) SiO2 
 PCOD9150359
Probable space group: P 2/M
;
_chemical_formula_sum "Si O2"
_cell_formula_units_Z 32
_cell_length_a 22.180881
_cell_length_b 8.549391
_cell_length_c 11.632785
_cell_angle_alpha 90.000000
_cell_angle_beta 51.072738
_cell_angle_gamma 90.000000
_cell_volume 1716.114095
_symmetry_space_group_name_H-M "P 2/M"
_symmetry_group_IT_number 10
_symmetry_cell_setting 'monoclinic'
loop_
_space_group_symop_operation_xyz
x,y,z
-x,y,-z
-x,-y,-z
x,-y,z
loop_
_atom_site_type_symbol
_atom_site_label
_atom_site_fract_x
_atom_site_fract_y
_atom_site_fract_z
Si Si1 0.233523 0.187509 0.681353
Si Si2 0.628043 0.184323 0.331112
Si Si3 0.736574 0.685368 0.611251
Si Si4 0.953475 0.189177 0.731746
Si Si5 0.504360 0.814753 0.316115
Si Si6 0.882467 0.811369 0.575436
Si Si7 0.568839 0.813001 0.827738
Si Si8 0.077713 0.313165 0.976805
O O1 0.295217 0.249856 0.702078
O O2 0.250796 0.250664 0.533464
O O3 0.149331 0.233140 0.826945
O O4 0.241872 0.000000 0.665634
O O5 0.561897 0.191647 0.507922
O O6 0.584586 0.251680 0.271135
O O7 0.642936 0.000000 0.289686
O O8 0.740169 0.500000 0.602974
O O9 0.804970 0.746731 0.611440
O O10 0.651716 0.739008 0.754639
O O11 0.899947 0.235306 0.686729
O O12 0.041414 0.233661 0.590250
O O13 0.950957 0.000000 0.743104
O O14 0.929801 0.259661 0.881985
O O15 0.466175 0.746658 0.248741
O O16 0.518626 0.000000 0.276639
O O17 0.879045 0.000000 0.577949
O O18 0.582622 0.000000 0.798834
O O19 0.500000 0.791068 0.000000
O O20 0.087504 0.500000 0.961015
O O21 0.000000 0.272240 0.000000
#
# Coordination Sequence:
#
# PCOD9150359 Si02
#       8
#     4   4   4   4   4   4   4   4
#     4  11  21  36  59  84 111 146 195 245 286 331
#     4   8  14  26  51  80 104 132 172 228 279 322
#     4  12  24  37  56  83 117 152 189 232 290 353
#     4   9  19  38  63  89 114 146 191 243 287 328
#     4   8  13  27  51  79 106 130 170 223 276 328
#     4   9  19  38  64  89 113 145 193 243 283 331
#     4  10  20  36  58  82 108 144 189 237 286 335
#     4  11  24  39  55  82 122 160 190 226 282 348
#
# _framework density 18.64678
#
# number of rings (size 3 to 8) (size 9 to 14) (size 15 to 20)
#    0.000    2.250    1.250    4.125    0.000    4.250 
#    2.250    1.250    0.000    2.250    0.000    0.000 
#    0.000    0.000    0.000    0.000    0.000    0.000 
#
# Total GULP energy -178430.891200 kJ/mol
# GULP energy per Si atom -5575.965350 kJ/mol
# Density = 1.860434 g / cm^3
# Si number density = 18.646780 Si / 1000 Ang^3
#
#
#
# Elastic Constant Matrix: (Units=GPa)
#
#
# Indices 1 2 3 4 5 6 
#
# 1 163.0185 35.5062 38.3458 0.0000 -27.0225 0.0000
# 2 35.5062 35.5709 26.2327 0.0000 -8.0533 0.0000
# 3 38.3458 26.2327 47.6939 0.0000 -8.9851 0.0000
# 4 0.0000 0.0000 0.0000 -20.9276 0.0000 -14.5780
# 5 -27.0225 -8.0533 -8.9851 0.0000 20.6299 0.0000
# 6 0.0000 0.0000 0.0000 -14.5780 0.0000 -4.9240
#
#
#
# Elastic Compliance Matrix: (Units=1/GPa)
#
#
# Indices 1 2 3 4 5 6 
#
# 1 0.009483 -0.005131 -0.003093 0.000000 0.009071 0.000000
# 2 -0.005131 0.051246 -0.023486 0.000000 0.003055 0.000000
# 3 -0.003093 -0.023486 0.036910 0.000000 0.002855 0.000000
# 4 0.000000 0.000000 0.000000 0.044981 0.000000 -0.133170
# 5 0.009071 0.003055 0.002855 0.000000 0.062792 0.000000
# 6 0.000000 0.000000 0.000000 -0.133170 0.000000 0.191174
#
#
# Mechanical properties :
#
#
# Convention : Reuss Voigt Hill
#
# Bulk Modulus (GPa) = 29.22337 49.60587 39.41462
# Shear Modulus (GPa) = 10.60641 8.70223 9.65432
#
# Velocity S-wave (km/s) = 2.38755 2.16264 2.27787
# Velocity P-wave (km/s) = 4.82770 5.73556 5.30110
#
# Compressibility (1/GPa) = 0.03421919
#
# Stress axis : x y z
#
# Youngs Moduli (GPa) = 105.45035 19.51355 27.09304
#
# Poissons Ratio (x) = 0.10012 0.08381
# Poissons Ratio (y) = 0.54104 0.63631
# Poissons Ratio (z) = 0.32620 0.45829
#
# Static dielectric constant tensor:
#      x y z
#    x 1.693080 0.000000 0.005090 
#    y 0.000000 1.639180 0.000000 
#    z 0.005090 0.000000 1.615060 
# 
# From -- ./inp_files/55186.got.cif
#   From: 2010.05.17/outbox.cif.g08.bks.cpg/sg10_28_cif.got.tgz:55186.got - 2010.06.03 11:33:40.
