data_PCOD9150894
_publ_section_title
;
Structure prediction by ZEFSAII (Michael W. Deem and Ramdas Pophale) SiO2 
 PCOD9150894
Probable space group: P 2/M
;
_chemical_formula_sum "Si O2"
_cell_formula_units_Z 28
_cell_length_a 20.259051
_cell_length_b 8.758973
_cell_length_c 8.082717
_cell_angle_alpha 90.000000
_cell_angle_beta 124.602482
_cell_angle_gamma 90.000000
_cell_volume 1180.561103
_symmetry_space_group_name_H-M "P 2/M"
_symmetry_group_IT_number 10
_symmetry_cell_setting 'monoclinic'
loop_
_space_group_symop_operation_xyz
x,y,z
-x,y,-z
-x,-y,-z
x,-y,z
loop_
_atom_site_type_symbol
_atom_site_label
_atom_site_fract_x
_atom_site_fract_y
_atom_site_fract_z
Si Si1 0.098892 0.822220 0.993729
Si Si2 0.478795 0.821908 0.219138
Si Si3 0.658283 0.318734 0.167353
Si Si4 0.044593 0.324445 0.383695
Si Si5 0.388386 0.322078 0.392241
Si Si6 0.185703 0.319847 0.805492
Si Si7 0.764313 0.320177 0.619775
O O1 0.150278 0.779491 0.902309
O O2 0.009472 0.768074 0.820852
O O3 0.098447 0.000000 0.022039
O O4 0.149308 0.743904 0.211261
O O5 0.556059 0.718154 0.369536
O O6 0.422147 0.787402 0.298630
O O7 0.499227 0.000000 0.238496
O O8 0.422759 0.768808 0.989119
O O9 0.641993 0.500000 0.167200
O O10 0.721234 0.305844 0.104600
O O11 0.710786 0.256797 0.394211
O O12 0.043417 0.500000 0.328224
O O13 0.134427 0.282656 0.566299
O O14 0.000000 0.315796 0.500000
O O15 0.400961 0.500000 0.363720
O O16 0.296282 0.303047 0.311007
O O17 0.169491 0.500000 0.819948
O O18 0.773685 0.500000 0.600187
#
# Coordination Sequence:
#
# PCOD9150894 Si02
#       7
#     4   4   4   4   4   4   4
#     4  11  21  32  52  80 109 140 173 214 265 316
#     4  11  22  36  56  83 111 138 170 213 265 314
#     4  10  21  38  57  78 105 139 179 218 259 309
#     4   8  15  30  52  77 103 133 174 220 261 304
#     4  10  20  37  60  82 104 136 178 219 257 303
#     4   9  18  34  57  80 103 135 176 221 263 306
#     4  10  22  38  56  77 104 140 180 219 258 306
#
# _framework density 23.717533
#
# number of rings (size 3 to 8) (size 9 to 14) (size 15 to 20)
#    0.000    2.143    0.000    5.571    0.000    8.857 
#    0.000    3.571    0.000    4.286    0.000    0.000 
#    0.000    0.000    0.000    0.000    0.000    0.000 
#
# Total GULP energy -156628.169288 kJ/mol
# GULP energy per Si atom -5593.863189 kJ/mol
# Density = 2.366355 g / cm^3
# Si number density = 23.717533 Si / 1000 Ang^3
#
#
#
# Elastic Constant Matrix: (Units=GPa)
#
#
# Indices 1 2 3 4 5 6 
#
# 1 67.8245 3.7556 5.0218 0.0000 19.4945 0.0000
# 2 3.7556 61.0295 35.0615 0.0000 15.4923 0.0000
# 3 5.0218 35.0615 150.6669 0.0000 21.7892 0.0000
# 4 0.0000 0.0000 0.0000 36.4283 0.0000 -28.4738
# 5 19.4945 15.4923 21.7892 0.0000 48.2799 0.0000
# 6 0.0000 0.0000 0.0000 -28.4738 0.0000 28.1453
#
#
#
# Elastic Compliance Matrix: (Units=1/GPa)
#
#
# Indices 1 2 3 4 5 6 
#
# 1 0.016725 0.000579 0.000333 0.000000 -0.007089 0.000000
# 2 0.000579 0.019836 -0.003938 0.000000 -0.004822 0.000000
# 3 0.000333 -0.003938 0.007894 0.000000 -0.002434 0.000000
# 4 0.000000 0.000000 0.000000 0.131196 0.000000 0.132727
# 5 -0.007089 -0.004822 -0.002434 0.000000 0.026221 0.000000
# 6 0.000000 0.000000 0.000000 0.132727 0.000000 0.169806
#
#
# Mechanical properties :
#
#
# Convention : Reuss Voigt Hill
#
# Bulk Modulus (GPa) = 26.03919 40.79987 33.41953
# Shear Modulus (GPa) = 12.80306 38.28284 25.54295
#
# Velocity S-wave (km/s) = 2.32591 4.02196 3.28527
# Velocity P-wave (km/s) = 4.26800 6.22961 5.33966
#
# Compressibility (1/GPa) = 0.03840365
#
# Stress axis : x y z
#
# Youngs Moduli (GPa) = 59.79127 50.41264 126.67159
#
# Poissons Ratio (x) = -0.02919 -0.04219
# Poissons Ratio (y) = -0.03462 0.49884
# Poissons Ratio (z) = -0.01991 0.19853
#
# Static dielectric constant tensor:
#      x y z
#    x 1.977420 0.000000 -0.054890 
#    y 0.000000 1.783690 0.000000 
#    z -0.054890 0.000000 1.973160 
# 
# From -- ./inp_files/37250.got.cif
#   From: 2010.05.17/outbox.cif.g08.bks.cpg/sg10_19_cif.got.tgz:37250.got - 2010.06.03 11:33:40.
