data_PCOD9150755
_publ_section_title
;
Structure prediction by ZEFSAII (Michael W. Deem and Ramdas Pophale) SiO2 
 PCOD9150755
Probable space group: P 2/M
;
_chemical_formula_sum "Si O2"
_cell_formula_units_Z 28
_cell_length_a 10.098054
_cell_length_b 18.525813
_cell_length_c 8.990172
_cell_angle_alpha 90.000000
_cell_angle_beta 63.103148
_cell_angle_gamma 90.000000
_cell_volume 1499.896650
_symmetry_space_group_name_H-M "P 2/M"
_symmetry_group_IT_number 10
_symmetry_cell_setting 'monoclinic'
loop_
_space_group_symop_operation_xyz
x,y,z
-x,y,-z
-x,-y,-z
x,-y,z
loop_
_atom_site_type_symbol
_atom_site_label
_atom_site_fract_x
_atom_site_fract_y
_atom_site_fract_z
Si Si1 0.838317 0.081907 0.156434
Si Si2 0.169338 0.500000 0.966377
Si Si3 0.660325 0.500000 0.826810
Si Si4 0.691800 0.359384 0.253285
Si Si5 0.678642 0.784782 0.746669
Si Si6 0.679269 0.785432 0.090262
Si Si7 0.836449 0.081560 0.512663
Si Si8 0.664220 0.636161 0.606064
O O1 0.733680 0.142199 0.140831
O O2 0.847392 0.090411 0.329497
O O3 0.786548 0.000000 0.151509
O O4 0.000000 0.089751 0.000000
O O5 0.245721 0.428059 0.864097
O O6 0.207845 0.500000 0.120609
O O7 0.000000 0.500000 0.000000
O O8 0.677243 0.569505 0.712223
O O9 0.500000 0.500000 0.000000
O O10 0.737003 0.283821 0.153687
O O11 0.513349 0.358696 0.329027
O O12 0.731021 0.369346 0.406781
O O13 0.499669 0.785065 0.825631
O O14 0.740573 0.854889 0.632620
O O15 0.724067 0.709630 0.647828
O O16 0.727417 0.783825 0.893755
O O17 0.000000 0.085543 0.500000
O O18 0.778412 0.000000 0.571969
#
# Coordination Sequence:
#
# PCOD9150755 Si02
#       8
#     4   2   2   4   4   4   4   4
#     4  10  21  37  57  80 109 150 197 240 289 353
#     4  12  25  39  57  87 124 153 189 244 301 352
#     4  12  21  37  65  89 114 154 201 240 286 353
#     4  10  20  38  59  86 116 150 192 240 291 349
#     4  10  21  36  57  89 118 150 192 245 294 343
#     4  10  21  36  59  84 118 151 191 241 292 351
#     4  10  21  38  59  83 115 154 197 243 295 357
#     4  10  20  36  64  88 110 148 202 244 281 347
#
# _framework density 18.667953000000001
#
# number of rings (size 3 to 8) (size 9 to 14) (size 15 to 20)
#    0.000    1.714    1.429    3.000    2.000    5.714 
#    0.000    8.571    0.000    0.000    0.000    0.000 
#    0.000    0.000    0.000    0.000    0.000    0.000 
#
# Total GULP energy -156271.107730 kJ/mol
# GULP energy per Si atom -5581.110990 kJ/mol
# Density = 1.862546 g / cm^3
# Si number density = 18.667953 Si / 1000 Ang^3
#
#
#
# Elastic Constant Matrix: (Units=GPa)
#
#
# Indices 1 2 3 4 5 6 
#
# 1 48.8014 37.8934 28.4069 0.0000 32.0947 0.0000
# 2 37.8934 173.5090 88.9336 0.0000 28.8878 0.0000
# 3 28.4069 88.9336 123.2454 0.0000 37.3250 0.0000
# 4 0.0000 0.0000 0.0000 64.2538 0.0000 -15.0403
# 5 32.0947 28.8878 37.3250 0.0000 32.8441 0.0000
# 6 0.0000 0.0000 0.0000 -15.0403 0.0000 40.4982
#
#
#
# Elastic Compliance Matrix: (Units=1/GPa)
#
#
# Indices 1 2 3 4 5 6 
#
# 1 0.068967 -0.009644 0.013577 0.000000 -0.074340 0.000000
# 2 -0.009644 0.010510 -0.008257 0.000000 0.009564 0.000000
# 3 0.013577 -0.008257 0.019458 0.000000 -0.028117 0.000000
# 4 0.000000 0.000000 0.000000 0.017045 0.000000 0.006330
# 5 -0.074340 0.009564 -0.028117 0.000000 0.126632 0.000000
# 6 0.000000 0.000000 0.000000 0.006330 0.000000 0.027043
#
#
# Mechanical properties :
#
#
# Convention : Reuss Voigt Hill
#
# Bulk Modulus (GPa) = 11.07592 72.89151 41.98371
# Shear Modulus (GPa) = 16.21272 40.20734 28.21003
#
# Velocity S-wave (km/s) = 2.95019 4.64596 3.89157
# Velocity P-wave (km/s) = 4.18937 8.24081 6.53689
#
# Compressibility (1/GPa) = 0.09028599
#
# Stress axis : x y z
#
# Youngs Moduli (GPa) = 14.49967 95.15094 51.39153
#
# Poissons Ratio (x) = 0.91762 -0.69773
# Poissons Ratio (y) = 0.13983 0.42436
# Poissons Ratio (z) = -0.19686 0.78570
#
# Static dielectric constant tensor:
#      x y z
#    x 1.630480 0.000000 -0.003030 
#    y 0.000000 1.629800 0.000000 
#    z -0.003030 0.000000 1.669890 
# 
# From -- ./inp_files/25257.got.cif
#   From: 2010.05.17/outbox.cif.g08.bks.cpg/sg10_13_cif.got.tgz:25257.got - 2010.06.03 11:33:40.
