data_PCOD9150284
_publ_section_title
;
Structure prediction by ZEFSAII (Michael W. Deem and Ramdas Pophale) SiO2 
 PCOD9150284
Probable space group: P 2/M
;
_chemical_formula_sum "Si O2"
_cell_formula_units_Z 32
_cell_length_a 13.464941
_cell_length_b 12.638676
_cell_length_c 9.263358
_cell_angle_alpha 90.000000
_cell_angle_beta 77.323833
_cell_angle_gamma 90.000000
_cell_volume 1538.005216
_symmetry_space_group_name_H-M "P 2/M"
_symmetry_group_IT_number 10
_symmetry_cell_setting 'monoclinic'
loop_
_space_group_symop_operation_xyz
x,y,z
-x,y,-z
-x,-y,-z
x,-y,z
loop_
_atom_site_type_symbol
_atom_site_label
_atom_site_fract_x
_atom_site_fract_y
_atom_site_fract_z
Si Si1 0.240770 0.271042 0.172603
Si Si2 0.906000 0.382201 0.450723
Si Si3 0.032213 0.335576 0.145048
Si Si4 0.674494 0.374570 0.589451
Si Si5 0.811227 0.118635 0.553390
Si Si6 0.387773 0.821932 0.557665
Si Si7 0.277119 0.125375 0.886350
Si Si8 0.933263 0.879582 0.223576
O O1 0.149449 0.349055 0.151669
O O2 0.322349 0.335145 0.244649
O O3 0.191855 0.190993 0.305458
O O4 0.279970 0.201696 0.025157
O O5 0.900320 0.500000 0.518355
O O6 0.790054 0.349045 0.497280
O O7 0.000000 0.325658 0.500000
O O8 0.948767 0.383509 0.277686
O O9 0.013533 0.209059 0.158560
O O10 0.000000 0.373092 0.000000
O O11 0.654916 0.500000 0.583781
O O12 0.610007 0.297543 0.508098
O O13 0.700615 0.124090 0.510701
O O14 0.890837 0.141233 0.398940
O O15 0.832213 0.000000 0.594922
O O16 0.500000 0.867563 0.500000
O O17 0.352029 0.834584 0.734628
O O18 0.164665 0.131578 0.849877
O O19 0.296130 0.000000 0.911454
O O20 0.970292 0.000000 0.202051
#
# Coordination Sequence:
#
# PCOD9150284 Si02
#       8
#     4   4   4   4   4   4   4   4
#     4  11  21  34  54  81 118 156 194 234 290 347
#     4  10  20  36  57  81 108 147 196 239 282 332
#     4  12  22  31  50  77 114 154 192 239 281 330
#     4  10  22  41  63  84 116 155 194 245 293 341
#     4   9  19  35  54  77 110 150 192 236 284 340
#     4  10  21  39  66  90 111 144 193 242 294 358
#     4  10  20  36  57  85 122 153 185 235 292 344
#     4   9  19  33  48  73 109 152 196 231 269 328
#
# _framework density 20.806172
#
# number of rings (size 3 to 8) (size 9 to 14) (size 15 to 20)
#    0.000    1.875    2.500    3.750    0.000    2.750 
#    0.000    4.375    0.000    4.500    0.000    0.000 
#    0.000    0.000    0.000    0.000    0.000    0.000 
#
# Total GULP energy -178532.795161 kJ/mol
# GULP energy per Si atom -5579.149849 kJ/mol
# Density = 2.075882 g / cm^3
# Si number density = 20.806172 Si / 1000 Ang^3
#
#
#
# Elastic Constant Matrix: (Units=GPa)
#
#
# Indices 1 2 3 4 5 6 
#
# 1 67.7257 2.6262 21.7555 0.0000 -3.3404 0.0000
# 2 2.6262 98.4427 23.5275 0.0000 4.7328 0.0000
# 3 21.7555 23.5275 127.7369 0.0000 5.2838 0.0000
# 4 0.0000 0.0000 0.0000 11.8369 0.0000 4.9423
# 5 -3.3404 4.7328 5.2838 0.0000 12.4296 0.0000
# 6 0.0000 0.0000 0.0000 4.9423 0.0000 10.4376
#
#
#
# Elastic Compliance Matrix: (Units=1/GPa)
#
#
# Indices 1 2 3 4 5 6 
#
# 1 0.015988 0.000013 -0.002955 0.000000 0.005548 0.000000
# 2 0.000013 0.010758 -0.001847 0.000000 -0.003308 0.000000
# 3 -0.002955 -0.001847 0.008831 0.000000 -0.003845 0.000000
# 4 0.000000 0.000000 0.000000 0.105299 0.000000 -0.049860
# 5 0.005548 -0.003308 -0.003845 0.000000 0.084838 0.000000
# 6 0.000000 0.000000 0.000000 -0.049860 0.000000 0.119417
#
#
# Mechanical properties :
#
#
# Convention : Reuss Voigt Hill
#
# Bulk Modulus (GPa) = 38.46221 43.30263 40.88242
# Shear Modulus (GPa) = 13.75988 23.34056 18.55022
#
# Velocity S-wave (km/s) = 2.57444 3.35298 2.98916
# Velocity P-wave (km/s) = 5.23097 5.98728 5.62186
#
# Compressibility (1/GPa) = 0.02599954
#
# Stress axis : x y z
#
# Youngs Moduli (GPa) = 62.54788 92.95168 113.23669
#
# Poissons Ratio (x) = -0.00121 0.33459
# Poissons Ratio (y) = -0.00081 0.20914
# Poissons Ratio (z) = 0.18482 0.17167
#
# Static dielectric constant tensor:
#      x y z
#    x 1.747810 0.000000 0.030080 
#    y 0.000000 1.858120 0.000000 
#    z 0.030080 0.000000 1.791710 
# 
# From -- ./inp_files/29037.got.cif
#   From: 2010.05.17/outbox.cif.g08.bks.cpg/sg10_15_cif.got.tgz:29037.got - 2010.06.03 11:33:40.
