data_PCOD9150414
_publ_section_title
;
Structure prediction by ZEFSAII (Michael W. Deem and Ramdas Pophale) SiO2 
 PCOD9150414
Probable space group: P 2/M
;
_chemical_formula_sum "Si O2"
_cell_formula_units_Z 32
_cell_length_a 11.929607
_cell_length_b 13.991176
_cell_length_c 17.570588
_cell_angle_alpha 90.000000
_cell_angle_beta 150.198822
_cell_angle_gamma 90.000000
_cell_volume 1457.524545
_symmetry_space_group_name_H-M "P 2/M"
_symmetry_group_IT_number 10
_symmetry_cell_setting 'monoclinic'
loop_
_space_group_symop_operation_xyz
x,y,z
-x,y,-z
-x,-y,-z
x,-y,z
loop_
_atom_site_type_symbol
_atom_site_label
_atom_site_fract_x
_atom_site_fract_y
_atom_site_fract_z
Si Si1 0.259305 0.613325 0.017883
Si Si2 0.236732 0.608231 0.667354
Si Si3 0.529810 0.884944 0.679540
Si Si4 0.804022 0.891535 0.702800
Si Si5 0.924775 0.198958 0.614229
Si Si6 0.207739 0.185555 0.025901
Si Si7 0.597290 0.887161 0.143062
Si Si8 0.084932 0.395602 0.745814
O O1 0.214022 0.500000 0.008766
O O2 0.508330 0.638783 0.197545
O O3 0.122132 0.704776 0.967653
O O4 0.224435 0.621111 0.905455
O O5 0.225908 0.500000 0.629378
O O6 0.234585 0.602836 0.757873
O O7 0.000000 0.655068 0.500000
O O8 0.595481 0.856927 0.631658
O O9 0.284641 0.843546 0.554560
O O10 0.706597 0.839728 0.840776
O O11 0.531674 0.000000 0.685888
O O12 0.898917 0.843120 0.683576
O O13 0.758927 0.000000 0.654412
O O14 0.011101 0.884368 0.883390
O O15 0.162354 0.166736 0.718267
O O16 0.915387 0.311441 0.625030
O O17 0.417658 0.162815 0.092573
O O18 0.624104 0.000000 0.178632
O O19 0.500000 0.882599 0.000000
O O20 0.977070 0.500000 0.689775
#
# Coordination Sequence:
#
# PCOD9150414 Si02
#       8
#     4   4   4   4   4   4   4   4
#     4  10  20  36  58  85 120 163 211 257 299 363
#     4   9  18  31  53  84 119 161 205 249 301 358
#     4  11  26  43  64  94 125 159 207 265 316 365
#     4  11  22  43  70  90 117 161 215 263 306 369
#     4  12  23  40  64  94 126 165 205 254 314 378
#     4  12  23  40  64  94 126 165 205 254 314 378
#     4  11  21  35  60  91 126 162 200 248 310 384
#     4  10  20  36  58  85 120 163 211 257 299 363
#
# _framework density 21.955034000000001
#
# number of rings (size 3 to 8) (size 9 to 14) (size 15 to 20)
#    0.000    1.250    2.500    4.125    1.750    4.000 
#    0.000    1.250    0.000    4.500    0.000    0.000 
#    0.000    0.000    0.000    0.000    0.000    0.000 
#
# Total GULP energy -178548.213788 kJ/mol
# GULP energy per Si atom -5579.631681 kJ/mol
# Density = 2.190506 g / cm^3
# Si number density = 21.955034 Si / 1000 Ang^3
#
#
#
# Elastic Constant Matrix: (Units=GPa)
#
#
# Indices 1 2 3 4 5 6 
#
# 1 58.8990 11.4996 -3.4443 0.0000 3.6565 0.0000
# 2 11.4996 125.5724 11.2899 0.0000 -2.0017 0.0000
# 3 -3.4443 11.2899 56.9774 0.0000 -6.0631 0.0000
# 4 0.0000 0.0000 0.0000 6.7945 0.0000 -9.3621
# 5 3.6565 -2.0017 -6.0631 0.0000 35.7957 0.0000
# 6 0.0000 0.0000 0.0000 -9.3621 0.0000 4.6603
#
#
#
# Elastic Compliance Matrix: (Units=1/GPa)
#
#
# Indices 1 2 3 4 5 6 
#
# 1 0.017493 -0.001739 0.001224 0.000000 -0.001677 0.000000
# 2 -0.001739 0.008282 -0.001709 0.000000 0.000351 0.000000
# 3 0.001224 -0.001709 0.018269 0.000000 0.002874 0.000000
# 4 0.000000 0.000000 0.000000 -0.083242 0.000000 -0.167226
# 5 -0.001677 0.000351 0.002874 0.000000 0.028614 0.000000
# 6 0.000000 0.000000 0.000000 -0.167226 0.000000 -0.121362
#
#
# Mechanical properties :
#
#
# Convention : Reuss Voigt Hill
#
# Bulk Modulus (GPa) = 25.25466 31.12656 28.19061
# Shear Modulus (GPa) = -43.74485 24.25700 -9.74392
#
# Velocity S-wave (km/s) = -4.46856 3.32753 -2.10897
# Velocity P-wave (km/s) = 3.88537 5.38252 2.63395
#
# Compressibility (1/GPa) = 0.03959665
#
# Stress axis : x y z
#
# Youngs Moduli (GPa) = 57.16455 120.74387 54.73699
#
# Poissons Ratio (x) = 0.20994 -0.06697
# Poissons Ratio (y) = 0.09939 0.09353
# Poissons Ratio (z) = -0.06994 0.20632
#
# Static dielectric constant tensor:
#      x y z
#    x 1.834850 0.000000 0.015040 
#    y 0.000000 1.822040 0.000000 
#    z 0.015040 0.000000 1.849430 
# 
# From -- ./inp_files/77036.got.cif
#   From: 2010.05.17/outbox.cif.g08.bks.cpg/sg10_39_cif.got.tgz:77036.got - 2010.06.03 11:33:40.
