data_PCOD9150469
_publ_section_title
;
Structure prediction by ZEFSAII (Michael W. Deem and Ramdas Pophale) SiO2 
 PCOD9150469
Probable space group: P 2/M
;
_chemical_formula_sum "Si O2"
_cell_formula_units_Z 32
_cell_length_a 27.796520
_cell_length_b 9.129739
_cell_length_c 20.787726
_cell_angle_alpha 90.000000
_cell_angle_beta 19.216921
_cell_angle_gamma 90.000000
_cell_volume 1736.375855
_symmetry_space_group_name_H-M "P 2/M"
_symmetry_group_IT_number 10
_symmetry_cell_setting 'monoclinic'
loop_
_space_group_symop_operation_xyz
x,y,z
-x,y,-z
-x,-y,-z
x,-y,z
loop_
_atom_site_type_symbol
_atom_site_label
_atom_site_fract_x
_atom_site_fract_y
_atom_site_fract_z
Si Si1 0.166096 0.174686 0.921163
Si Si2 0.153987 0.169413 0.436540
Si Si3 0.843599 0.325013 0.812826
Si Si4 0.664930 0.830584 0.925624
Si Si5 0.908802 0.668850 0.182448
Si Si6 0.591372 0.330493 0.817256
Si Si7 0.316344 0.175450 0.867328
Si Si8 0.659391 0.825304 0.427958
O O1 0.240961 0.207888 0.894255
O O2 0.274100 0.215375 0.725852
O O3 0.143815 0.000000 0.945525
O O4 0.012157 0.253001 0.103525
O O5 0.243769 0.169332 0.256217
O O6 0.258657 0.246549 0.356552
O O7 0.005623 0.257533 0.612746
O O8 0.123688 0.000000 0.491934
O O9 0.849285 0.500000 0.801453
O O10 0.757600 0.257522 0.860811
O O11 0.758582 0.269154 0.982916
O O12 0.645032 0.000000 0.970624
O O13 0.510906 0.753463 0.104316
O O14 0.886878 0.500000 0.226306
O O15 0.756584 0.747028 0.359141
O O16 0.000000 0.677460 0.000000
O O17 0.615292 0.500000 0.769419
O O18 0.500000 0.329902 0.000000
O O19 0.488635 0.207910 0.646701
O O20 0.299629 0.000000 0.900757
O O21 0.677479 0.000000 0.411955
#
# Coordination Sequence:
#
# PCOD9150469 Si02
#       8
#     4   4   4   4   4   4   4   4
#     4   9  17  32  56  82 105 133 172 217 263 312
#     4  10  20  36  59  84 109 140 179 221 266 318
#     4  12  25  38  53  76 109 146 183 224 270 318
#     4  10  20  36  59  84 109 140 179 221 266 318
#     4   9  17  29  48  77 110 139 168 208 258 311
#     4   9  17  31  54  85 116 141 170 214 266 317
#     4  10  21  37  55  76 105 139 177 220 266 318
#     4   9  17  32  56  82 105 133 172 217 263 312
#
# _framework density 18.429190999999999
#
# number of rings (size 3 to 8) (size 9 to 14) (size 15 to 20)
#    0.000    2.250    0.000    3.375    0.000    8.500 
#    0.000    1.250    0.000    8.250    0.000    0.000 
#    0.000    0.000    0.000    0.000    0.000    0.000 
#
# Total GULP energy -178645.816413 kJ/mol
# GULP energy per Si atom -5582.681763 kJ/mol
# Density = 1.838725 g / cm^3
# Si number density = 18.429191 Si / 1000 Ang^3
#
#
#
# Elastic Constant Matrix: (Units=GPa)
#
#
# Indices 1 2 3 4 5 6 
#
# 1 74.3633 78.1033 90.3963 0.0000 -50.1988 0.0000
# 2 78.1033 137.2672 72.4923 0.0000 -35.8284 0.0000
# 3 90.3963 72.4923 59.8816 0.0000 -42.1850 0.0000
# 4 0.0000 0.0000 0.0000 19.4229 0.0000 0.9669
# 5 -50.1988 -35.8284 -42.1850 0.0000 38.5273 0.0000
# 6 0.0000 0.0000 0.0000 0.9669 0.0000 19.2902
#
#
#
# Elastic Compliance Matrix: (Units=1/GPa)
#
#
# Indices 1 2 3 4 5 6 
#
# 1 -0.004721 -0.011150 0.039305 0.000000 0.026516 0.000000
# 2 -0.011150 0.016878 -0.012149 0.000000 -0.012134 0.000000
# 3 0.039305 -0.012149 0.000837 0.000000 0.040831 0.000000
# 4 0.000000 0.000000 0.000000 0.051615 0.000000 -0.002587
# 5 0.026516 -0.012134 0.040831 0.000000 0.093927 0.000000
# 6 0.000000 0.000000 0.000000 -0.002587 0.000000 0.051970
#
#
# Mechanical properties :
#
#
# Convention : Reuss Voigt Hill
#
# Bulk Modulus (GPa) = 22.21921 83.72176 52.97048
# Shear Modulus (GPa) = 25.84035 17.48275 21.66155
#
# Velocity S-wave (km/s) = 3.74858 3.08335 3.43212
# Velocity P-wave (km/s) = 5.55144 7.62913 6.67166
#
# Compressibility (1/GPa) = 0.04500610
#
# Stress axis : x y z
#
# Youngs Moduli (GPa) = -211.82501 59.24902 1194.45583
#
# Poissons Ratio (x) = 0.66063 -46.94757
# Poissons Ratio (y) = -2.36185 14.51100
# Poissons Ratio (z) = 8.32569 0.71979
#
# Static dielectric constant tensor:
#      x y z
#    x 1.616030 0.000000 0.008630 
#    y 0.000000 1.619170 0.000000 
#    z 0.008630 0.000000 1.617400 
# 
# From -- ./inp_files/86782.got.cif
#   From: 2010.05.17/outbox.cif.g08.bks.cpg/sg10_44_cif.got.tgz:86782.got - 2010.06.03 11:33:40.
