data_PCOD9150890
_publ_section_title
;
Structure prediction by ZEFSAII (Michael W. Deem and Ramdas Pophale) SiO2 
 PCOD9150890
Probable space group: P 2/M
;
_chemical_formula_sum "Si O2"
_cell_formula_units_Z 28
_cell_length_a 25.532697
_cell_length_b 7.563794
_cell_length_c 9.712114
_cell_angle_alpha 90.000000
_cell_angle_beta 36.674978
_cell_angle_gamma 90.000000
_cell_volume 1120.274498
_symmetry_space_group_name_H-M "P 2/M"
_symmetry_group_IT_number 10
_symmetry_cell_setting 'monoclinic'
loop_
_space_group_symop_operation_xyz
x,y,z
-x,y,-z
-x,-y,-z
x,-y,z
loop_
_atom_site_type_symbol
_atom_site_label
_atom_site_fract_x
_atom_site_fract_y
_atom_site_fract_z
Si Si1 0.409914 0.215487 0.266039
Si Si2 0.768000 0.702222 0.515596
Si Si3 0.522759 0.798163 0.596899
Si Si4 0.333878 0.708729 0.019667
Si Si5 0.783335 0.785655 0.966734
Si Si6 0.948386 0.799224 0.463064
Si Si7 0.882970 0.791962 0.025006
O O1 0.322996 0.284444 0.377194
O O2 0.417078 0.275597 0.409777
O O3 0.405655 0.000000 0.275954
O O4 0.500000 0.267409 0.000000
O O5 0.792785 0.500000 0.486037
O O6 0.741255 0.780377 0.719359
O O7 0.843326 0.777239 0.259574
O O8 0.500000 0.707580 0.500000
O O9 0.552258 0.000000 0.507177
O O10 0.424326 0.802320 0.866670
O O11 0.344751 0.500000 0.022803
O O12 0.306348 0.734191 0.918895
O O13 0.857993 0.715299 0.703692
O O14 0.784552 0.000000 0.965788
O O15 0.813427 0.726140 0.055503
O O16 0.000000 0.810418 0.500000
O O17 0.928040 0.000000 0.459594
O O18 0.019705 0.717037 0.209314
O O19 0.892793 0.000000 0.974549
#
# Coordination Sequence:
#
# PCOD9150890 Si02
#       7
#     4   4   4   4   4   4   4
#     4  10  20  37  60  81 102 136 181 224 268 317
#     4  11  24  38  53  77 113 151 184 219 263 318
#     4  10  22  39  59  82 107 135 175 226 274 321
#     4  11  24  39  53  76 113 152 184 216 264 321
#     4   9  18  34  59  85 109 139 178 226 275 320
#     4   7  12  28  54  83 109 134 171 222 274 319
#     4   9  18  34  59  86 109 137 179 227 272 321
#
# _framework density 24.993874000000002
#
# number of rings (size 3 to 8) (size 9 to 14) (size 15 to 20)
#    0.000    2.429    1.429    2.571    2.000    3.429 
#    0.000    1.429    0.000    6.857    0.000    0.000 
#    0.000    0.000    0.000    0.000    0.000    0.000 
#
# Total GULP energy -156307.299896 kJ/mol
# GULP energy per Si atom -5582.403568 kJ/mol
# Density = 2.493699 g / cm^3
# Si number density = 24.993874 Si / 1000 Ang^3
#
#
#
# Elastic Constant Matrix: (Units=GPa)
#
#
# Indices 1 2 3 4 5 6 
#
# 1 62.7638 -7.6711 -16.5743 0.0000 15.8279 0.0000
# 2 -7.6711 68.7850 -0.7465 0.0000 -0.0847 0.0000
# 3 -16.5743 -0.7465 94.0008 0.0000 15.7316 0.0000
# 4 0.0000 0.0000 0.0000 -19.5294 0.0000 46.7116
# 5 15.8279 -0.0847 15.7316 0.0000 39.6324 0.0000
# 6 0.0000 0.0000 0.0000 46.7116 0.0000 -31.8959
#
#
#
# Elastic Compliance Matrix: (Units=1/GPa)
#
#
# Indices 1 2 3 4 5 6 
#
# 1 0.020161 0.002293 0.005270 0.000000 -0.010139 0.000000
# 2 0.002293 0.014800 0.000718 0.000000 -0.001169 0.000000
# 3 0.005270 0.000718 0.012774 0.000000 -0.007173 0.000000
# 4 0.000000 0.000000 0.000000 0.020458 0.000000 0.029961
# 5 -0.010139 -0.001169 -0.007173 0.000000 0.032126 0.000000
# 6 0.000000 0.000000 0.000000 0.029961 0.000000 0.012526
#
#
# Mechanical properties :
#
#
# Convention : Reuss Voigt Hill
#
# Bulk Modulus (GPa) = 15.55296 19.50730 17.53013
# Shear Modulus (GPa) = 42.47481 14.34419 28.40950
#
# Velocity S-wave (km/s) = 4.12686 2.39824 3.37509
# Velocity P-wave (km/s) = 5.37998 3.93580 4.71353
#
# Compressibility (1/GPa) = 0.06429644
#
# Stress axis : x y z
#
# Youngs Moduli (GPa) = 49.59949 67.56694 78.28635
#
# Poissons Ratio (x) = -0.15494 -0.41256
# Poissons Ratio (y) = -0.11374 -0.05617
# Poissons Ratio (z) = -0.26138 -0.04848
#
# Static dielectric constant tensor:
#      x y z
#    x 1.934900 0.000000 0.000070 
#    y 0.000000 1.955990 0.000000 
#    z 0.000070 0.000000 2.094030 
# 
# From -- ./inp_files/36999.got.cif
#   From: 2010.05.17/outbox.cif.g08.bks.cpg/sg10_19_cif.got.tgz:36999.got - 2010.06.03 11:33:40.
