data_PCOD9150079
_publ_section_title
;
Structure prediction by ZEFSAII (Michael W. Deem and Ramdas Pophale) SiO2 
 PCOD9150079
Probable space group: P 2/M
;
_chemical_formula_sum "Si O2"
_cell_formula_units_Z 24
_cell_length_a 17.225819
_cell_length_b 15.192486
_cell_length_c 9.416065
_cell_angle_alpha 90.000000
_cell_angle_beta 29.089061
_cell_angle_gamma 90.000000
_cell_volume 1198.022661
_symmetry_space_group_name_H-M "P 2/M"
_symmetry_group_IT_number 10
_symmetry_cell_setting 'monoclinic'
loop_
_space_group_symop_operation_xyz
x,y,z
-x,y,-z
-x,-y,-z
x,-y,z
loop_
_atom_site_type_symbol
_atom_site_label
_atom_site_fract_x
_atom_site_fract_y
_atom_site_fract_z
Si Si1 0.496391 0.667653 0.336286
Si Si2 0.825892 0.335028 0.291164
Si Si3 0.244534 0.000000 0.222243
Si Si4 0.832128 0.869125 0.205754
Si Si5 0.499308 0.153730 0.842967
Si Si6 0.673197 0.598778 0.799299
Si Si7 0.111533 0.000000 0.118450
O O1 0.500000 0.661703 0.500000
O O2 0.327508 0.628296 0.548286
O O3 0.507914 0.768831 0.261768
O O4 0.637558 0.622439 0.019471
O O5 0.839236 0.236538 0.205979
O O6 0.779679 0.337160 0.531827
O O7 0.000000 0.377464 0.000000
O O8 0.180710 0.000000 0.164172
O O9 0.081304 0.000000 0.572668
O O10 0.355703 0.085085 0.065881
O O11 0.669994 0.893137 0.546605
O O12 0.000000 0.900825 0.000000
O O13 0.825566 0.913574 0.063179
O O14 0.500000 0.193846 0.000000
O O15 0.738705 0.500000 0.682708
O O16 0.500000 0.599330 0.000000
#
# Coordination Sequence:
#
# PCOD9150079 Si02
#       7
#     4   4   2   4   4   4   2
#     4  10  21  36  60  90 118 152 195 242 291 342
#     4   9  19  36  60  87 116 155 196 235 286 347
#     4  11  26  39  56  79 116 150 199 238 294 338
#     4  10  20  35  59  80 113 149 193 234 287 337
#     4  11  22  38  61  82 110 151 200 243 279 346
#     4   9  18  36  61  88 120 156 193 235 283 348
#     4  11  24  39  52  81 117 153 184 249 296 338
#
# _framework density 20.033007999999999
#
# number of rings (size 3 to 8) (size 9 to 14) (size 15 to 20)
#    0.000    2.000    0.000    4.500    4.667    2.667 
#    0.000    0.833    0.000    1.000    0.000    0.000 
#    0.000    0.000    0.000    0.000    0.000    0.000 
#
# Total GULP energy -133761.116239 kJ/mol
# GULP energy per Si atom -5573.379843 kJ/mol
# Density = 1.998741 g / cm^3
# Si number density = 20.033008 Si / 1000 Ang^3
#
#
#
# Elastic Constant Matrix: (Units=GPa)
#
#
# Indices 1 2 3 4 5 6 
#
# 1 84.7622 8.5763 53.7935 0.0000 24.6695 0.0000
# 2 8.5763 58.1607 18.0444 0.0000 6.3894 0.0000
# 3 53.7935 18.0444 148.3087 0.0000 12.0665 0.0000
# 4 0.0000 0.0000 0.0000 5.9066 0.0000 6.6660
# 5 24.6695 6.3894 12.0665 0.0000 46.4690 0.0000
# 6 0.0000 0.0000 0.0000 6.6660 0.0000 33.6303
#
#
#
# Elastic Compliance Matrix: (Units=1/GPa)
#
#
# Indices 1 2 3 4 5 6 
#
# 1 0.017795 0.000053 -0.005814 0.000000 -0.007944 0.000000
# 2 0.000053 0.018040 -0.002053 0.000000 -0.001975 0.000000
# 3 -0.005814 -0.002053 0.009018 0.000000 0.001027 0.000000
# 4 0.000000 0.000000 0.000000 0.218088 0.000000 -0.043228
# 5 -0.007944 -0.001975 0.001027 0.000000 0.025742 0.000000
# 6 0.000000 0.000000 0.000000 -0.043228 0.000000 0.038304
#
#
# Mechanical properties :
#
#
# Convention : Reuss Voigt Hill
#
# Bulk Modulus (GPa) = 34.22026 50.22889 42.22458
# Shear Modulus (GPa) = 14.19019 31.25567 22.72293
#
# Velocity S-wave (km/s) = 2.66435 3.95423 3.37155
# Velocity P-wave (km/s) = 5.15597 6.78052 6.02327
#
# Compressibility (1/GPa) = 0.02922245
#
# Stress axis : x y z
#
# Youngs Moduli (GPa) = 56.19706 55.43236 110.89095
#
# Poissons Ratio (x) = -0.00292 0.64476
# Poissons Ratio (y) = -0.00296 0.22769
# Poissons Ratio (z) = 0.32675 0.11382
#
# Static dielectric constant tensor:
#      x y z
#    x 1.697750 0.000000 -0.017020 
#    y 0.000000 1.744840 0.000000 
#    z -0.017020 0.000000 1.736830 
# 
# From -- ./inp_files/32972.got.cif
#   From: 2010.05.17/outbox.cif.g08.bks.cpg/sg10_17_cif.got.tgz:32972.got - 2010.06.03 11:33:40.
