data_PCOD9150424
_publ_section_title
;
Structure prediction by ZEFSAII (Michael W. Deem and Ramdas Pophale) SiO2 
 PCOD9150424
Probable space group: P 2/M
;
_chemical_formula_sum "Si O2"
_cell_formula_units_Z 32
_cell_length_a 18.915215
_cell_length_b 11.379481
_cell_length_c 14.649557
_cell_angle_alpha 90.000000
_cell_angle_beta 31.604741
_cell_angle_gamma 90.000000
_cell_volume 1652.480117
_symmetry_space_group_name_H-M "P 2/M"
_symmetry_group_IT_number 10
_symmetry_cell_setting 'monoclinic'
loop_
_space_group_symop_operation_xyz
x,y,z
-x,y,-z
-x,-y,-z
x,-y,z
loop_
_atom_site_type_symbol
_atom_site_label
_atom_site_fract_x
_atom_site_fract_y
_atom_site_fract_z
Si Si1 0.279995 0.867053 0.315906
Si Si2 0.281686 0.639080 0.803977
Si Si3 0.442236 0.128263 0.665472
Si Si4 0.254148 0.635647 0.623549
Si Si5 0.014901 0.780693 0.380265
Si Si6 0.006138 0.636466 0.780778
Si Si7 0.557993 0.764598 0.699236
Si Si8 0.684346 0.862972 0.931128
O O1 0.340414 0.789980 0.329811
O O2 0.333019 0.835495 0.156963
O O3 0.118312 0.859304 0.486504
O O4 0.321965 0.000000 0.288468
O O5 0.329453 0.500000 0.759671
O O6 0.362132 0.747785 0.761026
O O7 0.278911 0.673897 0.699933
O O8 0.132164 0.641994 0.010316
O O9 0.500000 0.126462 0.500000
O O10 0.555036 0.140392 0.620204
O O11 0.372444 0.000000 0.756145
O O12 0.219958 0.500000 0.673114
O O13 0.385109 0.652002 0.416277
O O14 0.127081 0.690108 0.709211
O O15 0.011041 0.693728 0.299100
O O16 0.158103 0.846104 0.220238
O O17 0.000000 0.729539 0.500000
O O18 0.038571 0.500000 0.729056
O O19 0.411120 0.778140 0.905786
O O20 0.648104 0.000000 0.985848
#
# Coordination Sequence:
#
# PCOD9150424 Si02
#       8
#     4   4   4   4   4   4   4   4
#     4  10  20  36  59  85 112 150 199 241 284 351
#     4  10  21  40  66  88 112 155 209 254 294 355
#     4  11  23  37  55  84 124 159 190 240 303 357
#     4  10  21  38  61  87 113 148 197 253 297 345
#     4  10  20  36  58  87 118 152 188 237 298 354
#     4  10  20  37  61  87 113 147 197 250 300 350
#     4  12  21  36  58  83 115 160 193 233 294 360
#     4  10  21  36  57  86 118 150 193 243 287 341
#
# _framework density 19.364832
#
# number of rings (size 3 to 8) (size 9 to 14) (size 15 to 20)
#    0.000    1.625    2.500    3.000    0.000    5.000 
#    0.000    1.250    0.000    3.000    0.000    0.000 
#    0.000    0.000    0.000    0.000    0.000    0.000 
#
# Total GULP energy -178219.396884 kJ/mol
# GULP energy per Si atom -5569.356153 kJ/mol
# Density = 1.932076 g / cm^3
# Si number density = 19.364832 Si / 1000 Ang^3
#
#
#
# Elastic Constant Matrix: (Units=GPa)
#
#
# Indices 1 2 3 4 5 6 
#
# 1 120.3117 28.7106 24.2442 0.0000 6.7516 0.0000
# 2 28.7106 61.2870 4.9582 0.0000 -1.8669 0.0000
# 3 24.2442 4.9582 67.6459 0.0000 1.3587 0.0000
# 4 0.0000 0.0000 0.0000 -3.3277 0.0000 -26.1015
# 5 6.7516 -1.8669 1.3587 0.0000 34.9869 0.0000
# 6 0.0000 0.0000 0.0000 -26.1015 0.0000 -12.7522
#
#
#
# Elastic Compliance Matrix: (Units=1/GPa)
#
#
# Indices 1 2 3 4 5 6 
#
# 1 0.010177 -0.004566 -0.003271 0.000000 -0.002081 0.000000
# 2 -0.004566 0.018493 0.000244 0.000000 0.001859 0.000000
# 3 -0.003271 0.000244 0.015937 0.000000 0.000025 0.000000
# 4 0.000000 0.000000 0.000000 0.019961 0.000000 -0.040857
# 5 -0.002081 0.001859 0.000025 0.000000 0.029082 0.000000
# 6 0.000000 0.000000 0.000000 -0.040857 0.000000 0.005209
#
#
# Mechanical properties :
#
#
# Convention : Reuss Voigt Hill
#
# Bulk Modulus (GPa) = 33.99096 40.56340 37.27718
# Shear Modulus (GPa) = 40.37051 16.53683 28.45367
#
# Velocity S-wave (km/s) = 4.57084 2.92543 3.83737
# Velocity P-wave (km/s) = 6.74150 5.69239 6.23904
#
# Compressibility (1/GPa) = 0.02941959
#
# Stress axis : x y z
#
# Youngs Moduli (GPa) = 98.25712 54.07523 62.74769
#
# Poissons Ratio (x) = 0.24693 0.20525
# Poissons Ratio (y) = 0.44869 -0.01530
# Poissons Ratio (z) = 0.32141 -0.01318
#
# Static dielectric constant tensor:
#      x y z
#    x 1.729150 0.000000 -0.029240 
#    y 0.000000 1.679310 0.000000 
#    z -0.029240 0.000000 1.694310 
# 
# From -- ./inp_files/69145.got.cif
#   From: 2010.05.17/outbox.cif.g08.bks.cpg/sg10_35_cif.got.tgz:69145.got - 2010.06.03 11:33:40.
