data_PCOD9150637
_publ_section_title
;
Structure prediction by ZEFSAII (Michael W. Deem and Ramdas Pophale) SiO2 
 PCOD9150637
Probable space group: P 2/M
;
_chemical_formula_sum "Si O2"
_cell_formula_units_Z 26
_cell_length_a 14.625258
_cell_length_b 7.387296
_cell_length_c 12.123586
_cell_angle_alpha 90.000000
_cell_angle_beta 71.640495
_cell_angle_gamma 90.000000
_cell_volume 1243.173057
_symmetry_space_group_name_H-M "P 2/M"
_symmetry_group_IT_number 10
_symmetry_cell_setting 'monoclinic'
loop_
_space_group_symop_operation_xyz
x,y,z
-x,y,-z
-x,-y,-z
x,-y,z
loop_
_atom_site_type_symbol
_atom_site_label
_atom_site_fract_x
_atom_site_fract_y
_atom_site_fract_z
Si Si1 0.884333 0.000000 0.854861
Si Si2 0.201214 0.717058 0.498390
Si Si3 0.543755 0.719272 0.865546
Si Si4 0.359470 0.292949 0.804328
Si Si5 0.605576 0.291121 0.466137
Si Si6 0.898615 0.000000 0.311208
Si Si7 0.233996 0.283871 0.234499
Si Si8 0.797283 0.000000 0.112155
O O1 0.826377 0.827311 0.830570
O O2 0.990979 0.000000 0.766122
O O3 0.879039 0.000000 0.988888
O O4 0.195269 0.500000 0.520545
O O5 0.309352 0.780158 0.490452
O O6 0.129535 0.827326 0.603226
O O7 0.190353 0.749496 0.372753
O O8 0.547427 0.500000 0.861308
O O9 0.464553 0.772441 0.804764
O O10 0.653840 0.776681 0.808602
O O11 0.500000 0.774228 0.000000
O O12 0.348367 0.500000 0.847052
O O13 0.357004 0.291087 0.673045
O O14 0.273284 0.170299 0.878538
O O15 0.500000 0.206704 0.500000
O O16 0.591028 0.500000 0.510402
O O17 0.837020 0.000000 0.221446
O O18 0.231681 0.500000 0.215427
#
# Coordination Sequence:
#
# PCOD9150637 Si02
#       8
#     2   4   4   4   4   2   4   2
#     4  12  28  45  65  88 118 163 216 272 318 366
#     4  10  21  40  67  94 126 161 199 256 318 377
#     4   9  17  32  57  89 127 168 204 241 292 360
#     4  10  20  36  60  91 127 164 202 246 301 369
#     4   9  16  30  56  90 125 161 196 234 291 362
#     4  12  26  46  65  89 121 159 213 272 324 365
#     4  10  22  42  66  96 129 163 205 254 312 375
#     4  12  25  43  64  89 121 164 215 263 314 369
#
# _framework density 20.914223
#
# number of rings (size 3 to 8) (size 9 to 14) (size 15 to 20)
#    0.000    1.846    1.538    2.538    0.000    8.000 
#    0.000    6.154    0.000    2.769    0.000    0.000 
#    0.000    0.000    0.000    0.000    0.000    0.000 
#
# Total GULP energy -145296.564987 kJ/mol
# GULP energy per Si atom -5588.329423 kJ/mol
# Density = 2.086662 g / cm^3
# Si number density = 20.914223 Si / 1000 Ang^3
#
#
#
# Elastic Constant Matrix: (Units=GPa)
#
#
# Indices 1 2 3 4 5 6 
#
# 1 64.2074 24.9419 22.7046 0.0000 -15.8164 0.0000
# 2 24.9419 91.5429 39.3387 0.0000 -7.6969 0.0000
# 3 22.7046 39.3387 99.3572 0.0000 -19.2684 0.0000
# 4 0.0000 0.0000 0.0000 14.5992 0.0000 1.9171
# 5 -15.8164 -7.6969 -19.2684 0.0000 36.3023 0.0000
# 6 0.0000 0.0000 0.0000 1.9171 0.0000 15.7482
#
#
#
# Elastic Compliance Matrix: (Units=1/GPa)
#
#
# Indices 1 2 3 4 5 6 
#
# 1 0.019350 -0.004057 -0.001502 0.000000 0.006773 0.000000
# 2 -0.004057 0.014014 -0.004892 0.000000 -0.001393 0.000000
# 3 -0.001502 -0.004892 0.013395 0.000000 0.005419 0.000000
# 4 0.000000 0.000000 0.000000 0.069610 0.000000 -0.008474
# 5 0.006773 -0.001393 0.005419 0.000000 0.033078 0.000000
# 6 0.000000 0.000000 0.000000 -0.008474 0.000000 0.064531
#
#
# Mechanical properties :
#
#
# Convention : Reuss Voigt Hill
#
# Bulk Modulus (GPa) = 38.67228 47.67532 43.17380
# Shear Modulus (GPa) = 20.53390 24.53808 22.53599
#
# Velocity S-wave (km/s) = 3.13679 3.42902 3.28616
# Velocity P-wave (km/s) = 5.62586 6.20667 5.92339
#
# Compressibility (1/GPa) = 0.02585832
#
# Stress axis : x y z
#
# Youngs Moduli (GPa) = 51.67912 71.35577 74.65210
#
# Poissons Ratio (x) = 0.28951 0.11212
# Poissons Ratio (y) = 0.20968 0.36517
# Poissons Ratio (z) = 0.07761 0.34905
#
# Static dielectric constant tensor:
#      x y z
#    x 1.730670 0.000000 0.008250 
#    y 0.000000 1.782480 0.000000 
#    z 0.008250 0.000000 1.736190 
# 
# From -- ./inp_files/49021.got.cif
#   From: 2010.05.17/outbox.cif.g08.bks.cpg/sg10_25_cif.got.tgz:49021.got - 2010.06.03 11:33:40.
