data_PCOD9150932
_publ_section_title
;
Structure prediction by ZEFSAII (Michael W. Deem and Ramdas Pophale) SiO2 
 PCOD9150932
Probable space group: P 2/M
;
_chemical_formula_sum "Si O2"
_cell_formula_units_Z 28
_cell_length_a 14.197787
_cell_length_b 22.416112
_cell_length_c 8.421111
_cell_angle_alpha 90.000000
_cell_angle_beta 31.700785
_cell_angle_gamma 90.000000
_cell_volume 1408.345665
_symmetry_space_group_name_H-M "P 2/M"
_symmetry_group_IT_number 10
_symmetry_cell_setting 'monoclinic'
loop_
_space_group_symop_operation_xyz
x,y,z
-x,y,-z
-x,-y,-z
x,-y,z
loop_
_atom_site_type_symbol
_atom_site_label
_atom_site_fract_x
_atom_site_fract_y
_atom_site_fract_z
Si Si1 0.534829 0.070497 0.262045
Si Si2 0.190701 0.433039 0.633667
Si Si3 0.671599 0.325082 0.366698
Si Si4 0.974382 0.653207 0.351497
Si Si5 0.313902 0.252961 0.346960
Si Si6 0.852753 0.929106 0.331208
Si Si7 0.173386 0.854857 0.341465
O O1 0.500000 0.076829 0.500000
O O2 0.349005 0.083697 0.437157
O O3 0.581310 0.000000 0.166228
O O4 0.683503 0.116094 0.983813
O O5 0.263591 0.500000 0.525987
O O6 0.317551 0.383960 0.535578
O O7 0.126537 0.407047 0.557963
O O8 0.000000 0.433985 0.000000
O O9 0.500000 0.323120 0.500000
O O10 0.677290 0.267538 0.476820
O O11 0.844625 0.333605 0.006300
O O12 0.000000 0.653210 0.500000
O O13 0.842781 0.705240 0.489144
O O14 0.265711 0.189779 0.335569
O O15 0.500000 0.271677 0.000000
O O16 0.893199 0.907590 0.449237
O O17 0.867599 0.000000 0.306055
O O18 0.000000 0.902906 0.000000
O O19 0.000000 0.828669 0.500000
#
# Coordination Sequence:
#
# PCOD9150932 Si02
#       7
#     4   4   4   4   4   4   4
#     4  10  21  40  65  91 121 155 191 234 290 355
#     4   8  16  32  55  86 123 159 195 240 291 344
#     4  10  21  38  63  88 116 157 199 245 296 352
#     4  10  20  37  60  86 118 156 200 242 291 351
#     4  11  23  41  61  83 113 150 198 249 298 348
#     4  10  21  38  61  89 120 153 189 233 286 343
#     4  12  25  40  60  87 117 152 194 241 292 348
#
# _framework density 19.881484
#
# number of rings (size 3 to 8) (size 9 to 14) (size 15 to 20)
#    0.000    1.857    0.000    5.143    0.000    5.143 
#    0.000    8.571    0.000   14.571    0.000    0.000 
#    0.000    0.000    0.000    0.000    0.000    0.000 
#
# Total GULP energy -156164.960115 kJ/mol
# GULP energy per Si atom -5577.320004 kJ/mol
# Density = 1.983623 g / cm^3
# Si number density = 19.881484 Si / 1000 Ang^3
#
#
#
# Elastic Constant Matrix: (Units=GPa)
#
#
# Indices 1 2 3 4 5 6 
#
# 1 146.7265 43.6805 46.8075 0.0000 1.4024 0.0000
# 2 43.6805 70.8705 44.0853 0.0000 -8.7735 0.0000
# 3 46.8075 44.0853 90.2326 0.0000 5.5022 0.0000
# 4 0.0000 0.0000 0.0000 -92.9942 0.0000 100.0006
# 5 1.4024 -8.7735 5.5022 0.0000 27.6564 0.0000
# 6 0.0000 0.0000 0.0000 100.0006 0.0000 -64.7210
#
#
#
# Elastic Compliance Matrix: (Units=1/GPa)
#
#
# Indices 1 2 3 4 5 6 
#
# 1 0.008834 -0.004008 -0.002550 0.000000 -0.001212 0.000000
# 2 -0.004008 0.024279 -0.010391 0.000000 0.009973 0.000000
# 3 -0.002550 -0.010391 0.017892 0.000000 -0.006727 0.000000
# 4 0.000000 0.000000 0.000000 0.016256 0.000000 0.025117
# 5 -0.001212 0.009973 -0.006727 0.000000 0.040721 0.000000
# 6 0.000000 0.000000 0.000000 0.025117 0.000000 0.023357
#
#
# Mechanical properties :
#
#
# Convention : Reuss Voigt Hill
#
# Bulk Modulus (GPa) = 58.45826 64.10846 61.28336
# Shear Modulus (GPa) = 29.25002 -14.46135 7.39434
#
# Velocity S-wave (km/s) = 3.83981 -2.69992 1.93062
# Velocity P-wave (km/s) = 7.00900 4.75351 5.98840
#
# Compressibility (1/GPa) = 0.01710622
#
# Stress axis : x y z
#
# Youngs Moduli (GPa) = 113.20139 41.18774 55.89008
#
# Poissons Ratio (x) = 0.16510 0.14253
# Poissons Ratio (y) = 0.45375 0.58075
# Poissons Ratio (z) = 0.28868 0.42798
#
# Static dielectric constant tensor:
#      x y z
#    x 1.688050 0.000000 -0.018160 
#    y 0.000000 1.743110 0.000000 
#    z -0.018160 0.000000 1.672240 
# 
# From -- ./inp_files/30412.got.cif
#   From: 2010.05.17/outbox.cif.g08.bks.cpg/sg10_16_cif.got.tgz:30412.got - 2010.06.03 11:33:40.
