data_PCOD9150916
_publ_section_title
;
Structure prediction by ZEFSAII (Michael W. Deem and Ramdas Pophale) SiO2 
 PCOD9150916
Probable space group: P 2/M
;
_chemical_formula_sum "Si O2"
_cell_formula_units_Z 28
_cell_length_a 29.605334
_cell_length_b 8.664267
_cell_length_c 9.250853
_cell_angle_alpha 90.000000
_cell_angle_beta 38.865731
_cell_angle_gamma 90.000000
_cell_volume 1489.002933
_symmetry_space_group_name_H-M "P 2/M"
_symmetry_group_IT_number 10
_symmetry_cell_setting 'monoclinic'
loop_
_space_group_symop_operation_xyz
x,y,z
-x,y,-z
-x,-y,-z
x,-y,z
loop_
_atom_site_type_symbol
_atom_site_label
_atom_site_fract_x
_atom_site_fract_y
_atom_site_fract_z
Si Si1 0.653404 0.814088 0.454939
Si Si2 0.344383 0.317543 0.225994
Si Si3 0.074413 0.813367 0.234149
Si Si4 0.787303 0.316349 0.945432
Si Si5 0.071007 0.187914 0.908222
Si Si6 0.494863 0.822326 0.837343
Si Si7 0.212202 0.814819 0.377538
O O1 0.662411 0.744306 0.592759
O O2 0.574175 0.768852 0.592663
O O3 0.653473 0.000000 0.467558
O O4 0.717620 0.758247 0.194541
O O5 0.333720 0.500000 0.250697
O O6 0.284647 0.235970 0.277472
O O7 0.425068 0.275705 0.972800
O O8 0.142033 0.739148 0.145310
O O9 0.000000 0.775021 0.500000
O O10 0.082597 0.000000 0.218501
O O11 0.071187 0.764340 0.074805
O O12 0.781452 0.500000 0.965815
O O13 0.792265 0.259458 0.768713
O O14 0.143500 0.234022 0.644909
O O15 0.069382 0.000000 0.912389
O O16 0.000000 0.240867 0.000000
O O17 0.483488 0.000000 0.820498
O O18 0.500000 0.821941 0.000000
O O19 0.210412 0.000000 0.367895
#
# Coordination Sequence:
#
# PCOD9150916 Si02
#       7
#     4   4   4   4   4   4   4
#     4  10  20  37  60  84 112 150 196 238 282 344
#     4  11  21  34  56  87 120 150 186 236 291 342
#     4  10  20  37  63  90 116 150 192 234 281 344
#     4  12  25  39  56  82 117 151 190 244 300 345
#     4   9  18  34  59  89 113 139 184 236 278 323
#     4   8  16  32  55  82 111 146 190 236 281 338
#     4  11  22  38  59  80 111 155 198 238 283 343
#
# _framework density 18.804528999999999
#
# number of rings (size 3 to 8) (size 9 to 14) (size 15 to 20)
#    0.000    1.857    0.000    6.000    0.000    6.857 
#    0.000    1.429    0.000    7.286    0.000    0.000 
#    0.000    0.000    0.000    0.000    0.000    0.000 
#
# Total GULP energy -156420.699611 kJ/mol
# GULP energy per Si atom -5586.453558 kJ/mol
# Density = 1.876173 g / cm^3
# Si number density = 18.804529 Si / 1000 Ang^3
#
#
#
# Elastic Constant Matrix: (Units=GPa)
#
#
# Indices 1 2 3 4 5 6 
#
# 1 96.2950 -1.0096 57.3508 0.0000 -5.8021 0.0000
# 2 -1.0096 32.0965 19.2493 0.0000 -4.2286 0.0000
# 3 57.3508 19.2493 141.6429 0.0000 -11.0738 0.0000
# 4 0.0000 0.0000 0.0000 9.4859 0.0000 11.7316
# 5 -5.8021 -4.2286 -11.0738 0.0000 32.3191 0.0000
# 6 0.0000 0.0000 0.0000 11.7316 0.0000 -5.6771
#
#
#
# Elastic Compliance Matrix: (Units=1/GPa)
#
#
# Indices 1 2 3 4 5 6 
#
# 1 0.014225 0.004338 -0.006273 0.000000 0.000972 0.000000
# 2 0.004338 0.035517 -0.006328 0.000000 0.003257 0.000000
# 3 -0.006273 -0.006328 0.010591 0.000000 0.001675 0.000000
# 4 0.000000 0.000000 0.000000 0.029648 0.000000 0.061267
# 5 0.000972 0.003257 0.001675 0.000000 0.032116 0.000000
# 6 0.000000 0.000000 0.000000 0.061267 0.000000 -0.049539
#
#
# Mechanical properties :
#
#
# Convention : Reuss Voigt Hill
#
# Bulk Modulus (GPa) = 22.82835 46.80170 34.81503
# Shear Modulus (GPa) = 48.22186 20.18849 34.20518
#
# Velocity S-wave (km/s) = 5.06946 3.28013 4.26958
# Velocity P-wave (km/s) = 6.81411 6.26804 6.54677
#
# Compressibility (1/GPa) = 0.04380517
#
# Stress axis : x y z
#
# Youngs Moduli (GPa) = 70.29916 28.15549 94.42020
#
# Poissons Ratio (x) = -0.12213 0.59231
# Poissons Ratio (y) = -0.30494 0.59753
# Poissons Ratio (z) = 0.44100 0.17818
#
# Static dielectric constant tensor:
#      x y z
#    x 1.621180 0.000000 -0.008820 
#    y 0.000000 1.625060 0.000000 
#    z -0.008820 0.000000 1.649140 
# 
# From -- ./inp_files/37030.got.cif
#   From: 2010.05.17/outbox.cif.g08.bks.cpg/sg10_19_cif.got.tgz:37030.got - 2010.06.03 11:33:40.
