data_PCOD9150899
_publ_section_title
;
Structure prediction by ZEFSAII (Michael W. Deem and Ramdas Pophale) SiO2 
 PCOD9150899
Probable space group: P 2/M
;
_chemical_formula_sum "Si O2"
_cell_formula_units_Z 28
_cell_length_a 26.005611
_cell_length_b 9.185213
_cell_length_c 9.533976
_cell_angle_alpha 90.000000
_cell_angle_beta 142.150860
_cell_angle_gamma 90.000000
_cell_volume 1397.348504
_symmetry_space_group_name_H-M "P 2/M"
_symmetry_group_IT_number 10
_symmetry_cell_setting 'monoclinic'
loop_
_space_group_symop_operation_xyz
x,y,z
-x,y,-z
-x,-y,-z
x,-y,z
loop_
_atom_site_type_symbol
_atom_site_label
_atom_site_fract_x
_atom_site_fract_y
_atom_site_fract_z
Si Si1 0.537788 0.834218 0.423708
Si Si2 0.250004 0.827601 0.497317
Si Si3 0.184851 0.829360 0.053616
Si Si4 0.911602 0.670841 0.728867
Si Si5 0.983216 0.333083 0.299496
Si Si6 0.304524 0.672822 0.120232
Si Si7 0.621552 0.326075 0.028338
O O1 0.500000 0.841891 0.500000
O O2 0.622257 0.744124 0.628040
O O3 0.468237 0.751413 0.182854
O O4 0.553063 0.000000 0.408534
O O5 0.241926 0.803664 0.313494
O O6 0.163431 0.768597 0.377663
O O7 0.258643 0.000000 0.541486
O O8 0.325575 0.741147 0.731562
O O9 0.219626 0.741444 0.995963
O O10 0.184227 0.000000 0.021384
O O11 0.092954 0.773451 0.895937
O O12 0.888423 0.500000 0.694906
O O13 0.935629 0.699453 0.619062
O O14 0.000000 0.693424 0.000000
O O15 0.958544 0.500000 0.209676
O O16 0.000000 0.326411 0.500000
O O17 0.303409 0.500000 0.135075
O O18 0.327002 0.703250 0.006138
O O19 0.612022 0.500000 0.019896
#
# Coordination Sequence:
#
# PCOD9150899 Si02
#       7
#     4   4   4   4   4   4   4
#     4   9  17  33  58  87 119 151 185 229 283 338
#     4  11  24  39  57  83 117 153 191 237 286 337
#     4  11  24  40  57  82 117 154 191 234 288 340
#     4  10  20  37  60  82 108 148 192 232 280 338
#     4  10  22  39  59  83 113 147 188 236 284 338
#     4  10  21  37  60  87 116 151 191 235 283 336
#     4  10  21  37  60  88 116 149 192 236 280 336
#
# _framework density 20.037949999999999
#
# number of rings (size 3 to 8) (size 9 to 14) (size 15 to 20)
#    0.000    1.857    1.429    2.143    2.000    6.286 
#    0.000    0.714    0.000    4.286    0.000    0.000 
#    0.000    0.000    0.000    0.000    0.000    0.000 
#
# Total GULP energy -156447.442453 kJ/mol
# GULP energy per Si atom -5587.408659 kJ/mol
# Density = 1.999234 g / cm^3
# Si number density = 20.037950 Si / 1000 Ang^3
#
#
#
# Elastic Constant Matrix: (Units=GPa)
#
#
# Indices 1 2 3 4 5 6 
#
# 1 35.5385 10.6173 -17.4122 0.0000 -7.7262 0.0000
# 2 10.6173 76.6854 29.0209 0.0000 -10.4317 0.0000
# 3 -17.4122 29.0209 60.8800 0.0000 -4.8385 0.0000
# 4 0.0000 0.0000 0.0000 29.5895 0.0000 9.2256
# 5 -7.7262 -10.4317 -4.8385 0.0000 17.9158 0.0000
# 6 0.0000 0.0000 0.0000 9.2256 0.0000 -108.1497
#
#
#
# Elastic Compliance Matrix: (Units=1/GPa)
#
#
# Indices 1 2 3 4 5 6 
#
# 1 0.045107 -0.011219 0.019698 0.000000 0.018240 0.000000
# 2 -0.011219 0.019715 -0.012344 0.000000 0.003308 0.000000
# 3 0.019698 -0.012344 0.028663 0.000000 0.009049 0.000000
# 4 0.000000 0.000000 0.000000 0.032920 0.000000 0.002808
# 5 0.018240 0.003308 0.009049 0.000000 0.068053 0.000000
# 6 0.000000 0.000000 0.000000 0.002808 0.000000 -0.009007
#
#
# Mechanical properties :
#
#
# Convention : Reuss Voigt Hill
#
# Bulk Modulus (GPa) = 11.66085 24.17289 17.91687
# Shear Modulus (GPa) = 22.54651 -2.07038 10.23807
#
# Velocity S-wave (km/s) = 3.35802 -1.01758 2.26284
# Velocity P-wave (km/s) = 4.56806 3.27248 3.97343
#
# Compressibility (1/GPa) = 0.08575701
#
# Stress axis : x y z
#
# Youngs Moduli (GPa) = 22.16955 50.72330 34.88830
#
# Poissons Ratio (x) = 0.56905 -0.68724
# Poissons Ratio (y) = 0.24871 0.43065
# Poissons Ratio (z) = -0.43670 0.62611
#
# Static dielectric constant tensor:
#      x y z
#    x 1.713140 0.000000 -0.016410 
#    y 0.000000 1.671770 0.000000 
#    z -0.016410 0.000000 1.708270 
# 
# From -- ./inp_files/37231.got.cif
#   From: 2010.05.17/outbox.cif.g08.bks.cpg/sg10_19_cif.got.tgz:37231.got - 2010.06.03 11:33:40.
