data_PCOD9150155
_publ_section_title
;
Structure prediction by ZEFSAII (Michael W. Deem and Ramdas Pophale) SiO2 
 PCOD9150155
Probable space group: P 2/M
;
_chemical_formula_sum "Si O2"
_cell_formula_units_Z 32
_cell_length_a 13.788519
_cell_length_b 18.791500
_cell_length_c 11.739456
_cell_angle_alpha 90.000000
_cell_angle_beta 31.920388
_cell_angle_gamma 90.000000
_cell_volume 1608.309161
_symmetry_space_group_name_H-M "P 2/M"
_symmetry_group_IT_number 10
_symmetry_cell_setting 'monoclinic'
loop_
_space_group_symop_operation_xyz
x,y,z
-x,y,-z
-x,-y,-z
x,-y,z
loop_
_atom_site_type_symbol
_atom_site_label
_atom_site_fract_x
_atom_site_fract_y
_atom_site_fract_z
Si Si1 0.714968 0.574386 0.308194
Si Si2 0.801714 0.581002 0.960333
Si Si3 0.294077 0.156934 0.808644
Si Si4 0.928438 0.680529 0.444710
Si Si5 0.423259 0.582014 0.205763
Si Si6 0.796798 0.724705 0.252847
Si Si7 0.321374 0.084121 0.543193
Si Si8 0.068503 0.821246 0.684307
O O1 0.500000 0.569531 0.500000
O O2 0.777781 0.500000 0.298771
O O3 0.742980 0.646879 0.344420
O O4 0.804570 0.582758 0.094339
O O5 0.851965 0.500000 0.874020
O O6 0.932200 0.640907 0.779740
O O7 0.594711 0.592379 0.120348
O O8 0.317316 0.236530 0.733087
O O9 0.245242 0.109979 0.744070
O O10 0.482342 0.123458 0.664900
O O11 0.130826 0.162474 0.062504
O O12 0.733084 0.641334 0.626258
O O13 0.935939 0.765706 0.414676
O O14 0.000000 0.665809 0.500000
O O15 0.355754 0.500000 0.289620
O O16 0.500000 0.586048 0.000000
O O17 0.813109 0.774736 0.344018
O O18 0.000000 0.721044 0.000000
O O19 0.184887 0.106430 0.577018
O O20 0.348098 0.000000 0.520903
#
# Coordination Sequence:
#
# PCOD9150155 Si02
#       8
#     4   4   4   4   4   4   4   4
#     4  10  22  35  50  76 112 158 202 236 277 341
#     4  10  21  38  57  81 113 150 197 251 304 350
#     4   9  18  34  55  88 121 150 183 225 281 341
#     4  12  24  39  59  84 113 152 200 250 301 352
#     4  10  21  38  61  86 110 145 198 263 321 345
#     4   9  18  33  50  72 107 148 188 227 276 332
#     4  10  20  35  61  94 120 152 187 221 280 350
#     4  10  23  36  54  86 117 153 189 232 288 344
#
# _framework density 19.896673
#
# number of rings (size 3 to 8) (size 9 to 14) (size 15 to 20)
#    0.000    2.000    1.250    3.750    5.250    3.250 
#    0.000    0.625    0.000    0.375    0.000    0.875 
#    0.000    0.000    0.000    0.000    0.000    0.000 
#
# Total GULP energy -178561.163356 kJ/mol
# GULP energy per Si atom -5580.036355 kJ/mol
# Density = 1.985139 g / cm^3
# Si number density = 19.896673 Si / 1000 Ang^3
#
#
#
# Elastic Constant Matrix: (Units=GPa)
#
#
# Indices 1 2 3 4 5 6 
#
# 1 45.2738 18.7118 19.3923 0.0000 -5.3333 0.0000
# 2 18.7118 107.6666 38.5088 0.0000 -12.2396 0.0000
# 3 19.3923 38.5088 80.4790 0.0000 -10.2266 0.0000
# 4 0.0000 0.0000 0.0000 14.4466 0.0000 -0.0108
# 5 -5.3333 -12.2396 -10.2266 0.0000 23.6102 0.0000
# 6 0.0000 0.0000 0.0000 -0.0108 0.0000 29.9853
#
#
#
# Elastic Compliance Matrix: (Units=1/GPa)
#
#
# Indices 1 2 3 4 5 6 
#
# 1 0.025379 -0.002481 -0.004617 0.000000 0.002447 0.000000
# 2 -0.002481 0.011760 -0.004578 0.000000 0.003553 0.000000
# 3 -0.004617 -0.004578 0.016185 0.000000 0.003594 0.000000
# 4 0.000000 0.000000 0.000000 0.069221 0.000000 0.000025
# 5 0.002447 0.003553 0.003594 0.000000 0.046306 0.000000
# 6 0.000000 0.000000 0.000000 0.000025 0.000000 0.033350
#
#
# Mechanical properties :
#
#
# Convention : Reuss Voigt Hill
#
# Bulk Modulus (GPa) = 33.36400 42.96057 38.16229
# Shear Modulus (GPa) = 21.22735 24.06219 22.64477
#
# Velocity S-wave (km/s) = 3.26986 3.48135 3.37726
# Velocity P-wave (km/s) = 5.57324 6.14805 5.86769
#
# Compressibility (1/GPa) = 0.02997243
#
# Stress axis : x y z
#
# Youngs Moduli (GPa) = 39.40226 85.03071 61.78392
#
# Poissons Ratio (x) = 0.21097 0.28527
# Poissons Ratio (y) = 0.09776 0.28284
# Poissons Ratio (z) = 0.18193 0.38926
#
# Static dielectric constant tensor:
#      x y z
#    x 1.760540 0.000000 -0.014820 
#    y 0.000000 1.805050 0.000000 
#    z -0.014820 0.000000 1.713010 
# 
# From -- ./inp_files/51927.got.cif
#   From: 2010.05.17/outbox.cif.g08.bks.cpg/sg10_26_cif.got.tgz:51927.got - 2010.06.03 11:33:40.
