data_PCOD9150593
_publ_section_title
;
Structure prediction by ZEFSAII (Michael W. Deem and Ramdas Pophale) SiO2 
 PCOD9150593
Probable space group: P 2/M
;
_chemical_formula_sum "Si O2"
_cell_formula_units_Z 16
_cell_length_a 7.198174
_cell_length_b 13.338982
_cell_length_c 8.665231
_cell_angle_alpha 90.000000
_cell_angle_beta 64.512687
_cell_angle_gamma 90.000000
_cell_volume 751.033443
_symmetry_space_group_name_H-M "P 2/M"
_symmetry_group_IT_number 10
_symmetry_cell_setting 'monoclinic'
loop_
_space_group_symop_operation_xyz
x,y,z
-x,y,-z
-x,-y,-z
x,-y,z
loop_
_atom_site_type_symbol
_atom_site_label
_atom_site_fract_x
_atom_site_fract_y
_atom_site_fract_z
Si Si1 0.717718 0.381773 0.709608
Si Si2 0.106140 0.276210 0.658494
Si Si3 0.217718 0.881772 0.209609
Si Si4 0.606140 0.223790 0.158494
O O1 0.702103 0.500000 0.699695
O O2 0.089859 0.351010 0.250111
O O3 0.589859 0.148991 0.750111
O O4 0.509357 0.328258 0.835450
O O5 0.227015 0.329436 0.475254
O O6 0.250000 0.250000 0.750000
O O7 0.990643 0.171742 0.664550
O O8 0.202103 0.000000 0.199696
O O9 0.272986 0.829436 0.024746
#
# Coordination Sequence:
#
# PCOD9150593 Si02
#       4
#     4   4   4   4
#     4  10  22  40  60  84 116 152 190 234 284 338
#     4  10  20  36  60  87 114 148 192 236 280 337
#     4  10  22  40  60  84 116 152 190 234 284 338
#     4  10  20  36  60  87 114 148 192 236 280 337
#
# _framework density 21.303975999999999
#
# number of rings (size 3 to 8) (size 9 to 14) (size 15 to 20)
#    0.000    2.000    0.000    4.500    0.000    6.000 
#    0.000   22.500    0.000   51.000    0.000    0.000 
#    0.000    0.000    0.000    0.000    0.000    0.000 
#
# Total GULP energy -89211.109978 kJ/mol
# GULP energy per Si atom -5575.694374 kJ/mol
# Density = 2.125549 g / cm^3
# Si number density = 21.303976 Si / 1000 Ang^3
#
#
#
# Elastic Constant Matrix: (Units=GPa)
#
#
# Indices 1 2 3 4 5 6 
#
# 1 171.0621 75.5041 72.9589 0.0000 28.4194 0.0000
# 2 75.5041 248.7132 84.0935 0.0000 4.1083 0.0000
# 3 72.9589 84.0935 69.6748 0.0000 5.9514 0.0000
# 4 0.0000 0.0000 0.0000 32.1494 0.0000 -1.1712
# 5 28.4194 4.1083 5.9514 0.0000 21.4859 0.0000
# 6 0.0000 0.0000 0.0000 -1.1712 0.0000 7.6216
#
#
#
# Elastic Compliance Matrix: (Units=1/GPa)
#
#
# Indices 1 2 3 4 5 6 
#
# 1 0.014163 0.000898 -0.014645 0.000000 -0.014848 0.000000
# 2 0.000898 0.006870 -0.009237 0.000000 0.000058 0.000000
# 3 -0.014645 -0.009237 0.039977 0.000000 0.010064 0.000000
# 4 0.000000 0.000000 0.000000 0.031280 0.000000 0.004807
# 5 -0.014848 0.000058 0.010064 0.000000 0.063383 0.000000
# 6 0.000000 0.000000 0.000000 0.004807 0.000000 0.131944
#
#
# Mechanical properties :
#
#
# Convention : Reuss Voigt Hill
#
# Bulk Modulus (GPa) = 66.48709 106.06256 86.27483
# Shear Modulus (GPa) = 14.76668 29.37761 22.07215
#
# Velocity S-wave (km/s) = 2.63561 3.71748 3.22228
# Velocity P-wave (km/s) = 6.36698 8.26557 7.37761
#
# Compressibility (1/GPa) = 0.01504051
#
# Stress axis : x y z
#
# Youngs Moduli (GPa) = 70.60774 145.55155 25.01451
#
# Poissons Ratio (x) = -0.13064 0.36634
# Poissons Ratio (y) = -0.06337 0.23106
# Poissons Ratio (z) = 1.03407 1.34445
#
# Static dielectric constant tensor:
#      x y z
#    x 1.809060 0.000000 -0.016700 
#    y 0.000000 1.734900 0.000000 
#    z -0.016700 0.000000 1.882320 
# 
# From -- ./inp_files/17074.got.cif
#   From: 2010.05.17/outbox.cif.g08.bks.cpg/sg10_9_cif.got.tgz:17074.got - 2010.06.03 11:33:40.
