data_PCOD9150931
_publ_section_title
;
Structure prediction by ZEFSAII (Michael W. Deem and Ramdas Pophale) SiO2 
 PCOD9150931
Probable space group: P 2/M
;
_chemical_formula_sum "Si O2"
_cell_formula_units_Z 22
_cell_length_a 7.846335
_cell_length_b 28.053438
_cell_length_c 7.572142
_cell_angle_alpha 90.000000
_cell_angle_beta 37.755963
_cell_angle_gamma 90.000000
_cell_volume 1020.553181
_symmetry_space_group_name_H-M "P 2/M"
_symmetry_group_IT_number 10
_symmetry_cell_setting 'monoclinic'
loop_
_space_group_symop_operation_xyz
x,y,z
-x,y,-z
-x,-y,-z
x,-y,z
loop_
_atom_site_type_symbol
_atom_site_label
_atom_site_fract_x
_atom_site_fract_y
_atom_site_fract_z
Si Si1 0.192167 0.949062 0.170226
Si Si2 0.806823 0.396349 0.329549
Si Si3 0.806949 0.845223 0.829297
Si Si4 0.293550 0.761108 0.821835
Si Si5 0.808240 0.500000 0.328540
Si Si6 0.293563 0.687795 0.321801
O O1 0.139816 0.897438 0.127979
O O2 0.000000 0.949522 0.500000
O O3 0.152818 0.000000 0.106039
O O4 0.500000 0.948778 0.000000
O O5 0.500000 0.396683 0.500000
O O6 0.858612 0.448528 0.374229
O O7 0.812204 0.354078 0.464572
O O8 0.000000 0.389546 0.000000
O O9 0.000000 0.838252 0.500000
O O10 0.500000 0.845598 0.000000
O O11 0.812073 0.803027 0.964849
O O12 0.500000 0.780388 0.500000
O O13 0.499931 0.724456 0.750144
O O14 0.000000 0.737793 0.000000
O O15 0.500000 0.500000 0.500000
O O16 0.000000 0.500000 0.000000
O O17 0.000000 0.711108 0.500000
O O18 0.500000 0.668473 0.000000
#
# Coordination Sequence:
#
# PCOD9150931 Si02
#       6
#     4   4   4   4   2   4
#     4   8  14  26  49  81 112 143 184 233 285 344
#     4  10  20  39  64  91 121 158 200 239 288 353
#     4  10  20  37  60  86 116 151 195 248 296 345
#     4  12  26  43  62  85 117 162 207 249 301 363
#     4   8  16  32  60  90 118 154 195 234 279 350
#     4  12  26  43  62  89 123 158 201 254 307 352
#
# _framework density 21.556934999999999
#
# number of rings (size 3 to 8) (size 9 to 14) (size 15 to 20)
#    0.000    1.818    0.000    4.364    0.000    2.909 
#    0.000    0.909    0.000    1.091    0.000    0.000 
#    0.000    0.000    0.000    0.000    0.000    0.182 
#
# Total GULP energy -122712.560381 kJ/mol
# GULP energy per Si atom -5577.843654 kJ/mol
# Density = 2.150787 g / cm^3
# Si number density = 21.556935 Si / 1000 Ang^3
#
#
#
# Elastic Constant Matrix: (Units=GPa)
#
#
# Indices 1 2 3 4 5 6 
#
# 1 59.4883 47.9188 40.7534 0.0000 -13.5550 0.0000
# 2 47.9188 177.7806 44.1451 0.0000 14.8639 0.0000
# 3 40.7534 44.1451 195.3769 0.0000 -16.7275 0.0000
# 4 0.0000 0.0000 0.0000 32.9285 0.0000 4.5276
# 5 -13.5550 14.8639 -16.7275 0.0000 39.5571 0.0000
# 6 0.0000 0.0000 0.0000 4.5276 0.0000 14.8246
#
#
#
# Elastic Compliance Matrix: (Units=1/GPa)
#
#
# Indices 1 2 3 4 5 6 
#
# 1 0.027523 -0.007568 -0.003092 0.000000 0.010967 0.000000
# 2 -0.007568 0.008382 -0.000837 0.000000 -0.006097 0.000000
# 3 -0.003092 -0.000837 0.006110 0.000000 0.001839 0.000000
# 4 0.000000 0.000000 0.000000 0.031700 0.000000 -0.009682
# 5 0.010967 -0.006097 0.001839 0.000000 0.032107 0.000000
# 6 0.000000 0.000000 0.000000 -0.009682 0.000000 0.070412
#
#
# Mechanical properties :
#
#
# Convention : Reuss Voigt Hill
#
# Bulk Modulus (GPa) = 52.57346 77.58672 65.08009
# Shear Modulus (GPa) = 24.32263 37.45062 30.88662
#
# Velocity S-wave (km/s) = 3.36266 4.17260 3.78933
# Velocity P-wave (km/s) = 6.28632 7.69960 7.02857
#
# Compressibility (1/GPa) = 0.01902100
#
# Stress axis : x y z
#
# Youngs Moduli (GPa) = 36.33277 119.29698 163.66735
#
# Poissons Ratio (x) = 0.90281 0.50608
# Poissons Ratio (y) = 0.27496 0.13707
# Poissons Ratio (z) = 0.11235 0.09991
#
# Static dielectric constant tensor:
#      x y z
#    x 1.848190 0.000000 0.011240 
#    y 0.000000 1.923730 0.000000 
#    z 0.011240 0.000000 1.726040 
# 
# From -- ./inp_files/20884.got.cif
#   From: 2010.05.17/outbox.cif.g08.bks.cpg/sg10_11_cif.got.tgz:20884.got - 2010.06.03 11:33:40.
