data_PCOD9150406
_publ_section_title
;
Structure prediction by ZEFSAII (Michael W. Deem and Ramdas Pophale) SiO2 
 PCOD9150406
Probable space group: P 2/M
;
_chemical_formula_sum "Si O2"
_cell_formula_units_Z 28
_cell_length_a 16.394539
_cell_length_b 9.491504
_cell_length_c 11.257251
_cell_angle_alpha 90.000000
_cell_angle_beta 53.731506
_cell_angle_gamma 90.000000
_cell_volume 1412.336925
_symmetry_space_group_name_H-M "P 2/M"
_symmetry_group_IT_number 10
_symmetry_cell_setting 'monoclinic'
loop_
_space_group_symop_operation_xyz
x,y,z
-x,y,-z
-x,-y,-z
x,-y,z
loop_
_atom_site_type_symbol
_atom_site_label
_atom_site_fract_x
_atom_site_fract_y
_atom_site_fract_z
Si Si1 0.755909 0.158289 0.244249
Si Si2 0.874864 0.656865 0.296793
Si Si3 0.554082 0.669341 0.082348
Si Si4 0.070044 0.158286 0.097380
Si Si5 0.759083 0.166172 0.850889
Si Si6 0.460380 0.832186 0.668381
Si Si7 0.883986 0.659872 0.570729
O O1 0.776945 0.264237 0.331445
O O2 0.660351 0.188394 0.243978
O O3 0.741386 0.000000 0.302663
O O4 0.857210 0.163666 0.078577
O O5 0.876581 0.500000 0.246150
O O6 0.872268 0.654211 0.440470
O O7 0.979052 0.734121 0.174957
O O8 0.559821 0.500000 0.094992
O O9 0.507690 0.742957 0.242224
O O10 0.500000 0.693097 0.000000
O O11 0.663370 0.742631 0.972904
O O12 0.147212 0.181550 0.138990
O O13 0.027223 0.000000 0.143692
O O14 0.804390 0.231461 0.692235
O O15 0.733553 0.000000 0.866672
O O16 0.500000 0.796702 0.500000
O O17 0.480094 0.000000 0.670556
O O18 0.868208 0.500000 0.632824
O O19 0.000000 0.699933 0.500000
#
# Coordination Sequence:
#
# PCOD9150406 Si02
#       7
#     4   4   4   4   4   4   4
#     4  10  21  39  59  85 122 158 197 250 307 358
#     4  11  23  36  55  86 121 161 207 248 294 361
#     4  11  25  44  67  96 130 165 205 258 321 387
#     4  10  20  36  58  84 117 155 196 247 299 352
#     4  11  22  38  64  92 117 154 206 254 300 361
#     4  10  22  43  70  97 126 163 210 264 320 376
#     4  10  21  38  56  81 123 166 202 248 303 358
#
# _framework density 19.825298
#
# number of rings (size 3 to 8) (size 9 to 14) (size 15 to 20)
#    0.000    1.571    2.857    1.714    0.000    7.429 
#    0.000    2.857    0.000    0.000    0.000    0.000 
#    0.000    0.000    0.000    0.000    0.000    0.000 
#
# Total GULP energy -156237.900158 kJ/mol
# GULP energy per Si atom -5579.925006 kJ/mol
# Density = 1.978017 g / cm^3
# Si number density = 19.825298 Si / 1000 Ang^3
#
#
#
# Elastic Constant Matrix: (Units=GPa)
#
#
# Indices 1 2 3 4 5 6 
#
# 1 71.4677 62.3758 29.9311 0.0000 19.3790 0.0000
# 2 62.3758 104.4466 43.8775 0.0000 10.0255 0.0000
# 3 29.9311 43.8775 76.0852 0.0000 10.5913 0.0000
# 4 0.0000 0.0000 0.0000 28.7801 0.0000 6.4536
# 5 19.3790 10.0255 10.5913 0.0000 18.9121 0.0000
# 6 0.0000 0.0000 0.0000 6.4536 0.0000 27.8457
#
#
#
# Elastic Compliance Matrix: (Units=1/GPa)
#
#
# Indices 1 2 3 4 5 6 
#
# 1 0.041312 -0.022010 0.000770 0.000000 -0.031095 0.000000
# 2 -0.022010 0.024504 -0.007379 0.000000 0.013696 0.000000
# 3 0.000770 -0.007379 0.018070 0.000000 -0.006997 0.000000
# 4 0.000000 0.000000 0.000000 0.036651 0.000000 -0.008494
# 5 -0.031095 0.013696 -0.006997 0.000000 0.081397 0.000000
# 6 0.000000 0.000000 0.000000 -0.008494 0.000000 0.037881
#
#
# Mechanical properties :
#
#
# Convention : Reuss Voigt Hill
#
# Bulk Modulus (GPa) = 37.52819 58.26314 47.89567
# Shear Modulus (GPa) = 16.34334 22.82858 19.58596
#
# Velocity S-wave (km/s) = 2.87430 3.39704 3.14654
# Velocity P-wave (km/s) = 5.47595 6.69616 6.11656
#
# Compressibility (1/GPa) = 0.02664664
#
# Stress axis : x y z
#
# Youngs Moduli (GPa) = 24.20630 40.80947 55.34101
#
# Poissons Ratio (x) = 0.89822 -0.04261
# Poissons Ratio (y) = 0.53278 0.40838
# Poissons Ratio (z) = -0.01864 0.30114
#
# Static dielectric constant tensor:
#      x y z
#    x 1.706440 0.000000 0.028880 
#    y 0.000000 1.699840 0.000000 
#    z 0.028880 0.000000 1.732830 
# 
# From -- ./inp_files/49589.got.cif
#   From: 2010.05.17/outbox.cif.g08.bks.cpg/sg10_25_cif.got.tgz:49589.got - 2010.06.03 11:33:40.
