data_PCOD9150212
_publ_section_title
;
Structure prediction by ZEFSAII (Michael W. Deem and Ramdas Pophale) SiO2 
 PCOD9150212
Probable space group: P 2/M
;
_chemical_formula_sum "Si O2"
_cell_formula_units_Z 32
_cell_length_a 11.606744
_cell_length_b 15.416176
_cell_length_c 17.261075
_cell_angle_alpha 90.000000
_cell_angle_beta 30.109359
_cell_angle_gamma 90.000000
_cell_volume 1549.378394
_symmetry_space_group_name_H-M "P 2/M"
_symmetry_group_IT_number 10
_symmetry_cell_setting 'monoclinic'
loop_
_space_group_symop_operation_xyz
x,y,z
-x,y,-z
-x,-y,-z
x,-y,z
loop_
_atom_site_type_symbol
_atom_site_label
_atom_site_fract_x
_atom_site_fract_y
_atom_site_fract_z
Si Si1 0.901984 0.400422 0.238145
Si Si2 0.386682 0.598867 0.151796
Si Si3 0.447313 0.903784 0.817001
Si Si4 0.872407 0.173610 0.490393
Si Si5 0.151250 0.366196 0.554461
Si Si6 0.285855 0.283868 0.943570
Si Si7 0.361941 0.408128 0.765372
Si Si8 0.300967 0.096493 0.165258
O O1 0.996218 0.500000 0.184499
O O2 0.812236 0.381453 0.375707
O O3 0.716803 0.398218 0.277322
O O4 0.086629 0.326226 0.111093
O O5 0.443590 0.500000 0.144957
O O6 0.485961 0.676026 0.147762
O O7 0.110691 0.606154 0.309242
O O8 0.500000 0.608339 0.000000
O O9 0.638302 0.879409 0.641248
O O10 0.292695 0.818811 0.924041
O O11 0.591671 0.910772 0.812283
O O12 0.345475 0.000000 0.861731
O O13 0.819961 0.268182 0.489972
O O14 0.000000 0.178211 0.500000
O O15 0.052562 0.135777 0.323693
O O16 0.363643 0.410975 0.388993
O O17 0.270325 0.330818 0.870154
O O18 0.267682 0.500000 0.849480
O O19 0.270635 0.000000 0.148427
O O20 0.500000 0.143671 0.000000
#
# Coordination Sequence:
#
# PCOD9150212 Si02
#       8
#     4   4   4   4   4   4   4   4
#     4  11  24  43  65  89 124 166 208 256 306 358
#     4  11  22  36  57  90 135 173 196 234 305 380
#     4  10  21  38  58  84 121 161 203 256 313 368
#     4  10  20  36  55  85 125 167 203 242 309 371
#     4  12  23  37  62  92 126 166 203 246 302 368
#     4  12  23  40  64  94 123 163 210 252 307 373
#     4  11  24  42  64  90 121 162 215 260 293 352
#     4   9  18  31  54  86 118 156 203 249 299 366
#
# _framework density 20.653444
#
# number of rings (size 3 to 8) (size 9 to 14) (size 15 to 20)
#    0.000    1.250    2.500    4.875    1.750    4.500 
#    0.000    1.250    0.000    1.500    0.000    0.875 
#    0.000    0.000    0.000    0.000    0.000    0.000 
#
# Total GULP energy -178585.904012 kJ/mol
# GULP energy per Si atom -5580.809500 kJ/mol
# Density = 2.060644 g / cm^3
# Si number density = 20.653444 Si / 1000 Ang^3
#
#
#
# Elastic Constant Matrix: (Units=GPa)
#
#
# Indices 1 2 3 4 5 6 
#
# 1 42.9575 12.3856 -6.5650 0.0000 2.7688 0.0000
# 2 12.3856 168.1184 35.2005 0.0000 5.3794 0.0000
# 3 -6.5650 35.2005 87.8294 0.0000 13.2893 0.0000
# 4 0.0000 0.0000 0.0000 11.8476 0.0000 25.2254
# 5 2.7688 5.3794 13.2893 0.0000 23.6092 0.0000
# 6 0.0000 0.0000 0.0000 25.2254 0.0000 6.1149
#
#
#
# Elastic Compliance Matrix: (Units=1/GPa)
#
#
# Indices 1 2 3 4 5 6 
#
# 1 0.024784 -0.002415 0.003473 0.000000 -0.004311 0.000000
# 2 -0.002415 0.006728 -0.002938 0.000000 0.000404 0.000000
# 3 0.003473 -0.002938 0.013973 0.000000 -0.007603 0.000000
# 4 0.000000 0.000000 0.000000 -0.010844 0.000000 0.044736
# 5 -0.004311 0.000404 -0.007603 0.000000 0.047050 0.000000
# 6 0.000000 0.000000 0.000000 0.044736 0.000000 -0.021011
#
#
# Mechanical properties :
#
#
# Convention : Reuss Voigt Hill
#
# Bulk Modulus (GPa) = 23.96690 42.32749 33.14720
# Shear Modulus (GPa) = 63.81715 25.50661 44.66188
#
# Velocity S-wave (km/s) = 5.56472 3.51804 4.65525
# Velocity P-wave (km/s) = 7.27445 6.08612 6.70666
#
# Compressibility (1/GPa) = 0.04172421
#
# Stress axis : x y z
#
# Youngs Moduli (GPa) = 40.34908 148.62384 71.56496
#
# Poissons Ratio (x) = 0.35893 -0.24852
# Poissons Ratio (y) = 0.09744 0.21028
# Poissons Ratio (z) = -0.14012 0.43670
#
# Static dielectric constant tensor:
#      x y z
#    x 1.734460 0.000000 -0.013690 
#    y 0.000000 1.726000 0.000000 
#    z -0.013690 0.000000 1.781240 
# 
# From -- ./inp_files/76967.got.cif
#   From: 2010.05.17/outbox.cif.g08.bks.cpg/sg10_39_cif.got.tgz:76967.got - 2010.06.03 11:33:40.
