data_PCOD9150016
_publ_section_title
;
Structure prediction by ZEFSAII (Michael W. Deem and Ramdas Pophale) SiO2 
 PCOD9150016
Probable space group: P 2/M
;
_chemical_formula_sum "Si O2"
_cell_formula_units_Z 20
_cell_length_a 5.664606
_cell_length_b 9.805463
_cell_length_c 16.200164
_cell_angle_alpha 90.000000
_cell_angle_beta 96.856782
_cell_angle_gamma 90.000000
_cell_volume 893.387453
_symmetry_space_group_name_H-M "P 2/M"
_symmetry_group_IT_number 10
_symmetry_cell_setting 'monoclinic'
loop_
_space_group_symop_operation_xyz
x,y,z
-x,y,-z
-x,-y,-z
x,-y,z
loop_
_atom_site_type_symbol
_atom_site_label
_atom_site_fract_x
_atom_site_fract_y
_atom_site_fract_z
Si Si1 0.411738 0.347443 0.825487
Si Si2 0.936605 0.651050 0.341423
Si Si3 0.297568 0.845971 0.262978
Si Si4 0.667553 0.850011 0.428104
Si Si5 0.231078 0.843981 0.950622
O O1 0.485990 0.500000 0.855673
O O2 0.276383 0.363729 0.733196
O O3 0.619702 0.239998 0.813044
O O4 0.236604 0.272750 0.881658
O O5 0.039645 0.500000 0.359186
O O6 0.840294 0.724715 0.418647
O O7 0.108951 0.756866 0.304262
O O8 0.509813 0.857982 0.338451
O O9 0.221179 0.000000 0.238889
O O10 0.500000 0.829720 0.500000
O O11 0.781963 0.000000 0.440754
O O12 0.216700 0.000000 0.917235
O O13 0.500000 0.832964 0.000000
O O14 0.000000 0.826892 0.000000
#
# Coordination Sequence:
#
# PCOD9150016 Si02
#       5
#     4   4   4   4   4
#     4  10  22  39  59  84 116 152 193 241 292 352
#     4  10  21  36  55  82 114 149 189 236 293 352
#     4  10  20  35  58  83 109 148 193 239 292 348
#     4   9  19  36  55  78 109 146 192 241 288 345
#     4  10  23  42  63  92 126 162 204 250 303 364
#
# _framework density 22.386702
#
# number of rings (size 3 to 8) (size 9 to 14) (size 15 to 20)
#    0.000    2.200    0.000    1.800    2.800    5.200 
#    0.000    4.000    0.000    0.000    0.000    0.000 
#    0.000    0.000    0.000    0.000    0.000    0.000 
#
# Total GULP energy -111585.548677 kJ/mol
# GULP energy per Si atom -5579.277434 kJ/mol
# Density = 2.233575 g / cm^3
# Si number density = 22.386702 Si / 1000 Ang^3
#
#
#
# Elastic Constant Matrix: (Units=GPa)
#
#
# Indices 1 2 3 4 5 6 
#
# 1 67.8834 62.4665 18.1722 0.0000 -9.0796 0.0000
# 2 62.4665 246.4948 58.5988 0.0000 -50.0562 0.0000
# 3 18.1722 58.5988 70.4412 0.0000 -14.8516 0.0000
# 4 0.0000 0.0000 0.0000 39.8698 0.0000 -13.4567
# 5 -9.0796 -50.0562 -14.8516 0.0000 36.0026 0.0000
# 6 0.0000 0.0000 0.0000 -13.4567 0.0000 18.9108
#
#
#
# Elastic Compliance Matrix: (Units=1/GPa)
#
#
# Indices 1 2 3 4 5 6 
#
# 1 0.019492 -0.005214 -0.001296 0.000000 -0.002868 0.000000
# 2 -0.005214 0.007867 -0.003472 0.000000 0.008190 0.000000
# 3 -0.001296 -0.003472 0.017888 0.000000 0.002224 0.000000
# 4 0.000000 0.000000 0.000000 0.033010 0.000000 0.023489
# 5 -0.002868 0.008190 0.002224 0.000000 0.039358 0.000000
# 6 0.000000 0.000000 0.000000 0.023489 0.000000 0.069595
#
#
# Mechanical properties :
#
#
# Convention : Reuss Voigt Hill
#
# Bulk Modulus (GPa) = 39.55237 73.69937 56.62587
# Shear Modulus (GPa) = 23.19085 35.32877 29.25981
#
# Velocity S-wave (km/s) = 3.22206 3.97686 3.61919
# Velocity P-wave (km/s) = 5.61680 7.35389 6.54325
#
# Compressibility (1/GPa) = 0.02528294
#
# Stress axis : x y z
#
# Youngs Moduli (GPa) = 51.30179 127.11310 55.90291
#
# Poissons Ratio (x) = 0.66279 0.07244
# Poissons Ratio (y) = 0.26750 0.19412
# Poissons Ratio (z) = 0.06647 0.44139
#
# Static dielectric constant tensor:
#      x y z
#    x 1.889270 0.000000 0.042270 
#    y 0.000000 1.867510 0.000000 
#    z 0.042270 0.000000 1.831680 
# 
# From -- ./inp_files/10543.got.cif
#   From: 2010.05.17/outbox.cif.g08.bks.cpg/sg10_6_cif.got.tgz:10543.got - 2010.06.03 11:33:40.
