data_PCOD9150509
_publ_section_title
;
Structure prediction by ZEFSAII (Michael W. Deem and Ramdas Pophale) SiO2 
 PCOD9150509
Probable space group: P 2/M
;
_chemical_formula_sum "Si O2"
_cell_formula_units_Z 32
_cell_length_a 31.760468
_cell_length_b 7.755994
_cell_length_c 12.213697
_cell_angle_alpha 90.000000
_cell_angle_beta 28.277731
_cell_angle_gamma 90.000000
_cell_volume 1425.335228
_symmetry_space_group_name_H-M "P 2/M"
_symmetry_group_IT_number 10
_symmetry_cell_setting 'monoclinic'
loop_
_space_group_symop_operation_xyz
x,y,z
-x,y,-z
-x,-y,-z
x,-y,z
loop_
_atom_site_type_symbol
_atom_site_label
_atom_site_fract_x
_atom_site_fract_y
_atom_site_fract_z
Si Si1 0.637792 0.307567 0.658042
Si Si2 0.750860 0.791294 0.997559
Si Si3 0.918275 0.295560 0.762856
Si Si4 0.811092 0.792470 0.383571
Si Si5 0.825779 0.211144 0.592879
Si Si6 0.971798 0.201269 0.878629
Si Si7 0.483969 0.196050 0.871591
Si Si8 0.550842 0.211229 0.492461
O O1 0.638874 0.500000 0.610941
O O2 0.735269 0.253868 0.470705
O O3 0.582210 0.194055 0.700598
O O4 0.579163 0.298895 0.902951
O O5 0.827176 0.738210 0.907534
O O6 0.776231 0.731701 0.816466
O O7 0.749562 0.000000 0.998506
O O8 0.652939 0.731825 0.256011
O O9 0.929462 0.500000 0.751787
O O10 0.925273 0.215027 0.866926
O O11 0.000000 0.231413 0.500000
O O12 0.789816 0.734828 0.556056
O O13 0.815974 0.000000 0.375983
O O14 0.905515 0.725781 0.122024
O O15 0.928559 0.270955 0.360418
O O16 0.823769 0.000000 0.600671
O O17 0.983805 0.000000 0.878951
O O18 0.496617 0.268516 0.722561
O O19 0.448940 0.000000 0.948241
O O20 0.500000 0.262325 0.500000
O O21 0.551381 0.000000 0.496358
#
# Coordination Sequence:
#
# PCOD9150509 Si02
#       8
#     4   4   4   4   4   4   4   4
#     4  11  23  39  58  83 116 152 193 236 286 342
#     4  10  20  36  61  89 115 149 194 238 289 345
#     4  11  23  38  56  82 119 159 198 239 287 344
#     4  10  21  36  59  88 115 146 190 238 290 343
#     4   9  18  34  59  87 114 146 189 241 289 338
#     4  10  20  36  59  86 116 148 192 242 288 340
#     4  10  20  38  63  86 114 147 190 239 290 342
#     4   9  20  36  60  93 120 143 183 242 297 346
#
# _framework density 22.450859000000001
#
# number of rings (size 3 to 8) (size 9 to 14) (size 15 to 20)
#    0.000    2.000    1.250    3.000    3.500    2.500 
#    0.000    1.875    0.000    3.375    0.000    0.000 
#    0.000    0.000    0.000    0.000    0.000    0.000 
#
# Total GULP energy -178831.328454 kJ/mol
# GULP energy per Si atom -5588.479014 kJ/mol
# Density = 2.239976 g / cm^3
# Si number density = 22.450859 Si / 1000 Ang^3
#
#
#
# Elastic Constant Matrix: (Units=GPa)
#
#
# Indices 1 2 3 4 5 6 
#
# 1 50.1819 -12.9011 -11.3419 0.0000 7.0233 0.0000
# 2 -12.9011 40.6637 -4.3613 0.0000 2.5306 0.0000
# 3 -11.3419 -4.3613 25.5387 0.0000 -1.7485 0.0000
# 4 0.0000 0.0000 0.0000 -3.5125 0.0000 61.6661
# 5 7.0233 2.5306 -1.7485 0.0000 36.5725 0.0000
# 6 0.0000 0.0000 0.0000 61.6661 0.0000 -61.1235
#
#
#
# Elastic Compliance Matrix: (Units=1/GPa)
#
#
# Indices 1 2 3 4 5 6 
#
# 1 0.026143 0.010002 0.012970 0.000000 -0.005093 0.000000
# 2 0.010002 0.028964 0.009149 0.000000 -0.003488 0.000000
# 3 0.012970 0.009149 0.046417 0.000000 -0.000905 0.000000
# 4 0.000000 0.000000 0.000000 0.017035 0.000000 0.017187
# 5 -0.005093 -0.003488 -0.000905 0.000000 0.028519 0.000000
# 6 0.000000 0.000000 0.000000 0.017187 0.000000 0.000979
#
#
# Mechanical properties :
#
#
# Convention : Reuss Voigt Hill
#
# Bulk Modulus (GPa) = 6.03260 6.57508 6.30384
# Shear Modulus (GPa) = 35.95329 4.05322 20.00325
#
# Velocity S-wave (km/s) = 4.00612 1.34510 2.98817
# Velocity P-wave (km/s) = 4.90831 2.31245 3.83659
#
# Compressibility (1/GPa) = 0.16576610
#
# Stress axis : x y z
#
# Youngs Moduli (GPa) = 38.25114 34.52606 21.54397
#
# Poissons Ratio (x) = -0.34534 -0.27942
# Poissons Ratio (y) = -0.38260 -0.19712
# Poissons Ratio (z) = -0.49611 -0.31590
#
# Static dielectric constant tensor:
#      x y z
#    x 1.802280 0.000000 0.006080 
#    y 0.000000 1.837090 0.000000 
#    z 0.006080 0.000000 1.819730 
# 
# From -- ./inp_files/58181.got.cif
#   From: 2010.05.17/outbox.cif.g08.bks.cpg/sg10_30_cif.got.tgz:58181.got - 2010.06.03 11:33:40.
