data_PCOD9150883
_publ_section_title
;
Structure prediction by ZEFSAII (Michael W. Deem and Ramdas Pophale) SiO2 
 PCOD9150883
Probable space group: P 2/M
;
_chemical_formula_sum "Si O2"
_cell_formula_units_Z 32
_cell_length_a 15.053877
_cell_length_b 8.599319
_cell_length_c 24.776202
_cell_angle_alpha 90.000000
_cell_angle_beta 152.977408
_cell_angle_gamma 90.000000
_cell_volume 1457.235838
_symmetry_space_group_name_H-M "P 2/M"
_symmetry_group_IT_number 10
_symmetry_cell_setting 'monoclinic'
loop_
_space_group_symop_operation_xyz
x,y,z
-x,y,-z
-x,-y,-z
x,-y,z
loop_
_atom_site_type_symbol
_atom_site_label
_atom_site_fract_x
_atom_site_fract_y
_atom_site_fract_z
Si Si1 0.204007 0.183790 0.342099
Si Si2 0.277263 0.816872 0.504135
Si Si3 0.049899 0.815693 0.963753
Si Si4 0.618027 0.318992 0.142867
Si Si5 0.243231 0.820040 0.887061
Si Si6 0.499078 0.185690 0.807875
Si Si7 0.819436 0.684999 0.439641
Si Si8 0.678669 0.319318 0.703936
O O1 0.237188 0.236453 0.421328
O O2 0.313001 0.276491 0.354779
O O3 0.972376 0.197923 0.206923
O O4 0.255999 0.000000 0.366514
O O5 0.156710 0.732124 0.485340
O O6 0.506412 0.781542 0.636989
O O7 0.237993 0.000000 0.485497
O O8 0.886968 0.725151 0.841985
O O9 0.034540 0.000000 0.942231
O O10 0.273213 0.766271 0.072911
O O11 0.000000 0.797452 0.000000
O O12 0.668359 0.500000 0.167654
O O13 0.751218 0.221760 0.173430
O O14 0.606837 0.260096 0.197684
O O15 0.399989 0.288455 0.001083
O O16 0.302559 0.000000 0.926748
O O17 0.375875 0.236847 0.689402
O O18 0.496075 0.000000 0.811488
O O19 0.801226 0.500000 0.425392
O O20 0.000000 0.736172 0.500000
O O21 0.635891 0.500000 0.688909
#
# Coordination Sequence:
#
# PCOD9150883 Si02
#       8
#     4   4   4   4   4   4   4   4
#     4  10  23  41  64  92 124 166 217 267 316 376
#     4  11  24  44  68  93 125 171 221 270 317 377
#     4  10  22  41  66  94 125 165 213 264 318 377
#     4  11  22  36  56  86 124 164 204 257 321 378
#     4  10  20  37  59  87 120 160 211 262 312 376
#     4  11  23  40  65  93 123 164 212 259 310 377
#     4  11  26  46  67  97 133 168 208 265 328 384
#     4  12  25  40  64  98 134 172 211 263 327 388
#
# _framework density 21.959382999999999
#
# number of rings (size 3 to 8) (size 9 to 14) (size 15 to 20)
#    0.000    1.250    0.000    6.375    1.750    9.750 
#    0.000    0.000    0.000    0.000    0.000    0.000 
#    0.000    0.000    0.000    0.000    0.000    0.000 
#
# Total GULP energy -179131.394409 kJ/mol
# GULP energy per Si atom -5597.856075 kJ/mol
# Density = 2.190940 g / cm^3
# Si number density = 21.959383 Si / 1000 Ang^3
#
#
#
# Elastic Constant Matrix: (Units=GPa)
#
#
# Indices 1 2 3 4 5 6 
#
# 1 93.1451 9.6491 2.9213 0.0000 -5.0051 0.0000
# 2 9.6491 38.1114 -4.2533 0.0000 -6.0213 0.0000
# 3 2.9213 -4.2533 49.9040 0.0000 -2.9954 0.0000
# 4 0.0000 0.0000 0.0000 -149.7212 0.0000 219.0584
# 5 -5.0051 -6.0213 -2.9954 0.0000 38.7759 0.0000
# 6 0.0000 0.0000 0.0000 219.0584 0.0000 -149.5313
#
#
#
# Elastic Compliance Matrix: (Units=1/GPa)
#
#
# Indices 1 2 3 4 5 6 
#
# 1 0.011098 -0.002753 -0.000828 0.000000 0.000941 0.000000
# 2 -0.002753 0.027910 0.002792 0.000000 0.004194 0.000000
# 3 -0.000828 0.002792 0.020439 0.000000 0.001906 0.000000
# 4 0.000000 0.000000 0.000000 0.005841 0.000000 0.008557
# 5 0.000941 0.004194 0.001906 0.000000 0.026709 0.000000
# 6 0.000000 0.000000 0.000000 0.008557 0.000000 0.005849
#
#
# Mechanical properties :
#
#
# Convention : Reuss Voigt Hill
#
# Bulk Modulus (GPa) = 17.28068 21.97716 19.62892
# Shear Modulus (GPa) = 42.11765 -40.57243 0.77261
#
# Velocity S-wave (km/s) = 4.38423 -4.30305 0.59380
# Velocity P-wave (km/s) = 5.78922 3.82864 3.07055
#
# Compressibility (1/GPa) = 0.05786811
#
# Stress axis : x y z
#
# Youngs Moduli (GPa) = 90.10878 35.82913 48.92545
#
# Poissons Ratio (x) = 0.09865 0.04050
# Poissons Ratio (y) = 0.24811 -0.13659
# Poissons Ratio (z) = 0.07460 -0.10003
#
# Static dielectric constant tensor:
#      x y z
#    x 1.806080 0.000000 -0.012990 
#    y 0.000000 1.731640 0.000000 
#    z -0.012990 0.000000 1.827090 
# 
# From -- ./inp_files/89604.got.cif
#   From: 2010.05.17/outbox.cif.g08.bks.cpg/sg10_45_cif.got.tgz:89604.got - 2010.06.03 11:33:40.
