data_PCOD9150599
_publ_section_title
;
Structure prediction by ZEFSAII (Michael W. Deem and Ramdas Pophale) SiO2 
 PCOD9150599
Probable space group: P 2/M
;
_chemical_formula_sum "Si O2"
_cell_formula_units_Z 24
_cell_length_a 10.784455
_cell_length_b 13.238572
_cell_length_c 11.876571
_cell_angle_alpha 90.000000
_cell_angle_beta 127.158092
_cell_angle_gamma 90.000000
_cell_volume 1351.367401
_symmetry_space_group_name_H-M "P 2/M"
_symmetry_group_IT_number 10
_symmetry_cell_setting 'monoclinic'
loop_
_space_group_symop_operation_xyz
x,y,z
-x,y,-z
-x,-y,-z
x,-y,z
loop_
_atom_site_type_symbol
_atom_site_label
_atom_site_fract_x
_atom_site_fract_y
_atom_site_fract_z
Si Si1 0.978005 0.883325 0.712583
Si Si2 0.000000 0.246476 0.500000
Si Si3 0.565386 0.380669 0.660110
Si Si4 0.161553 0.223966 0.149373
Si Si5 0.696061 0.380650 0.291630
Si Si6 0.302582 0.886909 0.021271
Si Si7 0.500000 0.273895 0.000000
O O1 0.879480 0.825868 0.753886
O O2 0.973350 0.823771 0.593718
O O3 0.154831 0.883879 0.856515
O O4 0.928801 0.000000 0.673766
O O5 0.849979 0.316689 0.399469
O O6 0.500000 0.356130 0.500000
O O7 0.603793 0.500000 0.682862
O O8 0.716298 0.314128 0.769606
O O9 0.431384 0.363575 0.679712
O O10 0.237107 0.140925 0.107994
O O11 0.000000 0.256066 0.000000
O O12 0.729304 0.500000 0.305701
O O13 0.621430 0.342564 0.133903
O O14 0.418832 0.800648 0.044569
O O15 0.369506 0.000000 0.055850
#
# Coordination Sequence:
#
# PCOD9150599 Si02
#       7
#     4   2   4   4   4   4   2
#     4  10  21  37  59  88 121 157 195 238 293 346
#     4  12  22  40  62  88 120 156 196 242 290 356
#     4  10  21  39  60  83 117 157 193 238 296 349
#     4  10  20  37  61  86 116 154 196 245 287 340
#     4  11  24  40  62  88 117 155 196 244 298 350
#     4  10  20  36  60  87 117 153 198 243 292 346
#     4  12  20  40  60  88 118 156 190 248 298 348
#
# _framework density 17.759789000000001
#
# number of rings (size 3 to 8) (size 9 to 14) (size 15 to 20)
#    0.000    1.500    3.333    2.500    0.000    2.333 
#    0.000    0.833    0.000    2.000    0.000    0.000 
#    0.000    0.000    0.000    0.000    0.000    0.000 
#
# Total GULP energy -134028.184615 kJ/mol
# GULP energy per Si atom -5584.507692 kJ/mol
# Density = 1.771937 g / cm^3
# Si number density = 17.759789 Si / 1000 Ang^3
#
#
#
# Elastic Constant Matrix: (Units=GPa)
#
#
# Indices 1 2 3 4 5 6 
#
# 1 92.9930 65.1074 58.8664 0.0000 -9.0876 0.0000
# 2 65.1074 124.1718 86.2046 0.0000 3.2047 0.0000
# 3 58.8664 86.2046 114.5232 0.0000 -11.8353 0.0000
# 4 0.0000 0.0000 0.0000 7.0004 0.0000 -2.4713
# 5 -9.0876 3.2047 -11.8353 0.0000 31.9844 0.0000
# 6 0.0000 0.0000 0.0000 -2.4713 0.0000 20.2841
#
#
#
# Elastic Compliance Matrix: (Units=1/GPa)
#
#
# Indices 1 2 3 4 5 6 
#
# 1 0.018664 -0.007525 -0.003434 0.000000 0.004786 0.000000
# 2 -0.007525 0.021378 -0.013170 0.000000 -0.009154 0.000000
# 3 -0.003434 -0.013170 0.021259 0.000000 0.008210 0.000000
# 4 0.000000 0.000000 0.000000 0.149269 0.000000 0.018186
# 5 0.004786 -0.009154 0.008210 0.000000 0.036580 0.000000
# 6 0.000000 0.000000 0.000000 0.018186 0.000000 0.051516
#
#
# Mechanical properties :
#
#
# Convention : Reuss Voigt Hill
#
# Bulk Modulus (GPa) = 76.67490 83.56054 80.11772
# Shear Modulus (GPa) = 14.23395 19.95443 17.09419
#
# Velocity S-wave (km/s) = 2.83410 3.35561 3.10582
# Velocity P-wave (km/s) = 7.34687 7.88455 7.62045
#
# Compressibility (1/GPa) = 0.01304208
#
# Stress axis : x y z
#
# Youngs Moduli (GPa) = 53.57894 46.77599 47.03902
#
# Poissons Ratio (x) = 0.35201 0.16155
# Poissons Ratio (y) = 0.40321 0.61950
# Poissons Ratio (z) = 0.18401 0.61604
#
# Static dielectric constant tensor:
#      x y z
#    x 1.597390 0.000000 -0.006810 
#    y 0.000000 1.579130 0.000000 
#    z -0.006810 0.000000 1.582050 
# 
# From -- ./inp_files/46794.got.cif
#   From: 2010.05.17/outbox.cif.g08.bks.cpg/sg10_24_cif.got.tgz:46794.got - 2010.06.03 11:33:40.
