data_PCOD9150959
_publ_section_title
;
Structure prediction by ZEFSAII (Michael W. Deem and Ramdas Pophale) SiO2 
 PCOD9150959
Probable space group: P 2/M
;
_chemical_formula_sum "Si O2"
_cell_formula_units_Z 13
_cell_length_a 6.876798
_cell_length_b 12.429187
_cell_length_c 11.966682
_cell_angle_alpha 90.000000
_cell_angle_beta 147.831624
_cell_angle_gamma 90.000000
_cell_volume 544.563146
_symmetry_space_group_name_H-M "P 2/M"
_symmetry_group_IT_number 10
_symmetry_cell_setting 'monoclinic'
loop_
_space_group_symop_operation_xyz
x,y,z
-x,y,-z
-x,-y,-z
x,-y,z
loop_
_atom_site_type_symbol
_atom_site_label
_atom_site_fract_x
_atom_site_fract_y
_atom_site_fract_z
Si Si1 0.451013 0.379727 0.811678
Si Si2 0.000000 0.000000 0.500000
Si Si3 0.763311 0.671162 0.722742
Si Si4 0.122317 0.170090 0.758612
O O1 0.298303 0.500000 0.739635
O O2 0.559152 0.343477 0.739967
O O3 0.209560 0.285835 0.745377
O O4 0.839548 0.380479 0.065433
O O5 0.999838 0.092667 0.600459
O O6 0.500000 0.625644 0.500000
O O7 0.853307 0.794705 0.728908
O O8 0.500000 0.131490 0.000000
#
# Coordination Sequence:
#
# PCOD9150959 Si02
#       4
#     4   1   4   4
#     4  10  22  39  60  92 129 159 194 241 299 370
#     4  12  22  44  68  86 114 158 216 262 292 346
#     4  10  20  37  60  90 123 159 197 239 295 357
#     4  10  23  41  64  90 121 161 202 250 305 353
#
# _framework density 23.872346
#
# number of rings (size 3 to 8) (size 9 to 14) (size 15 to 20)
#    0.000    1.846    0.000    4.154    0.000    9.231 
#    0.000   12.308    0.000   18.462    0.000    0.000 
#    0.000    0.000    0.000    0.000    0.000    0.000 
#
# Total GULP energy -72413.188927 kJ/mol
# GULP energy per Si atom -5570.245302 kJ/mol
# Density = 2.381801 g / cm^3
# Si number density = 23.872346 Si / 1000 Ang^3
#
#
#
# Elastic Constant Matrix: (Units=GPa)
#
#
# Indices 1 2 3 4 5 6 
#
# 1 91.0866 80.5620 14.7033 0.0000 -41.6156 0.0000
# 2 80.5620 153.2565 40.0389 0.0000 -34.7038 0.0000
# 3 14.7033 40.0389 138.2103 0.0000 -24.2966 0.0000
# 4 0.0000 0.0000 0.0000 -36.6733 0.0000 65.0710
# 5 -41.6156 -34.7038 -24.2966 0.0000 41.9549 0.0000
# 6 0.0000 0.0000 0.0000 65.0710 0.0000 -78.1944
#
#
#
# Elastic Compliance Matrix: (Units=1/GPa)
#
#
# Indices 1 2 3 4 5 6 
#
# 1 0.032909 -0.012922 0.004567 0.000000 0.024599 0.000000
# 2 -0.012922 0.013315 -0.003117 0.000000 -0.003609 0.000000
# 3 0.004567 -0.003117 0.008902 0.000000 0.007107 0.000000
# 4 0.000000 0.000000 0.000000 0.057219 0.000000 0.047616
# 5 0.024599 -0.003609 0.007107 0.000000 0.049365 0.000000
# 6 0.000000 0.000000 0.000000 0.047616 0.000000 0.026836
#
#
# Mechanical properties :
#
#
# Convention : Reuss Voigt Hill
#
# Bulk Modulus (GPa) = 31.07401 72.57354 51.82378
# Shear Modulus (GPa) = 22.50051 1.90072 12.20062
#
# Velocity S-wave (km/s) = 3.07340 0.89327 2.26315
# Velocity P-wave (km/s) = 5.06354 5.61521 5.34649
#
# Compressibility (1/GPa) = 0.03218123
#
# Stress axis : x y z
#
# Youngs Moduli (GPa) = 30.38667 75.10423 112.33649
#
# Poissons Ratio (x) = 0.97051 -0.51302
# Poissons Ratio (y) = 0.39266 0.35015
# Poissons Ratio (z) = -0.13877 0.23410
#
# Static dielectric constant tensor:
#      x y z
#    x 1.999310 0.000000 0.007890 
#    y 0.000000 1.976690 0.000000 
#    z 0.007890 0.000000 1.966120 
# 
# From -- ./inp_files/60443.got.cif
#   From: 2010.05.17/outbox.cif.g08.bks.cpg/sg10_31_cif.got.tgz:60443.got - 2010.06.03 11:33:40.
