data_PCOD9150280
_publ_section_title
;
Structure prediction by ZEFSAII (Michael W. Deem and Ramdas Pophale) SiO2 
 PCOD9150280
Probable space group: P 2/M
;
_chemical_formula_sum "Si O2"
_cell_formula_units_Z 28
_cell_length_a 14.863771
_cell_length_b 7.660083
_cell_length_c 21.762127
_cell_angle_alpha 90.000000
_cell_angle_beta 150.364090
_cell_angle_gamma 90.000000
_cell_volume 1225.232356
_symmetry_space_group_name_H-M "P 2/M"
_symmetry_group_IT_number 10
_symmetry_cell_setting 'monoclinic'
loop_
_space_group_symop_operation_xyz
x,y,z
-x,y,-z
-x,-y,-z
x,-y,z
loop_
_atom_site_type_symbol
_atom_site_label
_atom_site_fract_x
_atom_site_fract_y
_atom_site_fract_z
Si Si1 0.104210 0.207134 0.260533
Si Si2 0.827219 0.297724 0.569346
Si Si3 0.247830 0.789824 0.016620
Si Si4 0.555402 0.786542 0.102012
Si Si5 0.432493 0.710836 0.373174
Si Si6 0.920608 0.200698 0.388578
Si Si7 0.201465 0.705813 0.122901
O O1 0.059333 0.285102 0.300326
O O2 0.307595 0.246982 0.357628
O O3 0.954050 0.271530 0.122748
O O4 0.085924 0.000000 0.255035
O O5 0.806114 0.500000 0.539211
O O6 0.633850 0.223719 0.477313
O O7 0.920414 0.205265 0.567768
O O8 0.245562 0.000000 0.017270
O O9 0.392810 0.737990 0.051578
O O10 0.293519 0.726648 0.111666
O O11 0.743712 0.725723 0.246772
O O12 0.567049 0.000000 0.105667
O O13 0.500000 0.728970 0.000000
O O14 0.447902 0.500000 0.383161
O O15 0.314323 0.778658 0.245922
O O16 0.000000 0.277241 0.500000
O O17 0.870619 0.000000 0.373908
O O18 0.184230 0.500000 0.125619
O O19 0.000000 0.783403 0.000000
#
# Coordination Sequence:
#
# PCOD9150280 Si02
#       7
#     4   4   4   4   4   4   4
#     4  11  22  37  59  89 119 149 190 240 286 338
#     4  11  24  40  60  83 115 157 195 235 288 348
#     4  10  21  35  58  88 115 148 189 236 289 344
#     4   9  18  36  60  84 115 152 188 235 297 352
#     4  10  22  39  57  82 117 157 195 231 284 347
#     4  10  22  40  62  88 116 150 197 250 297 345
#     4  10  20  36  57  80 113 155 191 232 283 340
#
# _framework density 22.852806999999999
#
# number of rings (size 3 to 8) (size 9 to 14) (size 15 to 20)
#    0.000    1.857    1.429    2.143    2.000    6.857 
#    0.000    0.714    0.000    1.714    0.000    0.000 
#    0.000    0.000    0.000    0.000    0.000    0.000 
#
# Total GULP energy -156342.375793 kJ/mol
# GULP energy per Si atom -5583.656278 kJ/mol
# Density = 2.280079 g / cm^3
# Si number density = 22.852807 Si / 1000 Ang^3
#
#
#
# Elastic Constant Matrix: (Units=GPa)
#
#
# Indices 1 2 3 4 5 6 
#
# 1 139.3510 -13.3913 53.0527 0.0000 -13.6003 0.0000
# 2 -13.3913 45.2481 -1.2056 0.0000 5.4945 0.0000
# 3 53.0527 -1.2056 115.9792 0.0000 -6.9219 0.0000
# 4 0.0000 0.0000 0.0000 3.9761 0.0000 -0.0213
# 5 -13.6003 5.4945 -6.9219 0.0000 37.8724 0.0000
# 6 0.0000 0.0000 0.0000 -0.0213 0.0000 23.4351
#
#
#
# Elastic Compliance Matrix: (Units=1/GPa)
#
#
# Indices 1 2 3 4 5 6 
#
# 1 0.009150 0.002332 -0.004029 0.000000 0.002211 0.000000
# 2 0.002332 0.023091 -0.000987 0.000000 -0.002693 0.000000
# 3 -0.004029 -0.000987 0.010492 0.000000 0.000614 0.000000
# 4 0.000000 0.000000 0.000000 0.251502 0.000000 0.000229
# 5 0.002211 -0.002693 0.000614 0.000000 0.027701 0.000000
# 6 0.000000 0.000000 0.000000 0.000229 0.000000 0.042671
#
#
# Mechanical properties :
#
#
# Convention : Reuss Voigt Hill
#
# Bulk Modulus (GPa) = 26.76397 41.94334 34.35365
# Shear Modulus (GPa) = 13.07423 30.53156 21.80289
#
# Velocity S-wave (km/s) = 2.39447 3.65911 3.09213
# Velocity P-wave (km/s) = 4.40244 6.02044 5.27386
#
# Compressibility (1/GPa) = 0.03736367
#
# Stress axis : x y z
#
# Youngs Moduli (GPa) = 109.28906 43.30644 95.31298
#
# Poissons Ratio (x) = -0.10100 0.38405
# Poissons Ratio (y) = -0.25488 0.09412
# Poissons Ratio (z) = 0.44036 0.04276
#
# Static dielectric constant tensor:
#      x y z
#    x 1.792590 0.000000 0.005150 
#    y 0.000000 1.836350 0.000000 
#    z 0.005150 0.000000 1.909060 
# 
# From -- ./inp_files/49064.got.cif
#   From: 2010.05.17/outbox.cif.g08.bks.cpg/sg10_25_cif.got.tgz:49064.got - 2010.06.03 11:33:40.
