data_PCOD9150693
_publ_section_title
;
Structure prediction by ZEFSAII (Michael W. Deem and Ramdas Pophale) SiO2 
 PCOD9150693
Probable space group: P 2/M
;
_chemical_formula_sum "Si O2"
_cell_formula_units_Z 20
_cell_length_a 21.228563
_cell_length_b 8.557780
_cell_length_c 13.340998
_cell_angle_alpha 90.000000
_cell_angle_beta 22.180636
_cell_angle_gamma 90.000000
_cell_volume 914.995655
_symmetry_space_group_name_H-M "P 2/M"
_symmetry_group_IT_number 10
_symmetry_cell_setting 'monoclinic'
loop_
_space_group_symop_operation_xyz
x,y,z
-x,y,-z
-x,-y,-z
x,-y,z
loop_
_atom_site_type_symbol
_atom_site_label
_atom_site_fract_x
_atom_site_fract_y
_atom_site_fract_z
Si Si1 0.452976 0.679787 0.185099
Si Si2 0.810878 0.186021 0.300421
Si Si3 0.944957 0.316892 0.736379
Si Si4 0.672763 0.688922 0.300272
Si Si5 0.771006 0.179367 0.803285
O O1 0.477871 0.500000 0.178948
O O2 0.268019 0.731869 0.486564
O O3 0.500000 0.692929 0.000000
O O4 0.581974 0.787462 0.054353
O O5 0.700313 0.235842 0.367670
O O6 0.808175 0.000000 0.317046
O O7 0.000000 0.236548 0.000000
O O8 0.985910 0.500000 0.685258
O O9 0.830434 0.288303 0.806763
O O10 0.111726 0.222295 0.464221
O O11 0.831725 0.267988 0.996822
O O12 0.500000 0.734710 0.500000
O O13 0.670471 0.500000 0.313288
O O14 0.797250 0.000000 0.793199
#
# Coordination Sequence:
#
# PCOD9150693 Si02
#       5
#     4   4   4   4   4
#     4  11  25  44  67  92 122 167 220 267 317 380
#     4  11  26  45  66  98 136 173 213 265 330 395
#     4  10  20  36  61  92 127 166 214 263 311 379
#     4  10  22  40  65  94 126 169 219 267 318 380
#     4  11  22  37  60  91 128 165 207 263 327 380
#
# _framework density 21.858027
#
# number of rings (size 3 to 8) (size 9 to 14) (size 15 to 20)
#    0.000    1.400    0.000    6.000    2.800    6.800 
#    0.000    0.000    0.000    0.000    0.000    0.000 
#    0.000    0.000    0.000    0.000    0.000    0.000 
#
# Total GULP energy -111907.335691 kJ/mol
# GULP energy per Si atom -5595.366785 kJ/mol
# Density = 2.180828 g / cm^3
# Si number density = 21.858027 Si / 1000 Ang^3
#
#
#
# Elastic Constant Matrix: (Units=GPa)
#
#
# Indices 1 2 3 4 5 6 
#
# 1 35.8024 9.1747 17.4983 0.0000 5.8905 0.0000
# 2 9.1747 32.9269 22.7269 0.0000 10.0432 0.0000
# 3 17.4983 22.7269 127.9756 0.0000 18.3782 0.0000
# 4 0.0000 0.0000 0.0000 146.5341 0.0000 -12.8232
# 5 5.8905 10.0432 18.3782 0.0000 39.7076 0.0000
# 6 0.0000 0.0000 0.0000 -12.8232 0.0000 -19.7009
#
#
#
# Elastic Compliance Matrix: (Units=1/GPa)
#
#
# Indices 1 2 3 4 5 6 
#
# 1 0.031223 -0.006153 -0.002929 0.000000 -0.001720 0.000000
# 2 -0.006153 0.037378 -0.004895 0.000000 -0.006275 0.000000
# 3 -0.002929 -0.004895 0.009473 0.000000 -0.002712 0.000000
# 4 0.000000 0.000000 0.000000 0.006457 0.000000 -0.004203
# 5 -0.001720 -0.006275 -0.002712 0.000000 0.028282 0.000000
# 6 0.000000 0.000000 0.000000 -0.004203 0.000000 -0.048024
#
#
# Mechanical properties :
#
#
# Convention : Reuss Voigt Hill
#
# Bulk Modulus (GPa) = 19.95308 32.83386 26.39347
# Shear Modulus (GPa) = 45.68289 43.12850 44.40569
#
# Velocity S-wave (km/s) = 4.57659 4.44680 4.51216
# Velocity P-wave (km/s) = 6.08894 6.43579 6.26477
#
# Compressibility (1/GPa) = 0.05011757
#
# Stress axis : x y z
#
# Youngs Moduli (GPa) = 32.02806 26.75385 105.55960
#
# Poissons Ratio (x) = 0.16463 0.30923
# Poissons Ratio (y) = 0.19708 0.51674
# Poissons Ratio (z) = 0.09382 0.13097
#
# Static dielectric constant tensor:
#      x y z
#    x 1.788520 0.000000 0.012440 
#    y 0.000000 1.735490 0.000000 
#    z 0.012440 0.000000 1.832040 
# 
# From -- ./inp_files/71067.got.cif
#   From: 2010.05.17/outbox.cif.g08.bks.cpg/sg10_36_cif.got.tgz:71067.got - 2010.06.03 11:33:40.
