data_PCOD9150993
_publ_section_title
;
Structure prediction by ZEFSAII (Michael W. Deem and Ramdas Pophale) SiO2 
 PCOD9150993
Probable space group: P 2/M
;
_chemical_formula_sum "Si O2"
_cell_formula_units_Z 19
_cell_length_a 8.006053
_cell_length_b 25.131981
_cell_length_c 7.279138
_cell_angle_alpha 90.000000
_cell_angle_beta 38.227584
_cell_angle_gamma 90.000000
_cell_volume 906.287686
_symmetry_space_group_name_H-M "P 2/M"
_symmetry_group_IT_number 10
_symmetry_cell_setting 'monoclinic'
loop_
_space_group_symop_operation_xyz
x,y,z
-x,y,-z
-x,-y,-z
x,-y,z
loop_
_atom_site_type_symbol
_atom_site_label
_atom_site_fract_x
_atom_site_fract_y
_atom_site_fract_z
Si Si1 0.050507 0.237953 0.677188
Si Si2 0.779993 0.340496 0.844792
Si Si3 0.709863 0.440909 0.154838
Si Si4 0.000000 0.000000 0.000000
Si Si5 0.551571 0.174239 0.174465
Si Si6 0.500000 0.918795 0.500000
O O1 0.356983 0.219858 0.426466
O O2 0.000000 0.238097 0.500000
O O3 0.935083 0.295645 0.830348
O O4 0.857290 0.193638 0.929875
O O5 0.000000 0.355237 0.500000
O O6 0.500000 0.318009 0.000000
O O7 0.696203 0.392723 0.026274
O O8 0.500000 0.433464 0.500000
O O9 0.666790 0.500000 0.109814
O O10 0.000000 0.440166 0.000000
O O11 0.231266 0.045924 0.752281
O O12 0.488149 0.120058 0.333876
O O13 0.500000 0.169006 0.000000
#
# Coordination Sequence:
#
# PCOD9150993 Si02
#       6
#     4   4   4   1   4   2
#     4   9  18  34  55  81 118 149 181 234 301 346
#     4  11  21  36  60  85 116 152 197 253 308 363
#     4  10  22  40  57  78 115 158 198 251 312 364
#     4  10  24  42  62  86 128 156 188 266 292 314
#     4  10  20  37  61  86 118 159 194 238 291 356
#     4  11  22  42  62  88 120 158 203 240 294 348
#
# _framework density 20.964645000000001
#
# number of rings (size 3 to 8) (size 9 to 14) (size 15 to 20)
#    0.000    1.895    0.000    5.684    0.000    0.842 
#    5.684    3.158    0.000    0.000    0.000    0.000 
#    0.000    0.000    0.000    0.000    0.000    0.000 
#
# Total GULP energy -105841.918792 kJ/mol
# GULP energy per Si atom -5570.627305 kJ/mol
# Density = 2.091693 g / cm^3
# Si number density = 20.964645 Si / 1000 Ang^3
#
#
#
# Elastic Constant Matrix: (Units=GPa)
#
#
# Indices 1 2 3 4 5 6 
#
# 1 59.7124 30.8262 34.2184 0.0000 7.4185 0.0000
# 2 30.8262 160.9238 66.9887 0.0000 15.9142 0.0000
# 3 34.2184 66.9887 173.9486 0.0000 -14.7018 0.0000
# 4 0.0000 0.0000 0.0000 34.1487 0.0000 -15.8332
# 5 7.4185 15.9142 -14.7018 0.0000 13.7113 0.0000
# 6 0.0000 0.0000 0.0000 -15.8332 0.0000 -8.8137
#
#
#
# Elastic Compliance Matrix: (Units=1/GPa)
#
#
# Indices 1 2 3 4 5 6 
#
# 1 0.022495 0.000044 -0.006021 0.000000 -0.018678 0.000000
# 2 0.000044 0.010226 -0.005446 0.000000 -0.017732 0.000000
# 3 -0.006021 -0.005446 0.010820 0.000000 0.021180 0.000000
# 4 0.000000 0.000000 0.000000 0.015976 0.000000 -0.028701
# 5 -0.018678 -0.017732 0.021180 0.000000 0.126330 0.000000
# 6 0.000000 0.000000 0.000000 -0.028701 0.000000 -0.061901
#
#
# Mechanical properties :
#
#
# Convention : Reuss Voigt Hill
#
# Bulk Modulus (GPa) = 48.31527 73.18349 60.74938
# Shear Modulus (GPa) = 32.53316 25.31269 28.92293
#
# Velocity S-wave (km/s) = 3.94358 3.47853 3.71833
# Velocity P-wave (km/s) = 6.62056 7.14965 6.89018
#
# Compressibility (1/GPa) = 0.02069739
#
# Stress axis : x y z
#
# Youngs Moduli (GPa) = 44.45472 97.78977 92.41778
#
# Poissons Ratio (x) = -0.00434 0.55643
# Poissons Ratio (y) = -0.00197 0.50326
# Poissons Ratio (z) = 0.26765 0.53252
#
# Static dielectric constant tensor:
#      x y z
#    x 1.782970 0.000000 0.019180 
#    y 0.000000 1.776910 0.000000 
#    z 0.019180 0.000000 1.725200 
# 
# From -- ./inp_files/20614.got.cif
#   From: 2010.05.17/outbox.cif.g08.bks.cpg/sg10_11_cif.got.tgz:20614.got - 2010.06.03 11:33:40.
