data_PCOD9150064
_publ_section_title
;
Structure prediction by ZEFSAII (Michael W. Deem and Ramdas Pophale) SiO2 
 PCOD9150064
Probable space group: P 2/M
;
_chemical_formula_sum "Si O2"
_cell_formula_units_Z 32
_cell_length_a 24.162327
_cell_length_b 8.294601
_cell_length_c 15.278341
_cell_angle_alpha 90.000000
_cell_angle_beta 150.519671
_cell_angle_gamma 90.000000
_cell_volume 1506.904169
_symmetry_space_group_name_H-M "P 2/M"
_symmetry_group_IT_number 10
_symmetry_cell_setting 'monoclinic'
loop_
_space_group_symop_operation_xyz
x,y,z
-x,y,-z
-x,-y,-z
x,-y,z
loop_
_atom_site_type_symbol
_atom_site_label
_atom_site_fract_x
_atom_site_fract_y
_atom_site_fract_z
Si Si1 0.132766 0.684510 0.195167
Si Si2 0.381818 0.814963 0.384814
Si Si3 0.065685 0.695910 0.738317
Si Si4 0.834498 0.312568 0.947828
Si Si5 0.813557 0.193295 0.383741
Si Si6 0.284239 0.305873 0.928861
Si Si7 0.272812 0.191027 0.545248
Si Si8 0.464179 0.307692 0.684275
O O1 0.177738 0.500000 0.262773
O O2 0.165418 0.764205 0.148003
O O3 0.176381 0.772386 0.340672
O O4 0.000000 0.675384 0.000000
O O5 0.500000 0.804157 0.500000
O O6 0.296479 0.704111 0.211963
O O7 0.403817 0.762959 0.515208
O O8 0.343366 0.000000 0.327433
O O9 0.066359 0.500000 0.738183
O O10 0.173158 0.750637 0.829262
O O11 0.941781 0.751435 0.541848
O O12 0.089528 0.753219 0.870570
O O13 0.866474 0.500000 0.980806
O O14 0.736079 0.257517 0.199292
O O15 0.769126 0.250927 0.417661
O O16 0.812134 0.000000 0.382069
O O17 0.285004 0.500000 0.936871
O O18 0.406948 0.247686 0.129460
O O19 0.386677 0.265036 0.661287
O O20 0.289524 0.000000 0.574378
O O21 0.467236 0.500000 0.679109
#
# Coordination Sequence:
#
# PCOD9150064 Si02
#       8
#     4   4   4   4   4   4   4   4
#     4  10  20  35  58  88 119 156 201 244 292 354
#     4  11  23  37  56  86 124 163 199 240 295 359
#     4  10  21  40  65  93 125 159 201 256 312 368
#     4  10  20  35  58  88 119 156 198 240 291 350
#     4  11  25  42  62  90 123 163 206 254 315 373
#     4  10  23  42  65  92 120 157 206 261 317 367
#     4  11  24  41  60  87 126 166 205 253 310 368
#     4  11  23  41  65  91 121 160 209 259 308 365
#
# _framework density 21.235589999999998
#
# number of rings (size 3 to 8) (size 9 to 14) (size 15 to 20)
#    0.000    1.500    1.250    3.375    0.000    9.250 
#    0.000    2.500    0.000    0.000    0.000    0.000 
#    0.000    0.000    0.000    0.000    0.000    0.000 
#
# Total GULP energy -178668.151110 kJ/mol
# GULP energy per Si atom -5583.379722 kJ/mol
# Density = 2.118726 g / cm^3
# Si number density = 21.235590 Si / 1000 Ang^3
#
#
#
# Elastic Constant Matrix: (Units=GPa)
#
#
# Indices 1 2 3 4 5 6 
#
# 1 71.3899 2.2804 5.8995 0.0000 1.9452 0.0000
# 2 2.2804 10.4274 -7.6194 0.0000 2.3220 0.0000
# 3 5.8995 -7.6194 97.6241 0.0000 0.5774 0.0000
# 4 0.0000 0.0000 0.0000 -381.5485 0.0000 -117.1906
# 5 1.9452 2.3220 0.5774 0.0000 35.4053 0.0000
# 6 0.0000 0.0000 0.0000 -117.1906 0.0000 -16.3549
#
#
#
# Elastic Compliance Matrix: (Units=1/GPa)
#
#
# Indices 1 2 3 4 5 6 
#
# 1 0.014240 -0.003846 -0.001158 0.000000 -0.000511 0.000000
# 2 -0.003846 0.104404 0.008421 0.000000 -0.006773 0.000000
# 3 -0.001158 0.008421 0.010975 0.000000 -0.000668 0.000000
# 4 0.000000 0.000000 0.000000 0.002183 0.000000 -0.015639
# 5 -0.000511 -0.006773 -0.000668 0.000000 0.028728 0.000000
# 6 0.000000 0.000000 0.000000 -0.015639 0.000000 0.050917
#
#
# Mechanical properties :
#
#
# Convention : Reuss Voigt Hill
#
# Bulk Modulus (GPa) = 7.32854 20.06250 13.69552
# Shear Modulus (GPa) = 19.99228 -60.57424 -20.29098
#
# Velocity S-wave (km/s) = 3.07164 -5.34666 -3.09450
# Velocity P-wave (km/s) = 4.00481 5.35235 2.51089
#
# Compressibility (1/GPa) = 0.13645273
#
# Stress axis : x y z
#
# Youngs Moduli (GPa) = 70.22449 9.57816 91.12001
#
# Poissons Ratio (x) = 0.03684 0.10549
# Poissons Ratio (y) = 0.27011 -0.76733
# Poissons Ratio (z) = 0.08130 -0.08066
#
# Static dielectric constant tensor:
#      x y z
#    x 1.912760 0.000000 0.074980 
#    y 0.000000 1.771590 0.000000 
#    z 0.074980 0.000000 1.786020 
# 
# From -- ./inp_files/71624.got.cif
#   From: 2010.05.17/outbox.cif.g08.bks.cpg/sg10_36_cif.got.tgz:71624.got - 2010.06.03 11:33:40.
