data_PCOD9150450
_publ_section_title
;
Structure prediction by ZEFSAII (Michael W. Deem and Ramdas Pophale) SiO2 
 PCOD9150450
Probable space group: P 2/M
;
_chemical_formula_sum "Si O2"
_cell_formula_units_Z 24
_cell_length_a 12.887365
_cell_length_b 8.758951
_cell_length_c 24.720126
_cell_angle_alpha 90.000000
_cell_angle_beta 150.834942
_cell_angle_gamma 90.000000
_cell_volume 1359.839244
_symmetry_space_group_name_H-M "P 2/M"
_symmetry_group_IT_number 10
_symmetry_cell_setting 'monoclinic'
loop_
_space_group_symop_operation_xyz
x,y,z
-x,y,-z
-x,-y,-z
x,-y,z
loop_
_atom_site_type_symbol
_atom_site_label
_atom_site_fract_x
_atom_site_fract_y
_atom_site_fract_z
Si Si1 0.132902 0.183163 0.879214
Si Si2 0.538681 0.682743 0.884311
Si Si3 0.672709 0.183835 0.717801
Si Si4 0.753848 0.184415 0.877598
Si Si5 0.117221 0.315796 0.753704
Si Si6 0.363931 0.315942 0.490662
O O1 0.168717 0.243432 0.835191
O O2 0.895003 0.227822 0.790144
O O3 0.147874 0.000000 0.887538
O O4 0.300485 0.252331 0.997424
O O5 0.554843 0.500000 0.890867
O O6 0.608345 0.748074 0.858355
O O7 0.300352 0.724734 0.794391
O O8 0.685162 0.231496 0.786096
O O9 0.478862 0.252069 0.595856
O O10 0.660335 0.000000 0.710825
O O11 0.746374 0.000000 0.877082
O O12 0.000000 0.229341 0.000000
O O13 0.116709 0.500000 0.759655
O O14 0.880835 0.267989 0.627972
O O15 0.500000 0.266620 0.500000
O O16 0.369535 0.500000 0.495090
#
# Coordination Sequence:
#
# PCOD9150450 Si02
#       6
#     4   4   4   4   4   4
#     4  11  21  35  57  85 116 148 183 227 282 338
#     4  11  23  37  56  83 116 150 186 229 278 335
#     4  10  21  36  57  85 113 142 181 234 281 323
#     4  10  20  39  60  80 112 148 185 232 279 325
#     4  10  22  39  55  81 118 150 184 231 281 327
#     4  10  20  36  59  82 109 148 188 228 274 328
#
# _framework density 17.649145000000001
#
# number of rings (size 3 to 8) (size 9 to 14) (size 15 to 20)
#    0.000    1.667    3.333    1.500    0.000    6.000 
#    0.000    0.833    0.000    5.000    0.000    0.000 
#    0.000    0.000    0.000    0.000    0.000    0.000 
#
# Total GULP energy -134065.246187 kJ/mol
# GULP energy per Si atom -5586.051924 kJ/mol
# Density = 1.760897 g / cm^3
# Si number density = 17.649145 Si / 1000 Ang^3
#
#
#
# Elastic Constant Matrix: (Units=GPa)
#
#
# Indices 1 2 3 4 5 6 
#
# 1 160.0801 31.5727 53.8254 0.0000 -4.6721 0.0000
# 2 31.5727 12.0180 13.9860 0.0000 -0.2848 0.0000
# 3 53.8254 13.9860 73.5442 0.0000 -12.0083 0.0000
# 4 0.0000 0.0000 0.0000 26.2467 0.0000 -0.3904
# 5 -4.6721 -0.2848 -12.0083 0.0000 33.4261 0.0000
# 6 0.0000 0.0000 0.0000 -0.3904 0.0000 20.5209
#
#
#
# Elastic Compliance Matrix: (Units=1/GPa)
#
#
# Indices 1 2 3 4 5 6 
#
# 1 0.013882 -0.031694 -0.004101 0.000000 0.000197 0.000000
# 2 -0.031694 0.180684 -0.012362 0.000000 -0.007332 0.000000
# 3 -0.004101 -0.012362 0.020013 0.000000 0.006511 0.000000
# 4 0.000000 0.000000 0.000000 0.038111 0.000000 0.000725
# 5 0.000197 -0.007332 0.006511 0.000000 0.032221 0.000000
# 6 0.000000 0.000000 0.000000 0.000725 0.000000 0.048745
#
#
# Mechanical properties :
#
#
# Convention : Reuss Voigt Hill
#
# Bulk Modulus (GPa) = 8.45555 49.37897 28.91726
# Shear Modulus (GPa) = 10.65211 25.78927 18.22069
#
# Velocity S-wave (km/s) = 2.45939 3.82674 3.21656
# Velocity P-wave (km/s) = 3.58693 6.89667 5.49682
#
# Compressibility (1/GPa) = 0.11826554
#
# Stress axis : x y z
#
# Youngs Moduli (GPa) = 72.03331 5.53453 49.96843
#
# Poissons Ratio (x) = 0.17541 0.20491
# Poissons Ratio (y) = 2.28300 0.61772
# Poissons Ratio (z) = 0.29540 0.06842
#
# Static dielectric constant tensor:
#      x y z
#    x 1.583830 0.000000 0.015600 
#    y 0.000000 1.596610 0.000000 
#    z 0.015600 0.000000 1.579580 
# 
# From -- ./inp_files/45004.got.cif
#   From: 2010.05.17/outbox.cif.g08.bks.cpg/sg10_23_cif.got.tgz:45004.got - 2010.06.03 11:33:40.
