data_PCOD9150178
_publ_section_title
;
Structure prediction by ZEFSAII (Michael W. Deem and Ramdas Pophale) SiO2 
 PCOD9150178
Probable space group: P 2/M
;
_chemical_formula_sum "Si O2"
_cell_formula_units_Z 26
_cell_length_a 20.942020
_cell_length_b 10.180993
_cell_length_c 8.409808
_cell_angle_alpha 90.000000
_cell_angle_beta 128.852257
_cell_angle_gamma 90.000000
_cell_volume 1396.374315
_symmetry_space_group_name_H-M "P 2/M"
_symmetry_group_IT_number 10
_symmetry_cell_setting 'monoclinic'
loop_
_space_group_symop_operation_xyz
x,y,z
-x,y,-z
-x,-y,-z
x,-y,z
loop_
_atom_site_type_symbol
_atom_site_label
_atom_site_fract_x
_atom_site_fract_y
_atom_site_fract_z
Si Si1 0.408687 0.153391 0.794509
Si Si2 0.268288 0.349903 0.687415
Si Si3 0.763761 0.648865 0.989652
Si Si4 0.000000 0.766023 0.000000
Si Si5 0.827033 0.858835 0.640640
Si Si6 0.676209 0.144662 0.652651
Si Si7 0.047925 0.657428 0.734333
O O1 0.346979 0.259477 0.772544
O O2 0.397616 0.167364 0.586619
O O3 0.385621 0.000000 0.793274
O O4 0.500000 0.173347 0.000000
O O5 0.274986 0.500000 0.636551
O O6 0.253562 0.356676 0.851078
O O7 0.193126 0.269004 0.494297
O O8 0.760470 0.500000 0.918546
O O9 0.856719 0.701192 0.113568
O O10 0.696067 0.740645 0.804284
O O11 0.991091 0.690232 0.154888
O O12 0.083376 0.847030 0.146947
O O13 0.756801 0.858239 0.665192
O O14 0.820015 0.000000 0.543562
O O15 0.667061 0.000000 0.712170
O O16 0.050536 0.500000 0.723106
O O17 0.000000 0.706558 0.500000
#
# Coordination Sequence:
#
# PCOD9150178 Si02
#       7
#     4   4   4   2   4   4   4
#     4   9  19  38  62  87 115 144 179 227 281 339
#     4  10  21  36  58  83 111 147 188 230 283 342
#     4  10  20  36  53  76 111 149 186 234 285 335
#     4  12  20  34  58  78 109 154 201 248 305 344
#     4  10  21  36  54  78 110 146 190 240 289 340
#     4   9  18  34  55  79 106 142 183 225 275 338
#     4  10  21  35  51  78 115 152 198 251 296 349
#
# _framework density 18.619648999999999
#
# number of rings (size 3 to 8) (size 9 to 14) (size 15 to 20)
#    0.000    2.154    1.538    2.769    0.000    6.462 
#    0.000    0.769    0.000    6.923    0.000    0.000 
#    0.000    0.000    0.000    0.000    0.000    0.000 
#
# Total GULP energy -144829.911045 kJ/mol
# GULP energy per Si atom -5570.381194 kJ/mol
# Density = 1.857727 g / cm^3
# Si number density = 18.619649 Si / 1000 Ang^3
#
#
#
# Elastic Constant Matrix: (Units=GPa)
#
#
# Indices 1 2 3 4 5 6 
#
# 1 26.2978 18.2720 20.0542 0.0000 0.2174 0.0000
# 2 18.2720 104.4525 57.8404 0.0000 3.8736 0.0000
# 3 20.0542 57.8404 120.3826 0.0000 17.4807 0.0000
# 4 0.0000 0.0000 0.0000 24.0922 0.0000 1.3172
# 5 0.2174 3.8736 17.4807 0.0000 32.7313 0.0000
# 6 0.0000 0.0000 0.0000 1.3172 0.0000 3.2463
#
#
#
# Elastic Compliance Matrix: (Units=1/GPa)
#
#
# Indices 1 2 3 4 5 6 
#
# 1 0.045820 -0.004965 -0.005733 0.000000 0.003345 0.000000
# 2 -0.004965 0.013699 -0.005989 0.000000 0.001610 0.000000
# 3 -0.005733 -0.005989 0.013042 0.000000 -0.006219 0.000000
# 4 0.000000 0.000000 0.000000 0.042449 0.000000 -0.017224
# 5 0.003345 0.001610 -0.006219 0.000000 0.033660 0.000000
# 6 0.000000 0.000000 0.000000 -0.017224 0.000000 0.315034
#
#
# Mechanical properties :
#
#
# Convention : Reuss Voigt Hill
#
# Bulk Modulus (GPa) = 25.51817 49.27401 37.39609
# Shear Modulus (GPa) = 9.80124 22.34504 16.07314
#
# Velocity S-wave (km/s) = 2.29681 3.46797 2.94127
# Velocity P-wave (km/s) = 4.55725 6.52355 5.62695
#
# Compressibility (1/GPa) = 0.03918776
#
# Stress axis : x y z
#
# Youngs Moduli (GPa) = 21.82457 72.99996 76.67350
#
# Poissons Ratio (x) = 0.36241 0.43960
# Poissons Ratio (y) = 0.10835 0.45917
# Poissons Ratio (z) = 0.12513 0.43717
#
# Static dielectric constant tensor:
#      x y z
#    x 1.637670 0.000000 0.000740 
#    y 0.000000 1.682980 0.000000 
#    z 0.000740 0.000000 1.666590 
# 
# From -- ./inp_files/31589.got.cif
#   From: 2010.05.17/outbox.cif.g08.bks.cpg/sg10_16_cif.got.tgz:31589.got - 2010.06.03 11:33:40.
