data_PCOD9150803
_publ_section_title
;
Structure prediction by ZEFSAII (Michael W. Deem and Ramdas Pophale) SiO2 
 PCOD9150803
Probable space group: P 2/M
;
_chemical_formula_sum "Si O2"
_cell_formula_units_Z 32
_cell_length_a 25.979030
_cell_length_b 7.232532
_cell_length_c 19.423121
_cell_angle_alpha 90.000000
_cell_angle_beta 160.535616
_cell_angle_gamma 90.000000
_cell_volume 1216.086471
_symmetry_space_group_name_H-M "P 2/M"
_symmetry_group_IT_number 10
_symmetry_cell_setting 'monoclinic'
loop_
_space_group_symop_operation_xyz
x,y,z
-x,y,-z
-x,-y,-z
x,-y,z
loop_
_atom_site_type_symbol
_atom_site_label
_atom_site_fract_x
_atom_site_fract_y
_atom_site_fract_z
Si Si1 0.506577 0.725226 0.427872
Si Si2 0.198434 0.724542 0.958428
Si Si3 0.874756 0.209339 0.394603
Si Si4 0.328774 0.275970 0.984073
Si Si5 0.843673 0.723344 0.839369
Si Si6 0.339967 0.775541 0.760471
Si Si7 0.996547 0.724350 0.822791
Si Si8 0.664279 0.290304 0.406737
O O1 0.500000 0.779370 0.500000
O O2 0.505569 0.500000 0.426050
O O3 0.355906 0.781757 0.195594
O O4 0.671308 0.784791 0.603827
O O5 0.196367 0.500000 0.956532
O O6 0.209939 0.778569 0.893768
O O7 0.054325 0.788251 0.821612
O O8 0.808365 0.289014 0.381705
O O9 0.000000 0.296617 0.500000
O O10 0.926161 0.000000 0.472724
O O11 0.723395 0.204433 0.155057
O O12 0.333173 0.500000 0.985407
O O13 0.499613 0.210589 0.219120
O O14 0.843520 0.500000 0.831113
O O15 0.874114 0.765748 0.957921
O O16 0.000000 0.789260 0.000000
O O17 0.335676 0.708365 0.676711
O O18 0.336108 0.000000 0.754474
O O19 0.500000 0.720810 0.000000
O O20 0.984362 0.500000 0.805254
O O21 0.828738 0.792939 0.633411
O O22 0.663896 0.500000 0.433745
#
# Coordination Sequence:
#
# PCOD9150803 Si02
#       8
#     4   4   4   4   4   4   4   4
#     4   9  14  23  38  56  81 121 167 200 231 281
#     4   9  17  28  42  61  93 132 166 201 244 294
#     4  10  22  39  57  76  99 127 163 208 250 290
#     4  10  21  34  49  74 104 133 164 201 247 299
#     4   9  16  23  36  58  86 124 167 205 241 284
#     4  10  20  37  58  75  94 127 166 203 245 294
#     4   9  17  29  41  61  95 132 166 200 244 294
#     4  10  21  33  49  74 104 133 162 202 250 297
#
# _framework density 26.313918000000001
#
# number of rings (size 3 to 8) (size 9 to 14) (size 15 to 20)
#    0.000    2.500    2.500    0.000    3.500    1.000 
#    0.000    0.000    0.000    0.000    0.000    0.000 
#    0.000    2.000    0.000    0.125    0.000    0.000 
#
# Total GULP energy -179001.222172 kJ/mol
# GULP energy per Si atom -5593.788193 kJ/mol
# Density = 2.625403 g / cm^3
# Si number density = 26.313918 Si / 1000 Ang^3
#
#
#
# Elastic Constant Matrix: (Units=GPa)
#
#
# Indices 1 2 3 4 5 6 
#
# 1 91.7670 -1.6913 -10.1562 0.0000 23.6407 0.0000
# 2 -1.6913 132.6731 4.8405 0.0000 3.9435 0.0000
# 3 -10.1562 4.8405 99.2578 0.0000 15.4593 0.0000
# 4 0.0000 0.0000 0.0000 -9.1642 0.0000 -9.5283
# 5 23.6407 3.9435 15.4593 0.0000 53.6891 0.0000
# 6 0.0000 0.0000 0.0000 -9.5283 0.0000 -8.4284
#
#
#
# Elastic Compliance Matrix: (Units=1/GPa)
#
#
# Indices 1 2 3 4 5 6 
#
# 1 0.012777 0.000267 0.002276 0.000000 -0.006301 0.000000
# 2 0.000267 0.007568 -0.000248 0.000000 -0.000602 0.000000
# 3 0.002276 -0.000248 0.010965 0.000000 -0.004141 0.000000
# 4 0.000000 0.000000 0.000000 0.622054 0.000000 -0.703234
# 5 -0.006301 -0.000602 -0.004141 0.000000 0.022637 0.000000
# 6 0.000000 0.000000 0.000000 -0.703234 0.000000 0.676361
#
#
# Mechanical properties :
#
#
# Convention : Reuss Voigt Hill
#
# Bulk Modulus (GPa) = 27.85561 34.40933 31.13247
# Shear Modulus (GPa) = 3.67718 29.26630 16.47174
#
# Velocity S-wave (km/s) = 1.18341 3.33858 2.50465
# Velocity P-wave (km/s) = 3.53216 5.28832 4.49681
#
# Compressibility (1/GPa) = 0.03589942
#
# Stress axis : x y z
#
# Youngs Moduli (GPa) = 78.26433 132.14108 91.20194
#
# Poissons Ratio (x) = -0.03530 -0.20755
# Poissons Ratio (y) = -0.02091 0.02261
# Poissons Ratio (z) = -0.17811 0.03276
#
# Static dielectric constant tensor:
#      x y z
#    x 2.021700 0.000000 0.028040 
#    y 0.000000 2.027320 0.000000 
#    z 0.028040 0.000000 2.047340 
# 
# From -- ./inp_files/32179.got.cif
#   From: 2010.05.17/outbox.cif.g08.bks.cpg/sg10_17_cif.got.tgz:32179.got - 2010.06.03 11:33:40.
