data_PCOD9150028
_publ_section_title
;
Structure prediction by ZEFSAII (Michael W. Deem and Ramdas Pophale) SiO2 
 PCOD9150028
Probable space group: P 2/M
;
_chemical_formula_sum "Si O2"
_cell_formula_units_Z 24
_cell_length_a 14.593533
_cell_length_b 7.470232
_cell_length_c 9.798034
_cell_angle_alpha 90.000000
_cell_angle_beta 73.125298
_cell_angle_gamma 90.000000
_cell_volume 1022.160331
_symmetry_space_group_name_H-M "P 2/M"
_symmetry_group_IT_number 10
_symmetry_cell_setting 'monoclinic'
loop_
_space_group_symop_operation_xyz
x,y,z
-x,y,-z
-x,-y,-z
x,-y,z
loop_
_atom_site_type_symbol
_atom_site_label
_atom_site_fract_x
_atom_site_fract_y
_atom_site_fract_z
Si Si1 0.707327 0.286229 0.080159
Si Si2 0.911929 0.214311 0.129978
Si Si3 0.590685 0.793051 0.880704
Si Si4 0.701913 0.217239 0.577069
Si Si5 0.912304 0.218589 0.444758
Si Si6 0.414758 0.293629 0.624897
O O1 0.698374 0.500000 0.078438
O O2 0.810870 0.246867 0.098399
O O3 0.624362 0.214803 0.218195
O O4 0.681551 0.214176 0.942785
O O5 0.914760 0.279397 0.285618
O O6 0.922281 0.000000 0.134385
O O7 0.000000 0.282765 0.000000
O O8 0.626115 0.716081 0.721906
O O9 0.566208 0.000000 0.864576
O O10 0.500000 0.711651 0.000000
O O11 0.811046 0.269582 0.555550
O O12 0.673517 0.286068 0.441004
O O13 0.697846 0.000000 0.576527
O O14 0.000000 0.279079 0.500000
O O15 0.914736 0.000000 0.440800
O O16 0.500000 0.208281 0.500000
O O17 0.441383 0.500000 0.640235
#
# Coordination Sequence:
#
# PCOD9150028 Si02
#       6
#     4   4   4   4   4   4
#     4  11  23  38  58  84 118 156 192 236 287 343
#     4  10  21  37  61  87 112 148 190 236 290 344
#     4  10  22  38  57  85 118 151 193 241 285 336
#     4  10  20  35  58  84 111 144 185 237 285 331
#     4   9  18  33  55  84 111 138 179 230 282 336
#     4  10  21  37  57  81 112 151 191 231 279 340
#
# _framework density 23.479682
#
# number of rings (size 3 to 8) (size 9 to 14) (size 15 to 20)
#    0.000    2.000    1.667    1.500    2.333    2.333 
#    0.000    0.000    0.000    1.000    0.000    0.000 
#    0.000    0.000    0.000    0.000    0.000    0.000 
#
# Total GULP energy -134130.699951 kJ/mol
# GULP energy per Si atom -5588.779165 kJ/mol
# Density = 2.342624 g / cm^3
# Si number density = 23.479682 Si / 1000 Ang^3
#
#
#
# Elastic Constant Matrix: (Units=GPa)
#
#
# Indices 1 2 3 4 5 6 
#
# 1 110.5986 3.8681 16.0828 0.0000 0.2816 0.0000
# 2 3.8681 76.7258 8.7216 0.0000 -10.3606 0.0000
# 3 16.0828 8.7216 106.9341 0.0000 -3.6484 0.0000
# 4 0.0000 0.0000 0.0000 -3.8686 0.0000 11.5662
# 5 0.2816 -10.3606 -3.6484 0.0000 46.1156 0.0000
# 6 0.0000 0.0000 0.0000 11.5662 0.0000 22.5732
#
#
#
# Elastic Compliance Matrix: (Units=1/GPa)
#
#
# Indices 1 2 3 4 5 6 
#
# 1 0.009254 -0.000343 -0.001372 0.000000 -0.000242 0.000000
# 2 -0.000343 0.013561 -0.000953 0.000000 0.002973 0.000000
# 3 -0.001372 -0.000953 0.009655 0.000000 0.000558 0.000000
# 4 0.000000 0.000000 0.000000 -0.102093 0.000000 0.052311
# 5 -0.000242 0.002973 0.000558 0.000000 0.022398 0.000000
# 6 0.000000 0.000000 0.000000 0.052311 0.000000 0.017497
#
#
# Mechanical properties :
#
#
# Convention : Reuss Voigt Hill
#
# Bulk Modulus (GPa) = 36.85605 39.06705 37.96155
# Shear Modulus (GPa) = -325.77412 30.66978 -147.55217
#
# Velocity S-wave (km/s) = -11.79188 3.61810 -7.93593
# Velocity P-wave (km/s) = 13.02562 5.84200 8.23219
#
# Compressibility (1/GPa) = 0.02713259
#
# Stress axis : x y z
#
# Youngs Moduli (GPa) = 108.06320 73.74336 103.57678
#
# Poissons Ratio (x) = 0.02531 0.14211
# Poissons Ratio (y) = 0.03709 0.09870
# Poissons Ratio (z) = 0.14827 0.07027
#
# Static dielectric constant tensor:
#      x y z
#    x 1.884100 0.000000 -0.025860 
#    y 0.000000 1.874550 0.000000 
#    z -0.025860 0.000000 1.861280 
# 
# From -- ./inp_files/27010.got.cif
#   From: 2010.05.17/outbox.cif.g08.bks.cpg/sg10_14_cif.got.tgz:27010.got - 2010.06.03 11:33:40.
