data_PCOD9150052
_publ_section_title
;
Structure prediction by ZEFSAII (Michael W. Deem and Ramdas Pophale) SiO2 
 PCOD9150052
Probable space group: P 2/M
;
_chemical_formula_sum "Si O2"
_cell_formula_units_Z 32
_cell_length_a 10.983994
_cell_length_b 15.231520
_cell_length_c 13.820069
_cell_angle_alpha 90.000000
_cell_angle_beta 142.622685
_cell_angle_gamma 90.000000
_cell_volume 1403.609385
_symmetry_space_group_name_H-M "P 2/M"
_symmetry_group_IT_number 10
_symmetry_cell_setting 'monoclinic'
loop_
_space_group_symop_operation_xyz
x,y,z
-x,y,-z
-x,-y,-z
x,-y,z
loop_
_atom_site_type_symbol
_atom_site_label
_atom_site_fract_x
_atom_site_fract_y
_atom_site_fract_z
Si Si1 0.686280 0.375845 0.686360
Si Si2 0.818227 0.809466 0.818378
Si Si3 0.444659 0.105981 0.683033
Si Si4 0.563852 0.399737 0.824734
Si Si5 0.684846 0.107031 0.184703
Si Si6 0.143580 0.601929 0.500166
Si Si7 0.921140 0.894025 0.682999
Si Si8 0.085155 0.600270 0.824419
O O1 0.500000 0.402361 0.500000
O O2 0.697379 0.271142 0.697506
O O3 0.662752 0.404722 0.781801
O O4 0.900659 0.404703 0.781791
O O5 0.662225 0.861642 0.787077
O O6 0.911321 0.861730 0.786867
O O7 0.000000 0.776727 0.000000
O O8 0.364490 0.136023 0.737315
O O9 0.282334 0.132375 0.500033
O O10 0.451023 0.000000 0.689943
O O11 0.521518 0.500000 0.831571
O O12 0.350975 0.355948 0.666321
O O13 0.720005 0.360015 0.000174
O O14 0.889944 0.136061 0.262436
O O15 0.694293 0.000000 0.194122
O O16 0.500000 0.131960 0.000000
O O17 0.192704 0.500000 0.500225
O O18 0.018999 0.644051 0.334096
O O19 0.000000 0.597326 0.500000
O O20 0.928593 0.000000 0.689827
O O21 0.141029 0.500000 0.831136
#
# Coordination Sequence:
#
# PCOD9150052 Si02
#       8
#     4   4   4   4   4   4   4   4
#     4  12  23  38  59  80 111 148 186 232 288 343
#     4  12  25  38  55  81 115 150 187 235 290 342
#     4  10  20  36  58  84 113 147 188 231 279 338
#     4  10  20  35  58  87 116 148 189 236 284 336
#     4   9  17  31  55  85 113 143 182 229 278 329
#     4   9  18  33  55  85 117 150 189 232 281 334
#     4  10  20  36  58  84 113 147 188 231 279 338
#     4  10  20  35  58  87 116 148 189 236 284 336
#
# _framework density 22.798365
#
# number of rings (size 3 to 8) (size 9 to 14) (size 15 to 20)
#    0.000    1.750    1.250    4.125    0.000    6.500 
#    0.000    2.500    2.750    0.000    0.000    0.000 
#    0.000    0.000    0.000    0.000    0.000    0.000 
#
# Total GULP energy -178746.276311 kJ/mol
# GULP energy per Si atom -5585.821135 kJ/mol
# Density = 2.274648 g / cm^3
# Si number density = 22.798365 Si / 1000 Ang^3
#
#
#
# Elastic Constant Matrix: (Units=GPa)
#
#
# Indices 1 2 3 4 5 6 
#
# 1 125.4012 13.8388 46.4674 0.0000 3.8940 0.0000
# 2 13.8388 38.2901 15.3933 0.0000 0.0149 0.0000
# 3 46.4674 15.3933 198.1650 0.0000 -7.3873 0.0000
# 4 0.0000 0.0000 0.0000 10.5061 0.0000 -3.8306
# 5 3.8940 0.0149 -7.3873 0.0000 10.6577 0.0000
# 6 0.0000 0.0000 0.0000 -3.8306 0.0000 -55.5955
#
#
#
# Elastic Compliance Matrix: (Units=1/GPa)
#
#
# Indices 1 2 3 4 5 6 
#
# 1 0.009191 -0.002458 -0.002145 0.000000 -0.004841 0.000000
# 2 -0.002458 0.027640 -0.001580 0.000000 -0.000236 0.000000
# 3 -0.002145 -0.001580 0.005852 0.000000 0.004842 0.000000
# 4 0.000000 0.000000 0.000000 0.092850 0.000000 -0.006398
# 5 -0.004841 -0.000236 0.004842 0.000000 0.098955 0.000000
# 6 0.000000 0.000000 0.000000 -0.006398 0.000000 -0.017546
#
#
# Mechanical properties :
#
#
# Convention : Reuss Voigt Hill
#
# Bulk Modulus (GPa) = 32.98244 57.02839 45.00541
# Shear Modulus (GPa) = 20.88456 12.19077 16.53766
#
# Velocity S-wave (km/s) = 3.02992 2.31491 2.69622
# Velocity P-wave (km/s) = 5.17098 5.67571 5.42921
#
# Compressibility (1/GPa) = 0.03031916
#
# Stress axis : x y z
#
# Youngs Moduli (GPa) = 108.80620 36.17981 170.86975
#
# Poissons Ratio (x) = 0.08892 0.36646
# Poissons Ratio (y) = 0.26740 0.26989
# Poissons Ratio (z) = 0.23335 0.05715
#
# Static dielectric constant tensor:
#      x y z
#    x 1.823790 0.000000 -0.002940 
#    y 0.000000 1.875020 0.000000 
#    z -0.002940 0.000000 1.872500 
# 
# From -- ./inp_files/65424.got.cif
#   From: 2010.05.17/outbox.cif.g08.bks.cpg/sg10_33_cif.got.tgz:65424.got - 2010.06.03 11:33:40.
