data_PCOD9150084
_publ_section_title
;
Structure prediction by ZEFSAII (Michael W. Deem and Ramdas Pophale) SiO2 
 PCOD9150084
Probable space group: P 2/M
;
_chemical_formula_sum "Si O2"
_cell_formula_units_Z 28
_cell_length_a 9.192657
_cell_length_b 9.675912
_cell_length_c 16.068571
_cell_angle_alpha 90.000000
_cell_angle_beta 71.747893
_cell_angle_gamma 90.000000
_cell_volume 1357.347332
_symmetry_space_group_name_H-M "P 2/M"
_symmetry_group_IT_number 10
_symmetry_cell_setting 'monoclinic'
loop_
_space_group_symop_operation_xyz
x,y,z
-x,y,-z
-x,-y,-z
x,-y,z
loop_
_atom_site_type_symbol
_atom_site_label
_atom_site_fract_x
_atom_site_fract_y
_atom_site_fract_z
Si Si1 0.476596 0.275709 0.638664
Si Si2 0.737304 0.341079 0.471081
Si Si3 0.708511 0.344173 0.733057
Si Si4 0.670433 0.654883 0.933170
Si Si5 0.181446 0.844846 0.958797
Si Si6 0.999741 0.832176 0.653918
Si Si7 0.201182 0.157044 0.773668
O O1 0.623262 0.257301 0.552471
O O2 0.357530 0.352355 0.598654
O O3 0.556241 0.342885 0.704340
O O4 0.363536 0.161071 0.696761
O O5 0.762820 0.500000 0.496109
O O6 0.888171 0.250685 0.428544
O O7 0.774776 0.500000 0.716637
O O8 0.670359 0.312054 0.835540
O O9 0.831308 0.232271 0.679579
O O10 0.735003 0.500000 0.930345
O O11 0.500000 0.654144 0.000000
O O12 0.761323 0.760208 0.973270
O O13 0.215387 0.776987 0.862281
O O14 0.249234 0.000000 0.949607
O O15 0.000000 0.854060 0.000000
O O16 0.071648 0.794291 0.732211
O O17 0.004943 0.000000 0.643075
O O18 0.156649 0.000000 0.800017
#
# Coordination Sequence:
#
# PCOD9150084 Si02
#       7
#     4   4   4   4   4   4   4
#     4  10  20  35  59  85 111 145 187 232 277 330
#     4  10  20  38  62  87 112 141 185 233 279 331
#     4  11  22  37  57  82 114 150 186 227 279 333
#     4  10  22  38  55  81 116 149 184 230 281 332
#     4  10  20  36  59  84 111 147 191 235 277 326
#     4  10  22  39  58  82 115 151 186 227 276 330
#     4   9  19  36  57  83 113 147 189 234 279 327
#
# _framework density 20.628471000000001
#
# number of rings (size 3 to 8) (size 9 to 14) (size 15 to 20)
#    0.000    2.000    0.000    3.857    0.000    4.000 
#    0.000    9.286    0.000    0.000    0.000    0.000 
#    0.000    0.000    0.000    0.000    0.000    0.000 
#
# Total GULP energy -155972.373753 kJ/mol
# GULP energy per Si atom -5570.441920 kJ/mol
# Density = 2.058152 g / cm^3
# Si number density = 20.628471 Si / 1000 Ang^3
#
#
#
# Elastic Constant Matrix: (Units=GPa)
#
#
# Indices 1 2 3 4 5 6 
#
# 1 71.1417 35.2766 23.1892 0.0000 8.2546 0.0000
# 2 35.2766 45.6041 18.2495 0.0000 0.1109 0.0000
# 3 23.1892 18.2495 85.3190 0.0000 2.3378 0.0000
# 4 0.0000 0.0000 0.0000 5.4034 0.0000 -2.7394
# 5 8.2546 0.1109 2.3378 0.0000 38.1182 0.0000
# 6 0.0000 0.0000 0.0000 -2.7394 0.0000 6.0686
#
#
#
# Elastic Compliance Matrix: (Units=1/GPa)
#
#
# Indices 1 2 3 4 5 6 
#
# 1 0.024297 -0.017711 -0.002677 0.000000 -0.005046 0.000000
# 2 -0.017711 0.036893 -0.003185 0.000000 0.003923 0.000000
# 3 -0.002677 -0.003185 0.013136 0.000000 -0.000217 0.000000
# 4 0.000000 0.000000 0.000000 0.239988 0.000000 0.108331
# 5 -0.005046 0.003923 -0.000217 0.000000 0.027329 0.000000
# 6 0.000000 0.000000 0.000000 0.108331 0.000000 0.213684
#
#
# Mechanical properties :
#
#
# Convention : Reuss Voigt Hill
#
# Bulk Modulus (GPa) = 36.79309 39.49950 38.14630
# Shear Modulus (GPa) = 8.17618 18.27465 13.22542
#
# Velocity S-wave (km/s) = 1.99302 2.97963 2.53479
# Velocity P-wave (km/s) = 4.81363 5.57021 5.20568
#
# Compressibility (1/GPa) = 0.02717901
#
# Stress axis : x y z
#
# Youngs Moduli (GPa) = 41.15766 27.10533 76.12914
#
# Poissons Ratio (x) = 0.48006 0.20381
# Poissons Ratio (y) = 0.72894 0.24248
# Poissons Ratio (z) = 0.11018 0.08633
#
# Static dielectric constant tensor:
#      x y z
#    x 1.711760 0.000000 0.024930 
#    y 0.000000 1.735850 0.000000 
#    z 0.024930 0.000000 1.788210 
# 
# From -- ./inp_files/60930.got.cif
#   From: 2010.05.17/outbox.cif.g08.bks.cpg/sg10_31_cif.got.tgz:60930.got - 2010.06.03 11:33:40.
