data_PCOD9150873
_publ_section_title
;
Structure prediction by ZEFSAII (Michael W. Deem and Ramdas Pophale) SiO2 
 PCOD9150873
Probable space group: P 2/M
;
_chemical_formula_sum "Si O2"
_cell_formula_units_Z 32
_cell_length_a 27.056507
_cell_length_b 7.655048
_cell_length_c 16.960760
_cell_angle_alpha 90.000000
_cell_angle_beta 24.231175
_cell_angle_gamma 90.000000
_cell_volume 1441.759070
_symmetry_space_group_name_H-M "P 2/M"
_symmetry_group_IT_number 10
_symmetry_cell_setting 'monoclinic'
loop_
_space_group_symop_operation_xyz
x,y,z
-x,y,-z
-x,-y,-z
x,-y,z
loop_
_atom_site_type_symbol
_atom_site_label
_atom_site_fract_x
_atom_site_fract_y
_atom_site_fract_z
Si Si1 0.634339 0.286378 0.781940
Si Si2 0.975067 0.212078 0.860867
Si Si3 0.944693 0.794244 0.724001
Si Si4 0.299241 0.700988 0.001870
Si Si5 0.258235 0.799024 0.703715
Si Si6 0.790086 0.711829 0.704410
Si Si7 0.228913 0.296477 0.568751
Si Si8 0.488487 0.700859 0.603824
O O1 0.636499 0.500000 0.777458
O O2 0.727195 0.230570 0.714887
O O3 0.679110 0.227321 0.631226
O O4 0.500000 0.232439 0.000000
O O5 0.962732 0.266897 0.787896
O O6 0.096799 0.280192 0.723004
O O7 0.981284 0.000000 0.854006
O O8 0.858320 0.268562 0.080086
O O9 0.832380 0.704045 0.845940
O O10 0.071167 0.767181 0.496291
O O11 0.917076 0.000000 0.766106
O O12 0.339096 0.500000 0.956146
O O13 0.281952 0.777318 0.114247
O O14 0.393536 0.781999 0.803224
O O15 0.234937 0.792163 0.644527
O O16 0.380424 0.702727 0.548181
O O17 0.275430 0.000000 0.703164
O O18 0.788471 0.500000 0.708213
O O19 0.256236 0.500000 0.542633
O O20 0.500000 0.781197 0.500000
O O21 0.446650 0.500000 0.652051
#
# Coordination Sequence:
#
# PCOD9150873 Si02
#       8
#     4   4   4   4   4   4   4   4
#     4   9  19  35  59  87 116 152 190 234 287 346
#     4  10  22  40  59  82 117 158 194 234 289 351
#     4  11  22  37  59  85 117 153 194 242 289 340
#     4  10  22  37  59  86 117 153 192 240 292 348
#     4  11  24  40  60  85 118 159 195 233 288 354
#     4  10  20  37  59  85 115 152 195 235 287 349
#     4  11  22  37  62  91 116 148 195 246 289 334
#     4  10  22  41  63  90 119 149 192 247 292 333
#
# _framework density 22.195108000000001
#
# number of rings (size 3 to 8) (size 9 to 14) (size 15 to 20)
#    0.000    1.750    1.250    2.625    1.750    5.750 
#    0.000    0.000    0.000    1.875    0.000    0.000 
#    0.000    0.000    0.000    0.000    0.000    0.000 
#
# Total GULP energy -178922.712643 kJ/mol
# GULP energy per Si atom -5591.334770 kJ/mol
# Density = 2.214459 g / cm^3
# Si number density = 22.195108 Si / 1000 Ang^3
#
#
#
# Elastic Constant Matrix: (Units=GPa)
#
#
# Indices 1 2 3 4 5 6 
#
# 1 54.5411 -5.9116 12.4790 0.0000 27.7456 0.0000
# 2 -5.9116 47.5336 -2.7915 0.0000 5.8477 0.0000
# 3 12.4790 -2.7915 153.3361 0.0000 29.9435 0.0000
# 4 0.0000 0.0000 0.0000 25.2247 0.0000 -13.3138
# 5 27.7456 5.8477 29.9435 0.0000 44.7739 0.0000
# 6 0.0000 0.0000 0.0000 -13.3138 0.0000 25.3306
#
#
#
# Elastic Compliance Matrix: (Units=1/GPa)
#
#
# Indices 1 2 3 4 5 6 
#
# 1 0.028584 0.006058 0.001607 0.000000 -0.019579 0.000000
# 2 0.006058 0.022820 0.001423 0.000000 -0.007686 0.000000
# 3 0.001607 0.001423 0.007646 0.000000 -0.006295 0.000000
# 4 0.000000 0.000000 0.000000 0.054864 0.000000 0.028837
# 5 -0.019579 -0.007686 -0.006295 0.000000 0.039681 0.000000
# 6 0.000000 0.000000 0.000000 0.028837 0.000000 0.054634
#
#
# Mechanical properties :
#
#
# Convention : Reuss Voigt Hill
#
# Bulk Modulus (GPa) = 12.94875 29.21807 21.08341
# Shear Modulus (GPa) = 23.17019 35.84151 29.50585
#
# Velocity S-wave (km/s) = 3.23450 4.02286 3.65003
# Velocity P-wave (km/s) = 4.44927 5.89667 5.22335
#
# Compressibility (1/GPa) = 0.07722750
#
# Stress axis : x y z
#
# Youngs Moduli (GPa) = 34.98508 43.82060 130.78561
#
# Poissons Ratio (x) = -0.26546 -0.21023
# Poissons Ratio (y) = -0.21194 -0.18616
# Poissons Ratio (z) = -0.05624 -0.06238
#
# Static dielectric constant tensor:
#      x y z
#    x 1.767510 0.000000 0.037160 
#    y 0.000000 1.849680 0.000000 
#    z 0.037160 0.000000 1.792230 
# 
# From -- ./inp_files/71543.got.cif
#   From: 2010.05.17/outbox.cif.g08.bks.cpg/sg10_36_cif.got.tgz:71543.got - 2010.06.03 11:33:40.
