data_PCOD9150154
_publ_section_title
;
Structure prediction by ZEFSAII (Michael W. Deem and Ramdas Pophale) SiO2 
 PCOD9150154
Probable space group: P 2/M
;
_chemical_formula_sum "Si O2"
_cell_formula_units_Z 32
_cell_length_a 14.475370
_cell_length_b 14.347933
_cell_length_c 8.402769
_cell_angle_alpha 90.000000
_cell_angle_beta 58.634554
_cell_angle_gamma 90.000000
_cell_volume 1490.152018
_symmetry_space_group_name_H-M "P 2/M"
_symmetry_group_IT_number 10
_symmetry_cell_setting 'monoclinic'
loop_
_space_group_symop_operation_xyz
x,y,z
-x,y,-z
-x,-y,-z
x,-y,z
loop_
_atom_site_type_symbol
_atom_site_label
_atom_site_fract_x
_atom_site_fract_y
_atom_site_fract_z
Si Si1 0.662105 0.394829 0.453500
Si Si2 0.092689 0.252453 0.527997
Si Si3 0.955054 0.609956 0.863949
Si Si4 0.437659 0.604530 0.813552
Si Si5 0.240790 0.707488 0.115708
Si Si6 0.714059 0.107754 0.080702
Si Si7 0.529277 0.109678 0.650436
Si Si8 0.256823 0.807161 0.594423
O O1 0.707390 0.500000 0.437304
O O2 0.610160 0.394194 0.323341
O O3 0.564668 0.379188 0.667833
O O4 0.736625 0.304354 0.388239
O O5 0.187546 0.298131 0.336154
O O6 0.147269 0.178929 0.596998
O O7 0.000000 0.209925 0.500000
O O8 0.031206 0.333653 0.676675
O O9 0.957512 0.500000 0.833363
O O10 0.834346 0.647220 0.936382
O O11 0.000000 0.627976 0.000000
O O12 0.424378 0.500000 0.889811
O O13 0.363712 0.673444 0.982216
O O14 0.229769 0.815175 0.076080
O O15 0.584864 0.116370 0.159866
O O16 0.734353 0.139431 0.245780
O O17 0.743689 0.000000 0.034020
O O18 0.500000 0.147486 0.500000
O O19 0.637782 0.161541 0.601226
O O20 0.555075 0.000000 0.612110
#
# Coordination Sequence:
#
# PCOD9150154 Si02
#       8
#     4   4   4   4   4   4   4   4
#     4   9  18  29  48  83 120 149 191 240 280 338
#     4  10  25  41  57  83 119 156 196 242 298 354
#     4  10  22  40  64  91 114 144 198 260 303 341
#     4   9  17  30  50  82 119 154 188 229 285 349
#     4  11  20  37  59  81 119 161 195 234 298 364
#     4  10  20  35  61  94 120 147 192 245 294 353
#     4   8  16  30  54  89 119 144 186 242 294 344
#     4  11  18  34  60  81 113 159 199 244 290 345
#
# _framework density 21.474318
#
# number of rings (size 3 to 8) (size 9 to 14) (size 15 to 20)
#    0.000    2.250    1.250    3.750    3.500    3.250 
#    0.000    3.750    0.000   20.250    0.000    0.000 
#    0.000    0.000    0.000    0.000    0.000    0.000 
#
# Total GULP energy -178606.634114 kJ/mol
# GULP energy per Si atom -5581.457316 kJ/mol
# Density = 2.142544 g / cm^3
# Si number density = 21.474318 Si / 1000 Ang^3
#
#
#
# Elastic Constant Matrix: (Units=GPa)
#
#
# Indices 1 2 3 4 5 6 
#
# 1 36.8589 39.1497 10.3178 0.0000 2.1500 0.0000
# 2 39.1497 87.2088 19.4731 0.0000 -0.0572 0.0000
# 3 10.3178 19.4731 66.8444 0.0000 -10.1117 0.0000
# 4 0.0000 0.0000 0.0000 16.3018 0.0000 -14.4920
# 5 2.1500 -0.0572 -10.1117 0.0000 12.4473 0.0000
# 6 0.0000 0.0000 0.0000 -14.4920 0.0000 2.4803
#
#
#
# Elastic Compliance Matrix: (Units=1/GPa)
#
#
# Indices 1 2 3 4 5 6 
#
# 1 0.053482 -0.023282 -0.003291 0.000000 -0.012018 0.000000
# 2 -0.023282 0.022516 -0.002670 0.000000 0.001956 0.000000
# 3 -0.003291 -0.002670 0.018618 0.000000 0.015681 0.000000
# 4 0.000000 0.000000 0.000000 -0.014626 0.000000 -0.085455
# 5 -0.012018 0.001956 0.015681 0.000000 0.095162 0.000000
# 6 0.000000 0.000000 0.000000 -0.085455 0.000000 -0.096127
#
#
# Mechanical properties :
#
#
# Convention : Reuss Voigt Hill
#
# Bulk Modulus (GPa) = 27.67736 36.53259 32.10497
# Shear Modulus (GPa) = 33.43299 14.37731 23.90515
#
# Velocity S-wave (km/s) = 3.95002 2.59030 3.34008
# Velocity P-wave (km/s) = 5.80690 5.09856 5.46422
#
# Compressibility (1/GPa) = 0.03613062
#
# Stress axis : x y z
#
# Youngs Moduli (GPa) = 18.69801 44.41308 53.71200
#
# Poissons Ratio (x) = 1.03403 0.17674
# Poissons Ratio (y) = 0.43533 0.14340
# Poissons Ratio (z) = 0.06153 0.11857
#
# Static dielectric constant tensor:
#      x y z
#    x 1.836130 0.000000 0.004020 
#    y 0.000000 1.752750 0.000000 
#    z 0.004020 0.000000 1.815290 
# 
# From -- ./inp_files/29489.got.cif
#   From: 2010.05.17/outbox.cif.g08.bks.cpg/sg10_15_cif.got.tgz:29489.got - 2010.06.03 11:33:40.
