data_PCOD9150909
_publ_section_title
;
Structure prediction by ZEFSAII (Michael W. Deem and Ramdas Pophale) SiO2 
 PCOD9150909
Probable space group: P 2/M
;
_chemical_formula_sum "Si O2"
_cell_formula_units_Z 24
_cell_length_a 7.616565
_cell_length_b 11.148053
_cell_length_c 24.978099
_cell_angle_alpha 90.000000
_cell_angle_beta 34.335702
_cell_angle_gamma 90.000000
_cell_volume 1196.266662
_symmetry_space_group_name_H-M "P 2/M"
_symmetry_group_IT_number 10
_symmetry_cell_setting 'monoclinic'
loop_
_space_group_symop_operation_xyz
x,y,z
-x,y,-z
-x,-y,-z
x,-y,z
loop_
_atom_site_type_symbol
_atom_site_label
_atom_site_fract_x
_atom_site_fract_y
_atom_site_fract_z
Si Si1 0.697350 0.641399 0.780851
Si Si2 0.516532 0.358358 0.936936
Si Si3 0.534545 0.000000 0.358994
Si Si4 0.256749 0.000000 0.816421
Si Si5 0.000000 0.201217 0.500000
Si Si6 0.963617 0.000000 0.671413
Si Si7 0.075855 0.785437 0.925603
Si Si8 0.863381 0.256935 0.417839
O O1 0.621810 0.500000 0.800089
O O2 0.407678 0.722500 0.836867
O O3 0.961945 0.667124 0.671519
O O4 0.747815 0.678894 0.830735
O O5 0.562839 0.500000 0.930733
O O6 0.171663 0.322006 0.006738
O O7 0.500000 0.303020 0.000000
O O8 0.306063 0.884943 0.423628
O O9 0.824126 0.000000 0.328030
O O10 0.654877 0.000000 0.267899
O O11 0.066984 0.118178 0.880715
O O12 0.584730 0.000000 0.768246
O O13 0.976287 0.275362 0.450539
O O14 0.058672 0.881899 0.614820
O O15 0.000000 0.854062 0.000000
O O16 0.500000 0.275935 0.500000
#
# Coordination Sequence:
#
# PCOD9150909 Si02
#       8
#     4   4   2   2   2   2   4   4
#     4  10  21  39  61  86 115 155 200 242 296 353
#     4   9  19  38  64  90 117 153 200 245 289 352
#     4  11  21  33  58  84 112 155 204 241 284 349
#     4  12  22  38  56  89 124 152 191 245 298 353
#     4  11  20  36  57  84 112 152 205 249 286 346
#     4  12  21  37  59  85 113 155 198 239 295 348
#     4  10  20  37  60  83 117 156 191 238 299 354
#     4  12  23  39  62  86 121 157 199 250 296 350
#
# _framework density 20.062415999999999
#
# number of rings (size 3 to 8) (size 9 to 14) (size 15 to 20)
#    0.000    1.333    5.000    1.500    0.000    3.667 
#    3.000    0.833    0.000    0.000    0.000    0.000 
#    0.000    0.000    0.000    0.000    0.000    0.000 
#
# Total GULP energy -133648.356036 kJ/mol
# GULP energy per Si atom -5568.681502 kJ/mol
# Density = 2.001675 g / cm^3
# Si number density = 20.062416 Si / 1000 Ang^3
#
#
#
# Elastic Constant Matrix: (Units=GPa)
#
#
# Indices 1 2 3 4 5 6 
#
# 1 88.4355 -7.4388 22.2459 0.0000 22.3012 0.0000
# 2 -7.4388 23.3415 11.4568 0.0000 11.5963 0.0000
# 3 22.2459 11.4568 115.4045 0.0000 25.8954 0.0000
# 4 0.0000 0.0000 0.0000 33.8758 0.0000 7.4673
# 5 22.3012 11.5963 25.8954 0.0000 39.8845 0.0000
# 6 0.0000 0.0000 0.0000 7.4673 0.0000 14.3582
#
#
#
# Elastic Compliance Matrix: (Units=1/GPa)
#
#
# Indices 1 2 3 4 5 6 
#
# 1 0.015354 0.011029 -0.001649 0.000000 -0.010721 0.000000
# 2 0.011029 0.058393 -0.003195 0.000000 -0.021070 0.000000
# 3 -0.001649 -0.003195 0.010400 0.000000 -0.004901 0.000000
# 4 0.000000 0.000000 0.000000 0.033342 0.000000 -0.017340
# 5 -0.010721 -0.021070 -0.004901 0.000000 0.040375 0.000000
# 6 0.000000 0.000000 0.000000 -0.017340 0.000000 0.078665
#
#
# Mechanical properties :
#
#
# Convention : Reuss Voigt Hill
#
# Bulk Modulus (GPa) = 10.36094 31.07880 20.71987
# Shear Modulus (GPa) = 19.50601 31.01821 25.26211
#
# Velocity S-wave (km/s) = 3.12150 3.93630 3.55234
# Velocity P-wave (km/s) = 4.26231 6.01531 5.21302
#
# Compressibility (1/GPa) = 0.09651637
#
# Stress axis : x y z
#
# Youngs Moduli (GPa) = 65.13093 17.12534 96.15355
#
# Poissons Ratio (x) = -0.18887 0.15854
# Poissons Ratio (y) = -0.71831 0.30722
# Poissons Ratio (z) = 0.10739 0.05472
#
# Static dielectric constant tensor:
#      x y z
#    x 1.885590 0.000000 0.077930 
#    y 0.000000 1.699120 0.000000 
#    z 0.077930 0.000000 1.748190 
# 
# From -- ./inp_files/88059.got.cif
#   From: 2010.05.17/outbox.cif.g08.bks.cpg/sg10_45_cif.got.tgz:88059.got - 2010.06.03 11:33:40.
