data_PCOD9150169
_publ_section_title
;
Structure prediction by ZEFSAII (Michael W. Deem and Ramdas Pophale) SiO2 
 PCOD9150169
Probable space group: P 2/M
;
_chemical_formula_sum "Si O2"
_cell_formula_units_Z 28
_cell_length_a 12.314737
_cell_length_b 16.071502
_cell_length_c 8.613426
_cell_angle_alpha 90.000000
_cell_angle_beta 55.850445
_cell_angle_gamma 90.000000
_cell_volume 1410.798423
_symmetry_space_group_name_H-M "P 2/M"
_symmetry_group_IT_number 10
_symmetry_cell_setting 'monoclinic'
loop_
_space_group_symop_operation_xyz
x,y,z
-x,y,-z
-x,-y,-z
x,-y,z
loop_
_atom_site_type_symbol
_atom_site_label
_atom_site_fract_x
_atom_site_fract_y
_atom_site_fract_z
Si Si1 0.699172 0.097739 0.267497
Si Si2 0.131168 0.755145 0.812489
Si Si3 0.380241 0.500000 0.715200
Si Si4 0.886936 0.341413 0.462395
Si Si5 0.646659 0.713516 0.843001
Si Si6 0.100230 0.500000 0.773093
Si Si7 0.643445 0.318907 0.179149
Si Si8 0.457775 0.826242 0.316784
O O1 0.828913 0.153577 0.158976
O O2 0.631591 0.131467 0.481410
O O3 0.592973 0.120815 0.218197
O O4 0.719534 0.000000 0.256303
O O5 0.113201 0.741007 0.644820
O O6 0.253511 0.698975 0.768257
O O7 0.000000 0.726142 0.000000
O O8 0.500000 0.500000 0.500000
O O9 0.244828 0.500000 0.729579
O O10 0.383474 0.415766 0.810419
O O11 0.744671 0.340411 0.660292
O O12 0.911976 0.419173 0.327951
O O13 0.000000 0.339330 0.500000
O O14 0.617753 0.802111 0.780589
O O15 0.500000 0.679737 0.000000
O O16 0.704054 0.717077 0.970605
O O17 0.000000 0.500000 0.000000
O O18 0.512665 0.265667 0.316352
#
# Coordination Sequence:
#
# PCOD9150169 Si02
#       8
#     4   4   2   4   4   2   4   4
#     4  10  20  35  66  99 128 162 209 268 331 394
#     4  11  22  40  65  93 124 170 223 262 319 398
#     4  12  28  38  68  98 135 169 226 278 325 367
#     4  12  25  43  66  92 124 176 224 268 326 381
#     4  10  22  39  64  94 129 166 210 269 318 379
#     4  12  29  46  62  90 134 171 225 279 317 382
#     4  10  23  39  62  92 132 168 215 264 325 377
#     4   9  18  36  61  90 129 159 211 248 320 388
#
# _framework density 19.846916
#
# number of rings (size 3 to 8) (size 9 to 14) (size 15 to 20)
#    0.000    1.429    2.857    2.357   10.000    0.857 
#    0.000    3.571    0.000   28.714    0.000    0.000 
#    0.000    0.000    0.000    0.000    0.000    0.000 
#
# Total GULP energy -156078.211728 kJ/mol
# GULP energy per Si atom -5574.221847 kJ/mol
# Density = 1.980174 g / cm^3
# Si number density = 19.846916 Si / 1000 Ang^3
#
#
#
# Elastic Constant Matrix: (Units=GPa)
#
#
# Indices 1 2 3 4 5 6 
#
# 1 75.8930 14.8901 30.6847 0.0000 4.2052 0.0000
# 2 14.8901 125.7112 16.0430 0.0000 10.2944 0.0000
# 3 30.6847 16.0430 110.3101 0.0000 -2.5805 0.0000
# 4 0.0000 0.0000 0.0000 18.6895 0.0000 1.9561
# 5 4.2052 10.2944 -2.5805 0.0000 39.9391 0.0000
# 6 0.0000 0.0000 0.0000 1.9561 0.0000 14.5885
#
#
#
# Elastic Compliance Matrix: (Units=1/GPa)
#
#
# Indices 1 2 3 4 5 6 
#
# 1 0.015137 -0.001144 -0.004081 0.000000 -0.001563 0.000000
# 2 -0.001144 0.008384 -0.000950 0.000000 -0.002102 0.000000
# 3 -0.004081 -0.000950 0.010370 0.000000 0.001345 0.000000
# 4 0.000000 0.000000 0.000000 0.054268 0.000000 -0.007276
# 5 -0.001563 -0.002102 0.001345 0.000000 0.025831 0.000000
# 6 0.000000 0.000000 0.000000 -0.007276 0.000000 0.069523
#
#
# Mechanical properties :
#
#
# Convention : Reuss Voigt Hill
#
# Bulk Modulus (GPa) = 46.42370 48.34998 47.38684
# Shear Modulus (GPa) = 24.62522 31.32984 27.97753
#
# Velocity S-wave (km/s) = 3.52626 3.97744 3.75863
# Velocity P-wave (km/s) = 6.32622 6.74594 6.53945
#
# Compressibility (1/GPa) = 0.02154072
#
# Stress axis : x y z
#
# Youngs Moduli (GPa) = 66.06117 119.27980 96.43050
#
# Poissons Ratio (x) = 0.13648 0.39352
# Poissons Ratio (y) = 0.07559 0.09162
# Poissons Ratio (z) = 0.26959 0.11333
#
# Static dielectric constant tensor:
#      x y z
#    x 1.758460 0.000000 0.034010 
#    y 0.000000 1.701950 0.000000 
#    z 0.034010 0.000000 1.744790 
# 
# From -- ./inp_files/25248.got.cif
#   From: 2010.05.17/outbox.cif.g08.bks.cpg/sg10_13_cif.got.tgz:25248.got - 2010.06.03 11:33:40.
