data_PCOD9150857
_publ_section_title
;
Structure prediction by ZEFSAII (Michael W. Deem and Ramdas Pophale) SiO2 
 PCOD9150857
Probable space group: P 2/M
;
_chemical_formula_sum "Si O2"
_cell_formula_units_Z 32
_cell_length_a 14.428386
_cell_length_b 21.531634
_cell_length_c 14.245445
_cell_angle_alpha 90.000000
_cell_angle_beta 20.140526
_cell_angle_gamma 90.000000
_cell_volume 1523.834691
_symmetry_space_group_name_H-M "P 2/M"
_symmetry_group_IT_number 10
_symmetry_cell_setting 'monoclinic'
loop_
_space_group_symop_operation_xyz
x,y,z
-x,y,-z
-x,-y,-z
x,-y,z
loop_
_atom_site_type_symbol
_atom_site_label
_atom_site_fract_x
_atom_site_fract_y
_atom_site_fract_z
Si Si1 0.190703 0.189892 0.118880
Si Si2 0.773810 0.071661 0.794432
Si Si3 0.720765 0.269248 0.629731
Si Si4 0.201424 0.571615 0.895224
Si Si5 0.614334 0.317217 0.524171
Si Si6 0.026133 0.569943 0.269631
Si Si7 0.449147 0.390234 0.148385
Si Si8 0.907206 0.762940 0.992995
O O1 0.180970 0.120269 0.165616
O O2 0.997527 0.233056 0.365103
O O3 0.091119 0.199225 0.106084
O O4 0.486320 0.218450 0.849430
O O5 0.000000 0.077182 0.500000
O O6 0.763795 0.000000 0.836428
O O7 0.500000 0.086417 0.000000
O O8 0.686860 0.308626 0.564807
O O9 0.681090 0.322542 0.743563
O O10 0.301982 0.500000 0.797940
O O11 0.451423 0.619431 0.658937
O O12 0.026812 0.578941 0.157068
O O13 0.000000 0.579675 0.000000
O O14 0.884596 0.295071 0.215372
O O15 0.390536 0.264708 0.715286
O O16 0.131530 0.500000 0.184686
O O17 0.753553 0.575285 0.588150
O O18 0.255700 0.616189 0.087566
O O19 0.500000 0.421503 0.000000
O O20 0.000000 0.796280 0.000000
#
# Coordination Sequence:
#
# PCOD9150857 Si02
#       8
#     4   4   4   4   4   4   4   4
#     4  10  21  37  60  89 122 162 199 246 295 356
#     4  10  21  38  62  93 129 168 210 249 289 345
#     4  10  21  37  59  86 121 153 197 245 303 361
#     4  10  22  41  65  90 117 155 199 252 319 385
#     4  10  20  37  59  82 115 153 193 247 306 368
#     4  11  25  44  64  85 115 150 196 256 305 374
#     4  12  25  42  64  87 116 152 197 252 312 370
#     4  10  21  36  58  88 117 156 198 246 300 361
#
# _framework density 20.999655000000001
#
# number of rings (size 3 to 8) (size 9 to 14) (size 15 to 20)
#    0.000    1.625    1.250    3.000    3.500    3.000 
#    2.250    1.250    0.000    9.750    0.000    0.000 
#    0.000    9.000    0.000    0.000    0.000    2.000 
#
# Total GULP energy -178997.846778 kJ/mol
# GULP energy per Si atom -5593.682712 kJ/mol
# Density = 2.095186 g / cm^3
# Si number density = 20.999655 Si / 1000 Ang^3
#
#
#
# Elastic Constant Matrix: (Units=GPa)
#
#
# Indices 1 2 3 4 5 6 
#
# 1 84.2426 50.3437 33.2953 0.0000 15.5931 0.0000
# 2 50.3437 102.6540 3.3057 0.0000 4.1098 0.0000
# 3 33.2953 3.3057 101.7837 0.0000 2.3228 0.0000
# 4 0.0000 0.0000 0.0000 25.6631 0.0000 -2.4391
# 5 15.5931 4.1098 2.3228 0.0000 26.8099 0.0000
# 6 0.0000 0.0000 0.0000 -2.4391 0.0000 27.1763
#
#
#
# Elastic Compliance Matrix: (Units=1/GPa)
#
#
# Indices 1 2 3 4 5 6 
#
# 1 0.023023 -0.010621 -0.006932 0.000000 -0.011162 0.000000
# 2 -0.010621 0.014710 0.002913 0.000000 0.003670 0.000000
# 3 -0.006932 0.002913 0.011939 0.000000 0.002551 0.000000
# 4 0.000000 0.000000 0.000000 0.039302 0.000000 0.003527
# 5 -0.011162 0.003670 0.002551 0.000000 0.043008 0.000000
# 6 0.000000 0.000000 0.000000 0.003527 0.000000 0.037113
#
#
# Mechanical properties :
#
#
# Convention : Reuss Voigt Hill
#
# Bulk Modulus (GPa) = 49.03755 51.39663 50.21709
# Shear Modulus (GPa) = 24.36972 29.37890 26.87431
#
# Velocity S-wave (km/s) = 3.41028 3.74440 3.58124
# Velocity P-wave (km/s) = 6.23771 6.57436 6.40824
#
# Compressibility (1/GPa) = 0.02039254
#
# Stress axis : x y z
#
# Youngs Moduli (GPa) = 43.43421 67.98322 83.75620
#
# Poissons Ratio (x) = 0.72205 0.58057
# Poissons Ratio (y) = 0.46132 -0.24397
# Poissons Ratio (z) = 0.30107 -0.19802
#
# Static dielectric constant tensor:
#      x y z
#    x 1.812280 0.000000 0.022880 
#    y 0.000000 1.751180 0.000000 
#    z 0.022880 0.000000 1.767860 
# 
# From -- ./inp_files/67943.got.cif
#   From: 2010.05.17/outbox.cif.g08.bks.cpg/sg10_34_cif.got.tgz:67943.got - 2010.06.03 11:33:40.
