data_PCOD9150045
_publ_section_title
;
Structure prediction by ZEFSAII (Michael W. Deem and Ramdas Pophale) SiO2 
 PCOD9150045
Probable space group: P 2/M
;
_chemical_formula_sum "Si O2"
_cell_formula_units_Z 22
_cell_length_a 10.729840
_cell_length_b 9.955483
_cell_length_c 11.410278
_cell_angle_alpha 90.000000
_cell_angle_beta 106.681244
_cell_angle_gamma 90.000000
_cell_volume 1167.560695
_symmetry_space_group_name_H-M "P 2/M"
_symmetry_group_IT_number 10
_symmetry_cell_setting 'monoclinic'
loop_
_space_group_symop_operation_xyz
x,y,z
-x,y,-z
-x,-y,-z
x,-y,z
loop_
_atom_site_type_symbol
_atom_site_label
_atom_site_fract_x
_atom_site_fract_y
_atom_site_fract_z
Si Si1 0.835451 0.649341 0.244586
Si Si2 0.583424 0.342870 0.336425
Si Si3 0.870810 0.841125 0.036651
Si Si4 0.000000 0.246799 0.500000
Si Si5 0.341936 0.844666 0.218160
Si Si6 0.738999 0.849949 0.543564
O O1 0.848094 0.500000 0.198064
O O2 0.693815 0.663239 0.265634
O O3 0.936822 0.668071 0.378260
O O4 0.857917 0.758762 0.151735
O O5 0.558169 0.500000 0.355280
O O6 0.457761 0.260973 0.261658
O O7 0.646520 0.263210 0.462945
O O8 0.748434 0.819151 0.917923
O O9 0.879339 0.000000 0.064792
O O10 0.000000 0.802971 0.000000
O O11 0.880873 0.164738 0.524266
O O12 0.258565 0.835429 0.315747
O O13 0.389525 0.000000 0.224369
O O14 0.687518 0.000000 0.503244
#
# Coordination Sequence:
#
# PCOD9150045 Si02
#       6
#     4   4   4   2   4   4
#     4  10  22  39  58  82 113 148 187 230 276 330
#     4  10  22  38  56  82 115 149 187 232 279 327
#     4  10  22  40  60  84 114 146 184 230 278 331
#     4  10  20  36  60  86 114 146 182 230 282 330
#     4  10  21  37  57  82 113 148 186 230 278 329
#     4  10  20  35  58  86 114 146 187 231 277 332
#
# _framework density 18.842704999999999
#
# number of rings (size 3 to 8) (size 9 to 14) (size 15 to 20)
#    0.000    2.000    0.000    2.727    0.000   11.273 
#    0.000    5.455    0.000    0.000    0.000    0.000 
#    0.000    0.000    0.000    0.000    0.000    0.000 
#
# Total GULP energy -122857.829357 kJ/mol
# GULP energy per Si atom -5584.446789 kJ/mol
# Density = 1.879982 g / cm^3
# Si number density = 18.842705 Si / 1000 Ang^3
#
#
#
# Elastic Constant Matrix: (Units=GPa)
#
#
# Indices 1 2 3 4 5 6 
#
# 1 68.0041 49.4951 40.7916 0.0000 11.1830 0.0000
# 2 49.4951 106.3000 59.6055 0.0000 1.6735 0.0000
# 3 40.7916 59.6055 103.1184 0.0000 -5.1905 0.0000
# 4 0.0000 0.0000 0.0000 0.8741 0.0000 2.2809
# 5 11.1830 1.6735 -5.1905 0.0000 21.6733 0.0000
# 6 0.0000 0.0000 0.0000 2.2809 0.0000 11.9715
#
#
#
# Elastic Compliance Matrix: (Units=1/GPa)
#
#
# Indices 1 2 3 4 5 6 
#
# 1 0.027625 -0.008982 -0.006497 0.000000 -0.015117 0.000000
# 2 -0.008982 0.017039 -0.006204 0.000000 0.001833 0.000000
# 3 -0.006497 -0.006204 0.016243 0.000000 0.007721 0.000000
# 4 0.000000 0.000000 0.000000 2.275325 0.000000 -0.433516
# 5 -0.015117 0.001833 0.007721 0.000000 0.055647 0.000000
# 6 0.000000 0.000000 0.000000 -0.433516 0.000000 0.166129
#
#
# Mechanical properties :
#
#
# Convention : Reuss Voigt Hill
#
# Bulk Modulus (GPa) = 57.00831 64.13409 60.57120
# Shear Modulus (GPa) = 1.91775 15.40579 8.66177
#
# Velocity S-wave (km/s) = 1.00994 2.86247 2.14636
# Velocity P-wave (km/s) = 5.62854 6.71085 6.19338
#
# Compressibility (1/GPa) = 0.01754130
#
# Stress axis : x y z
#
# Youngs Moduli (GPa) = 36.19880 58.68816 61.56683
#
# Poissons Ratio (x) = 0.52711 0.40002
# Poissons Ratio (y) = 0.32512 0.38196
# Poissons Ratio (z) = 0.23519 0.36410
#
# Static dielectric constant tensor:
#      x y z
#    x 1.648790 0.000000 0.002700 
#    y 0.000000 1.644660 0.000000 
#    z 0.002700 0.000000 1.621280 
# 
# From -- ./inp_files/45023.got.cif
#   From: 2010.05.17/outbox.cif.g08.bks.cpg/sg10_23_cif.got.tgz:45023.got - 2010.06.03 11:33:40.
