data_PCOD9150672
_publ_section_title
;
Structure prediction by ZEFSAII (Michael W. Deem and Ramdas Pophale) SiO2 
 PCOD9150672
Probable space group: P 2/M
;
_chemical_formula_sum "Si O2"
_cell_formula_units_Z 32
_cell_length_a 12.670699
_cell_length_b 7.928041
_cell_length_c 15.076269
_cell_angle_alpha 90.000000
_cell_angle_beta 88.307221
_cell_angle_gamma 90.000000
_cell_volume 1513.807902
_symmetry_space_group_name_H-M "P 2/M"
_symmetry_group_IT_number 10
_symmetry_cell_setting 'monoclinic'
loop_
_space_group_symop_operation_xyz
x,y,z
-x,y,-z
-x,-y,-z
x,-y,z
loop_
_atom_site_type_symbol
_atom_site_label
_atom_site_fract_x
_atom_site_fract_y
_atom_site_fract_z
Si Si1 0.483384 0.804360 0.601008
Si Si2 0.644486 0.301811 0.745338
Si Si3 0.168603 0.295087 0.003148
Si Si4 0.044678 0.806931 0.654664
Si Si5 0.262071 0.695076 0.576509
Si Si6 0.008580 0.704838 0.855224
Si Si7 0.816452 0.295770 0.609724
Si Si8 0.603192 0.707054 0.944565
O O1 0.500000 0.737574 0.500000
O O2 0.553260 0.716454 0.674038
O O3 0.358489 0.787812 0.621122
O O4 0.514815 0.000000 0.600241
O O5 0.665025 0.500000 0.759365
O O6 0.751153 0.233139 0.696787
O O7 0.610801 0.234359 0.842066
O O8 0.168058 0.500000 0.002772
O O9 0.288497 0.240006 0.010293
O O10 0.097421 0.245607 0.089452
O O11 0.105765 0.244486 0.916523
O O12 0.149312 0.705924 0.626736
O O13 0.019293 0.780768 0.758526
O O14 0.938105 0.754901 0.607046
O O15 0.068383 0.000000 0.634071
O O16 0.293768 0.500000 0.569633
O O17 0.242416 0.763060 0.477654
O O18 0.007999 0.500000 0.847053
O O19 0.813286 0.500000 0.609341
O O20 0.600367 0.500000 0.944450
O O21 0.500000 0.764111 0.000000
#
# Coordination Sequence:
#
# PCOD9150672 Si02
#       8
#     4   4   4   4   4   4   4   4
#     4  11  23  39  60  86 120 154 188 237 293 349
#     4  10  20  36  61  89 116 152 199 245 284 338
#     4   8  15  30  54  79 106 142 191 244 286 328
#     4  12  25  37  53  83 122 154 185 233 297 362
#     4  11  23  40  62  83 109 149 197 245 287 339
#     4   9  17  33  57  80 104 144 193 238 281 334
#     4  10  21  38  60  83 109 147 198 247 287 338
#     4   9  17  29  49  82 118 145 179 234 292 336
#
# _framework density 21.138743999999999
#
# number of rings (size 3 to 8) (size 9 to 14) (size 15 to 20)
#    0.000    2.000    1.250    3.750    0.000    6.500 
#    0.000    3.750    0.000    1.125    0.000    0.000 
#    0.000    0.000    0.000    0.000    0.000    0.000 
#
# Total GULP energy -178769.808487 kJ/mol
# GULP energy per Si atom -5586.556515 kJ/mol
# Density = 2.109063 g / cm^3
# Si number density = 21.138744 Si / 1000 Ang^3
#
#
#
# Elastic Constant Matrix: (Units=GPa)
#
#
# Indices 1 2 3 4 5 6 
#
# 1 133.7556 -4.9510 18.0097 0.0000 -5.0269 0.0000
# 2 -4.9510 24.9690 -4.0787 0.0000 -4.6600 0.0000
# 3 18.0097 -4.0787 39.4066 0.0000 -6.2195 0.0000
# 4 0.0000 0.0000 0.0000 31.8270 0.0000 14.2981
# 5 -5.0269 -4.6600 -6.2195 0.0000 21.7727 0.0000
# 6 0.0000 0.0000 0.0000 14.2981 0.0000 19.2247
#
#
#
# Elastic Compliance Matrix: (Units=1/GPa)
#
#
# Indices 1 2 3 4 5 6 
#
# 1 0.008018 0.001260 -0.003350 0.000000 0.001164 0.000000
# 2 0.001260 0.043313 0.005672 0.000000 0.011181 0.000000
# 3 -0.003350 0.005672 0.028866 0.000000 0.008686 0.000000
# 4 0.000000 0.000000 0.000000 0.047186 0.000000 -0.035094
# 5 0.001164 0.011181 0.008686 0.000000 0.051072 0.000000
# 6 0.000000 0.000000 0.000000 -0.035094 0.000000 0.078117
#
#
# Mechanical properties :
#
#
# Convention : Reuss Voigt Hill
#
# Bulk Modulus (GPa) = 11.44703 24.01015 17.72859
# Shear Modulus (GPa) = 17.95156 27.17495 22.56326
#
# Velocity S-wave (km/s) = 2.91731 3.58935 3.27064
# Velocity P-wave (km/s) = 4.09567 5.34424 4.76106
#
# Compressibility (1/GPa) = 0.08735888
#
# Stress axis : x y z
#
# Youngs Moduli (GPa) = 124.72267 23.08791 34.64340
#
# Poissons Ratio (x) = -0.02909 0.11606
# Poissons Ratio (y) = -0.15712 -0.19649
# Poissons Ratio (z) = 0.41785 -0.13095
#
# Static dielectric constant tensor:
#      x y z
#    x 1.752320 0.000000 -0.012400 
#    y 0.000000 1.767090 0.000000 
#    z -0.012400 0.000000 1.749480 
# 
# From -- ./inp_files/63829.got.cif
#   From: 2010.05.17/outbox.cif.g08.bks.cpg/sg10_32_cif.got.tgz:63829.got - 2010.06.03 11:33:40.
