data_PCOD9150776
_publ_section_title
;
Structure prediction by ZEFSAII (Michael W. Deem and Ramdas Pophale) SiO2 
 PCOD9150776
Probable space group: P 2/M
;
_chemical_formula_sum "Si O2"
_cell_formula_units_Z 28
_cell_length_a 14.666976
_cell_length_b 12.915211
_cell_length_c 9.797039
_cell_angle_alpha 90.000000
_cell_angle_beta 120.893396
_cell_angle_gamma 90.000000
_cell_volume 1592.527787
_symmetry_space_group_name_H-M "P 2/M"
_symmetry_group_IT_number 10
_symmetry_cell_setting 'monoclinic'
loop_
_space_group_symop_operation_xyz
x,y,z
-x,y,-z
-x,-y,-z
x,-y,z
loop_
_atom_site_type_symbol
_atom_site_label
_atom_site_fract_x
_atom_site_fract_y
_atom_site_fract_z
Si Si1 0.342081 0.876029 0.282498
Si Si2 0.179089 0.193662 0.944961
Si Si3 0.110884 0.000000 0.500714
Si Si4 0.746977 0.806098 0.294594
Si Si5 0.024172 0.000000 0.858275
Si Si6 0.423554 0.876108 0.643492
Si Si7 0.024853 0.380099 0.859721
Si Si8 0.109093 0.620786 0.498421
O O1 0.358313 0.852736 0.454366
O O2 0.454088 0.851712 0.294676
O O3 0.324991 0.000000 0.256500
O O4 0.247357 0.818972 0.133992
O O5 0.251880 0.183810 0.867433
O O6 0.093047 0.101354 0.876173
O O7 0.117033 0.301203 0.892124
O O8 0.178694 0.899168 0.591401
O O9 0.000000 0.000000 0.500000
O O10 0.079042 0.000000 0.317179
O O11 0.632588 0.819853 0.274975
O O12 0.802936 0.699635 0.381948
O O13 0.000000 0.000000 0.000000
O O14 0.417429 0.000000 0.660062
O O15 0.054638 0.500000 0.857909
O O16 0.924572 0.359047 0.684373
O O17 0.000000 0.366842 0.000000
O O18 0.138716 0.500000 0.536282
O O19 0.000000 0.637305 0.500000
#
# Coordination Sequence:
#
# PCOD9150776 Si02
#       8
#     4   4   2   4   2   4   4   4
#     4   9  20  38  57  77 109 139 182 224 267 325
#     4  12  22  35  53  81 109 142 178 222 266 317
#     4  12  22  36  47  74 119 143 166 215 268 320
#     4  12  22  33  55  81 107 144 180 215 269 320
#     4  12  26  34  47  78 113 145 176 211 268 324
#     4   9  20  38  57  79 104 144 181 221 270 324
#     4  10  22  38  55  79 109 144 186 223 260 309
#     4  10  20  37  56  76 108 148 183 217 255 313
#
# _framework density 17.582111000000001
#
# number of rings (size 3 to 8) (size 9 to 14) (size 15 to 20)
#    0.000    1.429    4.286    2.571    4.000    0.571 
#    0.000    1.429    0.000    0.857    0.000    4.000 
#    0.000    0.000    0.000    0.000    0.000    0.000 
#
# Total GULP energy -156422.964917 kJ/mol
# GULP energy per Si atom -5586.534461 kJ/mol
# Density = 1.754209 g / cm^3
# Si number density = 17.582111 Si / 1000 Ang^3
#
#
#
# Elastic Constant Matrix: (Units=GPa)
#
#
# Indices 1 2 3 4 5 6 
#
# 1 39.7344 10.3204 -18.2463 0.0000 -19.5014 0.0000
# 2 10.3204 45.4988 5.4936 0.0000 -1.2797 0.0000
# 3 -18.2463 5.4936 41.3559 0.0000 -6.2542 0.0000
# 4 0.0000 0.0000 0.0000 6.0820 0.0000 1.0175
# 5 -19.5014 -1.2797 -6.2542 0.0000 29.4017 0.0000
# 6 0.0000 0.0000 0.0000 1.0175 0.0000 10.7704
#
#
#
# Elastic Compliance Matrix: (Units=1/GPa)
#
#
# Indices 1 2 3 4 5 6 
#
# 1 0.092263 -0.025544 0.054954 0.000000 0.071773 0.000000
# 2 -0.025544 0.029413 -0.018129 0.000000 -0.019519 0.000000
# 3 0.054954 -0.018129 0.058096 0.000000 0.048018 0.000000
# 4 0.000000 0.000000 0.000000 0.167059 0.000000 -0.015782
# 5 0.071773 -0.019519 0.048018 0.000000 0.090981 0.000000
# 6 0.000000 0.000000 0.000000 -0.015782 0.000000 0.094338
#
#
# Mechanical properties :
#
#
# Convention : Reuss Voigt Hill
#
# Bulk Modulus (GPa) = 4.94237 13.52495 9.23366
# Shear Modulus (GPa) = 8.66502 17.85226 13.25864
#
# Velocity S-wave (km/s) = 2.22239 3.18994 2.74906
# Velocity P-wave (km/s) = 3.06635 4.61267 3.91658
#
# Compressibility (1/GPa) = 0.20233227
#
# Stress axis : x y z
#
# Youngs Moduli (GPa) = 10.83862 33.99897 17.21291
#
# Poissons Ratio (x) = 0.86848 -0.94591
# Poissons Ratio (y) = 0.27686 0.31205
# Poissons Ratio (z) = -0.59562 0.61637
#
# Static dielectric constant tensor:
#      x y z
#    x 1.600530 0.000000 -0.028830 
#    y 0.000000 1.574030 0.000000 
#    z -0.028830 0.000000 1.606320 
# 
# From -- ./inp_files/29233.got.cif
#   From: 2010.05.17/outbox.cif.g08.bks.cpg/sg10_15_cif.got.tgz:29233.got - 2010.06.03 11:33:40.
