data_PCOD9150300
_publ_section_title
;
Structure prediction by ZEFSAII (Michael W. Deem and Ramdas Pophale) SiO2 
 PCOD9150300
Probable space group: P 2/M
;
_chemical_formula_sum "Si O2"
_cell_formula_units_Z 32
_cell_length_a 11.688339
_cell_length_b 17.766924
_cell_length_c 14.594853
_cell_angle_alpha 90.000000
_cell_angle_beta 149.443977
_cell_angle_gamma 90.000000
_cell_volume 1540.826524
_symmetry_space_group_name_H-M "P 2/M"
_symmetry_group_IT_number 10
_symmetry_cell_setting 'monoclinic'
loop_
_space_group_symop_operation_xyz
x,y,z
-x,y,-z
-x,-y,-z
x,-y,z
loop_
_atom_site_type_symbol
_atom_site_label
_atom_site_fract_x
_atom_site_fract_y
_atom_site_fract_z
Si Si1 0.845893 0.333049 0.192706
Si Si2 0.700776 0.584365 0.712080
Si Si3 0.286773 0.583000 0.540429
Si Si4 0.413443 0.651223 0.797010
Si Si5 0.090686 0.088999 0.458536
Si Si6 0.912759 0.169615 0.160967
Si Si7 0.511786 0.802096 0.749135
Si Si8 0.191694 0.246305 0.207042
O O1 0.732878 0.336959 0.213883
O O2 0.097675 0.364113 0.367821
O O3 0.850640 0.246812 0.168205
O O4 0.666292 0.371693 0.000756
O O5 0.500000 0.581871 0.500000
O O6 0.807762 0.500000 0.786938
O O7 0.549742 0.595602 0.698627
O O8 0.823791 0.663892 0.781665
O O9 0.229881 0.500000 0.468810
O O10 0.283933 0.591616 0.646472
O O11 0.432920 0.727940 0.750872
O O12 0.945919 0.111255 0.267308
O O13 0.311820 0.139449 0.601957
O O14 0.000000 0.105188 0.500000
O O15 0.133337 0.000000 0.484664
O O16 0.132458 0.192795 0.251675
O O17 0.712140 0.159534 0.947989
O O18 0.589610 0.774727 0.701550
O O19 0.000000 0.233400 0.000000
#
# Coordination Sequence:
#
# PCOD9150300 Si02
#       8
#     4   4   4   4   4   4   4   4
#     4  10  21  35  56  84 113 151 201 254 301 355
#     4  10  21  36  54  83 120 159 205 255 311 365
#     4  11  22  36  53  76 114 157 197 251 310 359
#     4  10  20  36  57  82 112 151 203 253 301 356
#     4  11  25  43  66  97 128 162 200 238 296 369
#     4  10  22  40  64  93 124 158 201 253 305 356
#     4  10  21  40  63  93 124 158 203 254 301 360
#     4  10  21  38  64  91 120 161 209 256 308 360
#
# _framework density 20.768075
#
# number of rings (size 3 to 8) (size 9 to 14) (size 15 to 20)
#    0.000    1.750    1.250    2.625    1.750    3.750 
#    0.000    3.750    0.000    2.250    0.000    0.000 
#    0.000    0.000    0.000    0.000    0.000    0.000 
#
# Total GULP energy -178362.547194 kJ/mol
# GULP energy per Si atom -5573.829600 kJ/mol
# Density = 2.072081 g / cm^3
# Si number density = 20.768075 Si / 1000 Ang^3
#
#
#
# Elastic Constant Matrix: (Units=GPa)
#
#
# Indices 1 2 3 4 5 6 
#
# 1 92.9432 20.3099 10.2315 0.0000 -16.3516 0.0000
# 2 20.3099 58.0914 8.9080 0.0000 0.7567 0.0000
# 3 10.2315 8.9080 46.1725 0.0000 -11.8642 0.0000
# 4 0.0000 0.0000 0.0000 20.0034 0.0000 8.7414
# 5 -16.3516 0.7567 -11.8642 0.0000 25.4903 0.0000
# 6 0.0000 0.0000 0.0000 8.7414 0.0000 26.5616
#
#
#
# Elastic Compliance Matrix: (Units=1/GPa)
#
#
# Indices 1 2 3 4 5 6 
#
# 1 0.013334 -0.004813 0.000237 0.000000 0.008807 0.000000
# 2 -0.004813 0.019607 -0.004156 0.000000 -0.005604 0.000000
# 3 0.000237 -0.004156 0.025532 0.000000 0.012159 0.000000
# 4 0.000000 0.000000 0.000000 0.058389 0.000000 -0.019216
# 5 0.008807 -0.005604 0.012159 0.000000 0.050705 0.000000
# 6 0.000000 0.000000 0.000000 -0.019216 0.000000 0.043972
#
#
# Mechanical properties :
#
#
# Convention : Reuss Voigt Hill
#
# Bulk Modulus (GPa) = 24.38542 30.67845 27.53193
# Shear Modulus (GPa) = 20.60378 24.92823 22.76600
#
# Velocity S-wave (km/s) = 3.15316 3.46831 3.31449
# Velocity P-wave (km/s) = 5.00238 5.55364 5.28520
#
# Compressibility (1/GPa) = 0.04100811
#
# Stress axis : x y z
#
# Youngs Moduli (GPa) = 74.99446 51.00150 39.16727
#
# Poissons Ratio (x) = 0.24547 -0.00927
# Poissons Ratio (y) = 0.36094 0.16279
# Poissons Ratio (z) = -0.01775 0.21198
#
# Static dielectric constant tensor:
#      x y z
#    x 1.897780 0.000000 0.001650 
#    y 0.000000 1.730540 0.000000 
#    z 0.001650 0.000000 1.796280 
# 
# From -- ./inp_files/65428.got.cif
#   From: 2010.05.17/outbox.cif.g08.bks.cpg/sg10_33_cif.got.tgz:65428.got - 2010.06.03 11:33:40.
