data_PCOD9150713
_publ_section_title
;
Structure prediction by ZEFSAII (Michael W. Deem and Ramdas Pophale) SiO2 
 PCOD9150713
Probable space group: P 2/M
;
_chemical_formula_sum "Si O2"
_cell_formula_units_Z 28
_cell_length_a 6.885531
_cell_length_b 22.830029
_cell_length_c 10.426293
_cell_angle_alpha 90.000000
_cell_angle_beta 110.929003
_cell_angle_gamma 90.000000
_cell_volume 1530.846894
_symmetry_space_group_name_H-M "P 2/M"
_symmetry_group_IT_number 10
_symmetry_cell_setting 'monoclinic'
loop_
_space_group_symop_operation_xyz
x,y,z
-x,y,-z
-x,-y,-z
x,-y,z
loop_
_atom_site_type_symbol
_atom_site_label
_atom_site_fract_x
_atom_site_fract_y
_atom_site_fract_z
Si Si1 0.646487 0.852250 0.657205
Si Si2 0.637737 0.154452 0.156302
Si Si3 0.514171 0.434396 0.349849
Si Si4 0.982998 0.069780 0.148555
Si Si5 0.994364 0.229315 0.646846
Si Si6 0.877925 0.635775 0.348038
Si Si7 0.042237 0.567052 0.148903
O O1 0.500000 0.865402 0.500000
O O2 0.505324 0.848911 0.751140
O O3 0.826662 0.899766 0.730489
O O4 0.776605 0.792753 0.655346
O O5 0.819320 0.200646 0.229292
O O6 0.767024 0.095574 0.152511
O O7 0.500000 0.169542 0.000000
O O8 0.500000 0.429660 0.500000
O O9 0.604975 0.500000 0.343114
O O10 0.641925 0.379491 0.326489
O O11 0.285354 0.433286 0.237631
O O12 0.991642 0.000000 0.162947
O O13 0.000000 0.084608 0.000000
O O14 0.042390 0.298169 0.650988
O O15 0.000000 0.207472 0.500000
O O16 0.000000 0.610680 0.500000
O O17 0.930351 0.601711 0.233019
O O18 0.966254 0.500000 0.130442
O O19 0.000000 0.593062 0.000000
#
# Coordination Sequence:
#
# PCOD9150713 Si02
#       7
#     4   4   4   4   4   4   4
#     4  11  22  41  66  87 124 168 204 249 305 360
#     4  11  22  41  64  92 120 167 207 246 304 362
#     4  10  20  36  62  90 116 153 199 244 299 367
#     4  10  22  39  63  98 131 158 203 254 298 361
#     4  10  23  41  60  89 118 158 211 257 304 357
#     4  11  22  39  61  89 116 158 205 253 301 358
#     4  10  22  40  59  87 124 157 192 246 311 368
#
# _framework density 18.290528999999999
#
# number of rings (size 3 to 8) (size 9 to 14) (size 15 to 20)
#    0.000    1.571    4.286    0.429    0.000    3.429 
#    5.143    2.857    0.000    0.000    0.000    0.000 
#    0.000    0.000    0.000    0.000    0.000    0.000 
#
# Total GULP energy -156153.276149 kJ/mol
# GULP energy per Si atom -5576.902720 kJ/mol
# Density = 1.824890 g / cm^3
# Si number density = 18.290529 Si / 1000 Ang^3
#
#
#
# Elastic Constant Matrix: (Units=GPa)
#
#
# Indices 1 2 3 4 5 6 
#
# 1 107.2574 35.3795 51.3452 0.0000 -16.7596 0.0000
# 2 35.3795 62.5960 35.0551 0.0000 -13.8760 0.0000
# 3 51.3452 35.0551 164.9567 0.0000 -3.7131 0.0000
# 4 0.0000 0.0000 0.0000 26.8548 0.0000 -4.9928
# 5 -16.7596 -13.8760 -3.7131 0.0000 34.5765 0.0000
# 6 0.0000 0.0000 0.0000 -4.9928 0.0000 22.3421
#
#
#
# Elastic Compliance Matrix: (Units=1/GPa)
#
#
# Indices 1 2 3 4 5 6 
#
# 1 0.012926 -0.004778 -0.002917 0.000000 0.004035 0.000000
# 2 -0.004778 0.021694 -0.002986 0.000000 0.006069 0.000000
# 3 -0.002917 -0.002986 0.007564 0.000000 -0.001800 0.000000
# 4 0.000000 0.000000 0.000000 0.038851 0.000000 0.008682
# 5 0.004035 0.006069 -0.001800 0.000000 0.033120 0.000000
# 6 0.000000 0.000000 0.000000 0.008682 0.000000 0.046699
#
#
# Mechanical properties :
#
#
# Convention : Reuss Voigt Hill
#
# Bulk Modulus (GPa) = 48.02746 64.26329 56.14537
# Shear Modulus (GPa) = 26.43295 30.95671 28.69483
#
# Velocity S-wave (km/s) = 3.80567 4.11846 3.96515
# Velocity P-wave (km/s) = 6.75469 7.60438 7.19210
#
# Compressibility (1/GPa) = 0.02082142
#
# Stress axis : x y z
#
# Youngs Moduli (GPa) = 77.36099 46.09619 132.19847
#
# Poissons Ratio (x) = 0.22024 0.38567
# Poissons Ratio (y) = 0.36962 0.39479
# Poissons Ratio (z) = 0.22569 0.13766
#
# Static dielectric constant tensor:
#      x y z
#    x 1.643120 0.000000 0.007710 
#    y 0.000000 1.633680 0.000000 
#    z 0.007710 0.000000 1.619040 
# 
# From -- ./inp_files/39763.got.cif
#   From: 2010.05.17/outbox.cif.g08.bks.cpg/sg10_20_cif.got.tgz:39763.got - 2010.06.03 11:33:40.
