data_PCOD9150777
_publ_section_title
;
Structure prediction by ZEFSAII (Michael W. Deem and Ramdas Pophale) SiO2 
 PCOD9150777
Probable space group: P 2/M
;
_chemical_formula_sum "Si O2"
_cell_formula_units_Z 28
_cell_length_a 10.835415
_cell_length_b 15.088063
_cell_length_c 9.307758
_cell_angle_alpha 90.000000
_cell_angle_beta 72.904866
_cell_angle_gamma 90.000000
_cell_volume 1454.451752
_symmetry_space_group_name_H-M "P 2/M"
_symmetry_group_IT_number 10
_symmetry_cell_setting 'monoclinic'
loop_
_space_group_symop_operation_xyz
x,y,z
-x,y,-z
-x,-y,-z
x,-y,z
loop_
_atom_site_type_symbol
_atom_site_label
_atom_site_fract_x
_atom_site_fract_y
_atom_site_fract_z
Si Si1 0.111352 0.897817 0.791919
Si Si2 0.820908 0.096085 0.567255
Si Si3 0.516304 0.899809 0.655597
Si Si4 0.123608 0.212486 0.195065
Si Si5 0.325417 0.787358 0.884983
Si Si6 0.918652 0.596421 0.878972
Si Si7 0.381642 0.402397 0.926712
O O1 0.141365 0.898247 0.611188
O O2 0.213121 0.829894 0.825991
O O3 0.969160 0.856854 0.854648
O O4 0.122918 0.000000 0.838239
O O5 0.667197 0.095876 0.629911
O O6 0.867158 0.176288 0.648167
O O7 0.866566 0.000000 0.609902
O O8 0.500000 0.860982 0.500000
O O9 0.446389 0.848065 0.806110
O O10 0.461140 0.000000 0.667975
O O11 0.063349 0.310663 0.207596
O O12 0.261490 0.212132 0.065410
O O13 0.369149 0.686650 0.837740
O O14 0.955048 0.500000 0.802400
O O15 0.763632 0.593051 0.957975
O O16 0.000000 0.603445 0.000000
O O17 0.403227 0.500000 0.851296
O O18 0.500000 0.390651 0.000000
#
# Coordination Sequence:
#
# PCOD9150777 Si02
#       7
#     4   4   4   4   4   4   4
#     4  11  22  39  57  78 115 160 193 223 277 348
#     4  10  22  38  55  76 110 157 194 221 273 346
#     4  10  20  37  56  76 109 156 196 222 270 346
#     4  11  22  34  56  89 113 137 187 244 288 322
#     4  11  22  34  60  86 110 141 190 241 284 323
#     4   9  18  35  57  82 115 150 185 229 287 354
#     4   9  19  35  56  84 117 148 182 231 294 352
#
# _framework density 19.251239999999999
#
# number of rings (size 3 to 8) (size 9 to 14) (size 15 to 20)
#    0.000    1.857    1.429    3.429    4.000    4.000 
#    0.000    1.429    0.000    3.000    0.000    0.000 
#    0.000    0.000    0.000    0.000    0.000    0.000 
#
# Total GULP energy -155996.469588 kJ/mol
# GULP energy per Si atom -5571.302485 kJ/mol
# Density = 1.920742 g / cm^3
# Si number density = 19.251240 Si / 1000 Ang^3
#
#
#
# Elastic Constant Matrix: (Units=GPa)
#
#
# Indices 1 2 3 4 5 6 
#
# 1 96.3340 29.8957 7.5253 0.0000 -5.9880 0.0000
# 2 29.8957 168.0445 40.6958 0.0000 12.5532 0.0000
# 3 7.5253 40.6958 53.9501 0.0000 -4.4035 0.0000
# 4 0.0000 0.0000 0.0000 -0.6525 0.0000 13.0298
# 5 -5.9880 12.5532 -4.4035 0.0000 32.6722 0.0000
# 6 0.0000 0.0000 0.0000 13.0298 0.0000 30.6047
#
#
#
# Elastic Compliance Matrix: (Units=1/GPa)
#
#
# Indices 1 2 3 4 5 6 
#
# 1 0.011258 -0.002334 0.000437 0.000000 0.003019 0.000000
# 2 -0.002334 0.008203 -0.006223 0.000000 -0.004418 0.000000
# 3 0.000437 -0.006223 0.023630 0.000000 0.005656 0.000000
# 4 0.000000 0.000000 0.000000 -0.161293 0.000000 0.068670
# 5 0.003019 -0.004418 0.005656 0.000000 0.033620 0.000000
# 6 0.000000 0.000000 0.000000 0.068670 0.000000 0.003439
#
#
# Mechanical properties :
#
#
# Convention : Reuss Voigt Hill
#
# Bulk Modulus (GPa) = 37.24194 52.72913 44.98553
# Shear Modulus (GPa) = -89.36459 28.53901 -30.41279
#
# Velocity S-wave (km/s) = -6.82063 3.85444 -3.97896
# Velocity P-wave (km/s) = 6.52999 6.87447 1.51948
#
# Compressibility (1/GPa) = 0.02685145
#
# Stress axis : x y z
#
# Youngs Moduli (GPa) = 88.82184 121.90462 42.31833
#
# Poissons Ratio (x) = 0.28455 -0.01848
# Poissons Ratio (y) = 0.20733 0.26334
# Poissons Ratio (z) = -0.03880 0.75859
#
# Static dielectric constant tensor:
#      x y z
#    x 1.719750 0.000000 -0.003930 
#    y 0.000000 1.718090 0.000000 
#    z -0.003930 0.000000 1.671210 
# 
# From -- ./inp_files/24886.got.cif
#   From: 2010.05.17/outbox.cif.g08.bks.cpg/sg10_13_cif.got.tgz:24886.got - 2010.06.03 11:33:40.
