data_PCOD9150719
_publ_section_title
;
Structure prediction by ZEFSAII (Michael W. Deem and Ramdas Pophale) SiO2 
 PCOD9150719
Probable space group: P 2/M
;
_chemical_formula_sum "Si O2"
_cell_formula_units_Z 32
_cell_length_a 9.326704
_cell_length_b 14.114318
_cell_length_c 15.283791
_cell_angle_alpha 90.000000
_cell_angle_beta 126.044147
_cell_angle_gamma 90.000000
_cell_volume 1626.797543
_symmetry_space_group_name_H-M "P 2/M"
_symmetry_group_IT_number 10
_symmetry_cell_setting 'monoclinic'
loop_
_space_group_symop_operation_xyz
x,y,z
-x,y,-z
-x,-y,-z
x,-y,z
loop_
_atom_site_type_symbol
_atom_site_label
_atom_site_fract_x
_atom_site_fract_y
_atom_site_fract_z
Si Si1 0.210890 0.608211 0.579989
Si Si2 0.728500 0.112759 0.784468
Si Si3 0.809115 0.265703 0.958454
Si Si4 0.365614 0.794662 0.584396
Si Si5 0.190498 0.895574 0.373126
Si Si6 0.192421 0.891837 0.686059
Si Si7 0.548237 0.390203 0.160898
Si Si8 0.315632 0.775937 0.899760
O O1 0.223123 0.500000 0.552636
O O2 0.330536 0.683136 0.571818
O O3 0.304860 0.611679 0.708928
O O4 0.000000 0.633227 0.500000
O O5 0.784818 0.173229 0.888357
O O6 0.549541 0.161856 0.683933
O O7 0.853067 0.124052 0.743549
O O8 0.709687 0.000000 0.795766
O O9 0.635876 0.333815 0.883425
O O10 0.806572 0.234132 0.059069
O O11 0.000000 0.308404 0.000000
O O12 0.318534 0.828014 0.471059
O O13 0.234796 0.837156 0.612307
O O14 0.014531 0.897147 0.367664
O O15 0.272766 0.000000 0.402748
O O16 0.264563 0.834782 0.795762
O O17 0.261747 0.000000 0.705800
O O18 0.510679 0.500000 0.127438
O O19 0.639207 0.330044 0.116916
O O20 0.500000 0.819091 0.000000
#
# Coordination Sequence:
#
# PCOD9150719 Si02
#       8
#     4   4   4   4   4   4   4   4
#     4  10  20  36  62  92 120 151 189 234 296 364
#     4  11  23  40  58  83 119 162 206 236 285 351
#     4  11  23  40  61  87 119 156 203 252 295 340
#     4  12  20  35  60  89 117 151 190 245 293 347
#     4  10  22  36  55  83 117 158 197 234 283 354
#     4  11  21  34  53  84 119 148 191 243 295 345
#     4  10  21  41  65  89 119 152 194 245 299 360
#     4  10  21  37  56  84 114 151 199 241 297 352
#
# _framework density 19.670548
#
# number of rings (size 3 to 8) (size 9 to 14) (size 15 to 20)
#    0.000    1.375    2.500    4.125    0.000    5.500 
#    0.000    0.000    0.000    2.250    0.000    0.000 
#    0.000    0.000    0.000    0.000    0.000    0.000 
#
# Total GULP energy -178401.757279 kJ/mol
# GULP energy per Si atom -5575.054915 kJ/mol
# Density = 1.962578 g / cm^3
# Si number density = 19.670548 Si / 1000 Ang^3
#
#
#
# Elastic Constant Matrix: (Units=GPa)
#
#
# Indices 1 2 3 4 5 6 
#
# 1 76.0587 -2.8148 14.8401 0.0000 -6.9271 0.0000
# 2 -2.8148 78.2818 42.5162 0.0000 -5.0975 0.0000
# 3 14.8401 42.5162 91.1621 0.0000 -2.2181 0.0000
# 4 0.0000 0.0000 0.0000 30.1609 0.0000 -0.6836
# 5 -6.9271 -5.0975 -2.2181 0.0000 34.0808 0.0000
# 6 0.0000 0.0000 0.0000 -0.6836 0.0000 18.1698
#
#
#
# Elastic Compliance Matrix: (Units=1/GPa)
#
#
# Indices 1 2 3 4 5 6 
#
# 1 0.014191 0.002575 -0.003437 0.000000 0.003046 0.000000
# 2 0.002575 0.017718 -0.008619 0.000000 0.002613 0.000000
# 3 -0.003437 -0.008619 0.015525 0.000000 -0.000977 0.000000
# 4 0.000000 0.000000 0.000000 0.033184 0.000000 0.001248
# 5 0.003046 0.002613 -0.000977 0.000000 0.030288 0.000000
# 6 0.000000 0.000000 0.000000 0.001248 0.000000 0.055083
#
#
# Mechanical properties :
#
#
# Convention : Reuss Voigt Hill
#
# Bulk Modulus (GPa) = 35.12148 39.39841 37.25995
# Shear Modulus (GPa) = 25.71455 29.21304 27.46380
#
# Velocity S-wave (km/s) = 3.61953 3.85790 3.74061
# Velocity P-wave (km/s) = 5.94656 6.31800 6.13509
#
# Compressibility (1/GPa) = 0.02847260
#
# Stress axis : x y z
#
# Youngs Moduli (GPa) = 70.46677 56.43883 64.41223
#
# Poissons Ratio (x) = -0.14535 0.22139
# Poissons Ratio (y) = -0.18148 0.55518
# Poissons Ratio (z) = 0.24220 0.48645
#
# Static dielectric constant tensor:
#      x y z
#    x 1.732590 0.000000 0.016030 
#    y 0.000000 1.706880 0.000000 
#    z 0.016030 0.000000 1.720700 
# 
# From -- ./inp_files/61881.got.cif
#   From: 2010.05.17/outbox.cif.g08.bks.cpg/sg10_31_cif.got.tgz:61881.got - 2010.06.03 11:33:40.
