data_PCOD9150926
_publ_section_title
;
Structure prediction by ZEFSAII (Michael W. Deem and Ramdas Pophale) SiO2 
 PCOD9150926
Probable space group: P 2/M
;
_chemical_formula_sum "Si O2"
_cell_formula_units_Z 28
_cell_length_a 18.884680
_cell_length_b 9.640972
_cell_length_c 22.997071
_cell_angle_alpha 90.000000
_cell_angle_beta 162.555220
_cell_angle_gamma 90.000000
_cell_volume 1255.206105
_symmetry_space_group_name_H-M "P 2/M"
_symmetry_group_IT_number 10
_symmetry_cell_setting 'monoclinic'
loop_
_space_group_symop_operation_xyz
x,y,z
-x,y,-z
-x,-y,-z
x,-y,z
loop_
_atom_site_type_symbol
_atom_site_label
_atom_site_fract_x
_atom_site_fract_y
_atom_site_fract_z
Si Si1 0.739882 0.653481 0.647981
Si Si2 0.293455 0.336286 0.974073
Si Si3 0.439376 0.846901 0.580170
Si Si4 0.042571 0.163666 0.680847
Si Si5 0.107341 0.154820 0.139846
Si Si6 0.520822 0.161472 0.774444
Si Si7 0.219550 0.342743 0.716206
O O1 0.500000 0.644857 0.500000
O O2 0.837972 0.500000 0.722882
O O3 0.701207 0.715956 0.553956
O O4 0.899851 0.761689 0.807513
O O5 0.234511 0.500000 0.932638
O O6 0.349704 0.263916 0.079927
O O7 0.540038 0.327337 0.131233
O O8 0.110566 0.247285 0.792255
O O9 0.625140 0.862390 0.673027
O O10 0.565392 0.818962 0.740198
O O11 0.321091 0.000000 0.493522
O O12 0.189332 0.232262 0.743477
O O13 0.764896 0.180579 0.447488
O O14 0.090735 0.000000 0.724657
O O15 0.006461 0.000000 0.066685
O O16 0.000000 0.230765 0.000000
O O17 0.572043 0.000000 0.829262
O O18 0.212172 0.500000 0.735200
O O19 0.000000 0.328946 0.500000
#
# Coordination Sequence:
#
# PCOD9150926 Si02
#       7
#     4   4   4   4   4   4   4
#     4   9  17  30  50  75 102 133 169 213 263 313
#     4  11  23  39  61  85 114 151 190 235 285 341
#     4   9  18  35  56  76 103 142 182 219 266 325
#     4  11  23  38  59  86 115 148 190 239 287 335
#     4   9  17  31  53  80 106 135 175 223 270 319
#     4  10  22  40  59  81 114 154 193 235 281 334
#     4  10  20  37  60  85 113 148 189 234 286 339
#
# _framework density 22.307092999999998
#
# number of rings (size 3 to 8) (size 9 to 14) (size 15 to 20)
#    0.000    2.143    1.429    1.714    0.000    6.286 
#    2.571    0.000    0.000    0.000    0.000    0.000 
#    0.000    0.000    0.000    0.000    0.000    0.000 
#
# Total GULP energy -156362.163528 kJ/mol
# GULP energy per Si atom -5584.362983 kJ/mol
# Density = 2.225632 g / cm^3
# Si number density = 22.307093 Si / 1000 Ang^3
#
#
#
# Elastic Constant Matrix: (Units=GPa)
#
#
# Indices 1 2 3 4 5 6 
#
# 1 118.0798 73.6817 32.8064 0.0000 -9.0997 0.0000
# 2 73.6817 163.2179 48.3858 0.0000 -44.3431 0.0000
# 3 32.8064 48.3858 41.8917 0.0000 -24.0304 0.0000
# 4 0.0000 0.0000 0.0000 26.9183 0.0000 -9.3707
# 5 -9.0997 -44.3431 -24.0304 0.0000 47.8024 0.0000
# 6 0.0000 0.0000 0.0000 -9.3707 0.0000 14.9960
#
#
#
# Elastic Compliance Matrix: (Units=1/GPa)
#
#
# Indices 1 2 3 4 5 6 
#
# 1 0.013687 -0.005590 -0.008069 0.000000 -0.006636 0.000000
# 2 -0.005590 0.012359 -0.005525 0.000000 0.007623 0.000000
# 3 -0.008069 -0.005525 0.046022 0.000000 0.016474 0.000000
# 4 0.000000 0.000000 0.000000 0.047477 0.000000 0.029667
# 5 -0.006636 0.007623 0.016474 0.000000 0.035009 0.000000
# 6 0.000000 0.000000 0.000000 0.029667 0.000000 0.085223
#
#
# Mechanical properties :
#
#
# Convention : Reuss Voigt Hill
#
# Bulk Modulus (GPa) = 29.67297 70.32637 49.99967
# Shear Modulus (GPa) = 17.27846 29.16439 23.22142
#
# Velocity S-wave (km/s) = 2.78613 3.61973 3.22994
# Velocity P-wave (km/s) = 4.86631 7.00463 6.03099
#
# Compressibility (1/GPa) = 0.03370071
#
# Stress axis : x y z
#
# Youngs Moduli (GPa) = 73.06036 80.91298 21.72896
#
# Poissons Ratio (x) = 0.45227 0.17534
# Poissons Ratio (y) = 0.40838 0.12004
# Poissons Ratio (z) = 0.58956 0.44701
#
# Static dielectric constant tensor:
#      x y z
#    x 1.854250 0.000000 0.076740 
#    y 0.000000 1.796000 0.000000 
#    z 0.076740 0.000000 1.871560 
# 
# From -- ./inp_files/86474.got.cif
#   From: 2010.05.17/outbox.cif.g08.bks.cpg/sg10_44_cif.got.tgz:86474.got - 2010.06.03 11:33:40.
