data_PCOD9150723
_publ_section_title
;
Structure prediction by ZEFSAII (Michael W. Deem and Ramdas Pophale) SiO2 
 PCOD9150723
Probable space group: P 2/M
;
_chemical_formula_sum "Si O2"
_cell_formula_units_Z 32
_cell_length_a 21.620686
_cell_length_b 13.870676
_cell_length_c 14.605670
_cell_angle_alpha 90.000000
_cell_angle_beta 161.767076
_cell_angle_gamma 90.000000
_cell_volume 1370.463353
_symmetry_space_group_name_H-M "P 2/M"
_symmetry_group_IT_number 10
_symmetry_cell_setting 'monoclinic'
loop_
_space_group_symop_operation_xyz
x,y,z
-x,y,-z
-x,-y,-z
x,-y,z
loop_
_atom_site_type_symbol
_atom_site_label
_atom_site_fract_x
_atom_site_fract_y
_atom_site_fract_z
Si Si1 0.411093 0.387505 0.215435
Si Si2 0.825598 0.883121 0.394272
Si Si3 0.788157 0.261888 0.712442
Si Si4 0.605753 0.113433 0.555065
Si Si5 0.746055 0.115377 0.078311
Si Si6 0.288239 0.748102 0.599129
Si Si7 0.007610 0.614722 0.726372
Si Si8 0.659953 0.611911 0.097148
O O1 0.445121 0.500000 0.282100
O O2 0.616450 0.332321 0.505143
O O3 0.326425 0.379119 0.992962
O O4 0.232455 0.352995 0.027872
O O5 0.730232 0.853186 0.161957
O O6 0.737650 0.829343 0.359004
O O7 0.054964 0.855509 0.696099
O O8 0.810497 0.000000 0.384298
O O9 0.794729 0.175193 0.794437
O O10 0.729931 0.219578 0.531076
O O11 0.000000 0.310034 0.000000
O O12 0.500000 0.140583 0.500000
O O13 0.648195 0.000000 0.617653
O O14 0.443303 0.134818 0.248658
O O15 0.767039 0.000000 0.114974
O O16 0.107093 0.674309 0.359555
O O17 0.485308 0.682694 0.882598
O O18 0.008756 0.500000 0.745051
O O19 0.866731 0.629995 0.438877
O O20 0.604506 0.500000 0.038854
#
# Coordination Sequence:
#
# PCOD9150723 Si02
#       8
#     4   4   4   4   4   4   4   4
#     4   9  20  40  64  90 122 165 217 263 311 375
#     4   9  19  36  61  93 132 171 206 251 311 382
#     4  11  27  44  62  91 130 167 211 271 324 378
#     4  10  23  43  70  95 122 168 222 270 317 368
#     4   8  17  37  61  90 123 163 214 262 309 364
#     4  11  23  36  59  96 131 172 211 251 326 393
#     4  10  20  36  62  93 125 163 209 261 312 379
#     4   9  18  36  59  89 132 168 200 252 319 386
#
# _framework density 23.349768000000001
#
# number of rings (size 3 to 8) (size 9 to 14) (size 15 to 20)
#    0.000    2.375    0.000    1.875    3.500    7.000 
#    2.250    0.000    0.000    5.625    0.000    0.000 
#    0.000    0.125    0.000    0.000    0.000    0.000 
#
# Total GULP energy -178991.516282 kJ/mol
# GULP energy per Si atom -5593.484884 kJ/mol
# Density = 2.329662 g / cm^3
# Si number density = 23.349768 Si / 1000 Ang^3
#
#
#
# Elastic Constant Matrix: (Units=GPa)
#
#
# Indices 1 2 3 4 5 6 
#
# 1 86.1180 49.2557 39.0239 0.0000 27.9486 0.0000
# 2 49.2557 93.5372 44.0188 0.0000 26.4587 0.0000
# 3 39.0239 44.0188 90.7336 0.0000 36.6514 0.0000
# 4 0.0000 0.0000 0.0000 22.5381 0.0000 12.3070
# 5 27.9486 26.4587 36.6514 0.0000 35.0498 0.0000
# 6 0.0000 0.0000 0.0000 12.3070 0.0000 35.1086
#
#
#
# Elastic Compliance Matrix: (Units=1/GPa)
#
#
# Indices 1 2 3 4 5 6 
#
# 1 0.018940 -0.006944 -0.001375 0.000000 -0.008424 0.000000
# 2 -0.006944 0.017153 -0.004053 0.000000 -0.003173 0.000000
# 3 -0.001375 -0.004053 0.020603 0.000000 -0.017389 0.000000
# 4 0.000000 0.000000 0.000000 0.054873 0.000000 -0.019235
# 5 -0.008424 -0.003173 -0.017389 0.000000 0.055826 0.000000
# 6 0.000000 0.000000 0.000000 -0.019235 0.000000 0.035226
#
#
# Mechanical properties :
#
#
# Convention : Reuss Voigt Hill
#
# Bulk Modulus (GPa) = 31.29714 59.44284 45.36999
# Shear Modulus (GPa) = 21.00713 27.74533 24.37623
#
# Velocity S-wave (km/s) = 3.00271 3.45084 3.23454
# Velocity P-wave (km/s) = 5.04523 6.43355 5.78122
#
# Compressibility (1/GPa) = 0.03195180
#
# Stress axis : x y z
#
# Youngs Moduli (GPa) = 52.79729 58.30038 48.53689
#
# Poissons Ratio (x) = 0.40485 0.06672
# Poissons Ratio (y) = 0.36663 0.19673
# Poissons Ratio (z) = 0.07257 0.23631
#
# Static dielectric constant tensor:
#      x y z
#    x 1.869170 0.000000 -0.023210 
#    y 0.000000 1.895830 0.000000 
#    z -0.023210 0.000000 1.905840 
# 
# From -- ./inp_files/70807.got.cif
#   From: 2010.05.17/outbox.cif.g08.bks.cpg/sg10_36_cif.got.tgz:70807.got - 2010.06.03 11:33:40.
