data_PCOD9150365
_publ_section_title
;
Structure prediction by ZEFSAII (Michael W. Deem and Ramdas Pophale) SiO2 
 PCOD9150365
Probable space group: P 2/M
;
_chemical_formula_sum "Si O2"
_cell_formula_units_Z 28
_cell_length_a 9.431140
_cell_length_b 8.576135
_cell_length_c 30.032511
_cell_angle_alpha 90.000000
_cell_angle_beta 38.235635
_cell_angle_gamma 90.000000
_cell_volume 1503.369896
_symmetry_space_group_name_H-M "P 2/M"
_symmetry_group_IT_number 10
_symmetry_cell_setting 'monoclinic'
loop_
_space_group_symop_operation_xyz
x,y,z
-x,y,-z
-x,-y,-z
x,-y,z
loop_
_atom_site_type_symbol
_atom_site_label
_atom_site_fract_x
_atom_site_fract_y
_atom_site_fract_z
Si Si1 0.356416 0.686875 0.725263
Si Si2 0.675411 0.688621 0.995495
Si Si3 0.501018 0.311107 0.136551
Si Si4 0.429262 0.688818 0.566803
Si Si5 0.021551 0.689225 0.727309
Si Si6 0.737674 0.813485 0.570127
Si Si7 0.811558 0.185304 0.139741
O O1 0.349029 0.500000 0.729808
O O2 0.163739 0.737053 0.736349
O O3 0.599732 0.739052 0.645211
O O4 0.303043 0.757129 0.786247
O O5 0.686814 0.500000 0.991406
O O6 0.928803 0.752875 0.925660
O O7 0.500000 0.738309 0.000000
O O8 0.583442 0.734588 0.066869
O O9 0.503037 0.500000 0.137915
O O10 0.670048 0.249366 0.132614
O O11 0.239529 0.256408 0.208574
O O12 0.500000 0.737195 0.500000
O O13 0.443799 0.500000 0.565700
O O14 0.175469 0.733468 0.646665
O O15 0.601860 0.760381 0.559858
O O16 0.014723 0.500000 0.730122
O O17 0.000000 0.763252 0.500000
O O18 0.730485 0.000000 0.576336
O O19 0.812385 0.000000 0.138113
#
# Coordination Sequence:
#
# PCOD9150365 Si02
#       7
#     4   4   4   4   4   4   4
#     4  10  20  38  62  83 106 142 191 236 275 327
#     4  10  21  39  63  86 108 142 190 235 274 324
#     4  10  20  36  58  82 110 145 185 229 277 327
#     4   9  18  33  54  81 111 145 190 236 275 325
#     4   8  16  33  57  82 105 135 182 237 281 320
#     4  10  21  36  54  81 117 150 182 226 282 338
#     4  12  25  38  54  82 119 150 180 223 278 334
#
# _framework density 18.624822999999999
#
# number of rings (size 3 to 8) (size 9 to 14) (size 15 to 20)
#    0.000    2.143    0.000    4.286    0.000    7.429 
#    0.000    6.429    0.000    0.000    0.000    0.000 
#    0.000    0.000    0.000    0.000    0.000    0.000 
#
# Total GULP energy -156339.821001 kJ/mol
# GULP energy per Si atom -5583.565036 kJ/mol
# Density = 1.858243 g / cm^3
# Si number density = 18.624823 Si / 1000 Ang^3
#
#
#
# Elastic Constant Matrix: (Units=GPa)
#
#
# Indices 1 2 3 4 5 6 
#
# 1 138.5443 30.5299 117.3339 0.0000 -0.4301 0.0000
# 2 30.5299 21.1144 35.8411 0.0000 1.0499 0.0000
# 3 117.3339 35.8411 185.4519 0.0000 -0.9459 0.0000
# 4 0.0000 0.0000 0.0000 20.9700 0.0000 -0.6379
# 5 -0.4301 1.0499 -0.9459 0.0000 39.3596 0.0000
# 6 0.0000 0.0000 0.0000 -0.6379 0.0000 -22.3098
#
#
#
# Elastic Compliance Matrix: (Units=1/GPa)
#
#
# Indices 1 2 3 4 5 6 
#
# 1 0.016679 -0.009252 -0.008764 0.000000 0.000218 0.000000
# 2 -0.009252 0.075808 -0.008809 0.000000 -0.002335 0.000000
# 3 -0.008764 -0.008809 0.012642 0.000000 0.000443 0.000000
# 4 0.000000 0.000000 0.000000 0.047646 0.000000 -0.001362
# 5 0.000218 -0.002335 0.000443 0.000000 0.025482 0.000000
# 6 0.000000 0.000000 0.000000 -0.001362 0.000000 -0.044784
#
#
# Mechanical properties :
#
#
# Convention : Reuss Voigt Hill
#
# Bulk Modulus (GPa) = 19.42523 79.16894 49.29708
# Shear Modulus (GPa) = 24.47593 18.36435 21.42014
#
# Velocity S-wave (km/s) = 3.62906 3.14349 3.39497
# Velocity P-wave (km/s) = 5.29269 7.46826 6.47253
#
# Compressibility (1/GPa) = 0.05147945
#
# Stress axis : x y z
#
# Youngs Moduli (GPa) = 59.95407 13.19120 79.10283
#
# Poissons Ratio (x) = 0.12204 0.69324
# Poissons Ratio (y) = 0.55469 0.69684
# Poissons Ratio (z) = 0.52542 0.11621
#
# Static dielectric constant tensor:
#      x y z
#    x 1.612810 0.000000 -0.004070 
#    y 0.000000 1.628580 0.000000 
#    z -0.004070 0.000000 1.640810 
# 
# From -- ./inp_files/37275.got.cif
#   From: 2010.05.17/outbox.cif.g08.bks.cpg/sg10_19_cif.got.tgz:37275.got - 2010.06.03 11:33:40.
