data_PCOD9150548
_publ_section_title
;
Structure prediction by ZEFSAII (Michael W. Deem and Ramdas Pophale) SiO2 
 PCOD9150548
Probable space group: P 2/M
;
_chemical_formula_sum "Si O2"
_cell_formula_units_Z 28
_cell_length_a 8.611689
_cell_length_b 11.777838
_cell_length_c 16.414203
_cell_angle_alpha 90.000000
_cell_angle_beta 56.868020
_cell_angle_gamma 90.000000
_cell_volume 1394.163842
_symmetry_space_group_name_H-M "P 2/M"
_symmetry_group_IT_number 10
_symmetry_cell_setting 'monoclinic'
loop_
_space_group_symop_operation_xyz
x,y,z
-x,y,-z
-x,-y,-z
x,-y,z
loop_
_atom_site_type_symbol
_atom_site_label
_atom_site_fract_x
_atom_site_fract_y
_atom_site_fract_z
Si Si1 0.861282 0.698332 0.750665
Si Si2 0.578179 0.879221 0.786614
Si Si3 0.587434 0.826216 0.598638
Si Si4 0.196646 0.127955 0.627296
Si Si5 0.203660 0.129454 0.979071
Si Si6 0.279395 0.373247 0.044540
Si Si7 0.808253 0.627276 0.585319
O O1 0.687588 0.783687 0.802078
O O2 0.843464 0.628490 0.837878
O O3 0.825633 0.630323 0.677605
O O4 0.044143 0.775992 0.688139
O O5 0.623256 0.875152 0.677975
O O6 0.360338 0.867438 0.864047
O O7 0.637924 0.000000 0.803058
O O8 0.724711 0.866170 0.487759
O O9 0.379815 0.851500 0.629489
O O10 0.634381 0.694618 0.600356
O O11 0.126058 0.000000 0.662284
O O12 0.225738 0.000000 0.011432
O O13 0.232583 0.249928 0.017484
O O14 0.000000 0.131408 0.000000
O O15 0.247125 0.500000 0.013910
O O16 0.500000 0.370925 0.000000
O O17 0.802532 0.500000 0.555830
O O18 0.000000 0.683201 0.500000
#
# Coordination Sequence:
#
# PCOD9150548 Si02
#       7
#     4   4   4   4   4   4   4
#     4  11  22  38  61  90 117 156 204 251 302 365
#     4  10  20  36  59  89 122 159 201 248 304 369
#     4  10  21  38  57  86 122 162 200 246 302 367
#     4  11  22  37  59  89 125 160 196 247 307 366
#     4  10  23  42  65  94 126 162 202 254 313 373
#     4  11  24  44  66  91 123 162 205 260 313 366
#     4  10  20  39  61  82 112 155 202 252 300 355
#
# _framework density 20.083722999999999
#
# number of rings (size 3 to 8) (size 9 to 14) (size 15 to 20)
#    0.000    1.571    2.857    2.571    2.000    1.714 
#    0.000    5.000    0.000    0.000    0.000    0.000 
#    0.000    0.000    0.000    0.000    0.000    0.000 
#
# Total GULP energy -155957.181782 kJ/mol
# GULP energy per Si atom -5569.899349 kJ/mol
# Density = 2.003801 g / cm^3
# Si number density = 20.083723 Si / 1000 Ang^3
#
#
#
# Elastic Constant Matrix: (Units=GPa)
#
#
# Indices 1 2 3 4 5 6 
#
# 1 48.2987 37.9011 2.1671 0.0000 -16.1409 0.0000
# 2 37.9011 143.8993 18.6183 0.0000 3.5836 0.0000
# 3 2.1671 18.6183 63.8535 0.0000 -6.2662 0.0000
# 4 0.0000 0.0000 0.0000 6.3776 0.0000 -26.7505
# 5 -16.1409 3.5836 -6.2662 0.0000 30.3614 0.0000
# 6 0.0000 0.0000 0.0000 -26.7505 0.0000 -29.2798
#
#
#
# Elastic Compliance Matrix: (Units=1/GPa)
#
#
# Indices 1 2 3 4 5 6 
#
# 1 0.035763 -0.010448 0.003898 0.000000 0.021051 0.000000
# 2 -0.010448 0.010326 -0.003390 0.000000 -0.007473 0.000000
# 3 0.003898 -0.003390 0.017106 0.000000 0.006003 0.000000
# 4 0.000000 0.000000 0.000000 0.032449 0.000000 -0.029646
# 5 0.021051 -0.007473 0.006003 0.000000 0.046249 0.000000
# 6 0.000000 0.000000 0.000000 -0.029646 0.000000 -0.007068
#
#
# Mechanical properties :
#
#
# Convention : Reuss Voigt Hill
#
# Bulk Modulus (GPa) = 23.08578 41.49162 32.28870
# Shear Modulus (GPa) = 29.56080 14.64949 22.10514
#
# Velocity S-wave (km/s) = 3.84067 2.70371 3.32120
# Velocity P-wave (km/s) = 5.58457 5.51823 5.55150
#
# Compressibility (1/GPa) = 0.04331671
#
# Stress axis : x y z
#
# Youngs Moduli (GPa) = 27.96153 96.84410 58.45911
#
# Poissons Ratio (x) = 1.01185 -0.22790
# Poissons Ratio (y) = 0.29215 0.19815
# Poissons Ratio (z) = -0.10901 0.32826
#
# Static dielectric constant tensor:
#      x y z
#    x 1.698060 0.000000 0.004410 
#    y 0.000000 1.780600 0.000000 
#    z 0.004410 0.000000 1.726690 
# 
# From -- ./inp_files/61126.got.cif
#   From: 2010.05.17/outbox.cif.g08.bks.cpg/sg10_31_cif.got.tgz:61126.got - 2010.06.03 11:33:40.
