data_PCOD9150392
_publ_section_title
;
Structure prediction by ZEFSAII (Michael W. Deem and Ramdas Pophale) SiO2 
 PCOD9150392
Probable space group: P 2/M
;
_chemical_formula_sum "Si O2"
_cell_formula_units_Z 32
_cell_length_a 24.844185
_cell_length_b 9.176914
_cell_length_c 16.310339
_cell_angle_alpha 90.000000
_cell_angle_beta 153.421987
_cell_angle_gamma 90.000000
_cell_volume 1663.779788
_symmetry_space_group_name_H-M "P 2/M"
_symmetry_group_IT_number 10
_symmetry_cell_setting 'monoclinic'
loop_
_space_group_symop_operation_xyz
x,y,z
-x,y,-z
-x,-y,-z
x,-y,z
loop_
_atom_site_type_symbol
_atom_site_label
_atom_site_fract_x
_atom_site_fract_y
_atom_site_fract_z
Si Si1 0.487924 0.173476 0.720304
Si Si2 0.932288 0.173548 0.266326
Si Si3 0.295330 0.327093 0.566781
Si Si4 0.828225 0.171519 0.950987
Si Si5 0.401140 0.330029 0.437103
Si Si6 0.189115 0.325713 0.599608
Si Si7 0.744807 0.174149 0.146979
Si Si8 0.036323 0.667612 0.144117
O O1 0.403496 0.235099 0.677321
O O2 0.448218 0.249621 0.582106
O O3 0.473624 0.000000 0.692985
O O4 0.625906 0.204254 0.931994
O O5 0.862614 0.213418 0.254383
O O6 0.054984 0.259399 0.418637
O O7 0.958801 0.000000 0.304972
O O8 0.842560 0.197900 0.067571
O O9 0.323565 0.500000 0.602329
O O10 0.255917 0.289039 0.605535
O O11 0.176506 0.302431 0.349475
O O12 0.720939 0.259304 0.762945
O O13 0.809959 0.000000 0.913036
O O14 0.952948 0.224457 0.081315
O O15 0.500000 0.318550 0.500000
O O16 0.380597 0.500000 0.428049
O O17 0.182270 0.500000 0.595338
O O18 0.255743 0.259280 0.768789
O O19 0.749216 0.000000 0.168113
O O20 0.984860 0.500000 0.856659
O O21 0.000000 0.677087 0.000000
#
# Coordination Sequence:
#
# PCOD9150392 Si02
#       8
#     4   4   4   4   4   4   4   4
#     4  11  24  42  65  91 122 161 209 259 304 361
#     4  10  21  39  62  89 124 161 198 250 312 368
#     4  10  22  40  60  87 127 164 200 253 310 365
#     4  11  22  36  60  91 120 155 200 249 300 359
#     4  11  24  41  62  89 124 166 206 247 302 366
#     4  11  23  39  62  92 123 159 203 254 308 363
#     4  10  23  42  62  87 121 161 203 253 313 367
#     4  10  20  36  58  83 116 159 199 242 300 362
#
# _framework density 19.233315000000001
#
# number of rings (size 3 to 8) (size 9 to 14) (size 15 to 20)
#    0.000    1.500    1.250    3.375    0.000    8.750 
#    0.000    2.500    0.000    0.000    0.000    0.000 
#    0.000    0.000    0.000    0.000    0.000    0.000 
#
# Total GULP energy -178923.818959 kJ/mol
# GULP energy per Si atom -5591.369342 kJ/mol
# Density = 1.918954 g / cm^3
# Si number density = 19.233315 Si / 1000 Ang^3
#
#
#
# Elastic Constant Matrix: (Units=GPa)
#
#
# Indices 1 2 3 4 5 6 
#
# 1 81.7978 41.3397 18.4181 0.0000 -2.7236 0.0000
# 2 41.3397 65.5471 39.6752 0.0000 -0.2038 0.0000
# 3 18.4181 39.6752 63.9879 0.0000 -2.9758 0.0000
# 4 0.0000 0.0000 0.0000 16.8693 0.0000 -1.7523
# 5 -2.7236 -0.2038 -2.9758 0.0000 28.1293 0.0000
# 6 0.0000 0.0000 0.0000 -1.7523 0.0000 32.1417
#
#
#
# Elastic Compliance Matrix: (Units=1/GPa)
#
#
# Indices 1 2 3 4 5 6 
#
# 1 0.018417 -0.013538 0.003187 0.000000 0.002022 0.000000
# 2 -0.013538 0.034432 -0.017588 0.000000 -0.002922 0.000000
# 3 0.003187 -0.017588 0.025751 0.000000 0.002905 0.000000
# 4 0.000000 0.000000 0.000000 0.059617 0.000000 0.003250
# 5 0.002022 -0.002922 0.002905 0.000000 0.036032 0.000000
# 6 0.000000 0.000000 0.000000 0.003250 0.000000 0.031289
#
#
# Mechanical properties :
#
#
# Convention : Reuss Voigt Hill
#
# Bulk Modulus (GPa) = 44.01150 45.57765 44.79457
# Shear Modulus (GPa) = 18.58804 22.88805 20.73804
#
# Velocity S-wave (km/s) = 3.11215 3.45341 3.28721
# Velocity P-wave (km/s) = 5.98720 6.29683 6.14397
#
# Compressibility (1/GPa) = 0.02272133
#
# Stress axis : x y z
#
# Youngs Moduli (GPa) = 54.29743 29.04310 38.83341
#
# Poissons Ratio (x) = 0.39320 -0.12377
# Poissons Ratio (y) = 0.73510 0.68301
# Poissons Ratio (z) = -0.17306 0.51081
#
# Static dielectric constant tensor:
#      x y z
#    x 1.660190 0.000000 -0.008170 
#    y 0.000000 1.641260 0.000000 
#    z -0.008170 0.000000 1.659040 
# 
# From -- ./inp_files/71581.got.cif
#   From: 2010.05.17/outbox.cif.g08.bks.cpg/sg10_36_cif.got.tgz:71581.got - 2010.06.03 11:33:40.
