data_PCOD9150562
_publ_section_title
;
Structure prediction by ZEFSAII (Michael W. Deem and Ramdas Pophale) SiO2 
 PCOD9150562
Probable space group: P 2/M
;
_chemical_formula_sum "Si O2"
_cell_formula_units_Z 26
_cell_length_a 8.200953
_cell_length_b 22.817596
_cell_length_c 8.613423
_cell_angle_alpha 90.000000
_cell_angle_beta 122.687651
_cell_angle_gamma 90.000000
_cell_volume 1356.531079
_symmetry_space_group_name_H-M "P 2/M"
_symmetry_group_IT_number 10
_symmetry_cell_setting 'monoclinic'
loop_
_space_group_symop_operation_xyz
x,y,z
-x,y,-z
-x,-y,-z
x,-y,z
loop_
_atom_site_type_symbol
_atom_site_label
_atom_site_fract_x
_atom_site_fract_y
_atom_site_fract_z
Si Si1 0.209988 0.663671 0.158421
Si Si2 0.439554 0.881284 0.287001
Si Si3 0.204224 0.348692 0.526062
Si Si4 0.531986 0.567401 0.832221
Si Si5 0.345899 0.000000 0.667566
Si Si6 0.000000 0.901992 0.000000
Si Si7 0.992617 0.000000 0.253306
Si Si8 0.535745 0.244287 0.331515
O O1 0.208687 0.652290 0.341962
O O2 0.276628 0.603839 0.110982
O O3 0.358851 0.714704 0.187472
O O4 0.000000 0.682179 0.000000
O O5 0.500000 0.885320 0.500000
O O6 0.538209 0.821923 0.274000
O O7 0.520456 0.942057 0.258956
O O8 0.208757 0.872327 0.140379
O O9 0.359583 0.396474 0.662417
O O10 0.277681 0.283487 0.609041
O O11 0.000000 0.360903 0.500000
O O12 0.539207 0.500000 0.784541
O O13 0.500000 0.568606 0.000000
O O14 0.183495 0.000000 0.717040
O O15 0.206106 0.000000 0.442642
O O16 0.026026 0.943550 0.864422
O O17 0.500000 0.240765 0.500000
#
# Coordination Sequence:
#
# PCOD9150562 Si02
#       8
#     4   4   4   4   2   2   2   4
#     4  10  20  36  60  84 115 156 194 237 287 342
#     4  11  21  38  60  87 118 154 190 247 299 357
#     4  10  20  38  60  83 116 156 195 238 289 343
#     4  10  21  37  59  88 120 152 192 240 287 338
#     4  11  21  39  61  80 124 151 186 248 306 347
#     4  11  22  36  64  84 110 152 199 232 294 364
#     4  10  22  39  57  88 111 154 193 233 297 368
#     4   8  19  37  56  82 113 149 191 238 290 340
#
# _framework density 19.166536000000001
#
# number of rings (size 3 to 8) (size 9 to 14) (size 15 to 20)
#    0.000    2.000    1.538    3.462    1.077    3.077 
#    2.769    0.000   16.923    0.000    0.000    0.000 
#    0.000    0.000    0.000    0.000    0.000    0.000 
#
# Total GULP energy -145004.153140 kJ/mol
# GULP energy per Si atom -5577.082813 kJ/mol
# Density = 1.912291 g / cm^3
# Si number density = 19.166536 Si / 1000 Ang^3
#
#
#
# Elastic Constant Matrix: (Units=GPa)
#
#
# Indices 1 2 3 4 5 6 
#
# 1 34.6007 -0.6170 -3.8811 0.0000 5.7029 0.0000
# 2 -0.6170 117.0415 1.5743 0.0000 -3.8946 0.0000
# 3 -3.8811 1.5743 63.4069 0.0000 9.3448 0.0000
# 4 0.0000 0.0000 0.0000 2.8726 0.0000 -1.6227
# 5 5.7029 -3.8946 9.3448 0.0000 25.7608 0.0000
# 6 0.0000 0.0000 0.0000 -1.6227 0.0000 18.2417
#
#
#
# Elastic Compliance Matrix: (Units=1/GPa)
#
#
# Indices 1 2 3 4 5 6 
#
# 1 0.030538 -0.000142 0.003034 0.000000 -0.007883 0.000000
# 2 -0.000142 0.008599 -0.000442 0.000000 0.001492 0.000000
# 3 0.003034 -0.000442 0.016985 0.000000 -0.006900 0.000000
# 4 0.000000 0.000000 0.000000 0.366532 0.000000 0.032606
# 5 -0.007883 0.001492 -0.006900 0.000000 0.043292 0.000000
# 6 0.000000 0.000000 0.000000 0.032606 0.000000 0.057720
#
#
# Mechanical properties :
#
#
# Convention : Reuss Voigt Hill
#
# Bulk Modulus (GPa) = 16.38744 23.24461 19.81602
# Shear Modulus (GPa) = 9.27461 23.90656 16.59059
#
# Velocity S-wave (km/s) = 2.20215 3.53556 2.94530
# Velocity P-wave (km/s) = 3.87744 5.36851 4.68270
#
# Compressibility (1/GPa) = 0.06102235
#
# Stress axis : x y z
#
# Youngs Moduli (GPa) = 32.74588 116.29509 58.87632
#
# Poissons Ratio (x) = 0.01653 -0.17866
# Poissons Ratio (y) = 0.00465 0.02603
# Poissons Ratio (z) = -0.09937 0.05141
#
# Static dielectric constant tensor:
#      x y z
#    x 1.628300 0.000000 0.005520 
#    y 0.000000 1.665610 0.000000 
#    z 0.005520 0.000000 1.696900 
# 
# From -- ./inp_files/20509.got.cif
#   From: 2010.05.17/outbox.cif.g08.bks.cpg/sg10_11_cif.got.tgz:20509.got - 2010.06.03 11:33:40.
