data_PCOD9150587
_publ_section_title
;
Structure prediction by ZEFSAII (Michael W. Deem and Ramdas Pophale) SiO2 
 PCOD9150587
Probable space group: P 2/M
;
_chemical_formula_sum "Si O2"
_cell_formula_units_Z 32
_cell_length_a 13.961461
_cell_length_b 9.359252
_cell_length_c 12.458092
_cell_angle_alpha 90.000000
_cell_angle_beta 83.688503
_cell_angle_gamma 90.000000
_cell_volume 1618.017584
_symmetry_space_group_name_H-M "P 2/M"
_symmetry_group_IT_number 10
_symmetry_cell_setting 'monoclinic'
loop_
_space_group_symop_operation_xyz
x,y,z
-x,y,-z
-x,-y,-z
x,-y,z
loop_
_atom_site_type_symbol
_atom_site_label
_atom_site_fract_x
_atom_site_fract_y
_atom_site_fract_z
Si Si1 0.584564 0.167191 0.738003
Si Si2 0.311495 0.669947 0.088792
Si Si3 0.947191 0.169028 0.119933
Si Si4 0.105030 0.337244 0.218225
Si Si5 0.593651 0.667379 0.344577
Si Si6 0.703623 0.833493 0.510307
Si Si7 0.747394 0.333730 0.136770
Si Si8 0.110556 0.334909 0.470921
O O1 0.619373 0.239545 0.843620
O O2 0.495959 0.253104 0.698217
O O3 0.669108 0.175952 0.638099
O O4 0.561208 0.000000 0.755346
O O5 0.330442 0.500000 0.101052
O O6 0.201732 0.697711 0.141025
O O7 0.313236 0.705027 0.962567
O O8 0.843102 0.241093 0.133856
O O9 0.017611 0.234645 0.200185
O O10 0.938129 0.000000 0.133648
O O11 0.000000 0.198766 0.000000
O O12 0.076779 0.500000 0.193721
O O13 0.127943 0.333664 0.341185
O O14 0.572870 0.500000 0.366157
O O15 0.628080 0.746437 0.447614
O O16 0.681484 0.677535 0.249314
O O17 0.808548 0.762649 0.485734
O O18 0.704056 0.000000 0.479409
O O19 0.775704 0.500000 0.118867
O O20 0.119099 0.500000 0.508237
O O21 0.000000 0.289406 0.500000
#
# Coordination Sequence:
#
# PCOD9150587 Si02
#       8
#     4   4   4   4   4   4   4   4
#     4  11  24  42  65  92 122 156 197 250 310 367
#     4  10  20  38  65  91 118 157 206 251 294 354
#     4  11  23  36  56  87 123 161 199 241 293 355
#     4  10  20  36  60  86 117 161 205 247 295 350
#     4  11  25  43  65  90 119 158 205 255 305 358
#     4  11  24  42  64  91 125 161 199 247 304 366
#     4  10  23  42  62  88 122 161 205 253 301 353
#     4  10  22  39  60  90 124 158 200 248 296 352
#
# _framework density 19.777287999999999
#
# number of rings (size 3 to 8) (size 9 to 14) (size 15 to 20)
#    0.000    1.500    2.500    1.875    1.750    6.750 
#    0.000    2.500    0.000    0.000    0.000    0.000 
#    0.000    0.000    0.000    0.000    0.000    0.000 
#
# Total GULP energy -178891.280605 kJ/mol
# GULP energy per Si atom -5590.352519 kJ/mol
# Density = 1.973227 g / cm^3
# Si number density = 19.777288 Si / 1000 Ang^3
#
#
#
# Elastic Constant Matrix: (Units=GPa)
#
#
# Indices 1 2 3 4 5 6 
#
# 1 76.7590 62.2903 -9.1324 0.0000 18.9075 0.0000
# 2 62.2903 102.4848 17.6105 0.0000 19.3868 0.0000
# 3 -9.1324 17.6105 40.5320 0.0000 14.3259 0.0000
# 4 0.0000 0.0000 0.0000 39.9855 0.0000 48.8464
# 5 18.9075 19.3868 14.3259 0.0000 31.1444 0.0000
# 6 0.0000 0.0000 0.0000 48.8464 0.0000 144.1625
#
#
#
# Elastic Compliance Matrix: (Units=1/GPa)
#
#
# Indices 1 2 3 4 5 6 
#
# 1 0.046500 -0.029046 0.031865 0.000000 -0.024807 0.000000
# 2 -0.029046 0.029482 -0.022808 0.000000 0.009773 0.000000
# 3 0.031865 -0.022808 0.052041 0.000000 -0.029086 0.000000
# 4 0.000000 0.000000 0.000000 0.042671 0.000000 -0.014458
# 5 -0.024807 0.009773 -0.029086 0.000000 0.054464 0.000000
# 6 0.000000 0.000000 0.000000 -0.014458 0.000000 0.011835
#
#
# Mechanical properties :
#
#
# Convention : Reuss Voigt Hill
#
# Bulk Modulus (GPa) = 11.35771 40.14584 25.75177
# Shear Modulus (GPa) = 16.32276 52.99230 34.65753
#
# Velocity S-wave (km/s) = 2.87597 5.18196 4.19070
# Velocity P-wave (km/s) = 4.09677 7.49310 6.03863
#
# Compressibility (1/GPa) = 0.08804592
#
# Stress axis : x y z
#
# Youngs Moduli (GPa) = 21.50532 33.91892 19.21550
#
# Poissons Ratio (x) = 0.98520 -0.61230
# Poissons Ratio (y) = 0.62464 0.43827
# Poissons Ratio (z) = -0.68526 0.77362
#
# Static dielectric constant tensor:
#      x y z
#    x 1.665200 0.000000 -0.013630 
#    y 0.000000 1.667800 0.000000 
#    z -0.013630 0.000000 1.702070 
# 
# From -- ./inp_files/49838.got.cif
#   From: 2010.05.17/outbox.cif.g08.bks.cpg/sg10_25_cif.got.tgz:49838.got - 2010.06.03 11:33:40.
