data_PCOD9150358
_publ_section_title
;
Structure prediction by ZEFSAII (Michael W. Deem and Ramdas Pophale) SiO2 
 PCOD9150358
Probable space group: P 2/M
;
_chemical_formula_sum "Si O2"
_cell_formula_units_Z 26
_cell_length_a 21.884373
_cell_length_b 9.975446
_cell_length_c 8.529859
_cell_angle_alpha 90.000000
_cell_angle_beta 43.454860
_cell_angle_gamma 90.000000
_cell_volume 1280.736083
_symmetry_space_group_name_H-M "P 2/M"
_symmetry_group_IT_number 10
_symmetry_cell_setting 'monoclinic'
loop_
_space_group_symop_operation_xyz
x,y,z
-x,y,-z
-x,-y,-z
x,-y,z
loop_
_atom_site_type_symbol
_atom_site_label
_atom_site_fract_x
_atom_site_fract_y
_atom_site_fract_z
Si Si1 0.829873 0.755011 0.125996
Si Si2 0.698782 0.640979 0.146848
Si Si3 0.369997 0.152675 0.944158
Si Si4 0.537094 0.655143 0.688304
Si Si5 0.877089 0.000000 0.815289
Si Si6 0.336496 0.849120 0.366778
Si Si7 0.000000 0.786598 0.000000
Si Si8 0.066724 0.000000 0.627703
O O1 0.778030 0.643731 0.124351
O O2 0.757686 0.811302 0.383433
O O3 0.922152 0.718888 0.040802
O O4 0.842888 0.870498 0.972078
O O5 0.700471 0.500000 0.053899
O O6 0.697719 0.770481 0.041098
O O7 0.607537 0.647749 0.415194
O O8 0.455337 0.250426 0.794107
O O9 0.390480 0.000000 0.855119
O O10 0.331867 0.146988 0.189552
O O11 0.513746 0.500000 0.771287
O O12 0.591538 0.737399 0.718575
O O13 0.864580 0.000000 0.648210
O O14 0.978181 0.000000 0.689133
O O15 0.363198 0.000000 0.371690
O O16 0.056092 0.876185 0.769095
#
# Coordination Sequence:
#
# PCOD9150358 Si02
#       8
#     4   4   4   4   2   4   2   2
#     4  10  20  36  58  81 116 156 191 237 295 343
#     4  10  23  40  56  80 116 155 198 243 293 353
#     4  11  23  36  56  87 115 150 196 243 299 345
#     4  10  21  38  60  82 112 156 200 241 291 351
#     4   9  16  30  54  84 112 147 182 229 279 345
#     4  10  21  36  55  84 121 152 189 244 292 347
#     4   9  18  34  55  88 118 154 184 240 290 350
#     4   8  16  28  50  86 120 139 180 231 288 333
#
# _framework density 20.300825
#
# number of rings (size 3 to 8) (size 9 to 14) (size 15 to 20)
#    0.000    2.154    0.769    2.308    1.077    7.385 
#    0.000    0.385    0.000    0.000    0.000   14.000 
#    0.000    0.000    0.000    0.000    0.000    0.000 
#
# Total GULP energy -144827.802115 kJ/mol
# GULP energy per Si atom -5570.300081 kJ/mol
# Density = 2.025462 g / cm^3
# Si number density = 20.300825 Si / 1000 Ang^3
#
#
#
# Elastic Constant Matrix: (Units=GPa)
#
#
# Indices 1 2 3 4 5 6 
#
# 1 134.2239 57.2598 37.1606 0.0000 -3.6135 0.0000
# 2 57.2598 150.7306 31.6057 0.0000 -2.4500 0.0000
# 3 37.1606 31.6057 56.2486 0.0000 0.5235 0.0000
# 4 0.0000 0.0000 0.0000 -0.9698 0.0000 16.6614
# 5 -3.6135 -2.4500 0.5235 0.0000 26.7222 0.0000
# 6 0.0000 0.0000 0.0000 16.6614 0.0000 164.3769
#
#
#
# Elastic Compliance Matrix: (Units=1/GPa)
#
#
# Indices 1 2 3 4 5 6 
#
# 1 0.010067 -0.002729 -0.005128 0.000000 0.001212 0.000000
# 2 -0.002729 0.008276 -0.002851 0.000000 0.000446 0.000000
# 3 -0.005128 -0.002851 0.022782 0.000000 -0.001401 0.000000
# 4 0.000000 0.000000 0.000000 -0.376142 0.000000 0.038126
# 5 0.001212 0.000446 -0.001401 0.000000 0.037654 0.000000
# 6 0.000000 0.000000 0.000000 0.038126 0.000000 0.002219
#
#
# Mechanical properties :
#
#
# Convention : Reuss Voigt Hill
#
# Bulk Modulus (GPa) = 50.74463 65.91727 58.33095
# Shear Modulus (GPa) = -18.71563 52.37099 16.82768
#
# Velocity S-wave (km/s) = -3.03960 5.08463 2.88221
# Velocity P-wave (km/s) = 3.56815 8.18609 6.31442
#
# Compressibility (1/GPa) = 0.01970652
#
# Stress axis : x y z
#
# Youngs Moduli (GPa) = 99.33463 120.82719 43.89497
#
# Poissons Ratio (x) = 0.32976 0.22512
# Poissons Ratio (y) = 0.27110 0.12517
# Poissons Ratio (z) = 0.50944 0.34454
#
# Static dielectric constant tensor:
#      x y z
#    x 1.756520 0.000000 -0.016540 
#    y 0.000000 1.736150 0.000000 
#    z -0.016540 0.000000 1.769950 
# 
# From -- ./inp_files/34253.got.cif
#   From: 2010.05.17/outbox.cif.g08.bks.cpg/sg10_18_cif.got.tgz:34253.got - 2010.06.03 11:33:40.
