data_PCOD9150068
_publ_section_title
;
Structure prediction by ZEFSAII (Michael W. Deem and Ramdas Pophale) SiO2 
 PCOD9150068
Probable space group: P 2/M
;
_chemical_formula_sum "Si O2"
_cell_formula_units_Z 30
_cell_length_a 12.850824
_cell_length_b 11.914462
_cell_length_c 9.213387
_cell_angle_alpha 90.000000
_cell_angle_beta 104.617858
_cell_angle_gamma 90.000000
_cell_volume 1365.005185
_symmetry_space_group_name_H-M "P 2/M"
_symmetry_group_IT_number 10
_symmetry_cell_setting 'monoclinic'
loop_
_space_group_symop_operation_xyz
x,y,z
-x,y,-z
-x,-y,-z
x,-y,z
loop_
_atom_site_type_symbol
_atom_site_label
_atom_site_fract_x
_atom_site_fract_y
_atom_site_fract_z
Si Si1 0.741637 0.325123 0.972401
Si Si2 0.928960 0.631937 0.831574
Si Si3 0.574158 0.500000 0.801146
Si Si4 0.436061 0.291694 0.699791
Si Si5 0.794141 0.373743 0.295176
Si Si6 0.394396 0.127722 0.132463
Si Si7 0.904852 0.793683 0.557412
Si Si8 0.326130 0.877330 0.445334
O O1 0.807322 0.346335 0.847219
O O2 0.638646 0.404158 0.920637
O O3 0.698979 0.199233 0.977583
O O4 0.815990 0.360642 0.132559
O O5 0.939057 0.500000 0.793584
O O6 0.946489 0.718611 0.707047
O O7 0.000000 0.652838 0.000000
O O8 0.511910 0.397473 0.693981
O O9 0.332068 0.345426 0.738758
O O10 0.496847 0.200692 0.822291
O O11 0.389008 0.221207 0.548938
O O12 0.814712 0.500000 0.349160
O O13 0.856253 0.292118 0.422500
O O14 0.355922 0.126460 0.287292
O O15 0.406226 0.000000 0.087177
O O16 0.801791 0.863516 0.575136
O O17 0.000000 0.853064 0.500000
O O18 0.360131 0.000000 0.515131
#
# Coordination Sequence:
#
# PCOD9150068 Si02
#       8
#     4   4   2   4   4   4   4   4
#     4  11  21  38  61  91 123 170 215 254 310 370
#     4  11  22  39  64  92 128 166 209 258 312 381
#     4  10  20  35  58  88 131 163 208 254 304 364
#     4  10  21  35  58  96 124 169 206 253 307 375
#     4  11  22  39  60  89 133 171 204 249 311 377
#     4  10  21  39  62  87 123 168 214 263 308 366
#     4  11  24  41  63  95 124 161 209 264 317 378
#     4  10  21  41  65  87 125 168 210 262 319 372
#
# _framework density 21.977937000000001
#
# number of rings (size 3 to 8) (size 9 to 14) (size 15 to 20)
#    0.000    1.467    3.333    2.000    0.000    6.133 
#    0.000    9.333    0.000    3.200    0.000    0.000 
#    0.000    0.000    0.000    0.000    0.000    0.000 
#
# Total GULP energy -167108.346027 kJ/mol
# GULP energy per Si atom -5570.278201 kJ/mol
# Density = 2.192791 g / cm^3
# Si number density = 21.977937 Si / 1000 Ang^3
#
#
#
# Elastic Constant Matrix: (Units=GPa)
#
#
# Indices 1 2 3 4 5 6 
#
# 1 48.9311 7.9866 18.3081 0.0000 -0.1984 0.0000
# 2 7.9866 125.2419 17.5394 0.0000 14.1854 0.0000
# 3 18.3081 17.5394 68.5586 0.0000 0.8157 0.0000
# 4 0.0000 0.0000 0.0000 23.8116 0.0000 2.6248
# 5 -0.1984 14.1854 0.8157 0.0000 32.5982 0.0000
# 6 0.0000 0.0000 0.0000 2.6248 0.0000 10.3775
#
#
#
# Elastic Compliance Matrix: (Units=1/GPa)
#
#
# Indices 1 2 3 4 5 6 
#
# 1 0.022763 -0.000691 -0.005909 0.000000 0.000587 0.000000
# 2 -0.000691 0.008735 -0.002006 0.000000 -0.003755 0.000000
# 3 -0.005909 -0.002006 0.016672 0.000000 0.000420 0.000000
# 4 0.000000 0.000000 0.000000 0.043201 0.000000 -0.010927
# 5 0.000587 -0.003755 0.000420 0.000000 0.032304 0.000000
# 6 0.000000 0.000000 0.000000 -0.010927 0.000000 0.099127
#
#
# Mechanical properties :
#
#
# Convention : Reuss Voigt Hill
#
# Bulk Modulus (GPa) = 32.30012 36.71107 34.50560
# Shear Modulus (GPa) = 19.97357 26.61729 23.29543
#
# Velocity S-wave (km/s) = 3.01790 3.48385 3.25921
# Velocity P-wave (km/s) = 5.18384 5.73784 5.46786
#
# Compressibility (1/GPa) = 0.03095964
#
# Stress axis : x y z
#
# Youngs Moduli (GPa) = 43.93112 114.48510 59.98041
#
# Poissons Ratio (x) = 0.07905 0.35442
# Poissons Ratio (y) = 0.03034 0.12029
# Poissons Ratio (z) = 0.25959 0.22960
#
# Static dielectric constant tensor:
#      x y z
#    x 1.922420 0.000000 -0.043310 
#    y 0.000000 1.775600 0.000000 
#    z -0.043310 0.000000 1.802610 
# 
# From -- ./inp_files/28645.got.cif
#   From: 2010.05.17/outbox.cif.g08.bks.cpg/sg10_15_cif.got.tgz:28645.got - 2010.06.03 11:33:40.
