data_PCOD9150842
_publ_section_title
;
Structure prediction by ZEFSAII (Michael W. Deem and Ramdas Pophale) SiO2 
 PCOD9150842
Probable space group: P 2/M
;
_chemical_formula_sum "Si O2"
_cell_formula_units_Z 24
_cell_length_a 5.259082
_cell_length_b 14.697031
_cell_length_c 13.989690
_cell_angle_alpha 90.000000
_cell_angle_beta 86.390088
_cell_angle_gamma 90.000000
_cell_volume 1079.158119
_symmetry_space_group_name_H-M "P 2/M"
_symmetry_group_IT_number 10
_symmetry_cell_setting 'monoclinic'
loop_
_space_group_symop_operation_xyz
x,y,z
-x,y,-z
-x,-y,-z
x,-y,z
loop_
_atom_site_type_symbol
_atom_site_label
_atom_site_fract_x
_atom_site_fract_y
_atom_site_fract_z
Si Si1 0.111352 0.194699 0.245199
Si Si2 0.271124 0.597587 0.389697
Si Si3 0.827762 0.097915 0.098279
Si Si4 0.742253 0.197964 0.553047
Si Si5 0.472202 0.287144 0.891849
Si Si6 0.795619 0.643337 0.275923
O O1 0.271531 0.172824 0.334887
O O2 0.268210 0.264746 0.172826
O O3 0.013789 0.112986 0.183710
O O4 0.865386 0.250164 0.290320
O O5 0.254622 0.500000 0.440746
O O6 0.244723 0.690732 0.448920
O O7 0.549414 0.607429 0.336335
O O8 0.049239 0.598810 0.313873
O O9 0.653077 0.186663 0.099457
O O10 0.694525 0.000000 0.106434
O O11 0.000000 0.099855 0.000000
O O12 0.500000 0.168059 0.500000
O O13 0.000000 0.162580 0.500000
O O14 0.293299 0.353368 0.832799
O O15 0.500000 0.319299 0.000000
#
# Coordination Sequence:
#
# PCOD9150842 Si02
#       6
#     4   4   4   4   4   4
#     4  10  21  39  60  85 126 163 204 245 304 354
#     4  11  22  39  62  88 123 156 193 256 327 370
#     4  10  21  35  58  98 135 160 193 245 309 372
#     4  11  23  38  62  90 118 156 212 255 298 358
#     4  11  20  35  62  90 120 165 205 245 297 365
#     4  10  20  37  58  88 119 161 202 239 291 368
#
# _framework density 22.239559
#
# number of rings (size 3 to 8) (size 9 to 14) (size 15 to 20)
#    0.000    1.500    5.000    2.500    2.333    1.667 
#    0.000    0.000    0.000    4.000    0.000    0.000 
#    0.000    0.000    0.000    0.000    0.000    0.000 
#
# Total GULP energy -133932.040631 kJ/mol
# GULP energy per Si atom -5580.501693 kJ/mol
# Density = 2.218894 g / cm^3
# Si number density = 22.239559 Si / 1000 Ang^3
#
#
#
# Elastic Constant Matrix: (Units=GPa)
#
#
# Indices 1 2 3 4 5 6 
#
# 1 144.4488 5.8647 51.3020 0.0000 8.2774 0.0000
# 2 5.8647 38.3245 -8.1256 0.0000 -6.1998 0.0000
# 3 51.3020 -8.1256 115.3871 0.0000 24.1170 0.0000
# 4 0.0000 0.0000 0.0000 131.2441 0.0000 -161.8687
# 5 8.2774 -6.1998 24.1170 0.0000 42.2618 0.0000
# 6 0.0000 0.0000 0.0000 -161.8687 0.0000 236.5047
#
#
#
# Elastic Compliance Matrix: (Units=1/GPa)
#
#
# Indices 1 2 3 4 5 6 
#
# 1 0.008388 -0.002070 -0.003938 0.000000 0.000301 0.000000
# 2 -0.002070 0.027387 0.002185 0.000000 0.003176 0.000000
# 3 -0.003938 0.002185 0.011744 0.000000 -0.005610 0.000000
# 4 0.000000 0.000000 0.000000 0.048881 0.000000 0.033455
# 5 0.000301 0.003176 -0.005610 0.000000 0.027270 0.000000
# 6 0.000000 0.000000 0.000000 0.033455 0.000000 0.027126
#
#
# Mechanical properties :
#
#
# Convention : Reuss Voigt Hill
#
# Bulk Modulus (GPa) = 25.07972 44.02697 34.55335
# Shear Modulus (GPa) = 29.11493 98.61005 63.86249
#
# Velocity S-wave (km/s) = 3.62214 6.66605 5.36452
# Velocity P-wave (km/s) = 5.36608 8.89314 7.34448
#
# Compressibility (1/GPa) = 0.03987285
#
# Stress axis : x y z
#
# Youngs Moduli (GPa) = 119.21310 36.51394 85.15135
#
# Poissons Ratio (x) = 0.07558 0.33534
# Poissons Ratio (y) = 0.24677 -0.18606
# Poissons Ratio (z) = 0.46948 -0.07979
#
# Static dielectric constant tensor:
#      x y z
#    x 1.886170 0.000000 0.008980 
#    y 0.000000 1.807990 0.000000 
#    z 0.008980 0.000000 1.887910 
# 
# From -- ./inp_files/39388.got.cif
#   From: 2010.05.17/outbox.cif.g08.bks.cpg/sg10_20_cif.got.tgz:39388.got - 2010.06.03 11:33:40.
