data_PCOD9150039
_publ_section_title
;
Structure prediction by ZEFSAII (Michael W. Deem and Ramdas Pophale) SiO2 
 PCOD9150039
Probable space group: P 2/M
;
_chemical_formula_sum "Si O2"
_cell_formula_units_Z 28
_cell_length_a 15.186019
_cell_length_b 19.642203
_cell_length_c 9.002697
_cell_angle_alpha 90.000000
_cell_angle_beta 148.937151
_cell_angle_gamma 90.000000
_cell_volume 1385.600276
_symmetry_space_group_name_H-M "P 2/M"
_symmetry_group_IT_number 10
_symmetry_cell_setting 'monoclinic'
loop_
_space_group_symop_operation_xyz
x,y,z
-x,y,-z
-x,-y,-z
x,-y,z
loop_
_atom_site_type_symbol
_atom_site_label
_atom_site_fract_x
_atom_site_fract_y
_atom_site_fract_z
Si Si1 0.677651 0.855906 0.333346
Si Si2 0.214178 0.000000 0.994405
Si Si3 0.150106 0.643031 0.836809
Si Si4 0.671040 0.419141 0.153222
Si Si5 0.964175 0.422545 0.790213
Si Si6 0.986749 0.767202 0.157318
Si Si7 0.804653 0.000000 0.386415
Si Si8 0.670480 0.135290 0.676652
O O1 0.831146 0.800724 0.532736
O O2 0.651947 0.866888 0.472411
O O3 0.730828 0.929794 0.345581
O O4 0.500000 0.834426 0.000000
O O5 0.299328 0.064137 0.197256
O O6 0.236303 0.000000 0.848620
O O7 0.008055 0.000000 0.713736
O O8 0.314947 0.628251 0.973045
O O9 0.000000 0.633410 0.500000
O O10 0.130511 0.583557 0.929301
O O11 0.093577 0.708855 0.851490
O O12 0.706327 0.500000 0.166670
O O13 0.810465 0.392548 0.473583
O O14 0.500000 0.417101 0.000000
O O15 0.912578 0.500000 0.740535
O O16 0.000000 0.391416 0.000000
O O17 0.000000 0.750283 0.000000
O O18 0.843478 0.824842 0.958586
O O19 0.500000 0.167594 0.500000
#
# Coordination Sequence:
#
# PCOD9150039 Si02
#       8
#     4   2   4   4   4   4   2   4
#     4  11  23  41  64  89 119 154 200 253 311 371
#     4  11  22  37  62  92 122 154 196 249 311 367
#     4  10  20  35  58  85 115 157 198 242 289 354
#     4   9  18  35  59  89 122 154 194 245 299 351
#     4   9  17  32  56  84 114 149 191 237 287 345
#     4  10  23  42  61  83 118 160 205 251 303 362
#     4  11  22  37  62  96 120 152 194 253 313 369
#     4  11  23  41  62  87 119 159 201 248 306 363
#
# _framework density 20.207847999999998
#
# number of rings (size 3 to 8) (size 9 to 14) (size 15 to 20)
#    0.000    1.857    1.429    2.571    0.000    4.571 
#    0.000   10.714    0.000    5.143    0.000    0.000 
#    0.000    0.000    0.000    0.000    0.000    0.000 
#
# Total GULP energy -155907.755127 kJ/mol
# GULP energy per Si atom -5568.134112 kJ/mol
# Density = 2.016185 g / cm^3
# Si number density = 20.207848 Si / 1000 Ang^3
#
#
#
# Elastic Constant Matrix: (Units=GPa)
#
#
# Indices 1 2 3 4 5 6 
#
# 1 151.1274 40.9533 56.0346 0.0000 -1.3784 0.0000
# 2 40.9533 80.7820 30.4686 0.0000 0.9628 0.0000
# 3 56.0346 30.4686 111.5166 0.0000 0.6577 0.0000
# 4 0.0000 0.0000 0.0000 -2.1808 0.0000 -0.8428
# 5 -1.3784 0.9628 0.6577 0.0000 28.3372 0.0000
# 6 0.0000 0.0000 0.0000 -0.8428 0.0000 31.1200
#
#
#
# Elastic Compliance Matrix: (Units=1/GPa)
#
#
# Indices 1 2 3 4 5 6 
#
# 1 0.008791 -0.003118 -0.003569 0.000000 0.000616 0.000000
# 2 -0.003118 0.014911 -0.002504 0.000000 -0.000600 0.000000
# 3 -0.003569 -0.002504 0.011447 0.000000 -0.000354 0.000000
# 4 0.000000 0.000000 0.000000 -0.453804 0.000000 -0.012289
# 5 0.000616 -0.000600 -0.000354 0.000000 0.035348 0.000000
# 6 0.000000 0.000000 0.000000 -0.012289 0.000000 0.031801
#
#
# Mechanical properties :
#
#
# Convention : Reuss Voigt Hill
#
# Bulk Modulus (GPa) = 59.63935 66.48211 63.06073
# Shear Modulus (GPa) = -15.26549 25.85326 5.29389
#
# Velocity S-wave (km/s) = -2.75148 3.58071 1.62031
# Velocity P-wave (km/s) = 4.41394 7.07572 5.89698
#
# Compressibility (1/GPa) = 0.01676745
#
# Stress axis : x y z
#
# Youngs Moduli (GPa) = 113.75646 67.06396 87.36091
#
# Poissons Ratio (x) = 0.20909 0.31178
# Poissons Ratio (y) = 0.35467 0.21874
# Poissons Ratio (z) = 0.40599 0.16792
#
# Static dielectric constant tensor:
#      x y z
#    x 1.769790 0.000000 0.036090 
#    y 0.000000 1.762780 0.000000 
#    z 0.036090 0.000000 1.730400 
# 
# From -- ./inp_files/30507.got.cif
#   From: 2010.05.17/outbox.cif.g08.bks.cpg/sg10_16_cif.got.tgz:30507.got - 2010.06.03 11:33:40.
