data_PCOD9150648
_publ_section_title
;
Structure prediction by ZEFSAII (Michael W. Deem and Ramdas Pophale) SiO2 
 PCOD9150648
Probable space group: P 2/M
;
_chemical_formula_sum "Si O2"
_cell_formula_units_Z 26
_cell_length_a 13.449074
_cell_length_b 11.439100
_cell_length_c 8.576226
_cell_angle_alpha 90.000000
_cell_angle_beta 67.944468
_cell_angle_gamma 90.000000
_cell_volume 1222.857961
_symmetry_space_group_name_H-M "P 2/M"
_symmetry_group_IT_number 10
_symmetry_cell_setting 'monoclinic'
loop_
_space_group_symop_operation_xyz
x,y,z
-x,y,-z
-x,-y,-z
x,-y,z
loop_
_atom_site_type_symbol
_atom_site_label
_atom_site_fract_x
_atom_site_fract_y
_atom_site_fract_z
Si Si1 0.559504 0.500000 0.232786
Si Si2 0.000000 0.783345 0.000000
Si Si3 0.693140 0.288796 0.096554
Si Si4 0.322878 0.500000 0.501809
Si Si5 0.899193 0.366089 0.802521
Si Si6 0.377387 0.134988 0.125475
Si Si7 0.790680 0.867577 0.273012
Si Si8 0.779227 0.270782 0.574211
O O1 0.595431 0.378593 0.133219
O O2 0.433857 0.500000 0.338883
O O3 0.632931 0.500000 0.347432
O O4 0.015183 0.703187 0.144518
O O5 0.893679 0.856671 0.099050
O O6 0.707312 0.228779 0.255635
O O7 0.796006 0.361413 0.978977
O O8 0.686878 0.177357 0.987766
O O9 0.252749 0.388568 0.496288
O O10 0.929649 0.500000 0.754137
O O11 0.860745 0.303964 0.665852
O O12 0.330103 0.217593 0.287027
O O13 0.359113 0.000000 0.176343
O O14 0.500000 0.148652 0.000000
O O15 0.820598 0.825319 0.428505
O O16 0.750088 0.000000 0.297324
#
# Coordination Sequence:
#
# PCOD9150648 Si02
#       8
#     2   2   4   2   4   4   4   4
#     4  11  20  35  59  90 123 162 198 252 290 353
#     4  10  24  42  64  92 114 151 201 250 306 360
#     4  10  20  36  61  86 118 158 203 241 305 352
#     4  11  22  35  57  90 130 154 200 250 297 349
#     4  10  20  38  61  90 122 153 191 244 301 366
#     4  10  21  37  56  84 122 162 206 247 288 348
#     4  11  23  42  64  86 118 156 202 252 301 364
#     4  11  22  39  61  90 122 161 199 245 305 354
#
# _framework density 21.261668
#
# number of rings (size 3 to 8) (size 9 to 14) (size 15 to 20)
#    0.000    1.538    3.077    2.308    0.000    0.615 
#    1.385    6.154    0.000    3.692    0.000    0.000 
#    0.000    0.000    0.000    0.000    0.000    0.000 
#
# Total GULP energy -145092.087380 kJ/mol
# GULP energy per Si atom -5580.464899 kJ/mol
# Density = 2.121328 g / cm^3
# Si number density = 21.261668 Si / 1000 Ang^3
#
#
#
# Elastic Constant Matrix: (Units=GPa)
#
#
# Indices 1 2 3 4 5 6 
#
# 1 37.4814 11.8127 -6.1917 0.0000 9.3734 0.0000
# 2 11.8127 119.8105 19.0905 0.0000 13.7257 0.0000
# 3 -6.1917 19.0905 50.5690 0.0000 10.8741 0.0000
# 4 0.0000 0.0000 0.0000 21.0848 0.0000 -0.3163
# 5 9.3734 13.7257 10.8741 0.0000 30.9875 0.0000
# 6 0.0000 0.0000 0.0000 -0.3163 0.0000 14.6514
#
#
#
# Elastic Compliance Matrix: (Units=1/GPa)
#
#
# Indices 1 2 3 4 5 6 
#
# 1 0.031541 -0.003044 0.007325 0.000000 -0.010763 0.000000
# 2 -0.003044 0.009437 -0.003498 0.000000 -0.002032 0.000000
# 3 0.007325 -0.003498 0.023943 0.000000 -0.009068 0.000000
# 4 0.000000 0.000000 0.000000 0.047443 0.000000 0.001024
# 5 -0.010763 -0.002032 -0.009068 0.000000 0.039609 0.000000
# 6 0.000000 0.000000 0.000000 0.001024 0.000000 0.068275
#
#
# Mechanical properties :
#
#
# Convention : Reuss Voigt Hill
#
# Bulk Modulus (GPa) = 15.04060 28.58711 21.81385
# Shear Modulus (GPa) = 20.76039 25.55469 23.15754
#
# Velocity S-wave (km/s) = 3.12817 3.47062 3.30384
# Velocity P-wave (km/s) = 4.48739 5.43460 4.98355
#
# Compressibility (1/GPa) = 0.06648671
#
# Stress axis : x y z
#
# Youngs Moduli (GPa) = 31.70469 105.96813 41.76663
#
# Poissons Ratio (x) = 0.32257 -0.30596
# Poissons Ratio (y) = 0.09651 0.14612
# Poissons Ratio (z) = -0.23225 0.37072
#
# Static dielectric constant tensor:
#      x y z
#    x 1.795120 0.000000 -0.001330 
#    y 0.000000 1.734220 0.000000 
#    z -0.001330 0.000000 1.805880 
# 
# From -- ./inp_files/28158.got.cif
#   From: 2010.05.17/outbox.cif.g08.bks.cpg/sg10_15_cif.got.tgz:28158.got - 2010.06.03 11:33:40.
