data_PCOD9150676
_publ_section_title
;
Structure prediction by ZEFSAII (Michael W. Deem and Ramdas Pophale) SiO2 
 PCOD9150676
Probable space group: P 2/M
;
_chemical_formula_sum "Si O2"
_cell_formula_units_Z 32
_cell_length_a 18.424697
_cell_length_b 11.182646
_cell_length_c 14.716300
_cell_angle_alpha 90.000000
_cell_angle_beta 31.452656
_cell_angle_gamma 90.000000
_cell_volume 1582.131269
_symmetry_space_group_name_H-M "P 2/M"
_symmetry_group_IT_number 10
_symmetry_cell_setting 'monoclinic'
loop_
_space_group_symop_operation_xyz
x,y,z
-x,y,-z
-x,-y,-z
x,-y,z
loop_
_atom_site_type_symbol
_atom_site_label
_atom_site_fract_x
_atom_site_fract_y
_atom_site_fract_z
Si Si1 0.965315 0.238313 0.269428
Si Si2 0.574015 0.139514 0.240899
Si Si3 0.255697 0.139331 0.620417
Si Si4 0.165833 0.859339 0.908656
Si Si5 0.744850 0.629764 0.599373
Si Si6 0.913484 0.137201 0.676275
Si Si7 0.350870 0.224053 0.131681
Si Si8 0.433617 0.365522 0.874360
O O1 0.832870 0.161128 0.375568
O O2 0.881298 0.354164 0.392328
O O3 0.048944 0.195540 0.268455
O O4 0.070368 0.223687 0.073729
O O5 0.417010 0.170210 0.438322
O O6 0.681744 0.138664 0.208756
O O7 0.613953 0.250082 0.132562
O O8 0.575001 0.000000 0.203444
O O9 0.180827 0.189007 0.790441
O O10 0.256531 0.000000 0.639046
O O11 0.114643 0.000000 0.966779
O O12 0.749006 0.500000 0.640233
O O13 0.726320 0.731164 0.695274
O O14 0.601949 0.634543 0.694910
O O15 0.754568 0.145125 0.813829
O O16 0.000000 0.191953 0.500000
O O17 0.956289 0.000000 0.640321
O O18 0.500000 0.169307 0.000000
O O19 0.388805 0.335829 0.025657
O O20 0.387004 0.500000 0.897643
#
# Coordination Sequence:
#
# PCOD9150676 Si02
#       8
#     4   4   4   4   4   4   4   4
#     4  12  21  37  58  84 117 161 199 242 297 364
#     4  10  20  37  62  92 125 157 197 249 309 365
#     4  10  20  36  61  89 117 157 204 247 299 363
#     4  10  21  36  58  89 125 156 196 256 305 348
#     4  10  21  39  60  83 114 157 206 256 302 353
#     4  11  23  38  56  85 129 164 189 239 310 368
#     4  10  21  40  62  86 112 155 210 254 294 355
#     4  10  20  37  63  91 121 157 204 256 309 360
#
# _framework density 20.225881000000001
#
# number of rings (size 3 to 8) (size 9 to 14) (size 15 to 20)
#    0.000    1.625    2.500    3.000    0.000    5.750 
#    0.000    5.625    0.000    4.500    0.000    0.000 
#    0.000    0.000    0.000    0.000    0.000    0.000 
#
# Total GULP energy -178245.865825 kJ/mol
# GULP energy per Si atom -5570.183307 kJ/mol
# Density = 2.017985 g / cm^3
# Si number density = 20.225881 Si / 1000 Ang^3
#
#
#
# Elastic Constant Matrix: (Units=GPa)
#
#
# Indices 1 2 3 4 5 6 
#
# 1 100.5067 18.6350 36.4396 0.0000 -1.4439 0.0000
# 2 18.6350 49.2191 15.7224 0.0000 15.4791 0.0000
# 3 36.4396 15.7224 84.0488 0.0000 -4.2484 0.0000
# 4 0.0000 0.0000 0.0000 16.9850 0.0000 1.2853
# 5 -1.4439 15.4791 -4.2484 0.0000 32.6061 0.0000
# 6 0.0000 0.0000 0.0000 1.2853 0.0000 10.3034
#
#
#
# Elastic Compliance Matrix: (Units=1/GPa)
#
#
# Indices 1 2 3 4 5 6 
#
# 1 0.012321 -0.003757 -0.004551 0.000000 0.001736 0.000000
# 2 -0.003757 0.027391 -0.004188 0.000000 -0.013716 0.000000
# 3 -0.004551 -0.004188 0.014843 0.000000 0.003721 0.000000
# 4 0.000000 0.000000 0.000000 0.059437 0.000000 -0.007414
# 5 0.001736 -0.013716 0.003721 0.000000 0.037742 0.000000
# 6 0.000000 0.000000 0.000000 -0.007414 0.000000 0.097980
#
#
# Mechanical properties :
#
#
# Convention : Reuss Voigt Hill
#
# Bulk Modulus (GPa) = 33.82763 41.70761 37.76762
# Shear Modulus (GPa) = 17.57093 22.84408 20.20751
#
# Velocity S-wave (km/s) = 2.95063 3.36437 3.16427
# Velocity P-wave (km/s) = 5.32630 5.97977 5.66247
#
# Compressibility (1/GPa) = 0.02956163
#
# Stress axis : x y z
#
# Youngs Moduli (GPa) = 81.16043 36.50812 67.37353
#
# Poissons Ratio (x) = 0.13717 0.30664
# Poissons Ratio (y) = 0.30493 0.28217
# Poissons Ratio (z) = 0.36939 0.15290
#
# Static dielectric constant tensor:
#      x y z
#    x 1.734740 0.000000 0.018790 
#    y 0.000000 1.702450 0.000000 
#    z 0.018790 0.000000 1.788080 
# 
# From -- ./inp_files/69158.got.cif
#   From: 2010.05.17/outbox.cif.g08.bks.cpg/sg10_35_cif.got.tgz:69158.got - 2010.06.03 11:33:40.
