data_PCOD9150576
_publ_section_title
;
Structure prediction by ZEFSAII (Michael W. Deem and Ramdas Pophale) SiO2 
 PCOD9150576
Probable space group: P 2/M
;
_chemical_formula_sum "Si O2"
_cell_formula_units_Z 20
_cell_length_a 22.924395
_cell_length_b 8.684907
_cell_length_c 16.192620
_cell_angle_alpha 90.000000
_cell_angle_beta 19.391532
_cell_angle_gamma 90.000000
_cell_volume 1070.401432
_symmetry_space_group_name_H-M "P 2/M"
_symmetry_group_IT_number 10
_symmetry_cell_setting 'monoclinic'
loop_
_space_group_symop_operation_xyz
x,y,z
-x,y,-z
-x,-y,-z
x,-y,z
loop_
_atom_site_type_symbol
_atom_site_label
_atom_site_fract_x
_atom_site_fract_y
_atom_site_fract_z
Si Si1 0.956789 0.314149 0.741876
Si Si2 0.646129 0.184315 0.044847
Si Si3 0.056427 0.314880 0.049805
Si Si4 0.267148 0.184904 0.621336
Si Si5 0.665153 0.686143 0.835050
O O1 0.948051 0.500000 0.749305
O O2 0.150719 0.267511 0.452464
O O3 0.808958 0.245960 0.880183
O O4 0.928475 0.268940 0.874958
O O5 0.462265 0.229837 0.333344
O O6 0.652661 0.000000 0.033057
O O7 0.652402 0.249338 0.944060
O O8 0.054868 0.500000 0.046471
O O9 0.210108 0.249371 0.786557
O O10 0.875611 0.251698 0.252145
O O11 0.253191 0.000000 0.640671
O O12 0.337881 0.500000 0.156715
O O13 0.500000 0.735918 0.000000
#
# Coordination Sequence:
#
# PCOD9150576 Si02
#       5
#     4   4   4   4   4
#     4  10  22  38  57  83 113 145 182 228 280 328
#     4  11  24  38  55  82 115 150 185 224 272 328
#     4  10  20  36  60  86 109 141 188 233 273 323
#     4  10  21  37  56  81 114 149 184 225 276 327
#     4  10  21  39  62  84 109 143 183 229 279 328
#
# _framework density 18.684578999999999
#
# number of rings (size 3 to 8) (size 9 to 14) (size 15 to 20)
#    0.000    1.800    0.000    4.800    0.000   10.800 
#    0.000    4.000    0.000    0.000    0.000    0.000 
#    0.000    0.000    0.000    0.000    0.000    0.000 
#
# Total GULP energy -111776.623253 kJ/mol
# GULP energy per Si atom -5588.831163 kJ/mol
# Density = 1.864205 g / cm^3
# Si number density = 18.684579 Si / 1000 Ang^3
#
#
#
# Elastic Constant Matrix: (Units=GPa)
#
#
# Indices 1 2 3 4 5 6 
#
# 1 204.0782 48.2724 143.0286 0.0000 9.7666 0.0000
# 2 48.2724 26.7620 10.6688 0.0000 10.5226 0.0000
# 3 143.0286 10.6688 16.4534 0.0000 36.6370 0.0000
# 4 0.0000 0.0000 0.0000 30.6939 0.0000 13.0940
# 5 9.7666 10.5226 36.6370 0.0000 18.2724 0.0000
# 6 0.0000 0.0000 0.0000 13.0940 0.0000 -189.6959
#
#
#
# Elastic Compliance Matrix: (Units=1/GPa)
#
#
# Indices 1 2 3 4 5 6 
#
# 1 0.002230 -0.001979 0.005192 0.000000 -0.010462 0.000000
# 2 -0.001979 0.045983 -0.012698 0.000000 0.000038 0.000000
# 3 0.005192 -0.012698 -0.003976 0.000000 0.012510 0.000000
# 4 0.000000 0.000000 0.000000 0.031648 0.000000 0.002185
# 5 -0.010462 0.000038 0.012510 0.000000 0.035214 0.000000
# 6 0.000000 0.000000 0.000000 0.002185 0.000000 -0.005121
#
#
# Mechanical properties :
#
#
# Convention : Reuss Voigt Hill
#
# Bulk Modulus (GPa) = 39.57880 72.35923 55.96902
# Shear Modulus (GPa) = 37.48927 -25.12433 6.18247
#
# Velocity S-wave (km/s) = 4.48418 -3.67093 1.82100
# Velocity P-wave (km/s) = 6.93102 4.56543 5.86865
#
# Compressibility (1/GPa) = 0.02526605
#
# Stress axis : x y z
#
# Youngs Moduli (GPa) = 448.37967 21.74702 -251.49464
#
# Poissons Ratio (x) = 0.04304 1.30568
# Poissons Ratio (y) = 0.88732 -3.19358
# Poissons Ratio (z) = -2.32785 0.27615
#
# Static dielectric constant tensor:
#      x y z
#    x 1.606360 0.000000 0.009120 
#    y 0.000000 1.630500 0.000000 
#    z 0.009120 0.000000 1.634430 
# 
# From -- ./inp_files/22258.got.cif
#   From: 2010.05.17/outbox.cif.g08.bks.cpg/sg10_12_cif.got.tgz:22258.got - 2010.06.03 11:33:40.
