data_PCOD9150289
_publ_section_title
;
Structure prediction by ZEFSAII (Michael W. Deem and Ramdas Pophale) SiO2 
 PCOD9150289
Probable space group: P 2/M
;
_chemical_formula_sum "Si O2"
_cell_formula_units_Z 28
_cell_length_a 12.716713
_cell_length_b 8.636423
_cell_length_c 15.491131
_cell_angle_alpha 90.000000
_cell_angle_beta 74.232372
_cell_angle_gamma 90.000000
_cell_volume 1637.324405
_symmetry_space_group_name_H-M "P 2/M"
_symmetry_group_IT_number 10
_symmetry_cell_setting 'monoclinic'
loop_
_space_group_symop_operation_xyz
x,y,z
-x,y,-z
-x,-y,-z
x,-y,z
loop_
_atom_site_type_symbol
_atom_site_label
_atom_site_fract_x
_atom_site_fract_y
_atom_site_fract_z
Si Si1 0.111935 0.813341 0.287030
Si Si2 0.305495 0.316743 0.718569
Si Si3 0.760281 0.317067 0.581590
Si Si4 0.841120 0.812550 0.101630
Si Si5 0.087239 0.812138 0.100126
Si Si6 0.859581 0.184170 0.386755
Si Si7 0.524595 0.184516 0.594513
O O1 0.190700 0.734882 0.338096
O O2 0.128393 0.761398 0.184337
O O3 0.985838 0.779763 0.339515
O O4 0.125593 0.000000 0.288537
O O5 0.320841 0.500000 0.713671
O O6 0.252264 0.262328 0.820135
O O7 0.220178 0.267905 0.662752
O O8 0.419623 0.233973 0.672744
O O9 0.771603 0.500000 0.567657
O O10 0.826353 0.232200 0.490357
O O11 0.634472 0.267866 0.599996
O O12 0.960071 0.769422 0.114383
O O13 0.832508 0.000000 0.108289
O O14 0.846412 0.765023 0.999940
O O15 0.087887 0.000000 0.100372
O O16 0.844439 0.000000 0.378876
O O17 0.500000 0.224868 0.500000
O O18 0.540951 0.000000 0.595388
#
# Coordination Sequence:
#
# PCOD9150289 Si02
#       7
#     4   4   4   4   4   4   4
#     4  10  20  36  57  81 111 150 192 227 264 319
#     4  12  23  34  54  84 118 146 175 225 285 331
#     4  12  25  38  54  80 115 148 181 226 281 331
#     4   9  16  32  56  82 110 144 186 227 270 320
#     4   8  15  30  56  83 108 143 188 231 264 311
#     4  11  21  36  57  80 109 150 192 226 263 319
#     4  11  23  40  62  80 101 142 192 231 268 321
#
# _framework density 17.101071000000001
#
# number of rings (size 3 to 8) (size 9 to 14) (size 15 to 20)
#    0.000    1.571    2.857    4.714    0.000    3.429 
#    0.000    2.143    0.000    0.857    0.000    6.000 
#    0.000    0.000    0.000    0.000    0.000    0.000 
#
# Total GULP energy -156405.604975 kJ/mol
# GULP energy per Si atom -5585.914463 kJ/mol
# Density = 1.706215 g / cm^3
# Si number density = 17.101071 Si / 1000 Ang^3
#
#
#
# Elastic Constant Matrix: (Units=GPa)
#
#
# Indices 1 2 3 4 5 6 
#
# 1 48.8123 5.6256 30.2314 0.0000 10.4165 0.0000
# 2 5.6256 14.0238 -1.8309 0.0000 1.0667 0.0000
# 3 30.2314 -1.8309 119.4657 0.0000 0.5591 0.0000
# 4 0.0000 0.0000 0.0000 12.3106 0.0000 -20.2172
# 5 10.4165 1.0667 0.5591 0.0000 21.0915 0.0000
# 6 0.0000 0.0000 0.0000 -20.2172 0.0000 113.8147
#
#
#
# Elastic Compliance Matrix: (Units=1/GPa)
#
#
# Indices 1 2 3 4 5 6 
#
# 1 0.029469 -0.011763 -0.007573 0.000000 -0.013758 0.000000
# 2 -0.011763 0.076427 0.004140 0.000000 0.001835 0.000000
# 3 -0.007573 0.004140 0.010335 0.000000 0.003257 0.000000
# 4 0.000000 0.000000 0.000000 0.114687 0.000000 0.020372
# 5 -0.013758 0.001835 0.003257 0.000000 0.054028 0.000000
# 6 0.000000 0.000000 0.000000 0.020372 0.000000 0.012405
#
#
# Mechanical properties :
#
#
# Convention : Reuss Voigt Hill
#
# Bulk Modulus (GPa) = 11.64997 27.81708 19.73353
# Shear Modulus (GPa) = 14.03085 39.32842 26.67964
#
# Velocity S-wave (km/s) = 2.86749 4.80079 3.95411
# Velocity P-wave (km/s) = 4.21788 6.85796 5.69307
#
# Compressibility (1/GPa) = 0.08583713
#
# Stress axis : x y z
#
# Youngs Moduli (GPa) = 33.93441 13.08433 96.75666
#
# Poissons Ratio (x) = 0.15392 0.73275
# Poissons Ratio (y) = 0.39919 -0.40053
# Poissons Ratio (z) = 0.25699 -0.05416
#
# Static dielectric constant tensor:
#      x y z
#    x 1.546330 0.000000 0.005210 
#    y 0.000000 1.568840 0.000000 
#    z 0.005210 0.000000 1.586300 
# 
# From -- ./inp_files/49196.got.cif
#   From: 2010.05.17/outbox.cif.g08.bks.cpg/sg10_25_cif.got.tgz:49196.got - 2010.06.03 11:33:40.
