data_PCOD9150652
_publ_section_title
;
Structure prediction by ZEFSAII (Michael W. Deem and Ramdas Pophale) SiO2 
 PCOD9150652
Probable space group: P 2/M
;
_chemical_formula_sum "Si O2"
_cell_formula_units_Z 28
_cell_length_a 9.748546
_cell_length_b 16.343334
_cell_length_c 22.108150
_cell_angle_alpha 90.000000
_cell_angle_beta 27.298144
_cell_angle_gamma 90.000000
_cell_volume 1615.424340
_symmetry_space_group_name_H-M "P 2/M"
_symmetry_group_IT_number 10
_symmetry_cell_setting 'monoclinic'
loop_
_space_group_symop_operation_xyz
x,y,z
-x,y,-z
-x,-y,-z
x,-y,z
loop_
_atom_site_type_symbol
_atom_site_label
_atom_site_fract_x
_atom_site_fract_y
_atom_site_fract_z
Si Si1 0.853688 0.775074 0.996486
Si Si2 0.550868 0.095959 0.408408
Si Si3 0.022926 0.500000 0.151952
Si Si4 0.678090 0.500000 0.834477
Si Si5 0.655709 0.352048 0.241576
Si Si6 0.174041 0.094058 0.097791
Si Si7 0.179984 0.761677 0.490796
Si Si8 0.673862 0.658410 0.752615
O O1 0.822762 0.844307 0.959014
O O2 0.089925 0.709380 0.880139
O O3 0.557484 0.723354 0.127656
O O4 0.000000 0.810532 0.000000
O O5 0.500000 0.107047 0.500000
O O6 0.333783 0.158866 0.459217
O O7 0.893844 0.111926 0.252393
O O8 0.487288 0.000000 0.419650
O O9 0.122204 0.500000 0.183013
O O10 0.821469 0.423424 0.211860
O O11 0.331029 0.500000 0.992440
O O12 0.730902 0.582079 0.774491
O O13 0.432181 0.302241 0.371473
O O14 0.475772 0.376032 0.250981
O O15 0.134723 0.000000 0.093296
O O16 0.500000 0.100510 0.000000
O O17 0.000000 0.783863 0.500000
O O18 0.959040 0.712192 0.621566
#
# Coordination Sequence:
#
# PCOD9150652 Si02
#       8
#     4   4   2   2   4   4   4   4
#     4  10  20  36  61  87 113 152 198 241 289 341
#     4  10  22  40  60  84 118 159 197 236 290 350
#     4  11  23  36  59  84 116 152 189 234 287 342
#     4  11  23  38  55  88 116 146 193 238 284 343
#     4  10  20  39  59  83 112 152 192 235 290 344
#     4  10  22  39  59  86 121 156 193 241 291 344
#     4  10  22  40  61  87 116 151 195 242 291 342
#     4  10  22  37  60  85 116 148 190 239 287 345
#
# _framework density 17.332906999999999
#
# number of rings (size 3 to 8) (size 9 to 14) (size 15 to 20)
#    0.000    1.857    2.857    0.429    2.000    4.000 
#    0.000    2.857    0.000    0.000    0.000    0.000 
#    0.000    0.000    0.000    0.000    0.000    0.000 
#
# Total GULP energy -156197.894059 kJ/mol
# GULP energy per Si atom -5578.496216 kJ/mol
# Density = 1.729346 g / cm^3
# Si number density = 17.332907 Si / 1000 Ang^3
#
#
#
# Elastic Constant Matrix: (Units=GPa)
#
#
# Indices 1 2 3 4 5 6 
#
# 1 117.2110 99.7429 62.0662 0.0000 3.5931 0.0000
# 2 99.7429 112.3911 65.3277 0.0000 2.0659 0.0000
# 3 62.0662 65.3277 151.8430 0.0000 3.4331 0.0000
# 4 0.0000 0.0000 0.0000 13.7703 0.0000 0.4835
# 5 3.5931 2.0659 3.4331 0.0000 28.6384 0.0000
# 6 0.0000 0.0000 0.0000 0.4835 0.0000 45.2214
#
#
#
# Elastic Compliance Matrix: (Units=1/GPa)
#
#
# Indices 1 2 3 4 5 6 
#
# 1 0.035153 -0.030448 -0.001222 0.000000 -0.002067 0.000000
# 2 -0.030448 0.038240 -0.004041 0.000000 0.001546 0.000000
# 3 -0.001222 -0.004041 0.008838 0.000000 -0.000615 0.000000
# 4 0.000000 0.000000 0.000000 0.072647 0.000000 -0.000777
# 5 -0.002067 0.001546 -0.000615 0.000000 0.035140 0.000000
# 6 0.000000 0.000000 0.000000 -0.000777 0.000000 0.022122
#
#
# Mechanical properties :
#
#
# Convention : Reuss Voigt Hill
#
# Bulk Modulus (GPa) = 92.53177 92.85762 92.69469
# Shear Modulus (GPa) = 17.41160 27.81323 22.61241
#
# Velocity S-wave (km/s) = 3.17289 4.01015 3.61584
# Velocity P-wave (km/s) = 8.18070 8.66782 8.42778
#
# Compressibility (1/GPa) = 0.01080710
#
# Stress axis : x y z
#
# Youngs Moduli (GPa) = 28.44725 26.15080 113.15011
#
# Poissons Ratio (x) = 0.79625 0.13829
# Poissons Ratio (y) = 0.86617 0.45725
# Poissons Ratio (z) = 0.03477 0.10568
#
# Static dielectric constant tensor:
#      x y z
#    x 1.593730 0.000000 -0.005590 
#    y 0.000000 1.556700 0.000000 
#    z -0.005590 0.000000 1.556580 
# 
# From -- ./inp_files/35332.got.cif
#   From: 2010.05.17/outbox.cif.g08.bks.cpg/sg10_18_cif.got.tgz:35332.got - 2010.06.03 11:33:40.
