data_PCOD9150135
_publ_section_title
;
Structure prediction by ZEFSAII (Michael W. Deem and Ramdas Pophale) SiO2 
 PCOD9150135
Probable space group: P 2/M
;
_chemical_formula_sum "Si O2"
_cell_formula_units_Z 32
_cell_length_a 15.081823
_cell_length_b 8.646536
_cell_length_c 22.527074
_cell_angle_alpha 90.000000
_cell_angle_beta 31.849238
_cell_angle_gamma 90.000000
_cell_volume 1550.159285
_symmetry_space_group_name_H-M "P 2/M"
_symmetry_group_IT_number 10
_symmetry_cell_setting 'monoclinic'
loop_
_space_group_symop_operation_xyz
x,y,z
-x,y,-z
-x,-y,-z
x,-y,z
loop_
_atom_site_type_symbol
_atom_site_label
_atom_site_fract_x
_atom_site_fract_y
_atom_site_fract_z
Si Si1 0.114827 0.181931 0.292970
Si Si2 0.832094 0.314130 0.132658
Si Si3 0.079505 0.683287 0.783254
Si Si4 0.562491 0.315852 0.837861
Si Si5 0.748742 0.319042 0.523387
Si Si6 0.744041 0.316606 0.909171
Si Si7 0.518478 0.818455 0.240185
Si Si8 0.344537 0.818345 0.545427
O O1 0.260632 0.230956 0.255490
O O2 0.187706 0.230516 0.187288
O O3 0.941516 0.269468 0.404882
O O4 0.083016 0.000000 0.312627
O O5 0.806907 0.500000 0.144610
O O6 0.864272 0.271108 0.182871
O O7 0.672203 0.233168 0.194589
O O8 0.000000 0.278269 0.000000
O O9 0.116743 0.500000 0.754140
O O10 0.179983 0.778049 0.676886
O O11 0.882335 0.702574 0.882523
O O12 0.586888 0.500000 0.828091
O O13 0.479146 0.273360 0.822848
O O14 0.435600 0.268635 0.962911
O O15 0.736668 0.500000 0.543413
O O16 0.653160 0.224249 0.628248
O O17 0.657296 0.280384 0.513182
O O18 0.736168 0.500000 0.899294
O O19 0.527670 0.000000 0.223267
O O20 0.500000 0.783073 0.500000
O O21 0.348430 0.000000 0.527763
#
# Coordination Sequence:
#
# PCOD9150135 Si02
#       8
#     4   4   4   4   4   4   4   4
#     4  12  25  42  66  99 134 167 210 269 333 387
#     4  10  21  40  65  94 129 175 224 267 313 380
#     4  10  20  35  60  91 123 164 213 258 309 374
#     4  11  24  44  69  95 127 172 221 266 318 388
#     4  12  25  44  68  92 125 171 221 266 318 388
#     4  10  21  40  66  97 131 170 215 265 317 382
#     4  12  26  44  65  95 133 171 216 273 333 385
#     4  11  23  38  58  89 126 163 204 258 321 378
#
# _framework density 20.643039999999999
#
# number of rings (size 3 to 8) (size 9 to 14) (size 15 to 20)
#    0.000    1.000    1.250    6.000    0.000    8.750 
#    0.000    3.750    0.000    0.000    0.000    0.000 
#    0.000    0.000    0.000    0.000    0.000    0.000 
#
# Total GULP energy -179103.685200 kJ/mol
# GULP energy per Si atom -5596.990162 kJ/mol
# Density = 2.059606 g / cm^3
# Si number density = 20.643040 Si / 1000 Ang^3
#
#
#
# Elastic Constant Matrix: (Units=GPa)
#
#
# Indices 1 2 3 4 5 6 
#
# 1 61.3323 4.4788 -4.8729 0.0000 -6.2116 0.0000
# 2 4.4788 18.2969 -1.5557 0.0000 -11.3028 0.0000
# 3 -4.8729 -1.5557 69.2584 0.0000 -2.9585 0.0000
# 4 0.0000 0.0000 0.0000 116.3985 0.0000 -14.7477
# 5 -6.2116 -11.3028 -2.9585 0.0000 36.0383 0.0000
# 6 0.0000 0.0000 0.0000 -14.7477 0.0000 50.4064
#
#
#
# Elastic Compliance Matrix: (Units=1/GPa)
#
#
# Indices 1 2 3 4 5 6 
#
# 1 0.016815 -0.002680 0.001215 0.000000 0.002158 0.000000
# 2 -0.002680 0.068628 0.002261 0.000000 0.021248 0.000000
# 3 0.001215 0.002261 0.014666 0.000000 0.002122 0.000000
# 4 0.000000 0.000000 0.000000 0.008922 0.000000 0.002610
# 5 0.002158 0.021248 0.002122 0.000000 0.034958 0.000000
# 6 0.000000 0.000000 0.000000 0.002610 0.000000 0.020602
#
#
# Mechanical properties :
#
#
# Convention : Reuss Voigt Hill
#
# Bulk Modulus (GPa) = 9.83282 16.10977 12.97130
# Shear Modulus (GPa) = 25.39354 50.62447 38.00901
#
# Velocity S-wave (km/s) = 3.51112 4.95752 4.29563
# Velocity P-wave (km/s) = 4.60553 6.37105 5.55883
#
# Compressibility (1/GPa) = 0.10170021
#
# Stress axis : x y z
#
# Youngs Moduli (GPa) = 59.46933 14.57132 68.18672
#
# Poissons Ratio (x) = 0.03905 -0.08285
# Poissons Ratio (y) = 0.15938 -0.15414
# Poissons Ratio (z) = -0.07226 -0.03294
#
# Static dielectric constant tensor:
#      x y z
#    x 1.737520 0.000000 -0.012520 
#    y 0.000000 1.691090 0.000000 
#    z -0.012520 0.000000 1.717940 
# 
# From -- ./inp_files/89521.got.cif
#   From: 2010.05.17/outbox.cif.g08.bks.cpg/sg10_45_cif.got.tgz:89521.got - 2010.06.03 11:33:40.
