data_PCOD9150219
_publ_section_title
;
Structure prediction by ZEFSAII (Michael W. Deem and Ramdas Pophale) SiO2 
 PCOD9150219
Probable space group: P 2/M
;
_chemical_formula_sum "Si O2"
_cell_formula_units_Z 32
_cell_length_a 11.542235
_cell_length_b 7.746299
_cell_length_c 21.084588
_cell_angle_alpha 90.000000
_cell_angle_beta 54.351341
_cell_angle_gamma 90.000000
_cell_volume 1531.896285
_symmetry_space_group_name_H-M "P 2/M"
_symmetry_group_IT_number 10
_symmetry_cell_setting 'monoclinic'
loop_
_space_group_symop_operation_xyz
x,y,z
-x,y,-z
-x,-y,-z
x,-y,z
loop_
_atom_site_type_symbol
_atom_site_label
_atom_site_fract_x
_atom_site_fract_y
_atom_site_fract_z
Si Si1 0.142382 0.701756 0.921914
Si Si2 0.481955 0.793864 0.683327
Si Si3 0.608674 0.699775 0.914242
Si Si4 0.165680 0.207318 0.770298
Si Si5 0.218635 0.706952 0.455362
Si Si6 0.898812 0.293326 0.772065
Si Si7 0.949802 0.288701 0.615510
Si Si8 0.464404 0.799517 0.831831
O O1 0.155609 0.500000 0.935031
O O2 0.125216 0.719878 0.852008
O O3 0.292687 0.787608 0.891538
O O4 0.000000 0.772322 0.000000
O O5 0.328698 0.733976 0.706567
O O6 0.616683 0.754758 0.596916
O O7 0.501530 0.727645 0.749687
O O8 0.472272 0.000000 0.693014
O O9 0.628514 0.500000 0.927846
O O10 0.766442 0.776876 0.855273
O O11 0.537815 0.706565 0.867262
O O12 0.500000 0.779425 0.000000
O O13 0.049967 0.261093 0.756128
O O14 0.164847 0.000000 0.774846
O O15 0.210787 0.500000 0.457426
O O16 0.110374 0.765252 0.544816
O O17 0.151629 0.767565 0.409744
O O18 0.878027 0.500000 0.774663
O O19 0.900666 0.226082 0.699561
O O20 0.947373 0.500000 0.617266
O O21 0.507076 0.000000 0.821441
#
# Coordination Sequence:
#
# PCOD9150219 Si02
#       8
#     4   4   4   4   4   4   4   4
#     4  10  21  36  57  80 103 134 176 225 273 317
#     4   9  19  35  52  75 107 138 172 219 268 315
#     4  10  22  37  54  79 109 140 178 225 271 318
#     4  10  22  38  54  76 107 143 182 223 268 323
#     4   9  16  30  56  83 107 135 176 223 266 316
#     4  10  20  36  56  76 108 148 182 220 272 327
#     4   8  16  31  52  82 111 138 174 219 268 319
#     4  10  21  36  54  78 108 140 176 216 264 322
#
# _framework density 20.889144999999999
#
# number of rings (size 3 to 8) (size 9 to 14) (size 15 to 20)
#    0.000    2.500    0.000    3.375    1.750    5.750 
#    0.000    3.125    0.000    3.750    0.000    0.000 
#    0.000    0.000    0.000    0.000    0.000    0.000 
#
# Total GULP energy -178583.336228 kJ/mol
# GULP energy per Si atom -5580.729257 kJ/mol
# Density = 2.084160 g / cm^3
# Si number density = 20.889145 Si / 1000 Ang^3
#
#
#
# Elastic Constant Matrix: (Units=GPa)
#
#
# Indices 1 2 3 4 5 6 
#
# 1 56.9252 -4.6733 37.9809 0.0000 -10.0581 0.0000
# 2 -4.6733 27.6910 11.6183 0.0000 -0.9961 0.0000
# 3 37.9809 11.6183 118.0746 0.0000 -35.5300 0.0000
# 4 0.0000 0.0000 0.0000 16.3840 0.0000 -12.4808
# 5 -10.0581 -0.9961 -35.5300 0.0000 25.3592 0.0000
# 6 0.0000 0.0000 0.0000 -12.4808 0.0000 -16.7360
#
#
#
# Elastic Compliance Matrix: (Units=1/GPa)
#
#
# Indices 1 2 3 4 5 6 
#
# 1 0.023970 0.007932 -0.009572 0.000000 -0.003592 0.000000
# 2 0.007932 0.040907 -0.008898 0.000000 -0.007714 0.000000
# 3 -0.009572 -0.008898 0.019322 0.000000 0.022926 0.000000
# 4 0.000000 0.000000 0.000000 0.038923 0.000000 -0.029027
# 5 -0.003592 -0.007714 0.022926 0.000000 0.069827 0.000000
# 6 0.000000 0.000000 0.000000 -0.029027 0.000000 -0.038105
#
#
# Mechanical properties :
#
#
# Convention : Reuss Voigt Hill
#
# Bulk Modulus (GPa) = 15.84171 32.50474 24.17323
# Shear Modulus (GPa) = 25.38566 15.51909 20.45237
#
# Velocity S-wave (km/s) = 3.48983 2.72862 3.13244
# Velocity P-wave (km/s) = 4.88249 5.05189 4.96791
#
# Compressibility (1/GPa) = 0.06312449
#
# Stress axis : x y z
#
# Youngs Moduli (GPa) = 41.71924 24.44554 51.75323
#
# Poissons Ratio (x) = -0.19390 0.49537
# Poissons Ratio (y) = -0.33092 0.46049
# Poissons Ratio (z) = 0.39933 0.21751
#
# Static dielectric constant tensor:
#      x y z
#    x 1.736100 0.000000 -0.044180 
#    y 0.000000 1.782650 0.000000 
#    z -0.044180 0.000000 1.780020 
# 
# From -- ./inp_files/83577.got.cif
#   From: 2010.05.17/outbox.cif.g08.bks.cpg/sg10_42_cif.got.tgz:83577.got - 2010.06.03 11:33:40.
