data_PCOD9150286
_publ_section_title
;
Structure prediction by ZEFSAII (Michael W. Deem and Ramdas Pophale) SiO2 
 PCOD9150286
Probable space group: P 2/M
;
_chemical_formula_sum "Si O2"
_cell_formula_units_Z 32
_cell_length_a 24.043971
_cell_length_b 7.324759
_cell_length_c 14.977719
_cell_angle_alpha 90.000000
_cell_angle_beta 29.178829
_cell_angle_gamma 90.000000
_cell_volume 1286.035224
_symmetry_space_group_name_H-M "P 2/M"
_symmetry_group_IT_number 10
_symmetry_cell_setting 'monoclinic'
loop_
_space_group_symop_operation_xyz
x,y,z
-x,y,-z
-x,-y,-z
x,-y,z
loop_
_atom_site_type_symbol
_atom_site_label
_atom_site_fract_x
_atom_site_fract_y
_atom_site_fract_z
Si Si1 0.092329 0.288835 0.304343
Si Si2 0.573834 0.709148 0.569668
Si Si3 0.985665 0.793805 0.118636
Si Si4 0.082887 0.778386 0.597730
Si Si5 0.323889 0.778958 0.196372
Si Si6 0.449694 0.219826 0.203785
Si Si7 0.318774 0.277587 0.913258
Si Si8 0.764529 0.278697 0.167936
O O1 0.105800 0.500000 0.311823
O O2 0.000000 0.202876 0.500000
O O3 0.030576 0.282933 0.294560
O O4 0.219058 0.210446 0.118945
O O5 0.560340 0.500000 0.557908
O O6 0.606939 0.712876 0.626653
O O7 0.446992 0.790507 0.745324
O O8 0.670292 0.786179 0.370993
O O9 0.112930 0.798586 0.979730
O O10 0.940856 0.000000 0.166319
O O11 0.000000 0.708589 0.000000
O O12 0.914736 0.716160 0.302159
O O13 0.193257 0.718160 0.385860
O O14 0.081968 0.000000 0.601193
O O15 0.380740 0.729997 0.211945
O O16 0.321481 0.000000 0.194280
O O17 0.418363 0.716450 0.992344
O O18 0.450515 0.000000 0.205471
O O19 0.319487 0.500000 0.919397
O O20 0.278229 0.232296 0.870473
O O21 0.774943 0.500000 0.158568
#
# Coordination Sequence:
#
# PCOD9150286 Si02
#       8
#     4   4   4   4   4   4   4   4
#     4  10  21  36  56  82 109 141 182 224 270 322
#     4  10  21  34  54  82 106 134 177 222 269 316
#     4  10  22  37  56  83 112 144 181 223 273 323
#     4  10  20  36  57  81 110 144 180 222 270 323
#     4   8  17  34  55  76 104 142 179 210 257 320
#     4   9  18  35  56  78 104 139 178 217 259 313
#     4   9  18  36  56  74 104 141 174 214 265 320
#     4  10  20  37  58  78 104 141 182 221 263 320
#
# _framework density 24.882677999999999
#
# number of rings (size 3 to 8) (size 9 to 14) (size 15 to 20)
#    0.000    2.500    1.250    1.125    3.500    2.500 
#    0.000    3.125    0.000    1.500    0.000    0.000 
#    0.000    0.000    0.000    0.000    0.000    0.000 
#
# Total GULP energy -178859.125166 kJ/mol
# GULP energy per Si atom -5589.347661 kJ/mol
# Density = 2.482604 g / cm^3
# Si number density = 24.882678 Si / 1000 Ang^3
#
#
#
# Elastic Constant Matrix: (Units=GPa)
#
#
# Indices 1 2 3 4 5 6 
#
# 1 47.3014 -6.6469 -9.3896 0.0000 11.6299 0.0000
# 2 -6.6469 103.0989 3.0991 0.0000 1.4958 0.0000
# 3 -9.3896 3.0991 133.0209 0.0000 14.2315 0.0000
# 4 0.0000 0.0000 0.0000 -4.9020 0.0000 -3.3040
# 5 11.6299 1.4958 14.2315 0.0000 46.6865 0.0000
# 6 0.0000 0.0000 0.0000 -3.3040 0.0000 9.4551
#
#
#
# Elastic Compliance Matrix: (Units=1/GPa)
#
#
# Indices 1 2 3 4 5 6 
#
# 1 0.023440 0.001537 0.002325 0.000000 -0.006597 0.000000
# 2 0.001537 0.009810 -0.000047 0.000000 -0.000683 0.000000
# 3 0.002325 -0.000047 0.008006 0.000000 -0.003018 0.000000
# 4 0.000000 0.000000 0.000000 -0.165110 0.000000 -0.057696
# 5 -0.006597 -0.000683 -0.003018 0.000000 0.024005 0.000000
# 6 0.000000 0.000000 0.000000 -0.057696 0.000000 0.085602
#
#
# Mechanical properties :
#
#
# Convention : Reuss Voigt Hill
#
# Bulk Modulus (GPa) = 20.45603 28.61626 24.53615
# Shear Modulus (GPa) = -895.75151 30.00516 -432.87317
#
# Velocity S-wave (km/s) = -18.99399 3.47632 -13.20391
# Velocity P-wave (km/s) = 21.74373 5.25724 14.91897
#
# Compressibility (1/GPa) = 0.04888533
#
# Stress axis : x y z
#
# Youngs Moduli (GPa) = 42.66127 101.93849 124.91128
#
# Poissons Ratio (x) = -0.15669 -0.29037
# Poissons Ratio (y) = -0.06557 0.00587
# Poissons Ratio (z) = -0.09917 0.00479
#
# Static dielectric constant tensor:
#      x y z
#    x 1.931060 0.000000 0.022220 
#    y 0.000000 1.968980 0.000000 
#    z 0.022220 0.000000 1.972140 
# 
# From -- ./inp_files/71466.got.cif
#   From: 2010.05.17/outbox.cif.g08.bks.cpg/sg10_36_cif.got.tgz:71466.got - 2010.06.03 11:33:40.
