data_PCOD9150388
_publ_section_title
;
Structure prediction by ZEFSAII (Michael W. Deem and Ramdas Pophale) SiO2 
 PCOD9150388
Probable space group: P 2/M
;
_chemical_formula_sum "Si O2"
_cell_formula_units_Z 28
_cell_length_a 16.011108
_cell_length_b 10.910364
_cell_length_c 10.107513
_cell_angle_alpha 90.000000
_cell_angle_beta 61.930418
_cell_angle_gamma 90.000000
_cell_volume 1557.969732
_symmetry_space_group_name_H-M "P 2/M"
_symmetry_group_IT_number 10
_symmetry_cell_setting 'monoclinic'
loop_
_space_group_symop_operation_xyz
x,y,z
-x,y,-z
-x,-y,-z
x,-y,z
loop_
_atom_site_type_symbol
_atom_site_label
_atom_site_fract_x
_atom_site_fract_y
_atom_site_fract_z
Si Si1 0.775068 0.635319 0.435283
Si Si2 0.061399 0.736313 0.822804
Si Si3 0.940224 0.641813 0.676681
Si Si4 0.435161 0.147958 0.179648
Si Si5 0.218741 0.776471 0.307558
Si Si6 0.954689 0.000000 0.177703
Si Si7 0.914875 0.000000 0.666660
Si Si8 0.552834 0.644724 0.600013
O O1 0.789673 0.500000 0.483930
O O2 0.848480 0.650033 0.261771
O O3 0.797584 0.735333 0.529483
O O4 0.665059 0.647531 0.485046
O O5 0.100630 0.873807 0.775412
O O6 0.987933 0.714222 0.759562
O O7 0.000000 0.722245 0.000000
O O8 0.956866 0.500000 0.690430
O O9 0.828846 0.667036 0.740829
O O10 0.000000 0.673643 0.500000
O O11 0.328078 0.186309 0.217654
O O12 0.462682 0.248142 0.275705
O O13 0.436807 0.000000 0.216169
O O14 0.500000 0.160651 0.000000
O O15 0.151894 0.885786 0.312286
O O16 0.036965 0.000000 0.225940
O O17 0.000000 0.000000 0.000000
O O18 0.000000 0.000000 0.500000
O O19 0.500000 0.667961 0.500000
O O20 0.532255 0.500000 0.656190
#
# Coordination Sequence:
#
# PCOD9150388 Si02
#       8
#     4   4   4   4   4   2   2   4
#     4  10  20  36  58  83 115 149 188 239 291 345
#     4  11  22  37  54  78 115 155 191 231 283 340
#     4  11  21  35  55  82 117 151 187 233 281 339
#     4  10  22  41  63  90 124 154 194 254 312 365
#     4  11  20  35  58  86 110 152 192 233 288 341
#     4  10  22  38  50  71 113 156 189 229 280 328
#     4  12  20  32  57  83 109 142 197 237 258 327
#     4   9  20  41  65  87 116 154 201 252 301 359
#
# _framework density 17.972107000000001
#
# number of rings (size 3 to 8) (size 9 to 14) (size 15 to 20)
#    0.000    1.571    3.571    2.143    0.000    2.286 
#    3.857    0.000    0.000    0.000    0.000    0.000 
#    0.000    0.000    0.000    0.000    0.000    0.000 
#
# Total GULP energy -155872.236001 kJ/mol
# GULP energy per Si atom -5566.865571 kJ/mol
# Density = 1.793120 g / cm^3
# Si number density = 17.972107 Si / 1000 Ang^3
#
#
#
# Elastic Constant Matrix: (Units=GPa)
#
#
# Indices 1 2 3 4 5 6 
#
# 1 63.8626 27.1328 39.2231 0.0000 0.1764 0.0000
# 2 27.1328 91.1435 49.8580 0.0000 1.2329 0.0000
# 3 39.2231 49.8580 99.6084 0.0000 -2.6361 0.0000
# 4 0.0000 0.0000 0.0000 23.3792 0.0000 6.8972
# 5 0.1764 1.2329 -2.6361 0.0000 25.5900 0.0000
# 6 0.0000 0.0000 0.0000 6.8972 0.0000 -10.6586
#
#
#
# Elastic Compliance Matrix: (Units=1/GPa)
#
#
# Indices 1 2 3 4 5 6 
#
# 1 0.021038 -0.002354 -0.007126 0.000000 -0.000766 0.000000
# 2 -0.002354 0.015431 -0.006834 0.000000 -0.001431 0.000000
# 3 -0.007126 -0.006834 0.016321 0.000000 0.002060 0.000000
# 4 0.000000 0.000000 0.000000 0.035916 0.000000 0.023242
# 5 -0.000766 -0.001431 0.002060 0.000000 0.039364 0.000000
# 6 0.000000 0.000000 0.000000 0.023242 0.000000 -0.078782
#
#
# Mechanical properties :
#
#
# Convention : Reuss Voigt Hill
#
# Bulk Modulus (GPa) = 49.60414 54.11579 51.85997
# Shear Modulus (GPa) = 56.40996 16.88885 36.64941
#
# Velocity S-wave (km/s) = 5.60853 3.06882 4.52069
# Velocity P-wave (km/s) = 8.34275 6.53707 7.49449
#
# Compressibility (1/GPa) = 0.02015961
#
# Stress axis : x y z
#
# Youngs Moduli (GPa) = 47.53407 64.80644 61.27198
#
# Poissons Ratio (x) = 0.15258 0.43661
# Poissons Ratio (y) = 0.11191 0.41876
# Poissons Ratio (z) = 0.33872 0.44291
#
# Static dielectric constant tensor:
#      x y z
#    x 1.597830 0.000000 0.005010 
#    y 0.000000 1.738220 0.000000 
#    z 0.005010 0.000000 1.604830 
# 
# From -- ./inp_files/28257.got.cif
#   From: 2010.05.17/outbox.cif.g08.bks.cpg/sg10_15_cif.got.tgz:28257.got - 2010.06.03 11:33:40.
