data_PCOD9150312
_publ_section_title
;
Structure prediction by ZEFSAII (Michael W. Deem and Ramdas Pophale) SiO2 
 PCOD9150312
Probable space group: P 2/M
;
_chemical_formula_sum "Si O2"
_cell_formula_units_Z 24
_cell_length_a 8.702451
_cell_length_b 17.437051
_cell_length_c 12.084337
_cell_angle_alpha 90.000000
_cell_angle_beta 50.437462
_cell_angle_gamma 90.000000
_cell_volume 1413.683904
_symmetry_space_group_name_H-M "P 2/M"
_symmetry_group_IT_number 10
_symmetry_cell_setting 'monoclinic'
loop_
_space_group_symop_operation_xyz
x,y,z
-x,y,-z
-x,-y,-z
x,-y,z
loop_
_atom_site_type_symbol
_atom_site_label
_atom_site_fract_x
_atom_site_fract_y
_atom_site_fract_z
Si Si1 0.544683 0.911904 0.349828
Si Si2 0.083942 0.587281 0.337107
Si Si3 0.441411 0.293387 0.154435
Si Si4 0.271997 0.310524 0.586108
Si Si5 0.231081 0.813353 0.405005
Si Si6 0.215648 0.767560 0.845937
O O1 0.500000 0.895213 0.500000
O O2 0.336870 0.892023 0.386608
O O3 0.692081 0.851455 0.223534
O O4 0.606143 0.000000 0.311547
O O5 0.116036 0.500000 0.284554
O O6 0.290762 0.634917 0.240515
O O7 0.000000 0.586186 0.500000
O O8 0.902487 0.628568 0.356598
O O9 0.312380 0.220942 0.253559
O O10 0.636186 0.282844 0.143494
O O11 0.500000 0.290995 0.000000
O O12 0.500000 0.339369 0.500000
O O13 0.277424 0.249845 0.480782
O O14 0.210353 0.269896 0.727699
O O15 0.000000 0.821328 0.500000
O O16 0.000000 0.772303 0.000000
#
# Coordination Sequence:
#
# PCOD9150312 Si02
#       6
#     4   4   4   4   4   4
#     4  10  20  36  57  84 116 148 185 232 286 334
#     4  11  22  37  58  84 115 150 185 229 289 339
#     4  11  21  37  57  84 112 149 189 232 277 339
#     4  12  18  37  60  86 110 142 193 237 271 331
#     4  11  19  35  61  84 108 150 187 238 270 329
#     4  11  22  35  60  86 111 150 190 236 277 329
#
# _framework density 16.976921000000001
#
# number of rings (size 3 to 8) (size 9 to 14) (size 15 to 20)
#    0.000    1.000    8.333    1.000    0.000    1.333 
#    0.000    0.833    0.000   10.000    0.000    0.000 
#    0.000    0.000    0.000    0.000    0.000    0.000 
#
# Total GULP energy -133720.891109 kJ/mol
# GULP energy per Si atom -5571.703796 kJ/mol
# Density = 1.693828 g / cm^3
# Si number density = 16.976921 Si / 1000 Ang^3
#
#
#
# Elastic Constant Matrix: (Units=GPa)
#
#
# Indices 1 2 3 4 5 6 
#
# 1 104.4488 59.5272 49.7702 0.0000 -22.7736 0.0000
# 2 59.5272 98.8764 39.9546 0.0000 -2.7885 0.0000
# 3 49.7702 39.9546 124.8826 0.0000 -4.5582 0.0000
# 4 0.0000 0.0000 0.0000 13.7788 0.0000 1.8403
# 5 -22.7736 -2.7885 -4.5582 0.0000 34.4823 0.0000
# 6 0.0000 0.0000 0.0000 1.8403 0.0000 19.3255
#
#
#
# Elastic Compliance Matrix: (Units=1/GPa)
#
#
# Indices 1 2 3 4 5 6 
#
# 1 0.019789 -0.009842 -0.004311 0.000000 0.011704 0.000000
# 2 -0.009842 0.016517 -0.001558 0.000000 -0.005370 0.000000
# 3 -0.004311 -0.001558 0.010165 0.000000 -0.001629 0.000000
# 4 0.000000 0.000000 0.000000 0.073510 0.000000 -0.007000
# 5 0.011704 -0.005370 -0.001629 0.000000 0.036080 0.000000
# 6 0.000000 0.000000 0.000000 -0.007000 0.000000 0.052412
#
#
# Mechanical properties :
#
#
# Convention : Reuss Voigt Hill
#
# Bulk Modulus (GPa) = 66.44816 69.63465 68.04140
# Shear Modulus (GPa) = 20.41566 25.44771 22.93169
#
# Velocity S-wave (km/s) = 3.47155 3.87584 3.67925
# Velocity P-wave (km/s) = 7.43600 7.81894 7.62987
#
# Compressibility (1/GPa) = 0.01504933
#
# Stress axis : x y z
#
# Youngs Moduli (GPa) = 50.53337 60.54422 98.38161
#
# Poissons Ratio (x) = 0.59586 0.42409
# Poissons Ratio (y) = 0.49733 0.15329
# Poissons Ratio (z) = 0.21783 0.09433
#
# Static dielectric constant tensor:
#      x y z
#    x 1.611990 0.000000 -0.007180 
#    y 0.000000 1.572440 0.000000 
#    z -0.007180 0.000000 1.562970 
# 
# From -- ./inp_files/25642.got.cif
#   From: 2010.05.17/outbox.cif.g08.bks.cpg/sg10_13_cif.got.tgz:25642.got - 2010.06.03 11:33:40.
