data_PCOD9150968
_publ_section_title
;
Structure prediction by ZEFSAII (Michael W. Deem and Ramdas Pophale) SiO2 
 PCOD9150968
Probable space group: P 2/M
;
_chemical_formula_sum "Si O2"
_cell_formula_units_Z 18
_cell_length_a 11.586361
_cell_length_b 10.103917
_cell_length_c 18.606082
_cell_angle_alpha 90.000000
_cell_angle_beta 25.637086
_cell_angle_gamma 90.000000
_cell_volume 942.427451
_symmetry_space_group_name_H-M "P 2/M"
_symmetry_group_IT_number 10
_symmetry_cell_setting 'monoclinic'
loop_
_space_group_symop_operation_xyz
x,y,z
-x,y,-z
-x,-y,-z
x,-y,z
loop_
_atom_site_type_symbol
_atom_site_label
_atom_site_fract_x
_atom_site_fract_y
_atom_site_fract_z
Si Si1 0.543239 0.000000 0.253764
Si Si2 0.559524 0.500000 0.157733
Si Si3 0.978525 0.500000 0.627090
Si Si4 0.015472 0.000000 0.109169
Si Si5 0.257031 0.244323 0.682889
Si Si6 0.560871 0.291444 0.659433
Si Si7 0.037101 0.500000 0.202173
O O1 0.390377 0.861690 0.348155
O O2 0.773809 0.000000 0.186066
O O3 0.707186 0.000000 0.087803
O O4 0.585666 0.371264 0.194134
O O5 0.259353 0.500000 0.295829
O O6 0.754618 0.500000 0.980376
O O7 0.172593 0.373911 0.507183
O O8 0.860459 0.500000 0.773826
O O9 0.965712 0.133094 0.181217
O O10 0.500000 0.186499 0.500000
O O11 0.373246 0.290089 0.694503
O O12 0.143924 0.370831 0.705970
#
# Coordination Sequence:
#
# PCOD9150968 Si02
#       7
#     2   2   2   2   4   4   2
#     4   9  18  34  55  87 111 141 180 224 276 330
#     4  11  24  38  57  80 109 152 190 229 279 315
#     4  11  22  41  55  79 112 150 192 229 268 325
#     4   9  19  32  52  83 125 144 165 216 285 346
#     4  11  20  34  57  86 117 144 179 222 283 334
#     4  10  20  37  61  82 113 143 183 229 273 333
#     4  12  22  36  58  83 114 145 184 235 272 325
#
# _framework density 19.099615
#
# number of rings (size 3 to 8) (size 9 to 14) (size 15 to 20)
#    0.000    1.556    2.222    5.000    0.000    3.556 
#    0.000    2.222    0.000    0.000    0.000    6.222 
#    0.000    0.000    0.000    0.000    0.000    0.000 
#
# Total GULP energy -100527.070590 kJ/mol
# GULP energy per Si atom -5584.837255 kJ/mol
# Density = 1.905614 g / cm^3
# Si number density = 19.099615 Si / 1000 Ang^3
#
#
#
# Elastic Constant Matrix: (Units=GPa)
#
#
# Indices 1 2 3 4 5 6 
#
# 1 67.5231 20.8628 9.2571 0.0000 16.6034 0.0000
# 2 20.8628 131.1988 16.6306 0.0000 8.6403 0.0000
# 3 9.2571 16.6306 72.5763 0.0000 23.5274 0.0000
# 4 0.0000 0.0000 0.0000 -17.5916 0.0000 -42.8834
# 5 16.6034 8.6403 23.5274 0.0000 30.8144 0.0000
# 6 0.0000 0.0000 0.0000 -42.8834 0.0000 -73.8292
#
#
#
# Elastic Compliance Matrix: (Units=1/GPa)
#
#
# Indices 1 2 3 4 5 6 
#
# 1 0.017816 -0.002363 0.001550 0.000000 -0.010120 0.000000
# 2 -0.002363 0.008192 -0.001653 0.000000 0.000238 0.000000
# 3 0.001550 -0.001653 0.018712 0.000000 -0.014658 0.000000
# 4 0.000000 0.000000 0.000000 0.136668 0.000000 -0.079383
# 5 -0.010120 0.000238 -0.014658 0.000000 0.049030 0.000000
# 6 0.000000 0.000000 0.000000 -0.079383 0.000000 0.032564
#
#
# Mechanical properties :
#
#
# Convention : Reuss Voigt Hill
#
# Bulk Modulus (GPa) = 25.13404 40.53326 32.83365
# Shear Modulus (GPa) = 17.78243 2.84855 10.31549
#
# Velocity S-wave (km/s) = 3.05460 1.22256 2.32650
# Velocity P-wave (km/s) = 5.06249 4.82296 4.94418
#
# Compressibility (1/GPa) = 0.03978668
#
# Stress axis : x y z
#
# Youngs Moduli (GPa) = 56.12976 122.07621 53.44295
#
# Poissons Ratio (x) = 0.28846 -0.08283
# Poissons Ratio (y) = 0.13263 0.08834
# Poissons Ratio (z) = -0.08699 0.20179
#
# Static dielectric constant tensor:
#      x y z
#    x 1.637320 0.000000 0.031230 
#    y 0.000000 1.657980 0.000000 
#    z 0.031230 0.000000 1.674890 
# 
# From -- ./inp_files/44964.got.cif
#   From: 2010.05.17/outbox.cif.g08.bks.cpg/sg10_23_cif.got.tgz:44964.got - 2010.06.03 11:33:40.
