data_PCOD9150404
_publ_section_title
;
Structure prediction by ZEFSAII (Michael W. Deem and Ramdas Pophale) SiO2 
 PCOD9150404
Probable space group: P 2/M
;
_chemical_formula_sum "Si O2"
_cell_formula_units_Z 28
_cell_length_a 23.293011
_cell_length_b 14.429080
_cell_length_c 10.281950
_cell_angle_alpha 90.000000
_cell_angle_beta 153.503379
_cell_angle_gamma 90.000000
_cell_volume 1541.756627
_symmetry_space_group_name_H-M "P 2/M"
_symmetry_group_IT_number 10
_symmetry_cell_setting 'monoclinic'
loop_
_space_group_symop_operation_xyz
x,y,z
-x,y,-z
-x,-y,-z
x,-y,z
loop_
_atom_site_type_symbol
_atom_site_label
_atom_site_fract_x
_atom_site_fract_y
_atom_site_fract_z
Si Si1 0.591724 0.223688 0.809400
Si Si2 0.426864 0.276524 0.720289
Si Si3 0.802791 0.393518 0.845153
Si Si4 0.976300 0.233522 0.104750
Si Si5 0.341915 0.400224 0.170968
Si Si6 0.788458 0.894385 0.356505
Si Si7 0.262051 0.894967 0.438603
O O1 0.500000 0.200226 0.500000
O O2 0.511447 0.272666 0.762210
O O3 0.688620 0.304938 0.961703
O O4 0.672021 0.138855 0.029628
O O5 0.307660 0.346418 0.466774
O O6 0.375890 0.171745 0.627970
O O7 0.500000 0.299735 0.000000
O O8 0.833274 0.500000 0.872450
O O9 0.733479 0.395894 0.845583
O O10 0.921948 0.322796 0.070888
O O11 0.098817 0.182383 0.415170
O O12 0.866221 0.154413 0.874013
O O13 0.000000 0.258695 0.000000
O O14 0.500000 0.399538 0.500000
O O15 0.309319 0.500000 0.043323
O O16 0.744030 0.894727 0.417154
O O17 0.830331 0.000000 0.411069
O O18 0.273801 0.000000 0.417025
#
# Coordination Sequence:
#
# PCOD9150404 Si02
#       7
#     4   4   4   4   4   4   4
#     4  11  21  36  58  84 119 156 185 238 291 341
#     4  11  20  33  55  88 120 148 189 239 290 344
#     4  10  20  36  60  86 115 152 190 235 290 345
#     4   9  19  36  59  84 115 152 192 242 287 337
#     4   9  17  34  59  80 105 150 195 226 275 349
#     4  10  20  36  58  84 115 151 194 239 284 339
#     4   9  18  33  57  84 111 150 195 237 284 343
#
# _framework density 18.161102
#
# number of rings (size 3 to 8) (size 9 to 14) (size 15 to 20)
#    0.000    2.143    4.286    0.429    0.000    3.429 
#    0.000    1.429    0.000    2.571    0.000    0.000 
#    0.000    0.000    0.000    0.000    0.000    0.000 
#
# Total GULP energy -155902.203965 kJ/mol
# GULP energy per Si atom -5567.935856 kJ/mol
# Density = 1.811977 g / cm^3
# Si number density = 18.161102 Si / 1000 Ang^3
#
#
#
# Elastic Constant Matrix: (Units=GPa)
#
#
# Indices 1 2 3 4 5 6 
#
# 1 51.2267 37.0025 24.1068 0.0000 1.5376 0.0000
# 2 37.0025 147.7959 30.8042 0.0000 2.8457 0.0000
# 3 24.1068 30.8042 68.9535 0.0000 -10.1875 0.0000
# 4 0.0000 0.0000 0.0000 16.7891 0.0000 6.0824
# 5 1.5376 2.8457 -10.1875 0.0000 15.2113 0.0000
# 6 0.0000 0.0000 0.0000 6.0824 0.0000 35.9853
#
#
#
# Elastic Compliance Matrix: (Units=1/GPa)
#
#
# Indices 1 2 3 4 5 6 
#
# 1 0.027276 -0.004925 -0.008442 0.000000 -0.007490 0.000000
# 2 -0.004925 0.008579 -0.002524 0.000000 -0.002798 0.000000
# 3 -0.008442 -0.002524 0.020840 0.000000 0.015282 0.000000
# 4 0.000000 0.000000 0.000000 0.063448 0.000000 -0.010724
# 5 -0.007490 -0.002798 0.015282 0.000000 0.077256 0.000000
# 6 0.000000 0.000000 0.000000 -0.010724 0.000000 0.029602
#
#
# Mechanical properties :
#
#
# Convention : Reuss Voigt Hill
#
# Bulk Modulus (GPa) = 40.14164 50.20034 45.17099
# Shear Modulus (GPa) = 18.72042 25.33465 22.02753
#
# Velocity S-wave (km/s) = 3.21409 3.73902 3.48644
# Velocity P-wave (km/s) = 5.99374 6.80750 6.41354
#
# Compressibility (1/GPa) = 0.02491179
#
# Stress axis : x y z
#
# Youngs Moduli (GPa) = 36.66169 116.56232 47.98558
#
# Poissons Ratio (x) = 0.57409 0.40512
# Poissons Ratio (y) = 0.18056 0.12112
# Poissons Ratio (z) = 0.30951 0.29421
#
# Static dielectric constant tensor:
#      x y z
#    x 1.706230 0.000000 -0.065830 
#    y 0.000000 1.636120 0.000000 
#    z -0.065830 0.000000 1.705870 
# 
# From -- ./inp_files/29605.got.cif
#   From: 2010.05.17/outbox.cif.g08.bks.cpg/sg10_15_cif.got.tgz:29605.got - 2010.06.03 11:33:40.
