data_PCOD9150142
_publ_section_title
;
Structure prediction by ZEFSAII (Michael W. Deem and Ramdas Pophale) SiO2 
 PCOD9150142
Probable space group: P 2/M
;
_chemical_formula_sum "Si O2"
_cell_formula_units_Z 28
_cell_length_a 12.677808
_cell_length_b 16.055200
_cell_length_c 9.505345
_cell_angle_alpha 90.000000
_cell_angle_beta 129.012671
_cell_angle_gamma 90.000000
_cell_volume 1503.323949
_symmetry_space_group_name_H-M "P 2/M"
_symmetry_group_IT_number 10
_symmetry_cell_setting 'monoclinic'
loop_
_space_group_symop_operation_xyz
x,y,z
-x,y,-z
-x,-y,-z
x,-y,z
loop_
_atom_site_type_symbol
_atom_site_label
_atom_site_fract_x
_atom_site_fract_y
_atom_site_fract_z
Si Si1 0.908040 0.500000 0.056785
Si Si2 0.720701 0.740622 0.411650
Si Si3 0.878245 0.097496 0.002001
Si Si4 0.415276 0.314418 0.176865
Si Si5 0.181471 0.774814 0.804862
Si Si6 0.970504 0.632290 0.629160
Si Si7 0.347664 0.183337 0.356026
Si Si8 0.409424 0.500000 0.278069
O O1 0.955300 0.577900 0.191283
O O2 0.755997 0.500000 0.866865
O O3 0.000000 0.500000 0.000000
O O4 0.562625 0.719347 0.257832
O O5 0.775988 0.788173 0.320792
O O6 0.812410 0.657058 0.509817
O O7 0.721858 0.793145 0.555677
O O8 0.742705 0.118010 0.801956
O O9 0.898581 0.000000 0.044885
O O10 0.853265 0.147417 0.125535
O O11 0.000000 0.127287 0.000000
O O12 0.367304 0.268397 0.280869
O O13 0.435511 0.412537 0.220468
O O14 0.301383 0.283125 0.971959
O O15 0.046838 0.719963 0.694400
O O16 0.000000 0.595151 0.500000
O O17 0.500000 0.150896 0.500000
O O18 0.500000 0.500000 0.500000
#
# Coordination Sequence:
#
# PCOD9150142 Si02
#       8
#     2   4   4   4   4   4   4   2
#     4  12  27  37  57  86 116 156 206 253 294 349
#     4  10  20  35  61  86 111 153 201 240 294 344
#     4  10  21  37  60  88 119 151 188 235 295 357
#     4  10  21  37  59  81 119 155 200 247 294 348
#     4  10  20  39  60  84 114 154 196 241 291 358
#     4  10  22  39  58  80 117 155 194 245 299 353
#     4   9  19  36  59  83 113 153 192 243 288 352
#     4  12  24  39  56  85 125 155 205 256 300 343
#
# _framework density 18.625394
#
# number of rings (size 3 to 8) (size 9 to 14) (size 15 to 20)
#    0.000    1.857    1.429    2.786    4.000    0.857 
#    0.000    2.857    0.000   16.714    0.000    0.000 
#    0.000    0.000    0.000    0.000    0.000    0.000 
#
# Total GULP energy -155998.168763 kJ/mol
# GULP energy per Si atom -5571.363170 kJ/mol
# Density = 1.858300 g / cm^3
# Si number density = 18.625394 Si / 1000 Ang^3
#
#
#
# Elastic Constant Matrix: (Units=GPa)
#
#
# Indices 1 2 3 4 5 6 
#
# 1 103.3800 32.8365 47.3920 0.0000 -20.1645 0.0000
# 2 32.8365 59.2173 23.3883 0.0000 -11.8792 0.0000
# 3 47.3920 23.3883 103.2677 0.0000 -5.2424 0.0000
# 4 0.0000 0.0000 0.0000 13.2794 0.0000 3.8888
# 5 -20.1645 -11.8792 -5.2424 0.0000 40.6110 0.0000
# 6 0.0000 0.0000 0.0000 3.8888 0.0000 12.7476
#
#
#
# Elastic Compliance Matrix: (Units=1/GPa)
#
#
# Indices 1 2 3 4 5 6 
#
# 1 0.014730 -0.005016 -0.005362 0.000000 0.005154 0.000000
# 2 -0.005016 0.021283 -0.002344 0.000000 0.003432 0.000000
# 3 -0.005362 -0.002344 0.012588 0.000000 -0.001723 0.000000
# 4 0.000000 0.000000 0.000000 0.082692 0.000000 -0.025226
# 5 0.005154 0.003432 -0.001723 0.000000 0.027965 0.000000
# 6 0.000000 0.000000 0.000000 -0.025226 0.000000 0.086141
#
#
# Mechanical properties :
#
#
# Convention : Reuss Voigt Hill
#
# Bulk Modulus (GPa) = 43.18531 52.56650 47.87591
# Shear Modulus (GPa) = 17.94941 24.14417 21.04679
#
# Velocity S-wave (km/s) = 3.10773 3.60433 3.36520
# Velocity P-wave (km/s) = 6.00948 6.75321 6.39217
#
# Compressibility (1/GPa) = 0.02315602
#
# Stress axis : x y z
#
# Youngs Moduli (GPa) = 67.88972 46.98665 79.44217
#
# Poissons Ratio (x) = 0.23568 0.42598
# Poissons Ratio (y) = 0.34053 0.18621
# Poissons Ratio (z) = 0.36403 0.11013
#
# Static dielectric constant tensor:
#      x y z
#    x 1.627470 0.000000 -0.070140 
#    y 0.000000 1.697050 0.000000 
#    z -0.070140 0.000000 1.394340 
# 
# From -- ./inp_files/25456.got.cif
#   From: 2010.05.17/outbox.cif.g08.bks.cpg/sg10_13_cif.got.tgz:25456.got - 2010.06.03 11:33:40.
