data_PCOD9150740
_publ_section_title
;
Structure prediction by ZEFSAII (Michael W. Deem and Ramdas Pophale) SiO2 
 PCOD9150740
Probable space group: P 2/M
;
_chemical_formula_sum "Si O2"
_cell_formula_units_Z 18
_cell_length_a 8.085116
_cell_length_b 21.710746
_cell_length_c 9.388556
_cell_angle_alpha 90.000000
_cell_angle_beta 32.833720
_cell_angle_gamma 90.000000
_cell_volume 893.555572
_symmetry_space_group_name_H-M "P 2/M"
_symmetry_group_IT_number 10
_symmetry_cell_setting 'monoclinic'
loop_
_space_group_symop_operation_xyz
x,y,z
-x,y,-z
-x,-y,-z
x,-y,z
loop_
_atom_site_type_symbol
_atom_site_label
_atom_site_fract_x
_atom_site_fract_y
_atom_site_fract_z
Si Si1 0.789249 0.867045 0.397815
Si Si2 0.411998 0.799395 0.899520
Si Si3 0.861335 0.000000 0.259391
Si Si4 0.637940 0.571696 0.746549
Si Si5 0.360625 0.676368 0.755550
O O1 0.500000 0.863727 0.500000
O O2 0.924914 0.936278 0.294270
O O3 0.064919 0.824083 0.146368
O O4 0.646210 0.845504 0.650627
O O5 0.500000 0.792583 0.000000
O O6 0.428008 0.734979 0.805891
O O7 0.500000 0.000000 0.500000
O O8 0.000000 0.000000 0.000000
O O9 0.564564 0.500000 0.769619
O O10 0.508188 0.616582 0.721236
O O11 0.000000 0.577693 0.500000
O O12 0.500000 0.588014 0.000000
O O13 0.500000 0.687575 0.500000
O O14 0.000000 0.668202 0.000000
#
# Coordination Sequence:
#
# PCOD9150740 Si02
#       5
#     4   4   2   4   4
#     4  11  22  41  65  90 119 157 205 250 298 362
#     4  12  25  41  60  88 125 162 200 250 310 362
#     4  10  20  36  63  92 117 154 199 248 301 360
#     4  10  22  42  66  92 126 165 200 242 302 364
#     4  12  25  40  63  92 122 160 207 255 299 351
#
# _framework density 20.144242999999999
#
# number of rings (size 3 to 8) (size 9 to 14) (size 15 to 20)
#    0.000    0.889    0.000    9.333    0.000    2.667 
#    0.000    3.333    0.000    0.000    0.000    0.000 
#    0.000    0.000    0.000    0.000    0.000    0.000 
#
# Total GULP energy -100721.808471 kJ/mol
# GULP energy per Si atom -5595.656026 kJ/mol
# Density = 2.009839 g / cm^3
# Si number density = 20.144243 Si / 1000 Ang^3
#
#
#
# Elastic Constant Matrix: (Units=GPa)
#
#
# Indices 1 2 3 4 5 6 
#
# 1 89.1650 68.0285 42.6604 0.0000 30.3951 0.0000
# 2 68.0285 115.5109 44.4112 0.0000 28.4102 0.0000
# 3 42.6604 44.4112 158.5228 0.0000 24.9011 0.0000
# 4 0.0000 0.0000 0.0000 12.2711 0.0000 72.0144
# 5 30.3951 28.4102 24.9011 0.0000 36.6016 0.0000
# 6 0.0000 0.0000 0.0000 72.0144 0.0000 -158.5744
#
#
#
# Elastic Compliance Matrix: (Units=1/GPa)
#
#
# Indices 1 2 3 4 5 6 
#
# 1 0.023783 -0.010832 -0.001774 0.000000 -0.010136 0.000000
# 2 -0.010832 0.016167 -0.001182 0.000000 -0.002750 0.000000
# 3 -0.001774 -0.001182 0.007548 0.000000 -0.002744 0.000000
# 4 0.000000 0.000000 0.000000 0.022234 0.000000 0.010097
# 5 -0.010136 -0.002750 -0.002744 0.000000 0.039740 0.000000
# 6 0.000000 0.000000 0.000000 0.010097 0.000000 -0.001721
#
#
# Mechanical properties :
#
#
# Convention : Reuss Voigt Hill
#
# Bulk Modulus (GPa) = 50.19442 74.82209 62.50825
# Shear Modulus (GPa) = 35.21912 -8.06709 13.57602
#
# Velocity S-wave (km/s) = 4.18586 -2.00334 2.59885
# Velocity P-wave (km/s) = 6.95223 5.64559 6.33270
#
# Compressibility (1/GPa) = 0.01992253
#
# Stress axis : x y z
#
# Youngs Moduli (GPa) = 42.04674 61.85305 132.48717
#
# Poissons Ratio (x) = 0.66998 0.23497
# Poissons Ratio (y) = 0.45544 0.15667
# Poissons Ratio (z) = 0.07457 0.07314
#
# Static dielectric constant tensor:
#      x y z
#    x 1.680520 0.000000 0.002080 
#    y 0.000000 1.743720 0.000000 
#    z 0.002080 0.000000 1.677700 
# 
# From -- ./inp_files/20042.got.cif
#   From: 2010.05.17/outbox.cif.g08.bks.cpg/sg10_11_cif.got.tgz:20042.got - 2010.06.03 11:33:40.
