data_PCOD9150594
_publ_section_title
;
Structure prediction by ZEFSAII (Michael W. Deem and Ramdas Pophale) SiO2 
 PCOD9150594
Probable space group: P 2/M
;
_chemical_formula_sum "Si O2"
_cell_formula_units_Z 30
_cell_length_a 14.831968
_cell_length_b 12.813837
_cell_length_c 9.441126
_cell_angle_alpha 90.000000
_cell_angle_beta 62.675575
_cell_angle_gamma 90.000000
_cell_volume 1594.119568
_symmetry_space_group_name_H-M "P 2/M"
_symmetry_group_IT_number 10
_symmetry_cell_setting 'monoclinic'
loop_
_space_group_symop_operation_xyz
x,y,z
-x,y,-z
-x,-y,-z
x,-y,z
loop_
_atom_site_type_symbol
_atom_site_label
_atom_site_fract_x
_atom_site_fract_y
_atom_site_fract_z
Si Si1 0.113838 0.311402 0.693035
Si Si2 0.852556 0.500000 0.536430
Si Si3 0.215174 0.376332 0.892196
Si Si4 0.114955 0.684014 0.253862
Si Si5 0.430579 0.878088 0.920509
Si Si6 0.262956 0.120777 0.544601
Si Si7 0.595517 0.756403 0.346571
Si Si8 0.233794 0.882828 0.247448
O O1 0.165289 0.406634 0.569520
O O2 0.127739 0.338739 0.847746
O O3 0.169923 0.201325 0.629270
O O4 0.998746 0.309733 0.723041
O O5 0.876825 0.591244 0.639027
O O6 0.221066 0.500000 0.887168
O O7 0.318997 0.325992 0.760259
O O8 0.188465 0.339925 0.069055
O O9 0.151095 0.792828 0.294386
O O10 0.439850 0.814018 0.770496
O O11 0.455856 0.000000 0.877175
O O12 0.500000 0.839469 0.000000
O O13 0.315839 0.873115 0.063214
O O14 0.349826 0.161528 0.587078
O O15 0.290377 0.126750 0.358201
O O16 0.238213 0.000000 0.593868
O O17 0.500000 0.710932 0.500000
O O18 0.190184 0.000000 0.274075
#
# Coordination Sequence:
#
# PCOD9150594 Si02
#       8
#     4   2   4   4   4   4   4   4
#     4  11  23  38  59  91 124 159 202 254 297 344
#     4  12  23  36  62  92 119 154 208 258 292 337
#     4  11  24  41  62  86 120 161 201 247 304 363
#     4  12  22  38  61  89 122 162 206 247 297 357
#     4  10  20  36  60  87 115 148 192 246 299 353
#     4  10  22  39  60  90 124 161 202 244 301 366
#     4  11  23  40  63  89 117 154 199 253 303 361
#     4  10  21  37  57  86 124 160 198 245 299 360
#
# _framework density 18.819165999999999
#
# number of rings (size 3 to 8) (size 9 to 14) (size 15 to 20)
#    0.000    1.200    4.000    2.800    0.000    3.467 
#    0.000    1.333    0.000    2.800    0.000    0.000 
#    0.000    0.000    0.000    0.000    0.000    0.000 
#
# Total GULP energy -167018.120961 kJ/mol
# GULP energy per Si atom -5567.270699 kJ/mol
# Density = 1.877633 g / cm^3
# Si number density = 18.819166 Si / 1000 Ang^3
#
#
#
# Elastic Constant Matrix: (Units=GPa)
#
#
# Indices 1 2 3 4 5 6 
#
# 1 41.0819 32.3781 20.4865 0.0000 9.1299 0.0000
# 2 32.3781 108.0338 26.0393 0.0000 -3.3062 0.0000
# 3 20.4865 26.0393 82.9025 0.0000 9.5596 0.0000
# 4 0.0000 0.0000 0.0000 18.9064 0.0000 13.0186
# 5 9.1299 -3.3062 9.5596 0.0000 28.4234 0.0000
# 6 0.0000 0.0000 0.0000 13.0186 0.0000 0.7517
#
#
#
# Elastic Compliance Matrix: (Units=1/GPa)
#
#
# Indices 1 2 3 4 5 6 
#
# 1 0.037518 -0.010488 -0.004626 0.000000 -0.011715 0.000000
# 2 -0.010488 0.013095 -0.002169 0.000000 0.005622 0.000000
# 3 -0.004626 -0.002169 0.014299 0.000000 -0.003576 0.000000
# 4 0.000000 0.000000 0.000000 -0.004841 0.000000 0.083844
# 5 -0.011715 0.005622 -0.003576 0.000000 0.040802 0.000000
# 6 0.000000 0.000000 0.000000 0.083844 0.000000 -0.121763
#
#
# Mechanical properties :
#
#
# Convention : Reuss Voigt Hill
#
# Bulk Modulus (GPa) = 32.95453 43.31401 38.13427
# Shear Modulus (GPa) = 210.15933 19.82391 114.99162
#
# Velocity S-wave (km/s) = 10.57901 3.24912 7.82535
# Velocity P-wave (km/s) = 12.91394 6.09439 10.09731
#
# Compressibility (1/GPa) = 0.03034484
#
# Stress axis : x y z
#
# Youngs Moduli (GPa) = 26.65401 76.36781 69.93351
#
# Poissons Ratio (x) = 0.80092 0.32353
# Poissons Ratio (y) = 0.27954 0.15172
# Poissons Ratio (z) = 0.12331 0.16568
#
# Static dielectric constant tensor:
#      x y z
#    x 1.653440 0.000000 -0.010240 
#    y 0.000000 1.621530 0.000000 
#    z -0.010240 0.000000 1.671370 
# 
# From -- ./inp_files/28563.got.cif
#   From: 2010.05.17/outbox.cif.g08.bks.cpg/sg10_15_cif.got.tgz:28563.got - 2010.06.03 11:33:40.
