data_PCOD9150430
_publ_section_title
;
Structure prediction by ZEFSAII (Michael W. Deem and Ramdas Pophale) SiO2 
 PCOD9150430
Probable space group: P 2/M
;
_chemical_formula_sum "Si O2"
_cell_formula_units_Z 32
_cell_length_a 10.805383
_cell_length_b 12.820632
_cell_length_c 20.813683
_cell_angle_alpha 90.000000
_cell_angle_beta 31.341937
_cell_angle_gamma 90.000000
_cell_volume 1499.762359
_symmetry_space_group_name_H-M "P 2/M"
_symmetry_group_IT_number 10
_symmetry_cell_setting 'monoclinic'
loop_
_space_group_symop_operation_xyz
x,y,z
-x,y,-z
-x,-y,-z
x,-y,z
loop_
_atom_site_type_symbol
_atom_site_label
_atom_site_fract_x
_atom_site_fract_y
_atom_site_fract_z
Si Si1 0.979854 0.823483 0.438915
Si Si2 0.460770 0.117095 0.693879
Si Si3 0.802688 0.380843 0.275748
Si Si4 0.752203 0.313016 0.149106
Si Si5 0.707975 0.658409 0.863879
Si Si6 0.731295 0.386318 0.704151
Si Si7 0.294033 0.160694 0.637088
Si Si8 0.796258 0.114577 0.789870
O O1 0.088148 0.706958 0.393310
O O2 0.134093 0.878074 0.316074
O O3 0.000000 0.872017 0.500000
O O4 0.696899 0.832312 0.556109
O O5 0.348290 0.195656 0.794940
O O6 0.284842 0.113230 0.711707
O O7 0.506881 0.000000 0.696602
O O8 0.722745 0.500000 0.322352
O O9 0.798298 0.359868 0.200450
O O10 0.663744 0.284320 0.369147
O O11 0.056651 0.364521 0.198628
O O12 0.530961 0.367020 0.210049
O O13 0.000000 0.316679 0.000000
O O14 0.720640 0.614559 0.786432
O O15 0.658346 0.781800 0.871803
O O16 0.500000 0.616860 0.000000
O O17 0.815492 0.500000 0.645464
O O18 0.500000 0.120081 0.500000
O O19 0.048537 0.133727 0.712184
O O20 0.698513 0.000000 0.847763
#
# Coordination Sequence:
#
# PCOD9150430 Si02
#       8
#     4   4   4   4   4   4   4   4
#     4  11  22  40  58  89 123 155 203 246 297 365
#     4  11  23  40  64  90 122 162 200 248 309 364
#     4  10  22  39  61  87 116 156 199 244 296 348
#     4  11  24  43  63  91 123 156 209 258 296 361
#     4  10  22  40  60  88 122 156 202 248 293 358
#     4  11  24  42  64  91 125 163 201 250 311 361
#     4  10  20  36  58  88 121 149 194 243 291 357
#     4  10  21  36  59  88 119 156 198 246 299 353
#
# _framework density 21.336714000000001
#
# number of rings (size 3 to 8) (size 9 to 14) (size 15 to 20)
#    0.000    1.500    2.500    2.250    0.000    5.500 
#    0.000    0.625    0.000    4.500    0.000    0.000 
#    0.000    0.000    0.000    0.000    0.000    0.000 
#
# Total GULP energy -178449.579012 kJ/mol
# GULP energy per Si atom -5576.549344 kJ/mol
# Density = 2.128815 g / cm^3
# Si number density = 21.336714 Si / 1000 Ang^3
#
#
#
# Elastic Constant Matrix: (Units=GPa)
#
#
# Indices 1 2 3 4 5 6 
#
# 1 123.7286 18.7793 19.2259 0.0000 11.5095 0.0000
# 2 18.7793 183.3879 18.7719 0.0000 -2.6092 0.0000
# 3 19.2259 18.7719 49.2903 0.0000 18.1578 0.0000
# 4 0.0000 0.0000 0.0000 -10.9158 0.0000 7.6842
# 5 11.5095 -2.6092 18.1578 0.0000 22.1631 0.0000
# 6 0.0000 0.0000 0.0000 7.6842 0.0000 -2.6718
#
#
#
# Elastic Compliance Matrix: (Units=1/GPa)
#
#
# Indices 1 2 3 4 5 6 
#
# 1 0.008789 -0.000732 -0.002057 0.000000 -0.002965 0.000000
# 2 -0.000732 0.005930 -0.003395 0.000000 0.003859 0.000000
# 3 -0.002057 -0.003395 0.031706 0.000000 -0.025308 0.000000
# 4 0.000000 0.000000 0.000000 0.089413 0.000000 0.257154
# 5 -0.002965 0.003859 -0.025308 0.000000 0.067848 0.000000
# 6 0.000000 0.000000 0.000000 0.257154 0.000000 0.365302
#
#
# Mechanical properties :
#
#
# Convention : Reuss Voigt Hill
#
# Bulk Modulus (GPa) = 29.36193 52.21789 40.78991
# Shear Modulus (GPa) = 8.43584 21.69042 15.06313
#
# Velocity S-wave (km/s) = 1.99054 3.19184 2.65990
# Velocity P-wave (km/s) = 4.36739 6.17334 5.34716
#
# Compressibility (1/GPa) = 0.03405771
#
# Stress axis : x y z
#
# Youngs Moduli (GPa) = 113.78241 168.62675 31.53941
#
# Poissons Ratio (x) = 0.12336 0.06489
# Poissons Ratio (y) = 0.08324 0.10707
# Poissons Ratio (z) = 0.23409 0.57247
#
# Static dielectric constant tensor:
#      x y z
#    x 1.844370 0.000000 -0.086790 
#    y 0.000000 1.872180 0.000000 
#    z -0.086790 0.000000 1.682180 
# 
# From -- ./inp_files/88909.got.cif
#   From: 2010.05.17/outbox.cif.g08.bks.cpg/sg10_45_cif.got.tgz:88909.got - 2010.06.03 11:33:40.
