data_PCOD9150283
_publ_section_title
;
Structure prediction by ZEFSAII (Michael W. Deem and Ramdas Pophale) SiO2 
 PCOD9150283
Probable space group: P 2/M
;
_chemical_formula_sum "Si O2"
_cell_formula_units_Z 32
_cell_length_a 9.748899
_cell_length_b 14.088614
_cell_length_c 24.686698
_cell_angle_alpha 90.000000
_cell_angle_beta 30.381734
_cell_angle_gamma 90.000000
_cell_volume 1714.866300
_symmetry_space_group_name_H-M "P 2/M"
_symmetry_group_IT_number 10
_symmetry_cell_setting 'monoclinic'
loop_
_space_group_symop_operation_xyz
x,y,z
-x,y,-z
-x,-y,-z
x,-y,z
loop_
_atom_site_type_symbol
_atom_site_label
_atom_site_fract_x
_atom_site_fract_y
_atom_site_fract_z
Si Si1 0.954876 0.108033 0.268513
Si Si2 0.750243 0.609809 0.240070
Si Si3 0.067371 0.749194 0.916903
Si Si4 0.453494 0.110114 0.269997
Si Si5 0.855030 0.109109 0.426602
Si Si6 0.501109 0.788599 0.633307
Si Si7 0.499540 0.799577 0.065569
Si Si8 0.299650 0.601687 0.120088
O O1 0.803300 0.177434 0.278776
O O2 0.834648 0.123190 0.369343
O O3 0.276044 0.126117 0.161040
O O4 0.902210 0.000000 0.269971
O O5 0.675717 0.500000 0.255628
O O6 0.857695 0.664171 0.149814
O O7 0.519428 0.678703 0.343073
O O8 0.999829 0.609305 0.197551
O O9 0.316724 0.822566 0.833247
O O10 0.000000 0.714847 0.000000
O O11 0.803606 0.803715 0.983448
O O12 0.170542 0.116477 0.334895
O O13 0.408807 0.149731 0.345843
O O14 0.537208 0.000000 0.242864
O O15 0.687777 0.182548 0.519566
O O16 0.767585 0.000000 0.468687
O O17 0.383992 0.696036 0.122362
O O18 0.500000 0.803936 0.000000
O O19 0.328564 0.500000 0.138979
O O20 0.500000 0.599097 0.000000
#
# Coordination Sequence:
#
# PCOD9150283 Si02
#       8
#     4   4   4   4   4   4   4   4
#     4  11  22  34  51  82 118 144 173 221 276 323
#     4  10  20  36  57  81 108 139 180 226 273 326
#     4  11  22  34  53  81 115 147 180 222 268 319
#     4  10  21  37  55  79 108 147 193 224 254 315
#     4  10  21  37  57  79 108 146 183 222 273 321
#     4  11  20  35  59  83 102 135 185 237 272 314
#     4  11  19  34  52  79 110 147 186 213 265 320
#     4   9  15  29  54  76  97 132 179 221 255 309
#
# _framework density 18.660347000000002
#
# number of rings (size 3 to 8) (size 9 to 14) (size 15 to 20)
#    0.000    1.625    3.750    3.375    0.000    3.250 
#    0.000    0.000    0.000    8.250    0.000    0.000 
#    0.000    0.000    0.000    0.000    0.000    0.000 
#
# Total GULP energy -178597.760544 kJ/mol
# GULP energy per Si atom -5581.180017 kJ/mol
# Density = 1.861788 g / cm^3
# Si number density = 18.660347 Si / 1000 Ang^3
#
#
#
# Elastic Constant Matrix: (Units=GPa)
#
#
# Indices 1 2 3 4 5 6 
#
# 1 44.0285 7.2038 7.6101 0.0000 -6.1927 0.0000
# 2 7.2038 97.7023 31.6131 0.0000 -2.1937 0.0000
# 3 7.6101 31.6131 60.5437 0.0000 1.8281 0.0000
# 4 0.0000 0.0000 0.0000 24.1843 0.0000 -3.7639
# 5 -6.1927 -2.1937 1.8281 0.0000 23.4668 0.0000
# 6 0.0000 0.0000 0.0000 -3.7639 0.0000 14.1386
#
#
#
# Elastic Compliance Matrix: (Units=1/GPa)
#
#
# Indices 1 2 3 4 5 6 
#
# 1 0.024248 -0.000710 -0.002875 0.000000 0.006556 0.000000
# 2 -0.000710 0.012401 -0.006431 0.000000 0.001473 0.000000
# 3 -0.002875 -0.006431 0.020325 0.000000 -0.002943 0.000000
# 4 0.000000 0.000000 0.000000 0.043136 0.000000 0.011484
# 5 0.006556 0.001473 -0.002943 0.000000 0.044711 0.000000
# 6 0.000000 0.000000 0.000000 0.011484 0.000000 0.073786
#
#
# Mechanical properties :
#
#
# Convention : Reuss Voigt Hill
#
# Bulk Modulus (GPa) = 27.06913 32.79205 29.93059
# Shear Modulus (GPa) = 19.92408 22.74777 21.33592
#
# Velocity S-wave (km/s) = 3.27115 3.49527 3.38506
# Velocity P-wave (km/s) = 5.36702 5.82241 5.59935
#
# Compressibility (1/GPa) = 0.03694245
#
# Stress axis : x y z
#
# Youngs Moduli (GPa) = 41.24070 80.63647 49.20057
#
# Poissons Ratio (x) = 0.05729 0.14145
# Poissons Ratio (y) = 0.02930 0.31639
# Poissons Ratio (z) = 0.11856 0.51854
#
# Static dielectric constant tensor:
#      x y z
#    x 1.642420 0.000000 -0.009640 
#    y 0.000000 1.652830 0.000000 
#    z -0.009640 0.000000 1.665080 
# 
# From -- ./inp_files/82842.got.cif
#   From: 2010.05.17/outbox.cif.g08.bks.cpg/sg10_42_cif.got.tgz:82842.got - 2010.06.03 11:33:40.
