data_PCOD9150792
_publ_section_title
;
Structure prediction by ZEFSAII (Michael W. Deem and Ramdas Pophale) SiO2 
 PCOD9150792
Probable space group: P 2/M
;
_chemical_formula_sum "Si O2"
_cell_formula_units_Z 20
_cell_length_a 14.283756
_cell_length_b 13.262841
_cell_length_c 10.510827
_cell_angle_alpha 90.000000
_cell_angle_beta 27.643224
_cell_angle_gamma 90.000000
_cell_volume 923.848132
_symmetry_space_group_name_H-M "P 2/M"
_symmetry_group_IT_number 10
_symmetry_cell_setting 'monoclinic'
loop_
_space_group_symop_operation_xyz
x,y,z
-x,y,-z
-x,-y,-z
x,-y,z
loop_
_atom_site_type_symbol
_atom_site_label
_atom_site_fract_x
_atom_site_fract_y
_atom_site_fract_z
Si Si1 0.703441 0.332971 0.339035
Si Si2 0.950787 0.820754 0.750446
Si Si3 0.731926 0.109491 0.265707
Si Si4 0.690548 0.884800 0.848051
Si Si5 0.933656 0.610168 0.287643
O O1 0.500000 0.340376 0.500000
O O2 0.745992 0.215081 0.321669
O O3 0.735691 0.385270 0.435604
O O4 0.876712 0.375459 0.037351
O O5 0.757964 0.821430 0.888861
O O6 0.040970 0.709006 0.657539
O O7 0.121568 0.884454 0.474576
O O8 0.875125 0.870507 0.971848
O O9 0.500000 0.105910 0.500000
O O10 0.774190 0.000000 0.274388
O O11 0.648118 0.000000 0.940946
O O12 0.500000 0.845869 0.000000
O O13 0.945639 0.500000 0.334341
#
# Coordination Sequence:
#
# PCOD9150792 Si02
#       5
#     4   4   4   4   4
#     4   9  18  33  52  76 109 147 184 219 259 319
#     4  10  20  37  57  79 111 145 183 228 269 320
#     4   9  17  30  51  81 116 147 172 208 265 328
#     4  10  21  38  61  84 107 141 182 223 269 324
#     4  10  21  35  52  76 105 142 185 227 271 314
#
# _framework density 21.648579000000002
#
# number of rings (size 3 to 8) (size 9 to 14) (size 15 to 20)
#    0.000    2.400    0.000    3.600    0.000    6.400 
#    0.000   14.000    0.000    1.200    0.000    0.000 
#    0.000    0.000    0.000    0.000    0.000    0.000 
#
# Total GULP energy -111549.459112 kJ/mol
# GULP energy per Si atom -5577.472956 kJ/mol
# Density = 2.159931 g / cm^3
# Si number density = 21.648579 Si / 1000 Ang^3
#
#
#
# Elastic Constant Matrix: (Units=GPa)
#
#
# Indices 1 2 3 4 5 6 
#
# 1 91.5724 33.6721 13.6647 0.0000 -42.3202 0.0000
# 2 33.6721 154.6694 -6.3332 0.0000 -6.3464 0.0000
# 3 13.6647 -6.3332 41.3526 0.0000 -20.8949 0.0000
# 4 0.0000 0.0000 0.0000 8.7824 0.0000 -8.7627
# 5 -42.3202 -6.3464 -20.8949 0.0000 36.0609 0.0000
# 6 0.0000 0.0000 0.0000 -8.7627 0.0000 19.0443
#
#
#
# Elastic Compliance Matrix: (Units=1/GPa)
#
#
# Indices 1 2 3 4 5 6 
#
# 1 0.028984 -0.004346 0.009273 0.000000 0.038623 0.000000
# 2 -0.004346 0.007313 0.000890 0.000000 -0.003297 0.000000
# 3 0.009273 0.000890 0.037940 0.000000 0.033023 0.000000
# 4 0.000000 0.000000 0.000000 0.210505 0.000000 0.096858
# 5 0.038623 -0.003297 0.033023 0.000000 0.091612 0.000000
# 6 0.000000 0.000000 0.000000 0.096858 0.000000 0.097076
#
#
# Mechanical properties :
#
#
# Convention : Reuss Voigt Hill
#
# Bulk Modulus (GPa) = 11.64537 41.06684 26.35610
# Shear Modulus (GPa) = 10.19533 29.21691 19.70612
#
# Velocity S-wave (km/s) = 2.17249 3.67767 3.02035
# Velocity P-wave (km/s) = 3.41817 6.08643 4.93602
#
# Compressibility (1/GPa) = 0.08587106
#
# Stress axis : x y z
#
# Youngs Moduli (GPa) = 34.50143 136.75065 26.35718
#
# Poissons Ratio (x) = 0.59425 -0.24440
# Poissons Ratio (y) = 0.14993 -0.02345
# Poissons Ratio (z) = -0.31992 -0.12168
#
# Static dielectric constant tensor:
#      x y z
#    x 1.819330 0.000000 -0.035200 
#    y 0.000000 1.812650 0.000000 
#    z -0.035200 0.000000 1.790230 
# 
# From -- ./inp_files/50946.got.cif
#   From: 2010.05.17/outbox.cif.g08.bks.cpg/sg10_26_cif.got.tgz:50946.got - 2010.06.03 11:33:40.
