data_PCOD9150585
_publ_section_title
;
Structure prediction by ZEFSAII (Michael W. Deem and Ramdas Pophale) SiO2 
 PCOD9150585
Probable space group: P 2/M
;
_chemical_formula_sum "Si O2"
_cell_formula_units_Z 26
_cell_length_a 8.656578
_cell_length_b 8.934133
_cell_length_c 20.776755
_cell_angle_alpha 90.000000
_cell_angle_beta 45.899566
_cell_angle_gamma 90.000000
_cell_volume 1153.915538
_symmetry_space_group_name_H-M "P 2/M"
_symmetry_group_IT_number 10
_symmetry_cell_setting 'monoclinic'
loop_
_space_group_symop_operation_xyz
x,y,z
-x,y,-z
-x,-y,-z
x,-y,z
loop_
_atom_site_type_symbol
_atom_site_label
_atom_site_fract_x
_atom_site_fract_y
_atom_site_fract_z
Si Si1 0.057228 0.673913 0.057969
Si Si2 0.068926 0.330843 0.547093
Si Si3 0.413642 0.665730 0.263439
Si Si4 0.169196 0.680696 0.651659
Si Si5 0.500000 0.752828 0.000000
Si Si6 0.272262 0.173613 0.745381
Si Si7 0.284493 0.832931 0.188103
O O1 0.995438 0.500000 0.076942
O O2 0.910576 0.760448 0.153356
O O3 0.303242 0.679773 0.014849
O O4 0.000000 0.725796 0.000000
O O5 0.150241 0.500000 0.507350
O O6 0.838362 0.344188 0.648829
O O7 0.211542 0.271654 0.565208
O O8 0.000000 0.255227 0.500000
O O9 0.505087 0.500000 0.248172
O O10 0.513427 0.794706 0.276949
O O11 0.435214 0.721137 0.184575
O O12 0.154509 0.500000 0.656090
O O13 0.948905 0.758491 0.740016
O O14 0.317159 0.736719 0.666255
O O15 0.631283 0.839582 0.908022
O O16 0.229456 0.000000 0.744884
O O17 0.279574 0.000000 0.217504
#
# Coordination Sequence:
#
# PCOD9150585 Si02
#       7
#     4   4   4   4   2   4   4
#     4  11  25  42  61  87 121 160 211 269 321 372
#     4   8  16  34  62  94 120 146 190 246 298 357
#     4  10  21  38  62  88 118 156 199 246 302 365
#     4  10  20  36  60  86 116 155 198 243 296 358
#     4  12  24  36  62  88 122 164 210 258 316 374
#     4  12  24  39  59  83 118 161 203 250 306 364
#     4  11  22  37  57  84 118 155 201 248 300 362
#
# _framework density 22.531977999999999
#
# number of rings (size 3 to 8) (size 9 to 14) (size 15 to 20)
#    0.000    1.538    1.538    5.077    0.000    4.000 
#    0.000    0.769    0.000   21.231    0.000    0.000 
#    0.000    0.000    0.000    0.000    0.000    0.000 
#
# Total GULP energy -144741.939130 kJ/mol
# GULP energy per Si atom -5566.997659 kJ/mol
# Density = 2.248069 g / cm^3
# Si number density = 22.531978 Si / 1000 Ang^3
#
#
#
# Elastic Constant Matrix: (Units=GPa)
#
#
# Indices 1 2 3 4 5 6 
#
# 1 87.8305 -0.0781 18.4395 0.0000 30.9860 0.0000
# 2 -0.0781 82.3452 19.0373 0.0000 13.6572 0.0000
# 3 18.4395 19.0373 59.9831 0.0000 40.3489 0.0000
# 4 0.0000 0.0000 0.0000 28.5745 0.0000 3.4062
# 5 30.9860 13.6572 40.3489 0.0000 50.4482 0.0000
# 6 0.0000 0.0000 0.0000 3.4062 0.0000 14.2850
#
#
#
# Elastic Compliance Matrix: (Units=1/GPa)
#
#
# Indices 1 2 3 4 5 6 
#
# 1 0.014976 0.001298 0.003048 0.000000 -0.011988 0.000000
# 2 0.001298 0.013223 -0.003575 0.000000 -0.001518 0.000000
# 3 0.003048 -0.003575 0.037830 0.000000 -0.031161 0.000000
# 4 0.000000 0.000000 0.000000 0.036020 0.000000 -0.008589
# 5 -0.011988 -0.001518 -0.031161 0.000000 0.052519 0.000000
# 6 0.000000 0.000000 0.000000 -0.008589 0.000000 0.072052
#
#
# Mechanical properties :
#
#
# Convention : Reuss Voigt Hill
#
# Bulk Modulus (GPa) = 14.79915 33.88400 24.34158
# Shear Modulus (GPa) = 20.19367 31.51221 25.85294
#
# Velocity S-wave (km/s) = 2.99695 3.74378 3.39099
# Velocity P-wave (km/s) = 4.30789 5.81022 5.11452
#
# Compressibility (1/GPa) = 0.06757143
#
# Stress axis : x y z
#
# Youngs Moduli (GPa) = 66.77376 75.62346 26.43388
#
# Poissons Ratio (x) = -0.09814 -0.08057
# Poissons Ratio (y) = -0.08665 0.09450
# Poissons Ratio (z) = -0.20353 0.27034
#
# Static dielectric constant tensor:
#      x y z
#    x 1.959410 0.000000 0.018470 
#    y 0.000000 1.780060 0.000000 
#    z 0.018470 0.000000 1.848310 
# 
# From -- ./inp_files/82168.got.cif
#   From: 2010.05.17/outbox.cif.g08.bks.cpg/sg10_42_cif.got.tgz:82168.got - 2010.06.03 11:33:40.
