data_PCOD9150480
_publ_section_title
;
Structure prediction by ZEFSAII (Michael W. Deem and Ramdas Pophale) SiO2 
 PCOD9150480
Probable space group: P 2/M
;
_chemical_formula_sum "Si O2"
_cell_formula_units_Z 22
_cell_length_a 8.088313
_cell_length_b 27.866872
_cell_length_c 9.679684
_cell_angle_alpha 90.000000
_cell_angle_beta 31.798197
_cell_angle_gamma 90.000000
_cell_volume 1149.633722
_symmetry_space_group_name_H-M "P 2/M"
_symmetry_group_IT_number 10
_symmetry_cell_setting 'monoclinic'
loop_
_space_group_symop_operation_xyz
x,y,z
-x,y,-z
-x,-y,-z
x,-y,z
loop_
_atom_site_type_symbol
_atom_site_label
_atom_site_fract_x
_atom_site_fract_y
_atom_site_fract_z
Si Si1 0.198474 0.153569 0.613907
Si Si2 0.375923 0.395023 0.744219
Si Si3 0.374446 0.310417 0.242862
Si Si4 0.875576 0.947167 0.243509
Si Si5 0.625684 0.500000 0.254861
Si Si6 0.569775 0.796012 0.113393
O O1 0.500000 0.153364 0.500000
O O2 0.061298 0.099390 0.708518
O O3 0.927102 0.186496 0.871290
O O4 0.331140 0.172950 0.375072
O O5 0.500000 0.392325 0.500000
O O6 0.522372 0.353035 0.730665
O O7 0.461920 0.448046 0.743413
O O8 0.000000 0.390788 0.000000
O O9 0.000000 0.305305 0.500000
O O10 0.500000 0.320111 0.000000
O O11 0.518286 0.259527 0.188191
O O12 0.500000 0.950404 0.500000
O O13 0.993778 0.000000 0.204131
O O14 0.000000 0.937967 0.000000
O O15 0.500000 0.500000 0.500000
O O16 0.000000 0.500000 0.000000
O O17 0.500000 0.800590 0.000000
#
# Coordination Sequence:
#
# PCOD9150480 Si02
#       6
#     4   4   4   4   2   4
#     4  11  21  36  59  86 107 135 187 235 260 310
#     4  10  20  36  59  85 110 144 185 227 271 321
#     4  11  23  40  56  78 112 149 185 224 274 329
#     4   9  17  31  52  80 111 138 168 217 277 321
#     4   8  16  32  54  80 112 142 174 218 276 330
#     4  11  23  39  55  75 112 154 179 214 281 337
#
# _framework density 19.136528999999999
#
# number of rings (size 3 to 8) (size 9 to 14) (size 15 to 20)
#    0.000    1.818    0.000    6.545    0.000    2.182 
#    0.000    0.909    0.000    3.273    0.000    0.000 
#    0.000    0.000    0.000    0.000    0.000    0.000 
#
# Total GULP energy -122735.608793 kJ/mol
# GULP energy per Si atom -5578.891309 kJ/mol
# Density = 1.909297 g / cm^3
# Si number density = 19.136529 Si / 1000 Ang^3
#
#
#
# Elastic Constant Matrix: (Units=GPa)
#
#
# Indices 1 2 3 4 5 6 
#
# 1 29.3965 55.2001 15.8203 0.0000 -7.1235 0.0000
# 2 55.2001 220.0128 62.7721 0.0000 8.5970 0.0000
# 3 15.8203 62.7721 155.0840 0.0000 -4.8981 0.0000
# 4 0.0000 0.0000 0.0000 31.7901 0.0000 11.5615
# 5 -7.1235 8.5970 -4.8981 0.0000 33.4444 0.0000
# 6 0.0000 0.0000 0.0000 11.5615 0.0000 -58.0609
#
#
#
# Elastic Compliance Matrix: (Units=1/GPa)
#
#
# Indices 1 2 3 4 5 6 
#
# 1 0.077420 -0.020606 0.001136 0.000000 0.021954 0.000000
# 2 -0.020606 0.010714 -0.002471 0.000000 -0.007505 0.000000
# 3 0.001136 -0.002471 0.007394 0.000000 0.001960 0.000000
# 4 0.000000 0.000000 0.000000 0.029332 0.000000 0.005841
# 5 0.021954 -0.007505 0.001960 0.000000 0.036793 0.000000
# 6 0.000000 0.000000 0.000000 0.005841 0.000000 -0.016060
#
#
# Mechanical properties :
#
#
# Convention : Reuss Voigt Hill
#
# Bulk Modulus (GPa) = 19.36281 74.67537 47.01909
# Shear Modulus (GPa) = 24.19066 19.48143 21.83604
#
# Velocity S-wave (km/s) = 3.55929 3.19411 3.38163
# Velocity P-wave (km/s) = 5.19919 7.26018 6.31434
#
# Compressibility (1/GPa) = 0.05164540
#
# Stress axis : x y z
#
# Youngs Moduli (GPa) = 12.91649 93.33911 135.23663
#
# Poissons Ratio (x) = 1.92339 -0.15367
# Poissons Ratio (y) = 0.26616 0.33423
# Poissons Ratio (z) = -0.01468 0.23068
#
# Static dielectric constant tensor:
#      x y z
#    x 1.602930 0.000000 0.066460 
#    y 0.000000 1.730800 0.000000 
#    z 0.066460 0.000000 1.491410 
# 
# From -- ./inp_files/20888.got.cif
#   From: 2010.05.17/outbox.cif.g08.bks.cpg/sg10_11_cif.got.tgz:20888.got - 2010.06.03 11:33:40.
