data_PCOD9150131
_publ_section_title
;
Structure prediction by ZEFSAII (Michael W. Deem and Ramdas Pophale) SiO2 
 PCOD9150131
Probable space group: P 2/M
;
_chemical_formula_sum "Si O2"
_cell_formula_units_Z 32
_cell_length_a 25.541629
_cell_length_b 7.947198
_cell_length_c 16.898449
_cell_angle_alpha 90.000000
_cell_angle_beta 26.371936
_cell_angle_gamma 90.000000
_cell_volume 1523.647501
_symmetry_space_group_name_H-M "P 2/M"
_symmetry_group_IT_number 10
_symmetry_cell_setting 'monoclinic'
loop_
_space_group_symop_operation_xyz
x,y,z
-x,y,-z
-x,-y,-z
x,-y,z
loop_
_atom_site_type_symbol
_atom_site_label
_atom_site_fract_x
_atom_site_fract_y
_atom_site_fract_z
Si Si1 0.193538 0.205425 0.063071
Si Si2 0.755398 0.700274 0.545462
Si Si3 0.777736 0.307147 0.224130
Si Si4 0.378496 0.702832 0.122697
Si Si5 0.639406 0.201143 0.035015
Si Si6 0.384461 0.809686 0.686725
Si Si7 0.977968 0.202013 0.845389
Si Si8 0.379413 0.195966 0.422055
O O1 0.087977 0.260083 0.147238
O O2 0.184625 0.000000 0.074611
O O3 0.236744 0.257866 0.092018
O O4 0.309295 0.263422 0.858407
O O5 0.736873 0.500000 0.564460
O O6 0.725037 0.751615 0.676275
O O7 0.665143 0.785369 0.607183
O O8 0.887604 0.743190 0.341824
O O9 0.754468 0.500000 0.233875
O O10 0.702720 0.187191 0.268908
O O11 0.721636 0.279362 0.386314
O O12 0.910784 0.269863 0.014872
O O13 0.382757 0.500000 0.112375
O O14 0.500000 0.758848 0.000000
O O15 0.363244 0.765277 0.054608
O O16 0.513996 0.264768 0.241788
O O17 0.634837 0.000000 0.052789
O O18 0.500000 0.719686 0.500000
O O19 0.416536 0.000000 0.668582
O O20 0.971421 0.000000 0.857352
O O21 0.382690 0.000000 0.440021
#
# Coordination Sequence:
#
# PCOD9150131 Si02
#       8
#     4   4   4   4   4   4   4   4
#     4   8  16  32  54  81 111 146 185 233 283 326
#     4  11  23  40  61  84 114 150 190 237 290 344
#     4  11  22  35  53  81 117 154 194 237 286 342
#     4  10  21  39  60  84 118 153 182 223 292 356
#     4  10  20  35  60  90 117 145 189 240 283 334
#     4   9  16  30  52  75 108 152 196 238 285 335
#     4  10  21  40  62  82 112 154 199 238 282 337
#     4  11  22  36  57  87 118 150 193 239 288 343
#
# _framework density 21.002230999999998
#
# number of rings (size 3 to 8) (size 9 to 14) (size 15 to 20)
#    0.000    2.000    1.250    3.750    0.000    4.500 
#    0.000    6.250    0.000    3.750    0.000    0.000 
#    0.000    0.000    0.000    0.000    0.000    0.000 
#
# Total GULP energy -178288.151758 kJ/mol
# GULP energy per Si atom -5571.504742 kJ/mol
# Density = 2.095443 g / cm^3
# Si number density = 21.002231 Si / 1000 Ang^3
#
#
#
# Elastic Constant Matrix: (Units=GPa)
#
#
# Indices 1 2 3 4 5 6 
#
# 1 68.1958 1.0867 -2.6487 0.0000 11.9599 0.0000
# 2 1.0867 46.2764 6.4995 0.0000 2.3938 0.0000
# 3 -2.6487 6.4995 73.8142 0.0000 5.6946 0.0000
# 4 0.0000 0.0000 0.0000 -5.9718 0.0000 46.4677
# 5 11.9599 2.3938 5.6946 0.0000 32.4068 0.0000
# 6 0.0000 0.0000 0.0000 46.4677 0.0000 -41.1004
#
#
#
# Elastic Compliance Matrix: (Units=1/GPa)
#
#
# Indices 1 2 3 4 5 6 
#
# 1 0.015757 -0.000207 0.001045 0.000000 -0.005984 0.000000
# 2 -0.000207 0.021936 -0.001845 0.000000 -0.001220 0.000000
# 3 0.001045 -0.001845 0.013956 0.000000 -0.002702 0.000000
# 4 0.000000 0.000000 0.000000 0.021476 0.000000 0.024280
# 5 -0.005984 -0.001220 -0.002702 0.000000 0.033631 0.000000
# 6 0.000000 0.000000 0.000000 0.024280 0.000000 0.003120
#
#
# Mechanical properties :
#
#
# Convention : Reuss Voigt Hill
#
# Bulk Modulus (GPa) = 20.14691 22.01793 21.08242
# Shear Modulus (GPa) = 38.93015 9.29018 24.11017
#
# Velocity S-wave (km/s) = 4.31004 2.10548 3.39186
# Velocity P-wave (km/s) = 5.86363 4.05180 5.03980
#
# Compressibility (1/GPa) = 0.04963541
#
# Stress axis : x y z
#
# Youngs Moduli (GPa) = 63.46411 45.58641 71.65414
#
# Poissons Ratio (x) = 0.00945 -0.07490
# Poissons Ratio (y) = 0.01316 0.13219
# Poissons Ratio (z) = -0.06634 0.08410
#
# Static dielectric constant tensor:
#      x y z
#    x 1.795020 0.000000 0.024770 
#    y 0.000000 1.796630 0.000000 
#    z 0.024770 0.000000 1.869950 
# 
# From -- ./inp_files/71432.got.cif
#   From: 2010.05.17/outbox.cif.g08.bks.cpg/sg10_36_cif.got.tgz:71432.got - 2010.06.03 11:33:40.
