data_PCOD9150224
_publ_section_title
;
Structure prediction by ZEFSAII (Michael W. Deem and Ramdas Pophale) SiO2 
 PCOD9150224
Probable space group: P 2/M
;
_chemical_formula_sum "Si O2"
_cell_formula_units_Z 24
_cell_length_a 22.615885
_cell_length_b 7.872248
_cell_length_c 9.294766
_cell_angle_alpha 90.000000
_cell_angle_beta 51.940751
_cell_angle_gamma 90.000000
_cell_volume 1302.961880
_symmetry_space_group_name_H-M "P 2/M"
_symmetry_group_IT_number 10
_symmetry_cell_setting 'monoclinic'
loop_
_space_group_symop_operation_xyz
x,y,z
-x,y,-z
-x,-y,-z
x,-y,z
loop_
_atom_site_type_symbol
_atom_site_label
_atom_site_fract_x
_atom_site_fract_y
_atom_site_fract_z
Si Si1 0.313854 0.188581 0.354290
Si Si2 0.851382 0.294293 0.055346
Si Si3 0.000000 0.707774 0.335002
Si Si4 0.686147 0.811419 0.295851
Si Si5 0.148618 0.705707 0.609492
Si Si6 0.419785 0.500000 0.545019
Si Si7 0.419785 0.500000 0.195627
O O1 0.311502 0.193810 0.532748
O O2 0.228377 0.225215 0.435805
O O3 0.371120 0.335267 0.225228
O O4 0.337086 0.000000 0.274716
O O5 0.847123 0.500000 0.056178
O O6 0.771623 0.225215 0.120937
O O7 0.860407 0.246522 0.209389
O O8 0.924137 0.237633 0.858621
O O9 0.000000 0.500000 0.331090
O O10 0.000000 0.761161 0.500000
O O11 0.924137 0.762367 0.368967
O O12 0.628880 0.664733 0.338587
O O13 0.662914 0.000000 0.285974
O O14 0.152878 0.500000 0.597545
O O15 0.500000 0.500000 0.500000
O O16 0.427472 0.500000 0.358792
O O17 0.500000 0.500000 0.000000
#
# Coordination Sequence:
#
# PCOD9150224 Si02
#       7
#     4   4   4   4   4   2   2
#     4   9  17  31  53  78 102 130 167 210 251 292
#     4   9  15  27  48  71  94 126 170 212 245 284
#     4   9  17  27  42  69 102 135 167 202 249 297
#     4   9  17  31  53  78 102 130 167 210 251 292
#     4   9  15  27  48  71  94 126 170 212 245 284
#     4  10  20  36  56  79 104 131 163 202 251 304
#     4  10  20  36  56  79 104 131 163 202 251 304
#
# _framework density 18.41957
#
# number of rings (size 3 to 8) (size 9 to 14) (size 15 to 20)
#    0.000    2.833    1.667    0.500    0.000    2.667 
#    0.000    2.500    0.000    8.000    0.000    0.000 
#    0.000    0.000    0.000    0.000    0.000    0.000 
#
# Total GULP energy -133843.536014 kJ/mol
# GULP energy per Si atom -5576.814001 kJ/mol
# Density = 1.837765 g / cm^3
# Si number density = 18.419570 Si / 1000 Ang^3
#
#
#
# Elastic Constant Matrix: (Units=GPa)
#
#
# Indices 1 2 3 4 5 6 
#
# 1 127.0993 64.2969 56.7194 0.0000 -37.8945 0.0000
# 2 64.2969 107.4305 54.1863 0.0000 -28.6850 0.0000
# 3 56.7194 54.1863 100.7871 0.0000 -36.7548 0.0000
# 4 0.0000 0.0000 0.0000 -0.2674 0.0000 4.4216
# 5 -37.8945 -28.6850 -36.7548 0.0000 31.7449 0.0000
# 6 0.0000 0.0000 0.0000 4.4216 0.0000 -1.8258
#
#
#
# Elastic Compliance Matrix: (Units=1/GPa)
#
#
# Indices 1 2 3 4 5 6 
#
# 1 0.014227 -0.004892 -0.001376 0.000000 0.010970 0.000000
# 2 -0.004892 0.015204 -0.004397 0.000000 0.002808 0.000000
# 3 -0.001376 -0.004397 0.019060 0.000000 0.016452 0.000000
# 4 0.000000 0.000000 0.000000 0.095779 0.000000 0.231955
# 5 0.010970 0.002808 0.016452 0.000000 0.066181 0.000000
# 6 0.000000 0.000000 0.000000 0.231955 0.000000 0.014027
#
#
# Mechanical properties :
#
#
# Convention : Reuss Voigt Hill
#
# Bulk Modulus (GPa) = 36.81794 76.19136 56.50465
# Shear Modulus (GPa) = 19.61839 16.60463 18.11151
#
# Velocity S-wave (km/s) = 3.26710 3.00570 3.13912
# Velocity P-wave (km/s) = 5.85353 7.31436 6.62434
#
# Compressibility (1/GPa) = 0.02716067
#
# Stress axis : x y z
#
# Youngs Moduli (GPa) = 70.28743 65.77397 52.46557
#
# Poissons Ratio (x) = 0.32176 0.07220
# Poissons Ratio (y) = 0.34384 0.23070
# Poissons Ratio (z) = 0.09673 0.28922
#
# Static dielectric constant tensor:
#      x y z
#    x 1.608060 0.000000 0.004870 
#    y 0.000000 1.667370 0.000000 
#    z 0.004870 0.000000 1.609780 
# 
# From -- ./inp_files/33848.got.cif
#   From: 2010.05.17/outbox.cif.g08.bks.cpg/sg10_17_cif.got.tgz:33848.got - 2010.06.03 11:33:40.
