data_PCOD9150391
_publ_section_title
;
Structure prediction by ZEFSAII (Michael W. Deem and Ramdas Pophale) SiO2 
 PCOD9150391
Probable space group: P 2/M
;
_chemical_formula_sum "Si O2"
_cell_formula_units_Z 28
_cell_length_a 12.644100
_cell_length_b 7.577377
_cell_length_c 14.915824
_cell_angle_alpha 90.000000
_cell_angle_beta 61.087383
_cell_angle_gamma 90.000000
_cell_volume 1250.949604
_symmetry_space_group_name_H-M "P 2/M"
_symmetry_group_IT_number 10
_symmetry_cell_setting 'monoclinic'
loop_
_space_group_symop_operation_xyz
x,y,z
-x,y,-z
-x,-y,-z
x,-y,z
loop_
_atom_site_type_symbol
_atom_site_label
_atom_site_fract_x
_atom_site_fract_y
_atom_site_fract_z
Si Si1 0.484471 0.786536 0.403847
Si Si2 0.914000 0.202788 0.110465
Si Si3 0.547480 0.715454 0.882601
Si Si4 0.931706 0.797522 0.301698
Si Si5 0.183061 0.293784 0.275507
Si Si6 0.650933 0.703144 0.176773
Si Si7 0.213454 0.786049 0.466418
O O1 0.500000 0.732431 0.500000
O O2 0.589213 0.712704 0.298987
O O3 0.353324 0.733847 0.420533
O O4 0.491225 0.000000 0.397660
O O5 0.914390 0.283318 0.210232
O O6 0.778695 0.203355 0.128621
O O7 0.956739 0.000000 0.105344
O O8 0.000000 0.285301 0.000000
O O9 0.550662 0.500000 0.876375
O O10 0.683484 0.775216 0.804808
O O11 0.449520 0.776267 0.850008
O O12 0.500000 0.764680 0.000000
O O13 0.860288 0.721126 0.416515
O O14 0.072343 0.795339 0.270045
O O15 0.886516 0.000000 0.313525
O O16 0.178615 0.500000 0.253427
O O17 0.167091 0.275831 0.389080
O O18 0.674325 0.500000 0.142370
O O19 0.206581 0.000000 0.467528
#
# Coordination Sequence:
#
# PCOD9150391 Si02
#       7
#     4   4   4   4   4   4   4
#     4  10  20  36  60  86 116 158 201 239 289 350
#     4  10  23  43  64  86 118 157 198 247 295 346
#     4   9  20  38  58  83 118 158 191 233 294 350
#     4  10  22  40  60  84 117 156 197 237 290 350
#     4  11  22  37  60  88 119 152 193 242 292 346
#     4  11  22  38  62  90 120 153 194 245 296 351
#     4  10  20  36  58  83 116 156 194 236 287 351
#
# _framework density 22.382995000000001
#
# number of rings (size 3 to 8) (size 9 to 14) (size 15 to 20)
#    0.000    1.857    1.429    2.143    2.000    5.714 
#    0.000    1.429    0.000    3.429    0.000    0.000 
#    0.000    0.000    0.000    0.000    0.000    0.000 
#
# Total GULP energy -156525.622148 kJ/mol
# GULP energy per Si atom -5590.200791 kJ/mol
# Density = 2.233205 g / cm^3
# Si number density = 22.382995 Si / 1000 Ang^3
#
#
#
# Elastic Constant Matrix: (Units=GPa)
#
#
# Indices 1 2 3 4 5 6 
#
# 1 65.3576 -7.5452 23.4030 0.0000 -26.3690 0.0000
# 2 -7.5452 52.1539 -4.6960 0.0000 -0.4894 0.0000
# 3 23.4030 -4.6960 141.5435 0.0000 -20.1796 0.0000
# 4 0.0000 0.0000 0.0000 5.1396 0.0000 -1.5953
# 5 -26.3690 -0.4894 -20.1796 0.0000 28.7745 0.0000
# 6 0.0000 0.0000 0.0000 -1.5953 0.0000 29.6752
#
#
#
# Elastic Compliance Matrix: (Units=1/GPa)
#
#
# Indices 1 2 3 4 5 6 
#
# 1 0.025105 0.003769 -0.000819 0.000000 0.022496 0.000000
# 2 0.003769 0.019817 0.000639 0.000000 0.004239 0.000000
# 3 -0.000819 0.000639 0.007907 0.000000 0.004806 0.000000
# 4 0.000000 0.000000 0.000000 0.197870 0.000000 0.010637
# 5 0.022496 0.004239 0.004806 0.000000 0.058811 0.000000
# 6 0.000000 0.000000 0.000000 0.010637 0.000000 0.034270
#
#
# Mechanical properties :
#
#
# Convention : Reuss Voigt Hill
#
# Bulk Modulus (GPa) = 16.66468 31.26429 23.96449
# Shear Modulus (GPa) = 14.02118 29.24407 21.63262
#
# Velocity S-wave (km/s) = 2.50556 3.61852 3.11219
# Velocity P-wave (km/s) = 3.97892 5.60860 4.86252
#
# Compressibility (1/GPa) = 0.06000714
#
# Stress axis : x y z
#
# Youngs Moduli (GPa) = 39.83260 50.46269 126.47608
#
# Poissons Ratio (x) = -0.19021 0.10353
# Poissons Ratio (y) = -0.15014 -0.08077
# Poissons Ratio (z) = 0.03261 -0.03223
#
# Static dielectric constant tensor:
#      x y z
#    x 1.778020 0.000000 0.010960 
#    y 0.000000 1.885070 0.000000 
#    z 0.010960 0.000000 1.814190 
# 
# From -- ./inp_files/49642.got.cif
#   From: 2010.05.17/outbox.cif.g08.bks.cpg/sg10_25_cif.got.tgz:49642.got - 2010.06.03 11:33:40.
