data_PCOD9150301
_publ_section_title
;
Structure prediction by ZEFSAII (Michael W. Deem and Ramdas Pophale) SiO2 
 PCOD9150301
Probable space group: P 2/M
;
_chemical_formula_sum "Si O2"
_cell_formula_units_Z 32
_cell_length_a 25.133519
_cell_length_b 8.617799
_cell_length_c 16.700728
_cell_angle_alpha 90.000000
_cell_angle_beta 153.336417
_cell_angle_gamma 90.000000
_cell_volume 1623.269294
_symmetry_space_group_name_H-M "P 2/M"
_symmetry_group_IT_number 10
_symmetry_cell_setting 'monoclinic'
loop_
_space_group_symop_operation_xyz
x,y,z
-x,y,-z
-x,-y,-z
x,-y,z
loop_
_atom_site_type_symbol
_atom_site_label
_atom_site_fract_x
_atom_site_fract_y
_atom_site_fract_z
Si Si1 0.796157 0.178740 0.042238
Si Si2 0.380870 0.312513 0.887556
Si Si3 0.226612 0.315438 0.534321
Si Si4 0.632022 0.674054 0.705299
Si Si5 0.814445 0.324275 0.803586
Si Si6 0.023940 0.184450 0.849039
Si Si7 0.375434 0.186203 0.059253
Si Si8 0.629188 0.685323 0.427040
O O1 0.899485 0.248117 0.124594
O O2 0.828268 0.000000 0.100083
O O3 0.682634 0.196768 0.831678
O O4 0.742240 0.245022 0.051857
O O5 0.383324 0.500000 0.898618
O O6 0.271869 0.269301 0.682839
O O7 0.500000 0.267352 0.000000
O O8 0.373982 0.240537 0.965722
O O9 0.202660 0.500000 0.502137
O O10 0.332289 0.290522 0.612913
O O11 0.110379 0.230381 0.347274
O O12 0.500000 0.702980 0.500000
O O13 0.637740 0.500000 0.750086
O O14 0.715493 0.670460 0.740189
O O15 0.849331 0.500000 0.828243
O O16 0.739468 0.254106 0.629109
O O17 0.924257 0.245632 0.996846
O O18 0.039172 0.000000 0.870388
O O19 0.499090 0.245102 0.264342
O O20 0.375027 0.000000 0.062889
O O21 0.621797 0.500000 0.432536
#
# Coordination Sequence:
#
# PCOD9150301 Si02
#       8
#     4   4   4   4   4   4   4   4
#     4   9  20  36  51  73 107 148 183 217 267 323
#     4  10  20  39  62  84 111 142 176 218 276 336
#     4  10  21  38  60  82 107 141 183 227 271 328
#     4   9  16  27  46  74 103 135 181 231 270 311
#     4   9  18  32  52  77 107 145 188 228 269 320
#     4  10  21  38  57  76 109 152 190 226 269 319
#     4  11  22  35  56  86 116 142 179 228 275 328
#     4  10  20  36  57  82 113 148 183 225 279 330
#
# _framework density 19.713304000000001
#
# number of rings (size 3 to 8) (size 9 to 14) (size 15 to 20)
#    0.000    2.250    1.250    1.500    0.000    5.000 
#    0.000    5.625    0.000    3.750    0.000    0.000 
#    0.000    0.000    0.000    0.000    0.000    0.000 
#
# Total GULP energy -178380.166342 kJ/mol
# GULP energy per Si atom -5574.380198 kJ/mol
# Density = 1.966844 g / cm^3
# Si number density = 19.713304 Si / 1000 Ang^3
#
#
#
# Elastic Constant Matrix: (Units=GPa)
#
#
# Indices 1 2 3 4 5 6 
#
# 1 55.8484 6.9220 2.2458 0.0000 -15.6212 0.0000
# 2 6.9220 13.4133 15.1062 0.0000 -0.9277 0.0000
# 3 2.2458 15.1062 77.0843 0.0000 -10.5540 0.0000
# 4 0.0000 0.0000 0.0000 10.8883 0.0000 6.5193
# 5 -15.6212 -0.9277 -10.5540 0.0000 27.5626 0.0000
# 6 0.0000 0.0000 0.0000 6.5193 0.0000 15.1768
#
#
#
# Elastic Compliance Matrix: (Units=1/GPa)
#
#
# Indices 1 2 3 4 5 6 
#
# 1 0.023873 -0.016409 0.004535 0.000000 0.014714 0.000000
# 2 -0.016409 0.107403 -0.022529 0.000000 -0.014312 0.000000
# 3 0.004535 -0.022529 0.018472 0.000000 0.008885 0.000000
# 4 0.000000 0.000000 0.000000 0.123641 0.000000 -0.053111
# 5 0.014714 -0.014312 0.008885 0.000000 0.047541 0.000000
# 6 0.000000 0.000000 0.000000 -0.053111 0.000000 0.088704
#
#
# Mechanical properties :
#
#
# Convention : Reuss Voigt Hill
#
# Bulk Modulus (GPa) = 12.35463 21.65489 17.00476
# Shear Modulus (GPa) = 9.89272 18.86367 14.37819
#
# Velocity S-wave (km/s) = 2.24259 3.09674 2.70361
# Velocity P-wave (km/s) = 3.60366 4.87802 4.28844
#
# Compressibility (1/GPa) = 0.08094130
#
# Stress axis : x y z
#
# Youngs Moduli (GPa) = 41.88894 9.31070 54.13525
#
# Poissons Ratio (x) = 0.15278 -0.24549
# Poissons Ratio (y) = 0.68735 1.21963
# Poissons Ratio (z) = -0.18995 0.20976
#
# Static dielectric constant tensor:
#      x y z
#    x 1.734380 0.000000 -0.001940 
#    y 0.000000 1.701970 0.000000 
#    z -0.001940 0.000000 1.688430 
# 
# From -- ./inp_files/71686.got.cif
#   From: 2010.05.17/outbox.cif.g08.bks.cpg/sg10_36_cif.got.tgz:71686.got - 2010.06.03 11:33:40.
