data_PCOD9150786
_publ_section_title
;
Structure prediction by ZEFSAII (Michael W. Deem and Ramdas Pophale) SiO2 
 PCOD9150786
Probable space group: P 2/M
;
_chemical_formula_sum "Si O2"
_cell_formula_units_Z 26
_cell_length_a 16.082962
_cell_length_b 16.885328
_cell_length_c 7.717912
_cell_angle_alpha 90.000000
_cell_angle_beta 38.311935
_cell_angle_gamma 90.000000
_cell_volume 1299.351834
_symmetry_space_group_name_H-M "P 2/M"
_symmetry_group_IT_number 10
_symmetry_cell_setting 'monoclinic'
loop_
_space_group_symop_operation_xyz
x,y,z
-x,y,-z
-x,-y,-z
x,-y,z
loop_
_atom_site_type_symbol
_atom_site_label
_atom_site_fract_x
_atom_site_fract_y
_atom_site_fract_z
Si Si1 0.662665 0.000000 0.738650
Si Si2 0.353116 0.412201 0.653988
Si Si3 0.760503 0.836040 0.524774
Si Si4 0.709321 0.819223 0.013443
Si Si5 0.000000 0.728455 0.000000
Si Si6 0.538512 0.725855 0.747332
Si Si7 0.111547 0.322534 0.169075
Si Si8 0.648014 0.000000 0.175080
O O1 0.737490 0.072704 0.529041
O O2 0.500000 0.000000 0.000000
O O3 0.676550 0.000000 0.922866
O O4 0.500000 0.415498 0.500000
O O5 0.325488 0.500000 0.627581
O O6 0.372147 0.340426 0.489895
O O7 0.232001 0.386360 0.978015
O O8 0.761309 0.829861 0.731769
O O9 0.628386 0.798582 0.658881
O O10 0.882199 0.786787 0.252410
O O11 0.815540 0.762993 0.934412
O O12 0.576003 0.764443 0.190146
O O13 0.692662 0.905649 0.132979
O O14 0.956723 0.676069 0.907234
O O15 0.500000 0.691310 0.000000
O O16 0.000000 0.331348 0.500000
O O17 0.500000 0.000000 0.500000
#
# Coordination Sequence:
#
# PCOD9150786 Si02
#       8
#     2   4   4   4   2   4   4   2
#     4  10  20  37  56  88 130 165 208 279 326 366
#     4  11  24  43  70 101 126 159 213 276 337 396
#     4  10  20  37  60  92 128 167 221 263 318 386
#     4  10  21  39  60  94 127 175 215 271 324 372
#     4  12  24  39  65  94 122 174 226 260 317 397
#     4  10  20  37  68  96 127 166 216 271 328 392
#     4  12  25  44  70  92 134 181 222 267 327 401
#     4  10  22  32  57  92 130 162 221 270 319 376
#
# _framework density 20.009976999999999
#
# number of rings (size 3 to 8) (size 9 to 14) (size 15 to 20)
#    0.000    1.385    4.615    2.308    2.154    2.154 
#    0.000    1.538    0.000    0.000    0.000    0.000 
#    0.000    0.000    0.000    0.000    0.000    0.000 
#
# Total GULP energy -144743.966207 kJ/mol
# GULP energy per Si atom -5567.075623 kJ/mol
# Density = 1.996443 g / cm^3
# Si number density = 20.009977 Si / 1000 Ang^3
#
#
#
# Elastic Constant Matrix: (Units=GPa)
#
#
# Indices 1 2 3 4 5 6 
#
# 1 72.3687 12.9547 18.4366 0.0000 -0.3193 0.0000
# 2 12.9547 94.1765 22.4621 0.0000 15.1037 0.0000
# 3 18.4366 22.4621 117.2389 0.0000 4.6081 0.0000
# 4 0.0000 0.0000 0.0000 -3.3358 0.0000 11.3388
# 5 -0.3193 15.1037 4.6081 0.0000 23.8277 0.0000
# 6 0.0000 0.0000 0.0000 11.3388 0.0000 1.1499
#
#
#
# Elastic Compliance Matrix: (Units=1/GPa)
#
#
# Indices 1 2 3 4 5 6 
#
# 1 0.014667 -0.001813 -0.002027 0.000000 0.001738 0.000000
# 2 -0.001813 0.012521 -0.001815 0.000000 -0.007610 0.000000
# 3 -0.002027 -0.001815 0.009222 0.000000 -0.000660 0.000000
# 4 0.000000 0.000000 0.000000 -0.008685 0.000000 0.085638
# 5 0.001738 -0.007610 -0.000660 0.000000 0.046943 0.000000
# 6 0.000000 0.000000 0.000000 0.085638 0.000000 0.025194
#
#
# Mechanical properties :
#
#
# Convention : Reuss Voigt Hill
#
# Bulk Modulus (GPa) = 39.84038 43.49898 41.66968
# Shear Modulus (GPa) = 41.82755 19.65708 30.74231
#
# Velocity S-wave (km/s) = 4.57698 3.13767 3.92388
# Velocity P-wave (km/s) = 6.91991 5.90868 6.43419
#
# Compressibility (1/GPa) = 0.02510016
#
# Stress axis : x y z
#
# Youngs Moduli (GPa) = 68.18124 79.86570 108.43550
#
# Poissons Ratio (x) = 0.14477 0.21985
# Poissons Ratio (y) = 0.12359 0.19679
# Poissons Ratio (z) = 0.13823 0.14494
#
# Static dielectric constant tensor:
#      x y z
#    x 1.700810 0.000000 -0.066820 
#    y 0.000000 1.717880 0.000000 
#    z -0.066820 0.000000 1.667460 
# 
# From -- ./inp_files/33050.got.cif
#   From: 2010.05.17/outbox.cif.g08.bks.cpg/sg10_17_cif.got.tgz:33050.got - 2010.06.03 11:33:40.
