data_PCOD9150033
_publ_section_title
;
Structure prediction by ZEFSAII (Michael W. Deem and Ramdas Pophale) SiO2 
 PCOD9150033
Probable space group: P 2/M
;
_chemical_formula_sum "Si O2"
_cell_formula_units_Z 28
_cell_length_a 15.199457
_cell_length_b 21.366839
_cell_length_c 10.204852
_cell_angle_alpha 90.000000
_cell_angle_beta 151.491554
_cell_angle_gamma 90.000000
_cell_volume 1581.815590
_symmetry_space_group_name_H-M "P 2/M"
_symmetry_group_IT_number 10
_symmetry_cell_setting 'monoclinic'
loop_
_space_group_symop_operation_xyz
x,y,z
-x,y,-z
-x,-y,-z
x,-y,z
loop_
_atom_site_type_symbol
_atom_site_label
_atom_site_fract_x
_atom_site_fract_y
_atom_site_fract_z
Si Si1 0.599935 0.137555 0.923689
Si Si2 0.771229 0.864361 0.443666
Si Si3 0.660414 0.424747 0.317153
Si Si4 0.964921 0.635529 0.298313
Si Si5 0.114119 0.000000 0.443656
Si Si6 0.428564 0.575330 0.265947
Si Si7 0.916728 0.779574 0.242669
Si Si8 0.283737 0.000000 0.960280
O O1 0.390111 0.157033 0.671608
O O2 0.613140 0.066079 0.889651
O O3 0.689970 0.136158 0.188168
O O4 0.721114 0.185676 0.998800
O O5 0.948608 0.820868 0.670149
O O6 0.823454 0.936029 0.541027
O O7 0.694055 0.500000 0.362423
O O8 0.568116 0.404697 0.333392
O O9 0.851055 0.390457 0.531027
O O10 0.500000 0.412780 0.000000
O O11 0.921901 0.707674 0.207958
O O12 0.000000 0.631758 0.500000
O O13 0.780152 0.597017 0.028376
O O14 0.208111 0.000000 0.711273
O O15 0.896550 0.000000 0.184896
O O16 0.500000 0.597030 0.500000
O O17 0.429582 0.500000 0.264618
O O18 0.000000 0.780863 0.500000
#
# Coordination Sequence:
#
# PCOD9150033 Si02
#       8
#     4   4   4   4   2   4   4   2
#     4   9  15  23  34  49  75 113 159 207 255 303
#     4   9  15  23  33  50  73 112 158 209 255 303
#     4  10  20  35  58  85 109 139 181 222 266 323
#     4  11  21  34  54  78 109 147 182 220 271 325
#     4   9  13  19  33  46  71 103 154 210 255 299
#     4  10  22  39  59  85 113 140 178 228 275 320
#     4   9  18  28  37  58  88 123 165 209 254 306
#     4   9  13  19  33  46  69 107 154 205 253 305
#
# _framework density 17.701179
#
# number of rings (size 3 to 8) (size 9 to 14) (size 15 to 20)
#    0.000    2.429    2.857    0.857    0.000    4.000 
#    2.571    2.143    0.000    0.000    0.000    0.000 
#    0.000    0.000    0.000    2.571    0.000   18.000 
#
# Total GULP energy -156031.174897 kJ/mol
# GULP energy per Si atom -5572.541961 kJ/mol
# Density = 1.766089 g / cm^3
# Si number density = 17.701179 Si / 1000 Ang^3
#
#
#
# Elastic Constant Matrix: (Units=GPa)
#
#
# Indices 1 2 3 4 5 6 
#
# 1 117.2574 55.7768 64.4501 0.0000 42.2127 0.0000
# 2 55.7768 65.3331 33.8798 0.0000 22.1048 0.0000
# 3 64.4501 33.8798 65.2782 0.0000 31.8859 0.0000
# 4 0.0000 0.0000 0.0000 -4.5888 0.0000 -0.4724
# 5 42.2127 22.1048 31.8859 0.0000 40.8501 0.0000
# 6 0.0000 0.0000 0.0000 -0.4724 0.0000 4.3074
#
#
#
# Elastic Compliance Matrix: (Units=1/GPa)
#
#
# Indices 1 2 3 4 5 6 
#
# 1 0.024692 -0.010597 -0.014896 0.000000 -0.008154 0.000000
# 2 -0.010597 0.026040 -0.002454 0.000000 -0.001225 0.000000
# 3 -0.014896 -0.002454 0.037387 0.000000 -0.012462 0.000000
# 4 0.000000 0.000000 0.000000 -0.215489 0.000000 -0.023632
# 5 -0.008154 -0.001225 -0.012462 0.000000 0.043296 0.000000
# 6 0.000000 0.000000 0.000000 -0.023632 0.000000 0.229565
#
#
# Mechanical properties :
#
#
# Convention : Reuss Voigt Hill
#
# Bulk Modulus (GPa) = 31.03179 61.78692 46.40935
# Shear Modulus (GPa) = 23.57091 14.36454 18.96773
#
# Velocity S-wave (km/s) = 3.65307 2.85178 3.27701
# Velocity P-wave (km/s) = 5.94661 6.76940 6.37130
#
# Compressibility (1/GPa) = 0.03222502
#
# Stress axis : x y z
#
# Youngs Moduli (GPa) = 40.49924 38.40237 26.74734
#
# Poissons Ratio (x) = 0.40694 0.39842
# Poissons Ratio (y) = 0.42916 0.06565
# Poissons Ratio (z) = 0.60327 0.09426
#
# Static dielectric constant tensor:
#      x y z
#    x 1.604430 0.000000 0.005370 
#    y 0.000000 1.606000 0.000000 
#    z 0.005370 0.000000 1.584600 
# 
# From -- ./inp_files/54260.got.cif
#   From: 2010.05.17/outbox.cif.g08.bks.cpg/sg10_28_cif.got.tgz:54260.got - 2010.06.03 11:33:40.
