data_PCOD9150276
_publ_section_title
;
Structure prediction by ZEFSAII (Michael W. Deem and Ramdas Pophale) SiO2 
 PCOD9150276
Probable space group: P 2/M
;
_chemical_formula_sum "Si O2"
_cell_formula_units_Z 32
_cell_length_a 11.119237
_cell_length_b 8.768299
_cell_length_c 22.531697
_cell_angle_alpha 90.000000
_cell_angle_beta 51.532906
_cell_angle_gamma 90.000000
_cell_volume 1719.993848
_symmetry_space_group_name_H-M "P 2/M"
_symmetry_group_IT_number 10
_symmetry_cell_setting 'monoclinic'
loop_
_space_group_symop_operation_xyz
x,y,z
-x,y,-z
-x,-y,-z
x,-y,z
loop_
_atom_site_type_symbol
_atom_site_label
_atom_site_fract_x
_atom_site_fract_y
_atom_site_fract_z
Si Si1 0.181708 0.183227 0.450454
Si Si2 0.115271 0.816778 0.911663
Si Si3 0.743003 0.315196 0.698323
Si Si4 0.572624 0.680669 0.142095
Si Si5 0.666871 0.684662 0.475771
Si Si6 0.354311 0.828511 0.003415
Si Si7 0.033534 0.683322 0.688745
Si Si8 0.955011 0.816275 0.840079
O O1 0.257995 0.242556 0.366366
O O2 0.272634 0.249579 0.479681
O O3 0.000000 0.229533 0.500000
O O4 0.185716 0.000000 0.452630
O O5 0.285851 0.757787 0.868202
O O6 0.057467 0.769474 0.864700
O O7 0.113299 0.000000 0.914310
O O8 0.000000 0.763857 0.000000
O O9 0.745446 0.500000 0.692199
O O10 0.592800 0.270273 0.782148
O O11 0.896823 0.267248 0.686350
O O12 0.581674 0.500000 0.146179
O O13 0.600833 0.726288 0.065557
O O14 0.500000 0.731017 0.500000
O O15 0.663730 0.500000 0.482470
O O16 0.801460 0.727903 0.388192
O O17 0.310485 0.000000 0.994685
O O18 0.500000 0.841577 0.000000
O O19 0.215260 0.771369 0.086424
O O20 0.028586 0.500000 0.692404
O O21 0.003433 0.746105 0.763242
O O22 0.958540 0.000000 0.833266
#
# Coordination Sequence:
#
# PCOD9150276 Si02
#       8
#     4   4   4   4   4   4   4   4
#     4  11  23  39  64  96 124 159 208 257 306 360
#     4  10  20  39  60  77 111 158 201 240 291 360
#     4  10  22  40  61  87 121 161 199 242 304 366
#     4  11  23  36  56  87 117 146 193 249 293 343
#     4  10  22  41  66  93 124 166 208 246 303 374
#     4  10  20  36  57  80 110 151 193 232 286 350
#     4  10  21  38  60  86 119 157 195 244 300 356
#     4  10  21  36  57  83 111 152 197 240 290 350
#
# _framework density 18.604717999999998
#
# number of rings (size 3 to 8) (size 9 to 14) (size 15 to 20)
#    0.000    1.750    2.500    1.500    0.000    5.250 
#    0.000    3.750    0.000    0.000    0.000    0.000 
#    0.000    0.000    0.000    0.000    0.000    0.000 
#
# Total GULP energy -178598.071706 kJ/mol
# GULP energy per Si atom -5581.189741 kJ/mol
# Density = 1.856237 g / cm^3
# Si number density = 18.604718 Si / 1000 Ang^3
#
#
#
# Elastic Constant Matrix: (Units=GPa)
#
#
# Indices 1 2 3 4 5 6 
#
# 1 169.9047 30.2761 93.9548 0.0000 -2.0213 0.0000
# 2 30.2761 8.7632 25.2199 0.0000 0.8413 0.0000
# 3 93.9548 25.2199 166.1216 0.0000 4.2146 0.0000
# 4 0.0000 0.0000 0.0000 26.5070 0.0000 4.0975
# 5 -2.0213 0.8413 4.2146 0.0000 39.1199 0.0000
# 6 0.0000 0.0000 0.0000 4.0975 0.0000 19.5348
#
#
#
# Elastic Compliance Matrix: (Units=1/GPa)
#
#
# Indices 1 2 3 4 5 6 
#
# 1 0.015588 -0.050667 -0.001176 0.000000 0.002022 0.000000
# 2 -0.050667 0.367381 -0.026925 0.000000 -0.007618 0.000000
# 3 -0.001176 -0.026925 0.010789 0.000000 -0.000644 0.000000
# 4 0.000000 0.000000 0.000000 0.038990 0.000000 -0.008178
# 5 0.002022 -0.007618 -0.000644 0.000000 0.025900 0.000000
# 6 0.000000 0.000000 0.000000 -0.008178 0.000000 0.052906
#
#
# Mechanical properties :
#
#
# Convention : Reuss Voigt Hill
#
# Bulk Modulus (GPa) = 4.23329 71.52123 37.87726
# Shear Modulus (GPa) = 6.68601 30.05492 18.37046
#
# Velocity S-wave (km/s) = 1.89777 4.02362 3.14572
# Velocity P-wave (km/s) = 2.66127 7.75319 5.79631
#
# Compressibility (1/GPa) = 0.23622312
#
# Stress axis : x y z
#
# Youngs Moduli (GPa) = 64.15029 2.72197 92.68997
#
# Poissons Ratio (x) = 0.13791 0.10898
# Poissons Ratio (y) = 3.25028 2.49568
# Poissons Ratio (z) = 0.07542 0.07329
#
# Static dielectric constant tensor:
#      x y z
#    x 1.701680 0.000000 -0.000730 
#    y 0.000000 1.645070 0.000000 
#    z -0.000730 0.000000 1.632460 
# 
# From -- ./inp_files/83559.got.cif
#   From: 2010.05.17/outbox.cif.g08.bks.cpg/sg10_42_cif.got.tgz:83559.got - 2010.06.03 11:33:40.
