data_PCOD9150082
_publ_section_title
;
Structure prediction by ZEFSAII (Michael W. Deem and Ramdas Pophale) SiO2 
 PCOD9150082
Probable space group: P 2/M
;
_chemical_formula_sum "Si O2"
_cell_formula_units_Z 28
_cell_length_a 20.709319
_cell_length_b 7.680156
_cell_length_c 16.280413
_cell_angle_alpha 90.000000
_cell_angle_beta 149.733408
_cell_angle_gamma 90.000000
_cell_volume 1305.126442
_symmetry_space_group_name_H-M "P 2/M"
_symmetry_group_IT_number 10
_symmetry_cell_setting 'monoclinic'
loop_
_space_group_symop_operation_xyz
x,y,z
-x,y,-z
-x,-y,-z
x,-y,z
loop_
_atom_site_type_symbol
_atom_site_label
_atom_site_fract_x
_atom_site_fract_y
_atom_site_fract_z
Si Si1 0.063081 0.714308 0.812328
Si Si2 0.601766 0.288683 0.385200
Si Si3 0.913218 0.704223 0.977483
Si Si4 0.636189 0.795677 0.117437
Si Si5 0.326081 0.702408 0.025345
Si Si6 0.208160 0.289194 0.551831
Si Si7 0.634692 0.794623 0.611044
O O1 0.063774 0.500000 0.812278
O O2 0.195481 0.776949 0.918152
O O3 0.936352 0.767841 0.624639
O O4 0.057562 0.775071 0.900345
O O5 0.602277 0.500000 0.383983
O O6 0.700326 0.231258 0.422742
O O7 0.637248 0.234463 0.516053
O O8 0.459472 0.223378 0.205907
O O9 0.946906 0.500000 0.019455
O O10 0.763090 0.717819 0.791730
O O11 0.000000 0.781073 0.000000
O O12 0.673957 0.712047 0.072970
O O13 0.736385 0.771788 0.300672
O O14 0.619364 0.000000 0.081872
O O15 0.500000 0.724671 0.000000
O O16 0.327865 0.500000 0.052148
O O17 0.211076 0.500000 0.555869
O O18 0.500000 0.725681 0.500000
O O19 0.638463 0.000000 0.632375
#
# Coordination Sequence:
#
# PCOD9150082 Si02
#       7
#     4   4   4   4   4   4   4
#     4   9  19  35  57  87 116 143 182 236 290 331
#     4  10  20  35  59  85 108 145 195 241 282 332
#     4  10  20  38  64  88 115 151 195 245 292 341
#     4  11  23  38  57  83 115 148 185 230 282 336
#     4  10  20  36  59  84 112 147 188 234 282 334
#     4  10  20  37  61  86 112 142 185 233 279 336
#     4  11  24  38  54  82 120 158 194 235 287 346
#
# _framework density 21.453862000000001
#
# number of rings (size 3 to 8) (size 9 to 14) (size 15 to 20)
#    0.000    1.857    1.429    2.571    0.000    7.143 
#    0.000    5.000    0.000    0.000    0.000    0.000 
#    0.000    0.000    0.000    0.000    0.000    0.000 
#
# Total GULP energy -156505.916218 kJ/mol
# GULP energy per Si atom -5589.497008 kJ/mol
# Density = 2.140503 g / cm^3
# Si number density = 21.453862 Si / 1000 Ang^3
#
#
#
# Elastic Constant Matrix: (Units=GPa)
#
#
# Indices 1 2 3 4 5 6 
#
# 1 50.2628 -5.5311 5.3336 0.0000 7.4918 0.0000
# 2 -5.5311 34.4759 -16.0751 0.0000 7.8148 0.0000
# 3 5.3336 -16.0751 94.5368 0.0000 -3.1496 0.0000
# 4 0.0000 0.0000 0.0000 21.1258 0.0000 -12.2650
# 5 7.4918 7.8148 -3.1496 0.0000 40.7365 0.0000
# 6 0.0000 0.0000 0.0000 -12.2650 0.0000 19.6937
#
#
#
# Elastic Compliance Matrix: (Units=1/GPa)
#
#
# Indices 1 2 3 4 5 6 
#
# 1 0.021127 0.004163 -0.000642 0.000000 -0.004734 0.000000
# 2 0.004163 0.033674 0.005264 0.000000 -0.006819 0.000000
# 3 -0.000642 0.005264 0.011509 0.000000 -0.000002 0.000000
# 4 0.000000 0.000000 0.000000 0.074144 0.000000 0.046176
# 5 -0.004734 -0.006819 -0.000002 0.000000 0.026727 0.000000
# 6 0.000000 0.000000 0.000000 0.046176 0.000000 0.079535
#
#
# Mechanical properties :
#
#
# Convention : Reuss Voigt Hill
#
# Bulk Modulus (GPa) = 11.92166 16.30336 14.11251
# Shear Modulus (GPa) = 19.44734 29.34774 24.39754
#
# Velocity S-wave (km/s) = 3.01403 3.70259 3.37591
# Velocity P-wave (km/s) = 4.20494 5.08868 4.66777
#
# Compressibility (1/GPa) = 0.08388091
#
# Stress axis : x y z
#
# Youngs Moduli (GPa) = 47.33224 29.69681 86.88776
#
# Poissons Ratio (x) = -0.12364 0.05576
# Poissons Ratio (y) = -0.19706 -0.45736
# Poissons Ratio (z) = 0.03037 -0.15632
#
# Static dielectric constant tensor:
#      x y z
#    x 1.759420 0.000000 0.024230 
#    y 0.000000 1.808100 0.000000 
#    z 0.024230 0.000000 1.731940 
# 
# From -- ./inp_files/70180.got.cif
#   From: 2010.05.17/outbox.cif.g08.bks.cpg/sg10_36_cif.got.tgz:70180.got - 2010.06.03 11:33:40.
