data_PCOD9150614
_publ_section_title
;
Structure prediction by ZEFSAII (Michael W. Deem and Ramdas Pophale) SiO2 
 PCOD9150614
Probable space group: P 2/M
;
_chemical_formula_sum "Si O2"
_cell_formula_units_Z 28
_cell_length_a 27.507755
_cell_length_b 8.267381
_cell_length_c 9.436094
_cell_angle_alpha 90.000000
_cell_angle_beta 38.182448
_cell_angle_gamma 90.000000
_cell_volume 1326.543867
_symmetry_space_group_name_H-M "P 2/M"
_symmetry_group_IT_number 10
_symmetry_cell_setting 'monoclinic'
loop_
_space_group_symop_operation_xyz
x,y,z
-x,y,-z
-x,-y,-z
x,-y,z
loop_
_atom_site_type_symbol
_atom_site_label
_atom_site_fract_x
_atom_site_fract_y
_atom_site_fract_z
Si Si1 0.812419 0.687492 0.117440
Si Si2 0.521659 0.802513 0.790960
Si Si3 0.013613 0.815624 0.302925
Si Si4 0.237236 0.811021 0.473305
Si Si5 0.373111 0.802682 0.946676
Si Si6 0.075674 0.686778 0.737072
Si Si7 0.670161 0.195714 0.271289
O O1 0.830600 0.500000 0.060060
O O2 0.766947 0.719685 0.368484
O O3 0.755873 0.745178 0.121135
O O4 0.895283 0.779272 0.936564
O O5 0.455036 0.753168 0.830479
O O6 0.605779 0.751906 0.535772
O O7 0.521953 0.000000 0.794160
O O8 0.500000 0.748646 0.000000
O O9 0.000000 0.798388 0.500000
O O10 0.954579 0.702109 0.352925
O O11 0.995947 0.000000 0.300959
O O12 0.152758 0.787597 0.593617
O O13 0.251892 0.000000 0.470482
O O14 0.303819 0.753324 0.212435
O O15 0.356508 0.749261 0.824168
O O16 0.373422 0.000000 0.941815
O O17 0.091460 0.500000 0.739893
O O18 0.000000 0.743124 0.000000
O O19 0.671333 0.000000 0.267932
#
# Coordination Sequence:
#
# PCOD9150614 Si02
#       7
#     4   4   4   4   4   4   4
#     4  12  25  41  59  85 120 159 200 245 302 362
#     4   9  16  30  57  91 123 154 194 243 297 351
#     4  11  25  43  65  90 117 153 202 252 299 352
#     4  11  22  38  62  88 117 156 204 254 299 351
#     4   9  19  34  57  92 123 151 194 248 300 350
#     4  11  23  40  62  90 122 158 198 244 301 360
#     4  10  20  36  60  88 121 158 197 245 297 353
#
# _framework density 21.107482000000001
#
# number of rings (size 3 to 8) (size 9 to 14) (size 15 to 20)
#    0.000    1.571    1.429    3.857    2.000    5.714 
#    0.000    0.714    0.000    6.429    0.000    0.000 
#    0.000    0.000    0.000    0.000    0.000    0.000 
#
# Total GULP energy -156521.285802 kJ/mol
# GULP energy per Si atom -5590.045922 kJ/mol
# Density = 2.105944 g / cm^3
# Si number density = 21.107482 Si / 1000 Ang^3
#
#
#
# Elastic Constant Matrix: (Units=GPa)
#
#
# Indices 1 2 3 4 5 6 
#
# 1 106.6948 -3.6443 0.1289 0.0000 3.3090 0.0000
# 2 -3.6443 9.3424 0.1874 0.0000 6.4612 0.0000
# 3 0.1289 0.1874 51.5447 0.0000 5.2169 0.0000
# 4 0.0000 0.0000 0.0000 -22.4107 0.0000 8.7960
# 5 3.3090 6.4612 5.2169 0.0000 32.4444 0.0000
# 6 0.0000 0.0000 0.0000 8.7960 0.0000 -15.1785
#
#
#
# Elastic Compliance Matrix: (Units=1/GPa)
#
#
# Indices 1 2 3 4 5 6 
#
# 1 0.009611 0.005151 0.000163 0.000000 -0.002032 0.000000
# 2 0.005151 0.127117 0.002176 0.000000 -0.026190 0.000000
# 3 0.000163 0.002176 0.019759 0.000000 -0.003627 0.000000
# 4 0.000000 0.000000 0.000000 -0.057759 0.000000 -0.033471
# 5 -0.002032 -0.026190 -0.003627 0.000000 0.036828 0.000000
# 6 0.000000 0.000000 0.000000 -0.033471 0.000000 -0.085279
#
#
# Mechanical properties :
#
#
# Convention : Reuss Voigt Hill
#
# Bulk Modulus (GPa) = 5.83199 17.88067 11.85633
# Shear Modulus (GPa) = 54.08089 10.36504 32.22297
#
# Velocity S-wave (km/s) = 5.06728 2.21839 3.91143
# Velocity P-wave (km/s) = 6.08321 3.87960 5.10180
#
# Compressibility (1/GPa) = 0.17146804
#
# Stress axis : x y z
#
# Youngs Moduli (GPa) = 104.04406 7.86675 50.60879
#
# Poissons Ratio (x) = -0.04053 -0.00825
# Poissons Ratio (y) = -0.53598 -0.11011
# Poissons Ratio (z) = -0.01695 -0.01711
#
# Static dielectric constant tensor:
#      x y z
#    x 1.752060 0.000000 0.023330 
#    y 0.000000 1.736460 0.000000 
#    z 0.023330 0.000000 1.749990 
# 
# From -- ./inp_files/36912.got.cif
#   From: 2010.05.17/outbox.cif.g08.bks.cpg/sg10_19_cif.got.tgz:36912.got - 2010.06.03 11:33:40.
