data_PCOD9150918
_publ_section_title
;
Structure prediction by ZEFSAII (Michael W. Deem and Ramdas Pophale) SiO2 
 PCOD9150918
Probable space group: P 2/M
;
_chemical_formula_sum "Si O2"
_cell_formula_units_Z 28
_cell_length_a 15.813246
_cell_length_b 9.044911
_cell_length_c 11.389302
_cell_angle_alpha 90.000000
_cell_angle_beta 118.261558
_cell_angle_gamma 90.000000
_cell_volume 1434.819904
_symmetry_space_group_name_H-M "P 2/M"
_symmetry_group_IT_number 10
_symmetry_cell_setting 'monoclinic'
loop_
_space_group_symop_operation_xyz
x,y,z
-x,y,-z
-x,-y,-z
x,-y,z
loop_
_atom_site_type_symbol
_atom_site_label
_atom_site_fract_x
_atom_site_fract_y
_atom_site_fract_z
Si Si1 0.536737 0.176105 0.394192
Si Si2 0.705926 0.825987 0.133351
Si Si3 0.915502 0.828707 0.159639
Si Si4 0.262789 0.175849 0.579095
Si Si5 0.375606 0.675816 0.141787
Si Si6 0.888928 0.325059 0.671553
Si Si7 0.194385 0.824245 0.150069
O O1 0.500000 0.212851 0.500000
O O2 0.649327 0.205415 0.451587
O O3 0.474741 0.264981 0.259440
O O4 0.522070 0.000000 0.365824
O O5 0.816857 0.808810 0.166232
O O6 0.700910 0.787337 0.266505
O O7 0.681807 0.000000 0.102538
O O8 0.642462 0.731763 0.002448
O O9 0.000664 0.724993 0.256915
O O10 0.946252 0.000000 0.191695
O O11 0.885465 0.804064 0.004379
O O12 0.169913 0.264682 0.478221
O O13 0.241807 0.000000 0.563509
O O14 0.369069 0.500000 0.144122
O O15 0.291034 0.750022 0.164271
O O16 0.880605 0.500000 0.675314
O O17 0.841570 0.247566 0.754131
O O18 0.210231 0.000000 0.174948
#
# Coordination Sequence:
#
# PCOD9150918 Si02
#       7
#     4   4   4   4   4   4   4
#     4  10  21  38  61  87 114 148 190 235 282 336
#     4   9  20  40  62  83 109 148 199 243 277 327
#     4   9  19  36  58  81 108 147 193 239 283 334
#     4  10  22  40  61  82 109 151 200 243 279 328
#     4  11  22  36  59  88 119 151 181 229 293 346
#     4  12  24  35  53  84 120 152 184 233 294 346
#     4  10  20  37  60  84 113 150 194 237 276 332
#
# _framework density 19.514643
#
# number of rings (size 3 to 8) (size 9 to 14) (size 15 to 20)
#    0.000    1.857    0.000    5.143    0.000    8.286 
#    0.000    5.714    0.000    0.000    0.000    0.000 
#    0.000    0.000    0.000    0.000    0.000    0.000 
#
# Total GULP energy -156528.965223 kJ/mol
# GULP energy per Si atom -5590.320187 kJ/mol
# Density = 1.947023 g / cm^3
# Si number density = 19.514643 Si / 1000 Ang^3
#
#
#
# Elastic Constant Matrix: (Units=GPa)
#
#
# Indices 1 2 3 4 5 6 
#
# 1 15.6338 18.3569 19.7710 0.0000 -1.0946 0.0000
# 2 18.3569 90.3444 59.2333 0.0000 15.9322 0.0000
# 3 19.7710 59.2333 77.0011 0.0000 8.1146 0.0000
# 4 0.0000 0.0000 0.0000 -110.9511 0.0000 -53.3255
# 5 -1.0946 15.9322 8.1146 0.0000 30.7140 0.0000
# 6 0.0000 0.0000 0.0000 -53.3255 0.0000 -5.6511
#
#
#
# Elastic Compliance Matrix: (Units=1/GPa)
#
#
# Indices 1 2 3 4 5 6 
#
# 1 0.102046 -0.010244 -0.019816 0.000000 0.014186 0.000000
# 2 -0.010244 0.025047 -0.015666 0.000000 -0.009219 0.000000
# 3 -0.019816 -0.015666 0.030184 0.000000 -0.000555 0.000000
# 4 0.000000 0.000000 0.000000 0.002549 0.000000 -0.024057
# 5 0.014186 -0.009219 -0.000555 0.000000 0.037993 0.000000
# 6 0.000000 0.000000 0.000000 -0.024057 0.000000 0.050054
#
#
# Mechanical properties :
#
#
# Convention : Reuss Voigt Hill
#
# Bulk Modulus (GPa) = 15.19180 41.96686 28.57933
# Shear Modulus (GPa) = 13.84019 -11.46976 1.18521
#
# Velocity S-wave (km/s) = 2.66601 -2.42699 0.78017
# Velocity P-wave (km/s) = 4.15674 3.70112 3.93553
#
# Compressibility (1/GPa) = 0.06582498
#
# Stress axis : x y z
#
# Youngs Moduli (GPa) = 9.79954 39.92495 33.12977
#
# Poissons Ratio (x) = 0.40898 0.65651
# Poissons Ratio (y) = 0.10038 0.51900
# Poissons Ratio (z) = 0.19419 0.62545
#
# Static dielectric constant tensor:
#      x y z
#    x 1.681300 0.000000 -0.011160 
#    y 0.000000 1.641930 0.000000 
#    z -0.011160 0.000000 1.675640 
# 
# From -- ./inp_files/50094.got.cif
#   From: 2010.05.17/outbox.cif.g08.bks.cpg/sg10_26_cif.got.tgz:50094.got - 2010.06.03 11:33:40.
