data_PCOD9150824
_publ_section_title
;
Structure prediction by ZEFSAII (Michael W. Deem and Ramdas Pophale) SiO2 
 PCOD9150824
Probable space group: P 2/M
;
_chemical_formula_sum "Si O2"
_cell_formula_units_Z 32
_cell_length_a 27.283313
_cell_length_b 7.551409
_cell_length_c 15.760060
_cell_angle_alpha 90.000000
_cell_angle_beta 25.404845
_cell_angle_gamma 90.000000
_cell_volume 1393.002572
_symmetry_space_group_name_H-M "P 2/M"
_symmetry_group_IT_number 10
_symmetry_cell_setting 'monoclinic'
loop_
_space_group_symop_operation_xyz
x,y,z
-x,y,-z
-x,-y,-z
x,-y,z
loop_
_atom_site_type_symbol
_atom_site_label
_atom_site_fract_x
_atom_site_fract_y
_atom_site_fract_z
Si Si1 0.239709 0.204115 0.280214
Si Si2 0.623705 0.784073 0.774106
Si Si3 0.862310 0.285638 0.968557
Si Si4 0.651232 0.785240 0.536279
Si Si5 0.900001 0.208208 0.096243
Si Si6 0.600364 0.294394 0.121459
Si Si7 0.623791 0.716375 0.274078
Si Si8 0.000342 0.700811 0.407250
O O1 0.285220 0.274361 0.298546
O O2 0.130011 0.303934 0.418268
O O3 0.205389 0.000000 0.345282
O O4 0.340653 0.208502 0.052514
O O5 0.644499 0.730743 0.645395
O O6 0.624253 0.000000 0.774681
O O7 0.500000 0.726076 0.000000
O O8 0.865897 0.500000 0.963703
O O9 0.921299 0.225681 0.962931
O O10 0.729985 0.229392 0.166514
O O11 0.926371 0.221289 0.783932
O O12 0.772253 0.719794 0.311485
O O13 0.536708 0.720992 0.669380
O O14 0.647417 0.000000 0.538095
O O15 0.892235 0.000000 0.129688
O O16 0.000000 0.282431 0.000000
O O17 0.632203 0.500000 0.066945
O O18 0.640606 0.225958 0.150142
O O19 0.500000 0.775363 0.500000
O O20 0.622231 0.500000 0.275663
O O21 0.046184 0.500000 0.347368
O O22 0.000000 0.788500 0.500000
#
# Coordination Sequence:
#
# PCOD9150824 Si02
#       8
#     4   4   4   4   4   4   4   4
#     4  11  22  36  59  86 114 151 195 239 287 349
#     4   9  17  33  56  80 109 149 190 234 288 346
#     4  10  21  39  62  86 116 153 195 245 294 346
#     4  10  20  37  58  81 114 154 198 242 290 345
#     4  10  23  40  60  85 117 158 201 245 293 350
#     4  11  21  35  58  87 117 149 186 236 294 355
#     4   9  18  34  58  84 110 146 190 231 284 350
#     4  10  22  41  62  85 119 160 197 241 299 355
#
# _framework density 22.971962000000001
#
# number of rings (size 3 to 8) (size 9 to 14) (size 15 to 20)
#    0.000    2.000    1.250    2.250    1.750    4.500 
#    0.000    4.375    0.000    3.375    0.000    0.000 
#    0.000    0.000    0.000    0.000    0.000    0.000 
#
# Total GULP energy -178886.041373 kJ/mol
# GULP energy per Si atom -5590.188793 kJ/mol
# Density = 2.291968 g / cm^3
# Si number density = 22.971962 Si / 1000 Ang^3
#
#
#
# Elastic Constant Matrix: (Units=GPa)
#
#
# Indices 1 2 3 4 5 6 
#
# 1 147.3176 -9.5489 26.2951 0.0000 -10.2751 0.0000
# 2 -9.5489 58.1620 -8.3949 0.0000 -1.8260 0.0000
# 3 26.2951 -8.3949 91.1402 0.0000 -5.4877 0.0000
# 4 0.0000 0.0000 0.0000 5.9880 0.0000 -9.2864
# 5 -10.2751 -1.8260 -5.4877 0.0000 40.3292 0.0000
# 6 0.0000 0.0000 0.0000 -9.2864 0.0000 -13.0092
#
#
#
# Elastic Compliance Matrix: (Units=1/GPa)
#
#
# Indices 1 2 3 4 5 6 
#
# 1 0.007309 0.000974 -0.001920 0.000000 0.001645 0.000000
# 2 0.000974 0.017596 0.001414 0.000000 0.001237 0.000000
# 3 -0.001920 0.001414 0.011727 0.000000 0.001171 0.000000
# 4 0.000000 0.000000 0.000000 0.079258 0.000000 -0.056577
# 5 0.001645 0.001237 0.001171 0.000000 0.025430 0.000000
# 6 0.000000 0.000000 0.000000 -0.056577 0.000000 -0.036482
#
#
# Mechanical properties :
#
#
# Convention : Reuss Voigt Hill
#
# Bulk Modulus (GPa) = 26.61753 34.81360 30.71556
# Shear Modulus (GPa) = 42.94659 25.87951 34.41305
#
# Velocity S-wave (km/s) = 4.32849 3.36008 3.87466
# Velocity P-wave (km/s) = 6.04923 5.49920 5.78076
#
# Compressibility (1/GPa) = 0.03756922
#
# Stress axis : x y z
#
# Youngs Moduli (GPa) = 136.82463 56.83016 85.27518
#
# Poissons Ratio (x) = -0.05538 0.16371
# Poissons Ratio (y) = -0.13333 -0.12059
# Poissons Ratio (z) = 0.26268 -0.08037
#
# Static dielectric constant tensor:
#      x y z
#    x 1.843000 0.000000 0.006810 
#    y 0.000000 1.862990 0.000000 
#    z 0.006810 0.000000 1.834710 
# 
# From -- ./inp_files/71555.got.cif
#   From: 2010.05.17/outbox.cif.g08.bks.cpg/sg10_36_cif.got.tgz:71555.got - 2010.06.03 11:33:40.
