data_PCOD9150737
_publ_section_title
;
Structure prediction by ZEFSAII (Michael W. Deem and Ramdas Pophale) SiO2 
 PCOD9150737
Probable space group: P 2/M
;
_chemical_formula_sum "Si O2"
_cell_formula_units_Z 24
_cell_length_a 23.555459
_cell_length_b 10.465008
_cell_length_c 5.330488
_cell_angle_alpha 90.000000
_cell_angle_beta 121.425615
_cell_angle_gamma 90.000000
_cell_volume 1121.266647
_symmetry_space_group_name_H-M "P 2/M"
_symmetry_group_IT_number 10
_symmetry_cell_setting 'monoclinic'
loop_
_space_group_symop_operation_xyz
x,y,z
-x,y,-z
-x,-y,-z
x,-y,z
loop_
_atom_site_type_symbol
_atom_site_label
_atom_site_fract_x
_atom_site_fract_y
_atom_site_fract_z
Si Si1 0.572214 0.718851 0.128822
Si Si2 0.964803 0.653425 0.167117
Si Si3 0.831736 0.357613 0.117747
Si Si4 0.391216 0.856276 0.297656
Si Si5 0.242711 0.149438 0.790350
Si Si6 0.285274 0.366290 0.520229
O O1 0.578413 0.826770 0.360358
O O2 0.636536 0.635855 0.342004
O O3 0.500000 0.659470 0.000000
O O4 0.582615 0.766611 0.867183
O O5 0.974741 0.500000 0.184467
O O6 0.886363 0.670847 0.029600
O O7 0.000000 0.702130 0.500000
O O8 0.000000 0.705355 0.000000
O O9 0.850699 0.500000 0.268958
O O10 0.820258 0.232263 0.258469
O O11 0.759978 0.371699 0.827358
O O12 0.407929 0.000000 0.260595
O O13 0.310180 0.848531 0.116867
O O14 0.266647 0.234928 0.612304
O O15 0.228268 0.000000 0.708629
O O16 0.269456 0.500000 0.627863
#
# Coordination Sequence:
#
# PCOD9150737 Si02
#       6
#     4   4   4   4   4   4
#     4  11  22  37  56  83 117 157 200 250 308 359
#     4   9  19  34  56  90 125 155 194 245 300 355
#     4  10  20  36  63  89 118 158 198 249 302 355
#     4  10  21  37  57  82 116 156 202 253 303 360
#     4  10  21  37  60  88 120 157 202 254 305 357
#     4  10  22  39  59  87 120 157 206 251 300 364
#
# _framework density 21.404364000000001
#
# number of rings (size 3 to 8) (size 9 to 14) (size 15 to 20)
#    0.000    2.000    1.667    1.500    2.333    3.667 
#    0.000    0.000    0.000    4.000    0.000    0.000 
#    0.000    0.000    0.000    0.000    0.000    0.000 
#
# Total GULP energy -133660.902175 kJ/mol
# GULP energy per Si atom -5569.204257 kJ/mol
# Density = 2.135565 g / cm^3
# Si number density = 21.404364 Si / 1000 Ang^3
#
#
#
# Elastic Constant Matrix: (Units=GPa)
#
#
# Indices 1 2 3 4 5 6 
#
# 1 121.1951 45.4854 6.5566 0.0000 -7.5668 0.0000
# 2 45.4854 129.2156 9.3448 0.0000 2.2610 0.0000
# 3 6.5566 9.3448 41.3769 0.0000 -8.3730 0.0000
# 4 0.0000 0.0000 0.0000 6.6896 0.0000 -4.1129
# 5 -7.5668 2.2610 -8.3730 0.0000 20.7602 0.0000
# 6 0.0000 0.0000 0.0000 -4.1129 0.0000 9.0011
#
#
#
# Elastic Compliance Matrix: (Units=1/GPa)
#
#
# Indices 1 2 3 4 5 6 
#
# 1 0.009822 -0.003531 0.000047 0.000000 0.003984 0.000000
# 2 -0.003531 0.009193 -0.002156 0.000000 -0.003158 0.000000
# 3 0.000047 -0.002156 0.026893 0.000000 0.011099 0.000000
# 4 0.000000 0.000000 0.000000 0.207887 0.000000 0.094990
# 5 0.003984 -0.003158 0.011099 0.000000 0.054441 0.000000
# 6 0.000000 0.000000 0.000000 0.094990 0.000000 0.154501
#
#
# Mechanical properties :
#
#
# Convention : Reuss Voigt Hill
#
# Bulk Modulus (GPa) = 28.87660 46.06237 37.46948
# Shear Modulus (GPa) = 10.29738 22.65025 16.47382
#
# Velocity S-wave (km/s) = 2.19575 3.25654 2.77726
# Velocity P-wave (km/s) = 4.46640 5.97552 5.27520
#
# Compressibility (1/GPa) = 0.03463012
#
# Stress axis : x y z
#
# Youngs Moduli (GPa) = 101.80778 108.77842 37.18389
#
# Poissons Ratio (x) = 0.38407 -0.00175
# Poissons Ratio (y) = 0.35945 0.08016
# Poissons Ratio (z) = -0.00479 0.23449
#
# Static dielectric constant tensor:
#      x y z
#    x 1.820110 0.000000 0.001220 
#    y 0.000000 1.819090 0.000000 
#    z 0.001220 0.000000 1.809780 
# 
# From -- ./inp_files/12314.got.cif
#   From: 2010.05.17/outbox.cif.g08.bks.cpg/sg10_7_cif.got.tgz:12314.got - 2010.06.03 11:33:40.
