data_PCOD9150945
_publ_section_title
;
Structure prediction by ZEFSAII (Michael W. Deem and Ramdas Pophale) SiO2 
 PCOD9150945
Probable space group: P 2/M
;
_chemical_formula_sum "Si O2"
_cell_formula_units_Z 32
_cell_length_a 15.026363
_cell_length_b 8.113755
_cell_length_c 23.950918
_cell_angle_alpha 90.000000
_cell_angle_beta 149.732189
_cell_angle_gamma 90.000000
_cell_volume 1471.855157
_symmetry_space_group_name_H-M "P 2/M"
_symmetry_group_IT_number 10
_symmetry_cell_setting 'monoclinic'
loop_
_space_group_symop_operation_xyz
x,y,z
-x,y,-z
-x,-y,-z
x,-y,z
loop_
_atom_site_type_symbol
_atom_site_label
_atom_site_fract_x
_atom_site_fract_y
_atom_site_fract_z
Si Si1 0.101710 0.798811 0.109896
Si Si2 0.318027 0.315187 0.368112
Si Si3 0.462572 0.811807 0.336419
Si Si4 0.963238 0.199746 0.233666
Si Si5 0.766559 0.688126 0.439881
Si Si6 0.196063 0.201039 0.966986
Si Si7 0.883820 0.804430 0.315325
Si Si8 0.567230 0.199688 0.220169
O O1 0.302890 0.743396 0.212850
O O2 0.982391 0.746221 0.097510
O O3 0.111401 0.000000 0.117031
O O4 0.000000 0.749309 0.000000
O O5 0.500000 0.321523 0.500000
O O6 0.281802 0.500000 0.326878
O O7 0.365968 0.195338 0.343433
O O8 0.155800 0.257633 0.317788
O O9 0.638067 0.708447 0.423814
O O10 0.508598 0.000000 0.347310
O O11 0.827072 0.248980 0.110435
O O12 0.919026 0.261295 0.271926
O O13 0.966572 0.000000 0.236838
O O14 0.811142 0.500000 0.453705
O O15 0.649978 0.751276 0.324717
O O16 0.947878 0.777941 0.553306
O O17 0.198169 0.000000 0.969582
O O18 0.371776 0.255679 0.095141
O O19 0.708815 0.740670 0.250837
O O20 0.859378 0.000000 0.295903
O O21 0.561929 0.000000 0.217367
#
# Coordination Sequence:
#
# PCOD9150945 Si02
#       8
#     4   4   4   4   4   4   4   4
#     4   9  16  28  52  84 114 146 184 226 280 343
#     4  11  23  37  54  81 119 159 197 238 287 345
#     4  11  21  36  60  86 114 151 192 237 289 346
#     4  10  20  37  60  87 120 157 200 246 296 356
#     4  12  25  40  59  86 122 159 199 249 303 362
#     4   9  17  33  58  89 122 154 194 244 298 354
#     4  10  22  39  62  91 118 152 202 255 303 353
#     4  10  21  39  64  90 118 154 198 251 305 357
#
# _framework density 21.741271000000001
#
# number of rings (size 3 to 8) (size 9 to 14) (size 15 to 20)
#    0.000    1.750    1.250    3.750    0.000    8.000 
#    0.000    3.125    0.000    1.500    0.000    2.625 
#    0.000    0.000    0.000    0.000    0.000    0.000 
#
# Total GULP energy -178617.992119 kJ/mol
# GULP energy per Si atom -5581.812254 kJ/mol
# Density = 2.169179 g / cm^3
# Si number density = 21.741271 Si / 1000 Ang^3
#
#
#
# Elastic Constant Matrix: (Units=GPa)
#
#
# Indices 1 2 3 4 5 6 
#
# 1 90.3989 3.6924 18.8460 0.0000 0.9708 0.0000
# 2 3.6924 18.1457 -5.4725 0.0000 -3.7298 0.0000
# 3 18.8460 -5.4725 82.1479 0.0000 1.3617 0.0000
# 4 0.0000 0.0000 0.0000 -14.5256 0.0000 -21.1029
# 5 0.9708 -3.7298 1.3617 0.0000 36.2655 0.0000
# 6 0.0000 0.0000 0.0000 -21.1029 0.0000 -22.3924
#
#
#
# Elastic Compliance Matrix: (Units=1/GPa)
#
#
# Indices 1 2 3 4 5 6 
#
# 1 0.011818 -0.003402 -0.002929 0.000000 -0.000556 0.000000
# 2 -0.003402 0.058399 0.004573 0.000000 0.005926 0.000000
# 3 -0.002929 0.004573 0.013149 0.000000 0.000055 0.000000
# 4 0.000000 0.000000 0.000000 0.186498 0.000000 -0.175758
# 5 -0.000556 0.005926 0.000055 0.000000 0.028197 0.000000
# 6 0.000000 0.000000 0.000000 -0.175758 0.000000 0.120978
#
#
# Mechanical properties :
#
#
# Convention : Reuss Voigt Hill
#
# Bulk Modulus (GPa) = 12.52364 24.98049 18.75206
# Shear Modulus (GPa) = 11.13161 11.44461 11.28811
#
# Velocity S-wave (km/s) = 2.26520 2.29683 2.28107
# Velocity P-wave (km/s) = 3.55167 4.30683 3.94735
#
# Compressibility (1/GPa) = 0.07984898
#
# Stress axis : x y z
#
# Youngs Moduli (GPa) = 84.61981 17.12358 76.05297
#
# Poissons Ratio (x) = 0.05826 0.22273
# Poissons Ratio (y) = 0.28790 -0.34777
# Poissons Ratio (z) = 0.24781 -0.07830
#
# Static dielectric constant tensor:
#      x y z
#    x 1.830200 0.000000 -0.052090 
#    y 0.000000 1.785930 0.000000 
#    z -0.052090 0.000000 1.877700 
# 
# From -- ./inp_files/89611.got.cif
#   From: 2010.05.17/outbox.cif.g08.bks.cpg/sg10_45_cif.got.tgz:89611.got - 2010.06.03 11:33:40.
