data_PCOD9150590
_publ_section_title
;
Structure prediction by ZEFSAII (Michael W. Deem and Ramdas Pophale) SiO2 
 PCOD9150590
Probable space group: P 2/M
;
_chemical_formula_sum "Si O2"
_cell_formula_units_Z 28
_cell_length_a 5.129785
_cell_length_b 34.108177
_cell_length_c 8.857926
_cell_angle_alpha 90.000000
_cell_angle_beta 119.974222
_cell_angle_gamma 90.000000
_cell_volume 1342.558143
_symmetry_space_group_name_H-M "P 2/M"
_symmetry_group_IT_number 10
_symmetry_cell_setting 'monoclinic'
loop_
_space_group_symop_operation_xyz
x,y,z
-x,y,-z
-x,-y,-z
x,-y,z
loop_
_atom_site_type_symbol
_atom_site_label
_atom_site_fract_x
_atom_site_fract_y
_atom_site_fract_z
Si Si1 0.838253 0.875681 0.286889
Si Si2 0.357965 0.500000 0.625339
Si Si3 0.089903 0.212543 0.700036
Si Si4 0.354225 0.000000 0.123081
Si Si5 0.645302 0.658015 0.879251
Si Si6 0.304749 0.742957 0.188002
Si Si7 0.655227 0.080619 0.709362
Si Si8 0.357977 0.585573 0.625546
O O1 0.874587 0.832067 0.233802
O O2 0.498961 0.887234 0.227652
O O3 0.000000 0.876772 0.500000
O O4 0.002441 0.907303 0.227313
O O5 0.500000 0.500000 0.500000
O O6 0.435454 0.542413 0.716372
O O7 0.000000 0.500000 0.500000
O O8 0.407418 0.235324 0.799330
O O9 0.000000 0.210155 0.500000
O O10 0.816412 0.234712 0.701189
O O11 0.417851 0.039084 0.236906
O O12 0.500000 0.000000 0.000000
O O13 0.000000 0.000000 0.000000
O O14 0.612904 0.697296 0.769872
O O15 0.482223 0.620791 0.760907
O O16 0.500000 0.667012 0.000000
O O17 0.000000 0.649855 0.000000
O O18 0.000000 0.743305 0.000000
O O19 0.500000 0.081449 0.500000
O O20 0.500000 0.587850 0.500000
O O21 0.000000 0.588468 0.500000
#
# Coordination Sequence:
#
# PCOD9150590 Si02
#       8
#     4   2   4   2   4   4   4   4
#     4   9  19  36  61  88 113 140 184 239 281 321
#     4   8  16  32  54  82 116 146 178 232 296 346
#     4  11  22  39  63  90 115 146 192 247 289 330
#     4  12  25  40  57  84 122 148 178 232 283 316
#     4  11  23  40  57  79 116 156 192 238 291 339
#     4  11  23  40  57  80 118 159 191 230 290 353
#     4  10  20  39  63  84 109 151 192 220 268 343
#     4  10  20  36  60  87 113 148 194 239 286 347
#
# _framework density 20.855706000000001
#
# number of rings (size 3 to 8) (size 9 to 14) (size 15 to 20)
#    0.000    1.714    0.000    5.357    0.000    4.000 
#    0.000   10.714    0.000    0.000    0.000    0.000 
#    0.000    0.000    0.000    0.000    0.000    0.000 
#
# Total GULP energy -156362.195611 kJ/mol
# GULP energy per Si atom -5584.364129 kJ/mol
# Density = 2.080824 g / cm^3
# Si number density = 20.855706 Si / 1000 Ang^3
#
#
#
# Elastic Constant Matrix: (Units=GPa)
#
#
# Indices 1 2 3 4 5 6 
#
# 1 155.8192 47.6929 18.1833 0.0000 -11.0974 0.0000
# 2 47.6929 177.9880 27.8566 0.0000 -17.2984 0.0000
# 3 18.1833 27.8566 23.4989 0.0000 -6.3523 0.0000
# 4 0.0000 0.0000 0.0000 9.9594 0.0000 -3.3151
# 5 -11.0974 -17.2984 -6.3523 0.0000 30.1573 0.0000
# 6 0.0000 0.0000 0.0000 -3.3151 0.0000 35.1568
#
#
#
# Elastic Compliance Matrix: (Units=1/GPa)
#
#
# Indices 1 2 3 4 5 6 
#
# 1 0.007335 -0.001244 -0.003886 0.000000 0.001167 0.000000
# 2 -0.001244 0.007273 -0.007057 0.000000 0.002227 0.000000
# 3 -0.003886 -0.007057 0.055613 0.000000 0.006237 0.000000
# 4 0.000000 0.000000 0.000000 0.103661 0.000000 0.009775
# 5 0.001167 0.002227 0.006237 0.000000 0.036180 0.000000
# 6 0.000000 0.000000 0.000000 0.009775 0.000000 0.029366
#
#
# Mechanical properties :
#
#
# Convention : Reuss Voigt Hill
#
# Bulk Modulus (GPa) = 21.81113 60.53021 41.17067
# Shear Modulus (GPa) = 17.91586 32.62625 25.27105
#
# Velocity S-wave (km/s) = 2.93412 3.95952 3.48474
# Velocity P-wave (km/s) = 4.68610 7.07036 5.99790
#
# Compressibility (1/GPa) = 0.04584815
#
# Stress axis : x y z
#
# Youngs Moduli (GPa) = 136.33289 137.50329 17.98144
#
# Poissons Ratio (x) = 0.17104 0.06987
# Poissons Ratio (y) = 0.16958 0.12689
# Poissons Ratio (z) = 0.52975 0.97030
#
# Static dielectric constant tensor:
#      x y z
#    x 1.715670 0.000000 -0.008030 
#    y 0.000000 2.529420 0.000000 
#    z -0.008030 0.000000 1.754050 
# 
# From -- ./inp_files/15928.got.cif
#   From: 2010.05.17/outbox.cif.g08.bks.cpg/sg10_8_cif.got.tgz:15928.got - 2010.06.03 11:33:40.
