data_PCOD9150109
_publ_section_title
;
Structure prediction by ZEFSAII (Michael W. Deem and Ramdas Pophale) SiO2 
 PCOD9150109
Probable space group: P 2/M
;
_chemical_formula_sum "Si O2"
_cell_formula_units_Z 28
_cell_length_a 19.235334
_cell_length_b 8.145338
_cell_length_c 15.503361
_cell_angle_alpha 90.000000
_cell_angle_beta 31.752173
_cell_angle_gamma 90.000000
_cell_volume 1278.273110
_symmetry_space_group_name_H-M "P 2/M"
_symmetry_group_IT_number 10
_symmetry_cell_setting 'monoclinic'
loop_
_space_group_symop_operation_xyz
x,y,z
-x,y,-z
-x,-y,-z
x,-y,z
loop_
_atom_site_type_symbol
_atom_site_label
_atom_site_fract_x
_atom_site_fract_y
_atom_site_fract_z
Si Si1 0.835732 0.000000 0.158027
Si Si2 0.572816 0.307993 0.634379
Si Si3 0.081427 0.811847 0.524865
Si Si4 0.488097 0.690171 0.914284
Si Si5 0.203162 0.800348 0.222345
Si Si6 0.135355 0.315928 0.641179
Si Si7 0.905222 0.679110 0.016330
Si Si8 0.438867 0.000000 0.468259
O O1 0.723544 0.000000 0.350093
O O2 0.812715 0.832879 0.129981
O O3 0.000000 0.000000 0.000000
O O4 0.525164 0.500000 0.676365
O O5 0.729686 0.313963 0.449065
O O6 0.519898 0.164205 0.628359
O O7 0.558689 0.255884 0.750709
O O8 0.173534 0.744831 0.352280
O O9 0.142446 0.801111 0.553202
O O10 0.931462 0.748238 0.683434
O O11 0.065205 0.000000 0.516500
O O12 0.527218 0.500000 0.881913
O O13 0.334489 0.713469 0.053693
O O14 0.500000 0.764501 0.000000
O O15 0.222718 0.000000 0.195626
O O16 0.122625 0.500000 0.617966
O O17 0.007411 0.282524 0.832481
O O18 0.843082 0.500000 0.068370
O O19 0.000000 0.665014 0.000000
O O20 0.500000 0.000000 0.500000
#
# Coordination Sequence:
#
# PCOD9150109 Si02
#       8
#     2   4   4   4   4   4   4   2
#     4  10  20  38  66  91 114 152 202 254 317 369
#     4  10  23  43  66  94 131 167 212 271 315 375
#     4   9  19  34  54  84 120 161 198 248 310 366
#     4  10  21  38  61  90 124 166 213 260 313 375
#     4   9  19  36  54  79 121 163 204 247 302 369
#     4  10  20  35  59  90 120 154 200 253 316 376
#     4   9  18  33  55  86 117 146 186 243 307 364
#     4  12  28  48  69  97 126 173 228 260 329 406
#
# _framework density 21.904551999999999
#
# number of rings (size 3 to 8) (size 9 to 14) (size 15 to 20)
#    0.000    2.286    0.000    3.429    3.000    4.571 
#    2.571    1.429    0.000    0.000    0.000    0.000 
#    0.000    0.000    0.000    0.000    0.000    0.000 
#
# Total GULP energy -155889.275869 kJ/mol
# GULP energy per Si atom -5567.474138 kJ/mol
# Density = 2.185470 g / cm^3
# Si number density = 21.904552 Si / 1000 Ang^3
#
#
#
# Elastic Constant Matrix: (Units=GPa)
#
#
# Indices 1 2 3 4 5 6 
#
# 1 56.8455 36.7258 9.5328 0.0000 25.0220 0.0000
# 2 36.7258 76.4877 42.2891 0.0000 18.5886 0.0000
# 3 9.5328 42.2891 72.6638 0.0000 4.2916 0.0000
# 4 0.0000 0.0000 0.0000 21.8030 0.0000 -0.1857
# 5 25.0220 18.5886 4.2916 0.0000 24.9310 0.0000
# 6 0.0000 0.0000 0.0000 -0.1857 0.0000 8.7620
#
#
#
# Elastic Compliance Matrix: (Units=1/GPa)
#
#
# Indices 1 2 3 4 5 6 
#
# 1 0.038838 -0.014292 0.004946 0.000000 -0.029174 0.000000
# 2 -0.014292 0.029423 -0.014952 0.000000 -0.005020 0.000000
# 3 0.004946 -0.014952 0.021670 0.000000 0.002454 0.000000
# 4 0.000000 0.000000 0.000000 0.045874 0.000000 0.000972
# 5 -0.029174 -0.005020 0.002454 0.000000 0.072712 0.000000
# 6 0.000000 0.000000 0.000000 0.000972 0.000000 0.114150
#
#
# Mechanical properties :
#
#
# Convention : Reuss Voigt Hill
#
# Bulk Modulus (GPa) = 24.19343 42.56582 33.37963
# Shear Modulus (GPa) = 12.98558 18.92915 15.95737
#
# Velocity S-wave (km/s) = 2.43744 2.94286 2.70199
# Velocity P-wave (km/s) = 4.35780 5.56972 5.00061
#
# Compressibility (1/GPa) = 0.04133353
#
# Stress axis : x y z
#
# Youngs Moduli (GPa) = 25.74811 33.98645 46.14617
#
# Poissons Ratio (x) = 0.48575 -0.22823
# Poissons Ratio (y) = 0.36800 0.69000
# Poissons Ratio (z) = -0.12735 0.50818
#
# Static dielectric constant tensor:
#      x y z
#    x 1.824170 0.000000 0.015130 
#    y 0.000000 1.862100 0.000000 
#    z 0.015130 0.000000 1.752510 
# 
# From -- ./inp_files/70247.got.cif
#   From: 2010.05.17/outbox.cif.g08.bks.cpg/sg10_36_cif.got.tgz:70247.got - 2010.06.03 11:33:40.
