data_PCOD9150363
_publ_section_title
;
Structure prediction by ZEFSAII (Michael W. Deem and Ramdas Pophale) SiO2 
 PCOD9150363
Probable space group: P 2/M
;
_chemical_formula_sum "Si O2"
_cell_formula_units_Z 32
_cell_length_a 19.996105
_cell_length_b 7.470729
_cell_length_c 25.408962
_cell_angle_alpha 90.000000
_cell_angle_beta 158.254222
_cell_angle_gamma 90.000000
_cell_volume 1406.276200
_symmetry_space_group_name_H-M "P 2/M"
_symmetry_group_IT_number 10
_symmetry_cell_setting 'monoclinic'
loop_
_space_group_symop_operation_xyz
x,y,z
-x,y,-z
-x,-y,-z
x,-y,z
loop_
_atom_site_type_symbol
_atom_site_label
_atom_site_fract_x
_atom_site_fract_y
_atom_site_fract_z
Si Si1 0.301960 0.792025 0.365842
Si Si2 0.959847 0.212086 0.735132
Si Si3 0.632528 0.782878 0.948609
Si Si4 0.619958 0.292663 0.819633
Si Si5 0.762205 0.283078 0.482471
Si Si6 0.994177 0.283363 0.934637
Si Si7 0.015317 0.706629 0.452795
Si Si8 0.386981 0.782976 0.866308
O O1 0.500000 0.712987 0.500000
O O2 0.180521 0.713064 0.324369
O O3 0.177361 0.783851 0.223071
O O4 0.332681 0.000000 0.402728
O O5 0.883090 0.236890 0.620803
O O6 0.973779 0.000000 0.755586
O O7 0.163793 0.280735 0.890233
O O8 0.581986 0.718596 0.853820
O O9 0.493141 0.725771 0.891545
O O10 0.631210 0.000000 0.947354
O O11 0.632882 0.500000 0.812751
O O12 0.443392 0.216851 0.662139
O O13 0.818238 0.216886 0.953827
O O14 0.757118 0.500000 0.475758
O O15 0.849669 0.215421 0.491916
O O16 0.985648 0.500000 0.924980
O O17 0.000000 0.233773 0.000000
O O18 0.071789 0.500000 0.501739
O O19 0.815867 0.713416 0.282527
O O20 0.000000 0.788612 0.500000
O O21 0.377389 0.000000 0.859561
O O22 0.500000 0.728155 0.000000
#
# Coordination Sequence:
#
# PCOD9150363 Si02
#       8
#     4   4   4   4   4   4   4   4
#     4  10  22  40  61  87 117 151 190 230 277 332
#     4  10  21  38  58  82 115 149 186 233 280 333
#     4  10  20  36  58  82 109 145 188 233 280 334
#     4  10  21  38  58  82 113 148 188 232 277 329
#     4  10  22  37  56  83 113 148 190 234 280 335
#     4  10  22  39  60  88 118 150 189 232 278 330
#     4  10  21  38  57  80 112 148 188 234 284 336
#     4  10  21  36  56  82 111 144 185 232 283 336
#
# _framework density 22.755132
#
# number of rings (size 3 to 8) (size 9 to 14) (size 15 to 20)
#    0.000    2.000    1.250    1.500    1.750    5.500 
#    0.000    0.000    0.000    0.000    0.000    0.000 
#    0.000    0.000    0.000    0.000    0.000    0.000 
#
# Total GULP energy -178872.663785 kJ/mol
# GULP energy per Si atom -5589.770743 kJ/mol
# Density = 2.270334 g / cm^3
# Si number density = 22.755132 Si / 1000 Ang^3
#
#
#
# Elastic Constant Matrix: (Units=GPa)
#
#
# Indices 1 2 3 4 5 6 
#
# 1 76.4531 -9.0793 6.1345 0.0000 8.7887 0.0000
# 2 -9.0793 65.5488 -13.6790 0.0000 10.3476 0.0000
# 3 6.1345 -13.6790 113.3517 0.0000 13.3749 0.0000
# 4 0.0000 0.0000 0.0000 20.8288 0.0000 -11.2294
# 5 8.7887 10.3476 13.3749 0.0000 44.0160 0.0000
# 6 0.0000 0.0000 0.0000 -11.2294 0.0000 20.0761
#
#
#
# Elastic Compliance Matrix: (Units=1/GPa)
#
#
# Indices 1 2 3 4 5 6 
#
# 1 0.013750 0.002411 -0.000065 0.000000 -0.003293 0.000000
# 2 0.002411 0.016944 0.002532 0.000000 -0.005234 0.000000
# 3 -0.000065 0.002532 0.009542 0.000000 -0.003482 0.000000
# 4 0.000000 0.000000 0.000000 0.068739 0.000000 0.038449
# 5 -0.003293 -0.005234 -0.003482 0.000000 0.025665 0.000000
# 6 0.000000 0.000000 0.000000 0.038449 0.000000 0.071316
#
#
# Mechanical properties :
#
#
# Convention : Reuss Voigt Hill
#
# Bulk Modulus (GPa) = 20.00310 24.67846 22.34078
# Shear Modulus (GPa) = 23.48906 35.11600 29.30253
#
# Velocity S-wave (km/s) = 3.21636 3.93264 3.59239
# Velocity P-wave (km/s) = 4.75425 5.61156 5.20060
#
# Compressibility (1/GPa) = 0.04999224
#
# Stress axis : x y z
#
# Youngs Moduli (GPa) = 72.72786 59.01664 104.80007
#
# Poissons Ratio (x) = -0.14228 0.00678
# Poissons Ratio (y) = -0.17533 -0.26535
# Poissons Ratio (z) = 0.00471 -0.14943
#
# Static dielectric constant tensor:
#      x y z
#    x 1.817960 0.000000 0.034900 
#    y 0.000000 2.323040 0.000000 
#    z 0.034900 0.000000 1.806290 
# 
# From -- ./inp_files/93763.got.cif
#   From: 2010.05.17/outbox.cif.g08.bks.cpg/sg10_47_cif.got.tgz:93763.got - 2010.06.03 11:33:40.
