data_PCOD9150664
_publ_section_title
;
Structure prediction by ZEFSAII (Michael W. Deem and Ramdas Pophale) SiO2 
 PCOD9150664
Probable space group: P 2/M
;
_chemical_formula_sum "Si O2"
_cell_formula_units_Z 32
_cell_length_a 20.055158
_cell_length_b 14.207907
_cell_length_c 9.273951
_cell_angle_alpha 90.000000
_cell_angle_beta 143.625544
_cell_angle_gamma 90.000000
_cell_volume 1567.182640
_symmetry_space_group_name_H-M "P 2/M"
_symmetry_group_IT_number 10
_symmetry_cell_setting 'monoclinic'
loop_
_space_group_symop_operation_xyz
x,y,z
-x,y,-z
-x,-y,-z
x,-y,z
loop_
_atom_site_type_symbol
_atom_site_label
_atom_site_fract_x
_atom_site_fract_y
_atom_site_fract_z
Si Si1 0.847415 0.610134 0.534903
Si Si2 0.990205 0.786828 0.822100
Si Si3 0.736847 0.391690 0.040705
Si Si4 0.775103 0.790577 0.933060
Si Si5 0.444683 0.894523 0.560745
Si Si6 0.613779 0.387047 0.282111
Si Si7 0.119649 0.892407 0.622883
Si Si8 0.491083 0.299626 0.310035
O O1 0.867906 0.500000 0.602577
O O2 0.946174 0.679860 0.750076
O O3 0.826646 0.617816 0.326249
O O4 0.731678 0.639911 0.414223
O O5 0.902766 0.840766 0.566300
O O6 0.111353 0.794463 0.959800
O O7 0.000000 0.825305 0.000000
O O8 0.733739 0.500000 0.987959
O O9 0.755679 0.316958 0.947460
O O10 0.618029 0.363151 0.905936
O O11 0.794181 0.842267 0.119896
O O12 0.676417 0.845705 0.678658
O O13 0.500000 0.905307 0.500000
O O14 0.515425 0.808785 0.754196
O O15 0.438876 0.000000 0.614610
O O16 0.612432 0.500000 0.282652
O O17 0.594838 0.346584 0.408452
O O18 0.500000 0.356077 0.000000
O O19 0.000000 0.890771 0.500000
O O20 0.152391 0.000000 0.657449
O O21 0.500000 0.297739 0.500000
#
# Coordination Sequence:
#
# PCOD9150664 Si02
#       8
#     4   4   4   4   4   4   4   4
#     4  10  22  40  61  85 122 168 209 244 295 367
#     4  11  25  39  60  86 125 158 201 256 309 357
#     4  11  21  36  61  93 122 153 203 257 298 351
#     4  11  21  41  61  90 117 163 206 247 299 363
#     4  10  21  38  61  91 124 155 191 242 307 364
#     4  10  20  36  61  88 118 162 201 239 298 363
#     4   9  19  38  64  86 107 147 204 254 296 354
#     4  11  21  36  58  94 124 153 194 249 303 351
#
# _framework density 20.418804999999999
#
# number of rings (size 3 to 8) (size 9 to 14) (size 15 to 20)
#    0.000    1.625    5.000    0.750    1.750    2.500 
#    0.000    1.250    0.000    0.375    0.000    0.000 
#    0.000    0.000    0.000    0.000    0.000    0.000 
#
# Total GULP energy -178529.294648 kJ/mol
# GULP energy per Si atom -5579.040458 kJ/mol
# Density = 2.037233 g / cm^3
# Si number density = 20.418805 Si / 1000 Ang^3
#
#
#
# Elastic Constant Matrix: (Units=GPa)
#
#
# Indices 1 2 3 4 5 6 
#
# 1 76.9353 12.7718 15.8770 0.0000 -4.7848 0.0000
# 2 12.7718 90.3029 23.6427 0.0000 -0.0500 0.0000
# 3 15.8770 23.6427 49.5726 0.0000 -7.7964 0.0000
# 4 0.0000 0.0000 0.0000 11.1963 0.0000 -3.4379
# 5 -4.7848 -0.0500 -7.7964 0.0000 27.3821 0.0000
# 6 0.0000 0.0000 0.0000 -3.4379 0.0000 14.1489
#
#
#
# Elastic Compliance Matrix: (Units=1/GPa)
#
#
# Indices 1 2 3 4 5 6 
#
# 1 0.014033 -0.000987 -0.003809 0.000000 0.001366 0.000000
# 2 -0.000987 0.012806 -0.006088 0.000000 -0.001882 0.000000
# 3 -0.003809 -0.006088 0.025323 0.000000 0.006533 0.000000
# 4 0.000000 0.000000 0.000000 0.096516 0.000000 0.023451
# 5 0.001366 -0.001882 0.006533 0.000000 0.038616 0.000000
# 6 0.000000 0.000000 0.000000 0.023451 0.000000 0.076375
#
#
# Mechanical properties :
#
#
# Convention : Reuss Voigt Hill
#
# Bulk Modulus (GPa) = 32.89961 35.71042 34.30502
# Shear Modulus (GPa) = 16.91660 21.51343 19.21501
#
# Velocity S-wave (km/s) = 2.88146 3.24945 3.07097
# Velocity P-wave (km/s) = 5.21707 5.62188 5.42325
#
# Compressibility (1/GPa) = 0.03039550
#
# Stress axis : x y z
#
# Youngs Moduli (GPa) = 71.26200 78.08718 39.48933
#
# Poissons Ratio (x) = 0.07705 0.15041
# Poissons Ratio (y) = 0.07031 0.24040
# Poissons Ratio (z) = 0.27144 0.47537
#
# Static dielectric constant tensor:
#      x y z
#    x 1.725780 0.000000 -0.004200 
#    y 0.000000 1.736290 0.000000 
#    z -0.004200 0.000000 1.787620 
# 
# From -- ./inp_files/35138.got.cif
#   From: 2010.05.17/outbox.cif.g08.bks.cpg/sg10_18_cif.got.tgz:35138.got - 2010.06.03 11:33:40.
