data_PCOD9150457
_publ_section_title
;
Structure prediction by ZEFSAII (Michael W. Deem and Ramdas Pophale) SiO2 
 PCOD9150457
Probable space group: P 2/M
;
_chemical_formula_sum "Si O2"
_cell_formula_units_Z 32
_cell_length_a 21.677022
_cell_length_b 8.327848
_cell_length_c 26.925924
_cell_angle_alpha 90.000000
_cell_angle_beta 159.394892
_cell_angle_gamma 90.000000
_cell_volume 1710.618892
_symmetry_space_group_name_H-M "P 2/M"
_symmetry_group_IT_number 10
_symmetry_cell_setting 'monoclinic'
loop_
_space_group_symop_operation_xyz
x,y,z
-x,y,-z
-x,-y,-z
x,-y,z
loop_
_atom_site_type_symbol
_atom_site_label
_atom_site_fract_x
_atom_site_fract_y
_atom_site_fract_z
Si Si1 0.531933 0.807734 0.852289
Si Si2 0.503200 0.193910 0.558869
Si Si3 0.154263 0.694472 0.841098
Si Si4 0.198491 0.805719 0.140114
Si Si5 0.291620 0.310497 0.837912
Si Si6 0.243192 0.693685 0.444637
Si Si7 0.540047 0.692316 0.745284
Si Si8 0.807452 0.809134 0.343355
O O1 0.539554 0.755607 0.800812
O O2 0.354471 0.745013 0.745625
O O3 0.529618 0.000000 0.852641
O O4 0.700842 0.749962 0.010411
O O5 0.500000 0.251955 0.500000
O O6 0.674461 0.245763 0.718989
O O7 0.337412 0.251147 0.465495
O O8 0.503251 0.000000 0.558248
O O9 0.156562 0.500000 0.842939
O O10 0.207131 0.747537 0.825525
O O11 0.956746 0.749756 0.703141
O O12 0.291359 0.746225 0.159790
O O13 0.197686 0.000000 0.137946
O O14 0.000000 0.751064 0.000000
O O15 0.250643 0.500000 0.801037
O O16 0.231494 0.220753 0.743556
O O17 0.500000 0.294983 0.000000
O O18 0.241772 0.500000 0.444968
O O19 0.368805 0.748186 0.584755
O O20 0.537123 0.500000 0.744522
O O21 0.000000 0.741138 0.500000
O O22 0.813313 0.000000 0.357270
#
# Coordination Sequence:
#
# PCOD9150457 Si02
#       8
#     4   4   4   4   4   4   4   4
#     4  11  23  38  56  80 110 145 185 227 274 328
#     4   9  18  33  53  78 108 140 177 221 264 312
#     4  10  21  38  57  81 112 143 181 227 274 325
#     4   9  18  34  55  79 109 145 183 223 266 317
#     4  10  20  36  59  83 108 142 182 226 274 326
#     4   9  20  37  56  80 110 144 181 221 269 323
#     4  10  21  37  57  81 112 147 183 227 274 323
#     4  10  23  40  56  80 112 144 182 229 277 328
#
# _framework density 18.706679000000001
#
# number of rings (size 3 to 8) (size 9 to 14) (size 15 to 20)
#    0.000    2.250    1.250    0.750    1.750    4.000 
#    0.000    1.250    0.000    0.000    0.000    0.000 
#    0.000    0.000    0.000    0.000    0.000    0.000 
#
# Total GULP energy -178585.918095 kJ/mol
# GULP energy per Si atom -5580.809940 kJ/mol
# Density = 1.866410 g / cm^3
# Si number density = 18.706679 Si / 1000 Ang^3
#
#
#
# Elastic Constant Matrix: (Units=GPa)
#
#
# Indices 1 2 3 4 5 6 
#
# 1 192.5260 14.5380 108.7797 0.0000 5.9954 0.0000
# 2 14.5380 7.1682 19.8869 0.0000 5.9818 0.0000
# 3 108.7797 19.8869 140.6743 0.0000 28.2563 0.0000
# 4 0.0000 0.0000 0.0000 21.6198 0.0000 -1.4701
# 5 5.9954 5.9818 28.2563 0.0000 27.3929 0.0000
# 6 0.0000 0.0000 0.0000 -1.4701 0.0000 25.8596
#
#
#
# Elastic Compliance Matrix: (Units=1/GPa)
#
#
# Indices 1 2 3 4 5 6 
#
# 1 0.010336 -0.001512 -0.009323 0.000000 0.007684 0.000000
# 2 -0.001512 0.239746 -0.028095 0.000000 -0.023042 0.000000
# 3 -0.009323 -0.028095 0.020998 0.000000 -0.013484 0.000000
# 4 0.000000 0.000000 0.000000 0.046433 0.000000 0.002640
# 5 0.007684 -0.023042 -0.013484 0.000000 0.053765 0.000000
# 6 0.000000 0.000000 0.000000 0.002640 0.000000 0.038820
#
#
# Mechanical properties :
#
#
# Convention : Reuss Voigt Hill
#
# Bulk Modulus (GPa) = 5.17543 69.64197 37.40870
# Shear Modulus (GPa) = 9.05199 28.11871 18.58535
#
# Velocity S-wave (km/s) = 2.20214 3.88124 3.15543
# Velocity P-wave (km/s) = 3.03949 7.57592 5.77205
#
# Compressibility (1/GPa) = 0.19322056
#
# Stress axis : x y z
#
# Youngs Moduli (GPa) = 96.74583 4.17109 47.62419
#
# Poissons Ratio (x) = 0.00631 0.44398
# Poissons Ratio (y) = 0.14628 1.33800
# Poissons Ratio (z) = 0.90192 0.11719
#
# Static dielectric constant tensor:
#      x y z
#    x 1.579740 0.000000 0.023580 
#    y 0.000000 1.655690 0.000000 
#    z 0.023580 0.000000 1.637250 
# 
# From -- ./inp_files/87060.got.cif
#   From: 2010.05.17/outbox.cif.g08.bks.cpg/sg10_44_cif.got.tgz:87060.got - 2010.06.03 11:33:40.
