data_PCOD9150048
_publ_section_title
;
Structure prediction by ZEFSAII (Michael W. Deem and Ramdas Pophale) SiO2 
 PCOD9150048
Probable space group: P 2/M
;
_chemical_formula_sum "Si O2"
_cell_formula_units_Z 20
_cell_length_a 13.642403
_cell_length_b 7.401348
_cell_length_c 22.616833
_cell_angle_alpha 90.000000
_cell_angle_beta 20.890584
_cell_angle_gamma 90.000000
_cell_volume 814.321519
_symmetry_space_group_name_H-M "P 2/M"
_symmetry_group_IT_number 10
_symmetry_cell_setting 'monoclinic'
loop_
_space_group_symop_operation_xyz
x,y,z
-x,y,-z
-x,-y,-z
x,-y,z
loop_
_atom_site_type_symbol
_atom_site_label
_atom_site_fract_x
_atom_site_fract_y
_atom_site_fract_z
Si Si1 0.314257 0.783625 0.322826
Si Si2 0.930164 0.781676 0.749770
Si Si3 0.563458 0.781093 0.060908
Si Si4 0.535431 0.294093 0.416201
Si Si5 0.258199 0.716090 0.818288
O O1 0.498138 0.716079 0.163724
O O2 0.472051 0.747730 0.294565
O O3 0.000000 0.715919 0.500000
O O4 0.297279 0.000000 0.325079
O O5 0.698529 0.734296 0.832486
O O6 0.223614 0.704013 0.568357
O O7 0.950069 0.000000 0.738268
O O8 0.825221 0.723016 0.874208
O O9 0.580110 0.000000 0.053210
O O10 0.500000 0.204732 0.500000
O O11 0.630202 0.500000 0.372541
O O12 0.715771 0.210471 0.262746
O O13 0.226667 0.500000 0.830265
O O14 0.000000 0.788165 0.000000
#
# Coordination Sequence:
#
# PCOD9150048 Si02
#       5
#     4   4   4   4   4
#     4  10  20  35  58  86 115 146 184 229 280 332
#     4   9  17  33  56  80 108 141 179 220 268 322
#     4   8  16  31  53  82 113 140 170 221 276 321
#     4  10  22  38  55  76 107 143 181 226 272 317
#     4  10  23  41  58  80 113 151 188 229 278 332
#
# _framework density 24.560323
#
# number of rings (size 3 to 8) (size 9 to 14) (size 15 to 20)
#    0.000    2.600    0.000    2.400    2.800    3.600 
#    0.000    3.000    0.000    0.000    0.000    0.000 
#    0.000    0.000    0.000    0.000    0.000    0.000 
#
# Total GULP energy -111790.208140 kJ/mol
# GULP energy per Si atom -5589.510407 kJ/mol
# Density = 2.450442 g / cm^3
# Si number density = 24.560323 Si / 1000 Ang^3
#
#
#
# Elastic Constant Matrix: (Units=GPa)
#
#
# Indices 1 2 3 4 5 6 
#
# 1 118.6812 1.5416 50.4450 0.0000 46.5136 0.0000
# 2 1.5416 91.0680 5.5832 0.0000 7.4153 0.0000
# 3 50.4450 5.5832 120.6265 0.0000 36.5943 0.0000
# 4 0.0000 0.0000 0.0000 1.2354 0.0000 -26.2141
# 5 46.5136 7.4153 36.5943 0.0000 57.0077 0.0000
# 6 0.0000 0.0000 0.0000 -26.2141 0.0000 -23.1005
#
#
#
# Elastic Compliance Matrix: (Units=1/GPa)
#
#
# Indices 1 2 3 4 5 6 
#
# 1 0.013137 0.000683 -0.002790 0.000000 -0.009016 0.000000
# 2 0.000683 0.011135 -0.000239 0.000000 -0.001852 0.000000
# 3 -0.002790 -0.000239 0.010888 0.000000 -0.004682 0.000000
# 4 0.000000 0.000000 0.000000 0.032276 0.000000 -0.036626
# 5 -0.009016 -0.001852 -0.004682 0.000000 0.028144 0.000000
# 6 0.000000 0.000000 0.000000 -0.036626 0.000000 -0.001726
#
#
# Mechanical properties :
#
#
# Convention : Reuss Voigt Hill
#
# Bulk Modulus (GPa) = 32.82234 49.50169 41.16202
# Shear Modulus (GPa) = 45.99738 25.21557 35.60647
#
# Velocity S-wave (km/s) = 4.33232 3.20766 3.81170
# Velocity P-wave (km/s) = 6.19825 5.82389 6.01398
#
# Compressibility (1/GPa) = 0.03046706
#
# Stress axis : x y z
#
# Youngs Moduli (GPa) = 76.12331 89.80926 91.84275
#
# Poissons Ratio (x) = -0.06132 0.25624
# Poissons Ratio (y) = -0.05198 0.02196
# Poissons Ratio (z) = 0.21238 0.02147
#
# Static dielectric constant tensor:
#      x y z
#    x 1.945020 0.000000 0.035120 
#    y 0.000000 1.929310 0.000000 
#    z 0.035120 0.000000 1.951600 
# 
# From -- ./inp_files/22259.got.cif
#   From: 2010.05.17/outbox.cif.g08.bks.cpg/sg10_12_cif.got.tgz:22259.got - 2010.06.03 11:33:40.
