data_PCOD9150584
_publ_section_title
;
Structure prediction by ZEFSAII (Michael W. Deem and Ramdas Pophale) SiO2 
 PCOD9150584
Probable space group: P 2/M
;
_chemical_formula_sum "Si O2"
_cell_formula_units_Z 28
_cell_length_a 23.104049
_cell_length_b 8.567443
_cell_length_c 20.546864
_cell_angle_alpha 90.000000
_cell_angle_beta 160.120364
_cell_angle_gamma 90.000000
_cell_volume 1382.998424
_symmetry_space_group_name_H-M "P 2/M"
_symmetry_group_IT_number 10
_symmetry_cell_setting 'monoclinic'
loop_
_space_group_symop_operation_xyz
x,y,z
-x,y,-z
-x,-y,-z
x,-y,z
loop_
_atom_site_type_symbol
_atom_site_label
_atom_site_fract_x
_atom_site_fract_y
_atom_site_fract_z
Si Si1 0.417215 0.682681 0.847562
Si Si2 0.776737 0.186557 0.939768
Si Si3 0.939640 0.178969 0.509950
Si Si4 0.047767 0.686292 0.123477
Si Si5 0.342090 0.312249 0.628905
Si Si6 0.944559 0.684302 0.244159
Si Si7 0.399155 0.814524 0.547010
O O1 0.465065 0.500000 0.896258
O O2 0.440558 0.742570 0.798454
O O3 0.216423 0.703114 0.646452
O O4 0.500000 0.754988 0.000000
O O5 0.584991 0.232950 0.717472
O O6 0.781612 0.000000 0.950686
O O7 0.822924 0.258721 0.058475
O O8 0.917252 0.240420 0.036914
O O9 0.074668 0.227064 0.707723
O O10 0.000000 0.188895 0.500000
O O11 0.884211 0.000000 0.463710
O O12 0.032050 0.500000 0.111444
O O13 0.239463 0.733358 0.344273
O O14 0.000000 0.736145 0.000000
O O15 0.364481 0.500000 0.646286
O O16 0.394879 0.229213 0.618824
O O17 0.139637 0.285470 0.426408
O O18 0.925010 0.500000 0.233555
O O19 0.379846 0.000000 0.519297
#
# Coordination Sequence:
#
# PCOD9150584 Si02
#       7
#     4   4   4   4   4   4   4
#     4   9  19  35  54  78 110 151 201 253 305 364
#     4  11  24  41  64  96 130 165 208 254 308 374
#     4  10  21  35  52  78 114 155 199 251 309 369
#     4  11  25  45  69  96 128 167 209 257 312 368
#     4   9  18  34  57  84 115 154 203 256 308 368
#     4  10  20  36  60  86 114 156 206 256 311 369
#     4  11  24  40  63  95 128 165 207 254 310 374
#
# _framework density 20.245864000000001
#
# number of rings (size 3 to 8) (size 9 to 14) (size 15 to 20)
#    0.000    1.857    1.429    3.000    0.000    8.857 
#    0.000    5.714    0.000    0.000    0.000    0.000 
#    0.000    0.000    0.000    0.000    0.000    0.000 
#
# Total GULP energy -156335.943157 kJ/mol
# GULP energy per Si atom -5583.426541 kJ/mol
# Density = 2.019978 g / cm^3
# Si number density = 20.245864 Si / 1000 Ang^3
#
#
#
# Elastic Constant Matrix: (Units=GPa)
#
#
# Indices 1 2 3 4 5 6 
#
# 1 60.9987 14.5583 41.9389 0.0000 -23.9958 0.0000
# 2 14.5583 21.5978 10.6943 0.0000 0.0044 0.0000
# 3 41.9389 10.6943 103.5547 0.0000 -13.8684 0.0000
# 4 0.0000 0.0000 0.0000 20.5216 0.0000 24.4276
# 5 -23.9958 0.0044 -13.8684 0.0000 30.4894 0.0000
# 6 0.0000 0.0000 0.0000 24.4276 0.0000 -32.8697
#
#
#
# Elastic Compliance Matrix: (Units=1/GPa)
#
#
# Indices 1 2 3 4 5 6 
#
# 1 0.038272 -0.020895 -0.009911 0.000000 0.025616 0.000000
# 2 -0.020895 0.060377 0.000025 0.000000 -0.016442 0.000000
# 3 -0.009911 0.000025 0.013442 0.000000 -0.001686 0.000000
# 4 0.000000 0.000000 0.000000 0.025856 0.000000 0.019215
# 5 0.025616 -0.016442 -0.001686 0.000000 0.052194 0.000000
# 6 0.000000 0.000000 0.000000 0.019215 0.000000 -0.016143
#
#
# Mechanical properties :
#
#
# Convention : Reuss Voigt Hill
#
# Bulk Modulus (GPa) = 19.79099 35.61489 27.70294
# Shear Modulus (GPa) = 19.80951 11.55890 15.68420
#
# Velocity S-wave (km/s) = 3.13141 2.39200 2.78634
# Velocity P-wave (km/s) = 4.78235 5.02576 4.90556
#
# Compressibility (1/GPa) = 0.05052803
#
# Stress axis : x y z
#
# Youngs Moduli (GPa) = 26.12875 16.56269 74.39156
#
# Poissons Ratio (x) = 0.34608 0.73733
# Poissons Ratio (y) = 0.54597 -0.00188
# Poissons Ratio (z) = 0.25897 -0.00042
#
# Static dielectric constant tensor:
#      x y z
#    x 1.747530 0.000000 -0.015180 
#    y 0.000000 1.690820 0.000000 
#    z -0.015180 0.000000 1.742550 
# 
# From -- ./inp_files/86529.got.cif
#   From: 2010.05.17/outbox.cif.g08.bks.cpg/sg10_44_cif.got.tgz:86529.got - 2010.06.03 11:33:40.
