data_PCOD9150455
_publ_section_title
;
Structure prediction by ZEFSAII (Michael W. Deem and Ramdas Pophale) SiO2 
 PCOD9150455
Probable space group: P 2/M
;
_chemical_formula_sum "Si O2"
_cell_formula_units_Z 28
_cell_length_a 9.361962
_cell_length_b 8.704279
_cell_length_c 29.868291
_cell_angle_alpha 90.000000
_cell_angle_beta 38.458626
_cell_angle_gamma 90.000000
_cell_volume 1513.788022
_symmetry_space_group_name_H-M "P 2/M"
_symmetry_group_IT_number 10
_symmetry_cell_setting 'monoclinic'
loop_
_space_group_symop_operation_xyz
x,y,z
-x,y,-z
-x,-y,-z
x,-y,z
loop_
_atom_site_type_symbol
_atom_site_label
_atom_site_fract_x
_atom_site_fract_y
_atom_site_fract_z
Si Si1 0.809308 0.814546 0.639002
Si Si2 0.353497 0.184504 0.222165
Si Si3 0.340996 0.185745 0.497352
Si Si4 0.506448 0.684012 0.362109
Si Si5 0.963338 0.684436 0.779075
Si Si6 0.735122 0.684188 0.070266
Si Si7 0.419461 0.184127 0.069529
O O1 0.710244 0.769659 0.711816
O O2 0.660935 0.746151 0.635247
O O3 0.076242 0.768752 0.569817
O O4 0.800042 0.000000 0.638354
O O5 0.169431 0.251939 0.232053
O O6 0.601309 0.244658 0.145333
O O7 0.347467 0.000000 0.220405
O O8 0.500000 0.234275 0.500000
O O9 0.431749 0.251704 0.428521
O O10 0.349324 0.000000 0.493050
O O11 0.495146 0.500000 0.365762
O O12 0.770331 0.729081 0.287622
O O13 0.945169 0.500000 0.783697
O O14 0.827682 0.751398 0.854998
O O15 0.719842 0.500000 0.076480
O O16 0.596393 0.744165 0.061416
O O17 0.000000 0.728760 0.000000
O O18 0.418151 0.000000 0.074500
O O19 0.500000 0.223937 0.000000
#
# Coordination Sequence:
#
# PCOD9150455 Si02
#       7
#     4   4   4   4   4   4   4
#     4  10  22  38  57  83 112 144 181 223 273 324
#     4  10  20  36  59  83 107 140 184 230 273 320
#     4  10  21  39  62  84 109 144 184 224 269 324
#     4  11  24  38  55  83 115 146 181 224 271 319
#     4  10  21  37  56  79 109 145 183 222 270 328
#     4  10  21  36  55  80 111 147 183 221 271 329
#     4  10  21  36  56  82 109 140 182 230 275 320
#
# _framework density 18.496646999999999
#
# number of rings (size 3 to 8) (size 9 to 14) (size 15 to 20)
#    0.000    1.857    0.000    5.143    0.000   10.571 
#    0.000    5.714    0.000    0.000    0.000    0.000 
#    0.000    0.000    0.000    0.000    0.000    0.000 
#
# Total GULP energy -156430.857320 kJ/mol
# GULP energy per Si atom -5586.816333 kJ/mol
# Density = 1.845455 g / cm^3
# Si number density = 18.496647 Si / 1000 Ang^3
#
#
#
# Elastic Constant Matrix: (Units=GPa)
#
#
# Indices 1 2 3 4 5 6 
#
# 1 127.3792 34.4047 111.6978 0.0000 -6.4775 0.0000
# 2 34.4047 35.9092 48.5030 0.0000 -4.1035 0.0000
# 3 111.6978 48.5030 208.4108 0.0000 -6.4978 0.0000
# 4 0.0000 0.0000 0.0000 63.1968 0.0000 23.5127
# 5 -6.4775 -4.1035 -6.4978 0.0000 37.5152 0.0000
# 6 0.0000 0.0000 0.0000 23.5127 0.0000 36.2452
#
#
#
# Elastic Compliance Matrix: (Units=1/GPa)
#
#
# Indices 1 2 3 4 5 6 
#
# 1 0.015499 -0.005201 -0.007069 0.000000 0.000883 0.000000
# 2 -0.005201 0.042660 -0.007061 0.000000 0.002545 0.000000
# 3 -0.007069 -0.007061 0.010223 0.000000 -0.000222 0.000000
# 4 0.000000 0.000000 0.000000 0.020858 0.000000 -0.013531
# 5 0.000883 0.002545 -0.000222 0.000000 0.027048 0.000000
# 6 0.000000 0.000000 0.000000 -0.013531 0.000000 0.036367
#
#
# Mechanical properties :
#
#
# Convention : Reuss Voigt Hill
#
# Bulk Modulus (GPa) = 33.64756 84.54558 59.09657
# Shear Modulus (GPa) = 24.84812 39.19770 32.02291
#
# Velocity S-wave (km/s) = 3.66920 4.60845 4.16538
# Velocity P-wave (km/s) = 6.01509 8.60958 7.42651
#
# Compressibility (1/GPa) = 0.02971984
#
# Stress axis : x y z
#
# Youngs Moduli (GPa) = 64.52223 23.44142 97.81780
#
# Poissons Ratio (x) = 0.12191 0.69143
# Poissons Ratio (y) = 0.33556 0.69073
# Poissons Ratio (z) = 0.45608 0.16553
#
# Static dielectric constant tensor:
#      x y z
#    x 1.603430 0.000000 -0.010180 
#    y 0.000000 1.623640 0.000000 
#    z -0.010180 0.000000 1.635890 
# 
# From -- ./inp_files/37923.got.cif
#   From: 2010.05.17/outbox.cif.g08.bks.cpg/sg10_19_cif.got.tgz:37923.got - 2010.06.03 11:33:40.
