data_PCOD9150379
_publ_section_title
;
Structure prediction by ZEFSAII (Michael W. Deem and Ramdas Pophale) SiO2 
 PCOD9150379
Probable space group: P 2/M
;
_chemical_formula_sum "Si O2"
_cell_formula_units_Z 32
_cell_length_a 14.727826
_cell_length_b 7.848521
_cell_length_c 24.481242
_cell_angle_alpha 90.000000
_cell_angle_beta 31.975237
_cell_angle_gamma 90.000000
_cell_volume 1498.542610
_symmetry_space_group_name_H-M "P 2/M"
_symmetry_group_IT_number 10
_symmetry_cell_setting 'monoclinic'
loop_
_space_group_symop_operation_xyz
x,y,z
-x,y,-z
-x,-y,-z
x,-y,z
loop_
_atom_site_type_symbol
_atom_site_label
_atom_site_fract_x
_atom_site_fract_y
_atom_site_fract_z
Si Si1 0.495675 0.294434 0.337806
Si Si2 0.204613 0.797954 0.740802
Si Si3 0.663632 0.198621 0.883495
Si Si4 0.749362 0.698648 0.718160
Si Si5 0.583306 0.706724 0.173877
Si Si6 0.116782 0.291385 0.555703
Si Si7 0.954854 0.797169 0.962869
Si Si8 0.025150 0.300345 0.724267
O O1 0.493529 0.500000 0.338275
O O2 0.606407 0.238989 0.333096
O O3 0.585511 0.236495 0.235925
O O4 0.299062 0.235111 0.439739
O O5 0.153984 0.725690 0.708135
O O6 0.181882 0.000000 0.748533
O O7 0.073837 0.728111 0.853844
O O8 0.697880 0.288305 0.808185
O O9 0.840289 0.213917 0.827123
O O10 0.631568 0.000000 0.887704
O O11 0.500000 0.265965 0.000000
O O12 0.761594 0.500000 0.696310
O O13 0.592788 0.770799 0.763225
O O14 0.942344 0.769689 0.615538
O O15 0.583373 0.500000 0.172428
O O16 0.753896 0.766424 0.056590
O O17 0.115223 0.500000 0.554379
O O18 0.099985 0.241003 0.627915
O O19 0.985491 0.000000 0.949127
O O20 0.000000 0.725898 0.000000
O O21 0.989090 0.500000 0.736905
#
# Coordination Sequence:
#
# PCOD9150379 Si02
#       8
#     4   4   4   4   4   4   4   4
#     4  10  20  36  58  83 110 145 187 230 275 324
#     4  11  23  38  56  81 112 147 187 228 276 334
#     4  10  21  36  54  79 110 145 186 226 270 327
#     4   9  19  36  55  81 113 145 182 224 275 326
#     4  10  21  34  55  87 114 140 183 232 273 321
#     4   8  17  36  59  80 109 146 182 224 276 330
#     4  10  21  38  56  74 107 152 185 220 276 334
#     4  10  21  38  59  82 110 144 183 229 277 326
#
# _framework density 21.354081999999998
#
# number of rings (size 3 to 8) (size 9 to 14) (size 15 to 20)
#    0.000    2.250    1.250    1.875    1.750    3.750 
#    0.000    8.125    0.000    0.000    0.000    5.250 
#    0.000    0.000    0.000    0.000    0.000    0.000 
#
# Total GULP energy -178665.111276 kJ/mol
# GULP energy per Si atom -5583.284727 kJ/mol
# Density = 2.130548 g / cm^3
# Si number density = 21.354082 Si / 1000 Ang^3
#
#
#
# Elastic Constant Matrix: (Units=GPa)
#
#
# Indices 1 2 3 4 5 6 
#
# 1 79.0982 -11.3769 -13.4310 0.0000 -21.5764 0.0000
# 2 -11.3769 26.0537 -6.2379 0.0000 5.6911 0.0000
# 3 -13.4310 -6.2379 67.7601 0.0000 -25.3348 0.0000
# 4 0.0000 0.0000 0.0000 25.1638 0.0000 -14.7503
# 5 -21.5764 5.6911 -25.3348 0.0000 23.9828 0.0000
# 6 0.0000 0.0000 0.0000 -14.7503 0.0000 17.1129
#
#
#
# Elastic Compliance Matrix: (Units=1/GPa)
#
#
# Indices 1 2 3 4 5 6 
#
# 1 0.038472 0.010056 0.034048 0.000000 0.068192 0.000000
# 2 0.010056 0.043111 0.009122 0.000000 0.008453 0.000000
# 3 0.034048 0.009122 0.054525 0.000000 0.086065 0.000000
# 4 0.000000 0.000000 0.000000 0.080322 0.000000 0.069232
# 5 0.068192 0.008453 0.086065 0.000000 0.191957 0.000000
# 6 0.000000 0.000000 0.000000 0.069232 0.000000 0.118110
#
#
# Mechanical properties :
#
#
# Convention : Reuss Voigt Hill
#
# Bulk Modulus (GPa) = 4.12271 12.31337 8.21804
# Shear Modulus (GPa) = 9.98207 26.84909 18.41558
#
# Velocity S-wave (km/s) = 2.16442 3.54973 2.93984
# Velocity P-wave (km/s) = 2.86026 4.75180 3.92178
#
# Compressibility (1/GPa) = 0.24255862
#
# Stress axis : x y z
#
# Youngs Moduli (GPa) = 25.99325 23.19598 18.34010
#
# Poissons Ratio (x) = -0.23325 -0.62443
# Poissons Ratio (y) = -0.26138 -0.16730
# Poissons Ratio (z) = -0.88501 -0.21160
#
# Static dielectric constant tensor:
#      x y z
#    x 1.770480 0.000000 -0.009200 
#    y 0.000000 1.778040 0.000000 
#    z -0.009200 0.000000 1.766610 
# 
# From -- ./inp_files/66499.got.cif
#   From: 2010.05.17/outbox.cif.g08.bks.cpg/sg10_34_cif.got.tgz:66499.got - 2010.06.03 11:33:40.
