data_PCOD9150122
_publ_section_title
;
Structure prediction by ZEFSAII (Michael W. Deem and Ramdas Pophale) SiO2 
 PCOD9150122
Probable space group: P 2/M
;
_chemical_formula_sum "Si O2"
_cell_formula_units_Z 28
_cell_length_a 9.979833
_cell_length_b 13.248138
_cell_length_c 13.990184
_cell_angle_alpha 90.000000
_cell_angle_beta 48.303720
_cell_angle_gamma 90.000000
_cell_volume 1381.137319
_symmetry_space_group_name_H-M "P 2/M"
_symmetry_group_IT_number 10
_symmetry_cell_setting 'monoclinic'
loop_
_space_group_symop_operation_xyz
x,y,z
-x,y,-z
-x,-y,-z
x,-y,z
loop_
_atom_site_type_symbol
_atom_site_label
_atom_site_fract_x
_atom_site_fract_y
_atom_site_fract_z
Si Si1 0.071764 0.612905 0.740364
Si Si2 0.172092 0.327710 0.481660
Si Si3 0.660550 0.784611 0.351582
Si Si4 0.861171 0.109193 0.417762
Si Si5 0.318818 0.699598 0.034995
Si Si6 0.714004 0.115044 0.817804
Si Si7 0.496046 0.748444 0.235318
O O1 0.095075 0.500000 0.765351
O O2 0.139832 0.620051 0.598227
O O3 0.196577 0.695477 0.731282
O O4 0.863631 0.645359 0.846700
O O5 0.175558 0.207223 0.501847
O O6 0.360947 0.338567 0.338452
O O7 0.000000 0.351941 0.500000
O O8 0.500000 0.751849 0.500000
O O9 0.761851 0.871111 0.363738
O O10 0.577265 0.805919 0.288152
O O11 0.074014 0.110727 0.302926
O O12 0.807395 0.000000 0.483244
O O13 0.304904 0.815233 0.079546
O O14 0.500000 0.658054 0.000000
O O15 0.354014 0.701782 0.905524
O O16 0.616115 0.177042 0.780450
O O17 0.650541 0.000000 0.855644
#
# Coordination Sequence:
#
# PCOD9150122 Si02
#       7
#     4   4   4   4   4   4   4
#     4  11  24  44  67  87 122 171 210 257 326 384
#     4  11  19  39  61  92 123 158 208 261 317 362
#     4  11  22  42  61  90 131 167 208 260 313 373
#     4  10  20  35  60  88 126 169 207 252 306 369
#     4  10  21  42  66  93 127 164 207 267 317 367
#     4  10  20  39  65  94 129 172 215 253 307 374
#     4  11  22  36  63  93 125 164 208 261 307 367
#
# _framework density 20.273147000000002
#
# number of rings (size 3 to 8) (size 9 to 14) (size 15 to 20)
#    0.000    1.429    7.143    0.857    0.000    5.714 
#    0.000    2.143    0.000    2.571    0.000    0.000 
#    0.000    0.000    0.000    0.000    0.000    0.000 
#
# Total GULP energy -156215.591895 kJ/mol
# GULP energy per Si atom -5579.128282 kJ/mol
# Density = 2.022700 g / cm^3
# Si number density = 20.273147 Si / 1000 Ang^3
#
#
#
# Elastic Constant Matrix: (Units=GPa)
#
#
# Indices 1 2 3 4 5 6 
#
# 1 82.7754 -10.8702 17.1404 0.0000 -2.9717 0.0000
# 2 -10.8702 48.0784 20.7132 0.0000 -23.3541 0.0000
# 3 17.1404 20.7132 107.8914 0.0000 0.3056 0.0000
# 4 0.0000 0.0000 0.0000 -1.2637 0.0000 -1.5154
# 5 -2.9717 -23.3541 0.3056 0.0000 35.3269 0.0000
# 6 0.0000 0.0000 0.0000 -1.5154 0.0000 -0.0975
#
#
#
# Elastic Compliance Matrix: (Units=1/GPa)
#
#
# Indices 1 2 3 4 5 6 
#
# 1 0.014153 0.008003 -0.003803 0.000000 0.006514 0.000000
# 2 0.008003 0.039508 -0.008932 0.000000 0.026869 0.000000
# 3 -0.003803 -0.008932 0.011606 0.000000 -0.006325 0.000000
# 4 0.000000 0.000000 0.000000 0.044884 0.000000 -0.697329
# 5 0.006514 0.026869 -0.006325 0.000000 0.046672 0.000000
# 6 0.000000 0.000000 0.000000 -0.697329 0.000000 0.581521
#
#
# Mechanical properties :
#
#
# Convention : Reuss Voigt Hill
#
# Bulk Modulus (GPa) = 17.92082 32.52356 25.22219
# Shear Modulus (GPa) = 6.52392 20.91058 13.71725
#
# Velocity S-wave (km/s) = 1.79583 3.21509 2.60402
# Velocity P-wave (km/s) = 3.62752 5.46442 4.63782
#
# Compressibility (1/GPa) = 0.05580103
#
# Stress axis : x y z
#
# Youngs Moduli (GPa) = 70.65545 25.31104 86.16558
#
# Poissons Ratio (x) = -0.20255 0.32771
# Poissons Ratio (y) = -0.56542 0.76966
# Poissons Ratio (z) = 0.26872 0.22609
#
# Static dielectric constant tensor:
#      x y z
#    x 1.731240 0.000000 -0.017220 
#    y 0.000000 1.727420 0.000000 
#    z -0.017220 0.000000 1.780510 
# 
# From -- ./inp_files/64907.got.cif
#   From: 2010.05.17/outbox.cif.g08.bks.cpg/sg10_33_cif.got.tgz:64907.got - 2010.06.03 11:33:40.
