data_PCOD9150655
_publ_section_title
;
Structure prediction by ZEFSAII (Michael W. Deem and Ramdas Pophale) SiO2 
 PCOD9150655
Probable space group: P 2/M
;
_chemical_formula_sum "Si O2"
_cell_formula_units_Z 32
_cell_length_a 14.389812
_cell_length_b 9.365625
_cell_length_c 22.292833
_cell_angle_alpha 90.000000
_cell_angle_beta 148.548517
_cell_angle_gamma 90.000000
_cell_volume 1567.622762
_symmetry_space_group_name_H-M "P 2/M"
_symmetry_group_IT_number 10
_symmetry_cell_setting 'monoclinic'
loop_
_space_group_symop_operation_xyz
x,y,z
-x,y,-z
-x,-y,-z
x,-y,z
loop_
_atom_site_type_symbol
_atom_site_label
_atom_site_fract_x
_atom_site_fract_y
_atom_site_fract_z
Si Si1 0.049363 0.171866 0.257691
Si Si2 0.612779 0.164628 0.622968
Si Si3 0.977269 0.837764 0.348729
Si Si4 0.657603 0.672033 0.220660
Si Si5 0.519993 0.658850 0.685105
Si Si6 0.298621 0.168718 0.001252
Si Si7 0.194311 0.832272 0.081466
Si Si8 0.821808 0.722556 0.432423
O O1 0.083181 0.200138 0.346389
O O2 0.196271 0.226825 0.292230
O O3 0.060775 0.000000 0.257589
O O4 0.850563 0.211611 0.129045
O O5 0.500000 0.162882 0.500000
O O6 0.522902 0.254351 0.625302
O O7 0.631327 0.000000 0.653914
O O8 0.819719 0.723462 0.268488
O O9 0.091356 0.833170 0.472909
O O10 0.908460 0.000000 0.303343
O O11 0.655213 0.500000 0.228738
O O12 0.471921 0.732718 0.094922
O O13 0.703989 0.754095 0.308782
O O14 0.588085 0.500000 0.712689
O O15 0.652228 0.740661 0.802896
O O16 0.323327 0.649473 0.605202
O O17 0.210394 0.182807 0.018666
O O18 0.343999 0.000000 0.018140
O O19 0.221741 0.000000 0.110701
O O20 0.000000 0.792604 0.000000
O O21 0.000000 0.654596 0.500000
#
# Coordination Sequence:
#
# PCOD9150655 Si02
#       8
#     4   4   4   4   4   4   4   4
#     4   9  19  39  64  91 122 158 202 256 316 365
#     4  10  21  40  65  90 122 163 207 255 311 371
#     4  10  22  40  65  93 120 155 208 262 308 370
#     4  11  23  40  60  86 125 167 203 251 315 375
#     4  12  24  38  60  91 125 163 205 254 312 373
#     4  10  20  36  61  87 118 160 208 258 304 366
#     4  10  21  38  61  89 120 158 207 260 310 364
#     4  10  23  40  61  87 122 165 205 253 311 375
#
# _framework density 20.413076
#
# number of rings (size 3 to 8) (size 9 to 14) (size 15 to 20)
#    0.000    1.750    1.250    2.625    0.000   12.250 
#    0.000    5.625    0.000    0.000    0.000    0.000 
#    0.000    0.000    0.000    0.000    0.000    0.000 
#
# Total GULP energy -178385.908156 kJ/mol
# GULP energy per Si atom -5574.559630 kJ/mol
# Density = 2.036661 g / cm^3
# Si number density = 20.413076 Si / 1000 Ang^3
#
#
#
# Elastic Constant Matrix: (Units=GPa)
#
#
# Indices 1 2 3 4 5 6 
#
# 1 104.6778 37.4039 28.2632 0.0000 4.7384 0.0000
# 2 37.4039 64.5236 34.4758 0.0000 4.8155 0.0000
# 3 28.2632 34.4758 85.9035 0.0000 8.0077 0.0000
# 4 0.0000 0.0000 0.0000 23.1243 0.0000 -32.3417
# 5 4.7384 4.8155 8.0077 0.0000 34.6117 0.0000
# 6 0.0000 0.0000 0.0000 -32.3417 0.0000 27.8415
#
#
#
# Elastic Compliance Matrix: (Units=1/GPa)
#
#
# Indices 1 2 3 4 5 6 
#
# 1 0.012205 -0.006261 -0.001460 0.000000 -0.000462 0.000000
# 2 -0.006261 0.022970 -0.007094 0.000000 -0.000698 0.000000
# 3 -0.001460 -0.007094 0.015185 0.000000 -0.002326 0.000000
# 4 0.000000 0.000000 0.000000 -0.069229 0.000000 -0.080418
# 5 -0.000462 -0.000698 -0.002326 0.000000 0.029591 0.000000
# 6 0.000000 0.000000 0.000000 -0.080418 0.000000 -0.057499
#
#
# Mechanical properties :
#
#
# Convention : Reuss Voigt Hill
#
# Bulk Modulus (GPa) = 48.23587 50.59898 49.41743
# Shear Modulus (GPa) = -488.40225 27.44629 -230.47798
#
# Velocity S-wave (km/s) = -15.48480 3.67078 -10.63730
# Velocity P-wave (km/s) = 17.20535 6.54275 11.25203
#
# Compressibility (1/GPa) = 0.02073146
#
# Stress axis : x y z
#
# Youngs Moduli (GPa) = 81.93112 43.53541 65.85414
#
# Poissons Ratio (x) = 0.27257 0.09615
# Poissons Ratio (y) = 0.51295 0.46714
# Poissons Ratio (z) = 0.11962 0.30882
#
# Static dielectric constant tensor:
#      x y z
#    x 1.743470 0.000000 0.007190 
#    y 0.000000 1.690710 0.000000 
#    z 0.007190 0.000000 1.741440 
# 
# From -- ./inp_files/89616.got.cif
#   From: 2010.05.17/outbox.cif.g08.bks.cpg/sg10_45_cif.got.tgz:89616.got - 2010.06.03 11:33:40.
