data_PCOD9150349
_publ_section_title
;
Structure prediction by ZEFSAII (Michael W. Deem and Ramdas Pophale) SiO2 
 PCOD9150349
Probable space group: P 2/M
;
_chemical_formula_sum "Si O2"
_cell_formula_units_Z 28
_cell_length_a 30.354982
_cell_length_b 7.863645
_cell_length_c 9.492164
_cell_angle_alpha 90.000000
_cell_angle_beta 142.305963
_cell_angle_gamma 90.000000
_cell_volume 1385.403532
_symmetry_space_group_name_H-M "P 2/M"
_symmetry_group_IT_number 10
_symmetry_cell_setting 'monoclinic'
loop_
_space_group_symop_operation_xyz
x,y,z
-x,y,-z
-x,-y,-z
x,-y,z
loop_
_atom_site_type_symbol
_atom_site_label
_atom_site_fract_x
_atom_site_fract_y
_atom_site_fract_z
Si Si1 0.857549 0.206154 0.975258
Si Si2 0.437590 0.197722 0.942918
Si Si3 0.131799 0.796408 0.676246
Si Si4 0.292402 0.294561 0.070087
Si Si5 0.696744 0.701150 0.578206
Si Si6 0.571057 0.298218 0.756930
Si Si7 0.996431 0.208471 0.152196
O O1 0.871555 0.266346 0.170971
O O2 0.922559 0.261632 0.040361
O O3 0.856278 0.000000 0.972977
O O4 0.778109 0.266850 0.732858
O O5 0.362729 0.215091 0.670554
O O6 0.454776 0.000000 0.008716
O O7 0.500000 0.272137 0.000000
O O8 0.433109 0.275634 0.086501
O O9 0.066249 0.732492 0.415800
O O10 0.124290 0.000000 0.663671
O O11 0.211852 0.758018 0.823925
O O12 0.292804 0.500000 0.073719
O O13 0.306219 0.236715 0.266615
O O14 0.355306 0.231036 0.126597
O O15 0.682437 0.500000 0.542334
O O16 0.500000 0.227342 0.500000
O O17 0.572012 0.500000 0.730801
O O18 0.996993 0.000000 0.154919
O O19 0.000000 0.263250 0.000000
#
# Coordination Sequence:
#
# PCOD9150349 Si02
#       7
#     4   4   4   4   4   4   4
#     4   9  17  31  51  74 102 134 171 216 262 310
#     4  11  24  39  56  81 111 141 176 219 264 310
#     4   9  17  30  50  74 100 135 174 211 259 316
#     4   9  19  35  55  80 107 136 174 220 266 314
#     4  10  20  36  58  81 107 140 177 216 263 319
#     4  10  21  38  59  81 107 142 181 218 261 315
#     4   9  17  29  47  72 100 132 173 218 261 308
#
# _framework density 20.210716999999999
#
# number of rings (size 3 to 8) (size 9 to 14) (size 15 to 20)
#    0.000    2.429    0.000    2.143    0.000    6.571 
#    0.000    2.143    0.000    4.286    0.000    0.000 
#    0.000    0.000    0.000    0.000    0.000    0.000 
#
# Total GULP energy -156320.641777 kJ/mol
# GULP energy per Si atom -5582.880063 kJ/mol
# Density = 2.016472 g / cm^3
# Si number density = 20.210717 Si / 1000 Ang^3
#
#
#
# Elastic Constant Matrix: (Units=GPa)
#
#
# Indices 1 2 3 4 5 6 
#
# 1 170.8308 -6.1684 82.0106 0.0000 26.1178 0.0000
# 2 -6.1684 15.7910 -13.9582 0.0000 0.3903 0.0000
# 3 82.0106 -13.9582 135.1128 0.0000 13.0058 0.0000
# 4 0.0000 0.0000 0.0000 9.3200 0.0000 10.8856
# 5 26.1178 0.3903 13.0058 0.0000 21.2294 0.0000
# 6 0.0000 0.0000 0.0000 10.8856 0.0000 32.6439
#
#
#
# Elastic Compliance Matrix: (Units=1/GPa)
#
#
# Indices 1 2 3 4 5 6 
#
# 1 0.009579 -0.000487 -0.005028 0.000000 -0.008696 0.000000
# 2 -0.000487 0.070455 0.008120 0.000000 -0.005671 0.000000
# 3 -0.005028 0.008120 0.011382 0.000000 -0.000937 0.000000
# 4 0.000000 0.000000 0.000000 0.175748 0.000000 -0.058606
# 5 -0.008696 -0.005671 -0.000937 0.000000 0.058481 0.000000
# 6 0.000000 0.000000 0.000000 -0.058606 0.000000 0.050177
#
#
# Mechanical properties :
#
#
# Convention : Reuss Voigt Hill
#
# Bulk Modulus (GPa) = 10.34915 49.50028 29.92472
# Shear Modulus (GPa) = 12.41250 29.96202 21.18726
#
# Velocity S-wave (km/s) = 2.48090 3.85448 3.24129
# Velocity P-wave (km/s) = 3.65216 6.65993 5.37089
#
# Compressibility (1/GPa) = 0.09662627
#
# Stress axis : x y z
#
# Youngs Moduli (GPa) = 104.39190 14.19352 87.85815
#
# Poissons Ratio (x) = 0.00692 0.44172
# Poissons Ratio (y) = 0.05087 -0.71342
# Poissons Ratio (z) = 0.52485 -0.11525
#
# Static dielectric constant tensor:
#      x y z
#    x 1.704400 0.000000 0.011510 
#    y 0.000000 1.736280 0.000000 
#    z 0.011510 0.000000 1.681560 
# 
# From -- ./inp_files/37064.got.cif
#   From: 2010.05.17/outbox.cif.g08.bks.cpg/sg10_19_cif.got.tgz:37064.got - 2010.06.03 11:33:40.
