data_PCOD9150086
_publ_section_title
;
Structure prediction by ZEFSAII (Michael W. Deem and Ramdas Pophale) SiO2 
 PCOD9150086
Probable space group: P 2/M
;
_chemical_formula_sum "Si O2"
_cell_formula_units_Z 32
_cell_length_a 13.659740
_cell_length_b 9.203465
_cell_length_c 14.226825
_cell_angle_alpha 90.000000
_cell_angle_beta 119.531275
_cell_angle_gamma 90.000000
_cell_volume 1556.196218
_symmetry_space_group_name_H-M "P 2/M"
_symmetry_group_IT_number 10
_symmetry_cell_setting 'monoclinic'
loop_
_space_group_symop_operation_xyz
x,y,z
-x,y,-z
-x,-y,-z
x,-y,z
loop_
_atom_site_type_symbol
_atom_site_label
_atom_site_fract_x
_atom_site_fract_y
_atom_site_fract_z
Si Si1 0.756348 0.329192 0.960362
Si Si2 0.075074 0.172587 0.820412
Si Si3 0.497238 0.330016 0.891150
Si Si4 0.604273 0.834100 0.624165
Si Si5 0.000613 0.669556 0.391677
Si Si6 0.419597 0.826258 0.680545
Si Si7 0.739444 0.668363 0.541532
Si Si8 0.091667 0.334333 0.128496
O O1 0.788765 0.500000 0.985742
O O2 0.624875 0.319232 0.915267
O O3 0.797314 0.285855 0.875165
O O4 0.823599 0.237718 0.069593
O O5 0.073576 0.237572 0.715049
O O6 0.962700 0.230830 0.820224
O O7 0.077759 0.000000 0.821019
O O8 0.462978 0.500000 0.873164
O O9 0.420528 0.237929 0.785078
O O10 0.500000 0.280349 0.000000
O O11 0.500000 0.835717 0.500000
O O12 0.539271 0.788134 0.687375
O O13 0.698127 0.734310 0.621015
O O14 0.645112 0.000000 0.652604
O O15 0.965217 0.500000 0.372096
O O16 0.128484 0.678110 0.415053
O O17 0.000000 0.716993 0.500000
O O18 0.324372 0.755662 0.570628
O O19 0.409884 0.000000 0.674676
O O20 0.705338 0.500000 0.521421
O O21 0.104172 0.500000 0.171060
O O22 0.000000 0.338379 0.000000
#
# Coordination Sequence:
#
# PCOD9150086 Si02
#       8
#     4   4   4   4   4   4   4   4
#     4   9  19  37  59  81 110 147 182 222 270 319
#     4  11  22  35  56  85 114 142 175 223 277 327
#     4  10  22  39  58  81 108 142 189 235 268 310
#     4   8  16  32  53  80 113 145 174 210 268 332
#     4  10  23  42  59  76 104 145 190 229 267 319
#     4  10  21  37  57  81 114 150 177 215 274 331
#     4  10  20  35  59  86 108 138 182 228 270 317
#     4   8  15  31  55  81 109 142 179 217 264 324
#
# _framework density 20.56296
#
# number of rings (size 3 to 8) (size 9 to 14) (size 15 to 20)
#    0.000    2.500    0.000    3.375    0.000    9.000 
#    0.000    8.750    0.000    0.000    0.000    0.000 
#    0.000    0.000    0.000    0.000    0.000    0.000 
#
# Total GULP energy -178744.540294 kJ/mol
# GULP energy per Si atom -5585.766884 kJ/mol
# Density = 2.051616 g / cm^3
# Si number density = 20.562960 Si / 1000 Ang^3
#
#
#
# Elastic Constant Matrix: (Units=GPa)
#
#
# Indices 1 2 3 4 5 6 
#
# 1 10.4547 6.3269 0.6950 0.0000 -7.2571 0.0000
# 2 6.3269 75.3298 56.0281 0.0000 -6.9315 0.0000
# 3 0.6950 56.0281 116.0855 0.0000 -25.8740 0.0000
# 4 0.0000 0.0000 0.0000 -7.5279 0.0000 -5.0150
# 5 -7.2571 -6.9315 -25.8740 0.0000 27.7762 0.0000
# 6 0.0000 0.0000 0.0000 -5.0150 0.0000 4.3758
#
#
#
# Elastic Compliance Matrix: (Units=1/GPa)
#
#
# Indices 1 2 3 4 5 6 
#
# 1 0.145640 -0.024181 0.022635 0.000000 0.053101 0.000000
# 2 -0.024181 0.025343 -0.015252 0.000000 -0.014201 0.000000
# 3 0.022635 -0.015252 0.020584 0.000000 0.021282 0.000000
# 4 0.000000 0.000000 0.000000 -0.075327 0.000000 -0.086331
# 5 0.053101 -0.014201 0.021282 0.000000 0.066156 0.000000
# 6 0.000000 0.000000 0.000000 -0.086331 0.000000 0.129587
#
#
# Mechanical properties :
#
#
# Convention : Reuss Voigt Hill
#
# Bulk Modulus (GPa) = 6.33035 36.44111 21.38573
# Shear Modulus (GPa) = 12.55532 14.17951 13.36742
#
# Velocity S-wave (km/s) = 2.47367 2.62881 2.55242
# Velocity P-wave (km/s) = 3.35320 5.19368 4.37140
#
# Compressibility (1/GPa) = 0.15796908
#
# Stress axis : x y z
#
# Youngs Moduli (GPa) = 6.86626 39.45786 48.58213
#
# Poissons Ratio (x) = 0.95413 -1.09963
# Poissons Ratio (y) = 0.16603 0.74099
# Poissons Ratio (z) = -0.15541 0.60183
#
# Static dielectric constant tensor:
#      x y z
#    x 1.758400 0.000000 -0.001600 
#    y 0.000000 1.692910 0.000000 
#    z -0.001600 0.000000 1.756410 
# 
# From -- ./inp_files/66589.got.cif
#   From: 2010.05.17/outbox.cif.g08.bks.cpg/sg10_34_cif.got.tgz:66589.got - 2010.06.03 11:33:40.
