data_PCOD9150410
_publ_section_title
;
Structure prediction by ZEFSAII (Michael W. Deem and Ramdas Pophale) SiO2 
 PCOD9150410
Probable space group: P 2/M
;
_chemical_formula_sum "Si O2"
_cell_formula_units_Z 32
_cell_length_a 11.662377
_cell_length_b 13.167173
_cell_length_c 11.846782
_cell_angle_alpha 90.000000
_cell_angle_beta 102.218227
_cell_angle_gamma 90.000000
_cell_volume 1777.990835
_symmetry_space_group_name_H-M "P 2/M"
_symmetry_group_IT_number 10
_symmetry_cell_setting 'monoclinic'
loop_
_space_group_symop_operation_xyz
x,y,z
-x,y,-z
-x,-y,-z
x,-y,z
loop_
_atom_site_type_symbol
_atom_site_label
_atom_site_fract_x
_atom_site_fract_y
_atom_site_fract_z
Si Si1 0.723469 0.382025 0.404478
Si Si2 0.846378 0.737758 0.228397
Si Si3 0.694037 0.114922 0.051182
Si Si4 0.971665 0.619658 0.866821
Si Si5 0.957692 0.119274 0.621493
Si Si6 0.515352 0.269320 0.625813
Si Si7 0.212867 0.292440 0.347519
Si Si8 0.476200 0.113032 0.178024
O O1 0.738410 0.500000 0.378772
O O2 0.773494 0.308004 0.317721
O O3 0.584912 0.355688 0.390966
O O4 0.789428 0.357896 0.536710
O O5 0.773182 0.797763 0.119086
O O6 0.915053 0.645802 0.184407
O O7 0.940821 0.820061 0.291578
O O8 0.582395 0.110264 0.111448
O O9 0.745463 0.000000 0.060789
O O10 0.640968 0.137970 0.917139
O O11 0.949468 0.500000 0.869302
O O12 0.866067 0.669365 0.773057
O O13 0.000000 0.657478 0.000000
O O14 0.839057 0.182567 0.624637
O O15 0.000000 0.125116 0.500000
O O16 0.947942 0.000000 0.648925
O O17 0.500000 0.219145 0.500000
O O18 0.651714 0.297885 0.660947
O O19 0.492960 0.192184 0.720958
O O20 0.461878 0.000000 0.222426
#
# Coordination Sequence:
#
# PCOD9150410 Si02
#       8
#     4   4   4   4   4   4   4   4
#     4  11  22  38  60  88 113 146 197 244 286 340
#     4  11  20  36  61  85 114 149 187 241 285 333
#     4   9  18  33  58  83 109 147 188 227 278 341
#     4  10  23  40  58  83 112 151 197 237 285 340
#     4  10  20  36  58  85 116 147 186 235 287 340
#     4  10  22  37  56  85 118 152 186 233 291 344
#     4  10  22  39  60  82 116 156 189 234 294 335
#     4   9  18  34  55  82 113 148 186 224 275 341
#
# _framework density 17.997844000000001
#
# number of rings (size 3 to 8) (size 9 to 14) (size 15 to 20)
#    0.000    2.000    2.500    1.875    1.750    3.500 
#    0.000    3.750    0.000    2.625    0.000    0.000 
#    0.000    0.000    0.000    0.000    0.000    0.000 
#
# Total GULP energy -178251.178768 kJ/mol
# GULP energy per Si atom -5570.349336 kJ/mol
# Density = 1.795688 g / cm^3
# Si number density = 17.997844 Si / 1000 Ang^3
#
#
#
# Elastic Constant Matrix: (Units=GPa)
#
#
# Indices 1 2 3 4 5 6 
#
# 1 73.0302 14.6966 21.8984 0.0000 9.9947 0.0000
# 2 14.6966 83.3123 36.3797 0.0000 11.2950 0.0000
# 3 21.8984 36.3797 90.2483 0.0000 9.4515 0.0000
# 4 0.0000 0.0000 0.0000 23.2315 0.0000 3.0307
# 5 9.9947 11.2950 9.4515 0.0000 25.0313 0.0000
# 6 0.0000 0.0000 0.0000 3.0307 0.0000 12.5847
#
#
#
# Elastic Compliance Matrix: (Units=1/GPa)
#
#
# Indices 1 2 3 4 5 6 
#
# 1 0.015369 -0.000804 -0.002915 0.000000 -0.004673 0.000000
# 2 -0.000804 0.015121 -0.005434 0.000000 -0.004450 0.000000
# 3 -0.002915 -0.005434 0.014160 0.000000 -0.001730 0.000000
# 4 0.000000 0.000000 0.000000 0.044441 0.000000 -0.010702
# 5 -0.004673 -0.004450 -0.001730 0.000000 0.044477 0.000000
# 6 0.000000 0.000000 0.000000 -0.010702 0.000000 0.082039
#
#
# Mechanical properties :
#
#
# Convention : Reuss Voigt Hill
#
# Bulk Modulus (GPa) = 37.96339 43.61560 40.78949
# Shear Modulus (GPa) = 20.60196 23.74391 22.17293
#
# Velocity S-wave (km/s) = 3.38700 3.63611 3.51376
# Velocity P-wave (km/s) = 6.03612 6.47416 6.25897
#
# Compressibility (1/GPa) = 0.02634117
#
# Stress axis : x y z
#
# Youngs Moduli (GPa) = 65.06791 66.13232 70.62273
#
# Poissons Ratio (x) = 0.05320 0.20590
# Poissons Ratio (y) = 0.05235 0.38378
# Poissons Ratio (z) = 0.18970 0.35938
#
# Static dielectric constant tensor:
#      x y z
#    x 1.639570 0.000000 0.007360 
#    y 0.000000 1.600490 0.000000 
#    z 0.007360 0.000000 1.628200 
# 
# From -- ./inp_files/47021.got.cif
#   From: 2010.05.17/outbox.cif.g08.bks.cpg/sg10_24_cif.got.tgz:47021.got - 2010.06.03 11:33:40.
