data_PCOD9150206
_publ_section_title
;
Structure prediction by ZEFSAII (Michael W. Deem and Ramdas Pophale) SiO2 
 PCOD9150206
Probable space group: P 2/M
;
_chemical_formula_sum "Si O2"
_cell_formula_units_Z 24
_cell_length_a 10.456682
_cell_length_b 14.669480
_cell_length_c 14.385121
_cell_angle_alpha 90.000000
_cell_angle_beta 34.774549
_cell_angle_gamma 90.000000
_cell_volume 1258.527288
_symmetry_space_group_name_H-M "P 2/M"
_symmetry_group_IT_number 10
_symmetry_cell_setting 'monoclinic'
loop_
_space_group_symop_operation_xyz
x,y,z
-x,y,-z
-x,-y,-z
x,-y,z
loop_
_atom_site_type_symbol
_atom_site_label
_atom_site_fract_x
_atom_site_fract_y
_atom_site_fract_z
Si Si1 0.878380 0.399949 0.420144
Si Si2 0.394939 0.238925 0.862441
Si Si3 0.884255 0.222400 0.654192
Si Si4 0.745966 0.103986 0.902666
Si Si5 0.428347 0.697124 0.645573
Si Si6 0.955409 0.395860 0.888293
O O1 0.901645 0.500000 0.448787
O O2 0.618299 0.377842 0.555718
O O3 0.979297 0.315121 0.413770
O O4 0.007669 0.399654 0.244647
O O5 0.632229 0.245307 0.773442
O O6 0.429269 0.232513 0.731037
O O7 0.273387 0.155433 0.987403
O O8 0.250172 0.330053 0.965478
O O9 0.887826 0.165411 0.746827
O O10 0.000000 0.169514 0.500000
O O11 0.822906 0.000000 0.865363
O O12 0.500000 0.101612 0.000000
O O13 0.500000 0.732313 0.500000
O O14 0.184949 0.650259 0.787273
O O15 0.926947 0.500000 0.937857
#
# Coordination Sequence:
#
# PCOD9150206 Si02
#       6
#     4   4   4   4   4   4
#     4  10  20  36  55  82 121 161 192 231 283 338
#     4  11  21  36  60  85 115 149 191 243 290 340
#     4  11  21  37  58  87 121 148 188 234 291 354
#     4   9  20  39  63  88 114 144 184 238 300 354
#     4  10  21  37  56  80 114 161 200 238 269 324
#     4  10  21  36  56  82 114 158 207 240 271 327
#
# _framework density 19.069908999999999
#
# number of rings (size 3 to 8) (size 9 to 14) (size 15 to 20)
#    0.000    1.833    3.333    1.000    0.000    5.333 
#    0.000    1.667    0.000    2.500    0.000    0.000 
#    0.000    0.000    0.000    0.000    0.000    0.000 
#
# Total GULP energy -133871.347865 kJ/mol
# GULP energy per Si atom -5577.972828 kJ/mol
# Density = 1.902651 g / cm^3
# Si number density = 19.069909 Si / 1000 Ang^3
#
#
#
# Elastic Constant Matrix: (Units=GPa)
#
#
# Indices 1 2 3 4 5 6 
#
# 1 66.7470 36.9646 31.4552 0.0000 16.2640 0.0000
# 2 36.9646 96.5143 43.2171 0.0000 24.0982 0.0000
# 3 31.4552 43.2171 92.2697 0.0000 10.6286 0.0000
# 4 0.0000 0.0000 0.0000 -65.5244 0.0000 -2.8905
# 5 16.2640 24.0982 10.6286 0.0000 42.0884 0.0000
# 6 0.0000 0.0000 0.0000 -2.8905 0.0000 11.2392
#
#
#
# Elastic Compliance Matrix: (Units=1/GPa)
#
#
# Indices 1 2 3 4 5 6 
#
# 1 0.020765 -0.005033 -0.004253 0.000000 -0.004069 0.000000
# 2 -0.005033 0.016073 -0.005126 0.000000 -0.005964 0.000000
# 3 -0.004253 -0.005126 0.014585 0.000000 0.000895 0.000000
# 4 0.000000 0.000000 0.000000 -0.015090 0.000000 -0.003881
# 5 -0.004069 -0.005964 0.000895 0.000000 0.028520 0.000000
# 6 0.000000 0.000000 0.000000 -0.003881 0.000000 0.087976
#
#
# Mechanical properties :
#
#
# Convention : Reuss Voigt Hill
#
# Bulk Modulus (GPa) = 44.24684 53.20054 48.72369
# Shear Modulus (GPa) = 26.42926 7.15359 16.79142
#
# Velocity S-wave (km/s) = 3.72683 1.93891 2.97057
# Velocity P-wave (km/s) = 6.46311 5.74201 6.11320
#
# Compressibility (1/GPa) = 0.02260048
#
# Stress axis : x y z
#
# Youngs Moduli (GPa) = 48.15892 62.21722 68.56238
#
# Poissons Ratio (x) = 0.31311 0.29159
# Poissons Ratio (y) = 0.24236 0.35142
# Poissons Ratio (z) = 0.20482 0.31890
#
# Static dielectric constant tensor:
#      x y z
#    x 1.692240 0.000000 0.038620 
#    y 0.000000 1.632490 0.000000 
#    z 0.038620 0.000000 1.712350 
# 
# From -- ./inp_files/51682.got.cif
#   From: 2010.05.17/outbox.cif.g08.bks.cpg/sg10_26_cif.got.tgz:51682.got - 2010.06.03 11:33:40.
