data_PCOD9150770
_publ_section_title
;
Structure prediction by ZEFSAII (Michael W. Deem and Ramdas Pophale) SiO2 
 PCOD9150770
Probable space group: P 2/M
;
_chemical_formula_sum "Si O2"
_cell_formula_units_Z 16
_cell_length_a 8.120446
_cell_length_b 19.739350
_cell_length_c 5.011794
_cell_angle_alpha 90.000000
_cell_angle_beta 56.618014
_cell_angle_gamma 90.000000
_cell_volume 670.815803
_symmetry_space_group_name_H-M "P 2/M"
_symmetry_group_IT_number 10
_symmetry_cell_setting 'monoclinic'
loop_
_space_group_symop_operation_xyz
x,y,z
-x,y,-z
-x,-y,-z
x,-y,z
loop_
_atom_site_type_symbol
_atom_site_label
_atom_site_fract_x
_atom_site_fract_y
_atom_site_fract_z
Si Si1 0.206589 0.265765 0.905574
Si Si2 0.281061 0.354261 0.322276
Si Si3 0.500000 0.160854 0.500000
Si Si4 0.648286 0.500000 0.620991
Si Si5 0.135045 0.078465 0.616113
O O1 0.370266 0.209143 0.808452
O O2 0.338065 0.117227 0.488825
O O3 0.169162 0.316764 0.182050
O O4 0.000000 0.233643 0.000000
O O5 0.277823 0.309147 0.588585
O O6 0.229574 0.430559 0.459727
O O7 0.500000 0.357428 0.000000
O O8 0.500000 0.500000 0.500000
O O9 0.500000 0.500000 0.000000
O O10 0.000000 0.107864 0.500000
O O11 0.181685 0.000000 0.505094
O O12 0.000000 0.077686 0.000000
#
# Coordination Sequence:
#
# PCOD9150770 Si02
#       5
#     4   4   2   2   4
#     4  12  26  42  64  98 140 178 231 285 338 417
#     4  11  21  44  65  96 130 177 227 289 349 411
#     4  12  25  46  72  99 144 196 234 270 366 409
#     4  10  20  36  71  98 123 171 234 285 348 421
#     4  10  24  46  73 108 142 178 235 294 340 407
#
# _framework density 23.851552999999999
#
# number of rings (size 3 to 8) (size 9 to 14) (size 15 to 20)
#    0.000    1.000    2.500    4.875    0.000    7.000 
#    0.000    7.500    0.000    0.000    0.000    0.000 
#    0.000    0.000    0.000    0.000    0.000    0.000 
#
# Total GULP energy -89554.427365 kJ/mol
# GULP energy per Si atom -5597.151710 kJ/mol
# Density = 2.379727 g / cm^3
# Si number density = 23.851553 Si / 1000 Ang^3
#
#
#
# Elastic Constant Matrix: (Units=GPa)
#
#
# Indices 1 2 3 4 5 6 
#
# 1 186.4726 85.0475 44.8841 0.0000 12.7660 0.0000
# 2 85.0475 144.8986 28.4218 0.0000 3.9867 0.0000
# 3 44.8841 28.4218 119.3273 0.0000 24.2843 0.0000
# 4 0.0000 0.0000 0.0000 -5.5442 0.0000 29.3235
# 5 12.7660 3.9867 24.2843 0.0000 47.1014 0.0000
# 6 0.0000 0.0000 0.0000 29.3235 0.0000 -4.4002
#
#
#
# Elastic Compliance Matrix: (Units=1/GPa)
#
#
# Indices 1 2 3 4 5 6 
#
# 1 0.007748 -0.004182 -0.001746 0.000000 -0.000846 0.000000
# 2 -0.004182 0.009501 -0.000846 0.000000 0.000765 0.000000
# 3 -0.001746 -0.000846 0.010198 0.000000 -0.004713 0.000000
# 4 0.000000 0.000000 0.000000 0.005267 0.000000 0.035098
# 5 -0.000846 0.000765 -0.004713 0.000000 0.023825 0.000000
# 6 0.000000 0.000000 0.000000 0.035098 0.000000 0.006636
#
#
# Mechanical properties :
#
#
# Convention : Reuss Voigt Hill
#
# Bulk Modulus (GPa) = 71.94803 85.26724 78.60763
# Shear Modulus (GPa) = 61.45871 26.92107 44.18989
#
# Velocity S-wave (km/s) = 5.08164 3.36325 4.30898
# Velocity P-wave (km/s) = 8.04122 7.13503 7.60164
#
# Compressibility (1/GPa) = 0.01389892
#
# Stress axis : x y z
#
# Youngs Moduli (GPa) = 129.06046 105.25409 98.06165
#
# Poissons Ratio (x) = 0.44018 0.17124
# Poissons Ratio (y) = 0.53973 0.08293
# Poissons Ratio (z) = 0.22537 0.08901
#
# Static dielectric constant tensor:
#      x y z
#    x 1.897270 0.000000 0.026990 
#    y 0.000000 1.970920 0.000000 
#    z 0.026990 0.000000 1.827490 
# 
# From -- ./inp_files/3712.got.cif
#   From: 2010.05.17/outbox.cif.g08.bks.cpg/sg10_2_cif.got.tgz:3712.got - 2010.06.03 11:33:40.
