data_PCOD9150339
_publ_section_title
;
Structure prediction by ZEFSAII (Michael W. Deem and Ramdas Pophale) SiO2 
 PCOD9150339
Probable space group: P 2/M
;
_chemical_formula_sum "Si O2"
_cell_formula_units_Z 28
_cell_length_a 20.582221
_cell_length_b 8.751409
_cell_length_c 24.679886
_cell_angle_alpha 90.000000
_cell_angle_beta 158.072897
_cell_angle_gamma 90.000000
_cell_volume 1660.040433
_symmetry_space_group_name_H-M "P 2/M"
_symmetry_group_IT_number 10
_symmetry_cell_setting 'monoclinic'
loop_
_space_group_symop_operation_xyz
x,y,z
-x,y,-z
-x,-y,-z
x,-y,z
loop_
_atom_site_type_symbol
_atom_site_label
_atom_site_fract_x
_atom_site_fract_y
_atom_site_fract_z
Si Si1 0.299863 0.817114 0.487255
Si Si2 0.403643 0.682448 0.979170
Si Si3 0.646089 0.182759 0.949798
Si Si4 0.997739 0.184506 0.061843
Si Si5 0.947876 0.319202 0.244470
Si Si6 0.616981 0.814147 0.806772
Si Si7 0.309178 0.683018 0.374304
O O1 0.128728 0.766432 0.387607
O O2 0.472220 0.762817 0.652145
O O3 0.287964 0.746760 0.418404
O O4 0.304717 0.000000 0.486608
O O5 0.569714 0.500000 0.995712
O O6 0.194059 0.707946 0.817590
O O7 0.500000 0.737559 0.000000
O O8 0.458697 0.759355 0.078547
O O9 0.577276 0.230356 0.837989
O O10 0.660456 0.000000 0.962671
O O11 0.837401 0.255318 0.107799
O O12 0.158284 0.254284 0.218665
O O13 0.008920 0.000000 0.074879
O O14 0.000000 0.223727 0.000000
O O15 0.811599 0.234173 0.941849
O O16 0.975263 0.500000 0.260293
O O17 0.616139 0.000000 0.804511
O O18 0.500000 0.728594 0.500000
O O19 0.300242 0.500000 0.368666
#
# Coordination Sequence:
#
# PCOD9150339 Si02
#       7
#     4   4   4   4   4   4   4
#     4  11  21  35  55  76 102 138 177 216 261 311
#     4   8  16  31  51  76 108 140 172 215 263 312
#     4   9  16  29  50  76 103 133 173 215 257 305
#     4  10  20  36  58  80 103 135 177 219 261 311
#     4   9  18  32  50  76 106 134 169 211 258 310
#     4   9  19  33  50  75 105 134 170 218 263 307
#     4  11  24  39  54  76 107 139 174 218 266 314
#
# _framework density 16.867059000000001
#
# number of rings (size 3 to 8) (size 9 to 14) (size 15 to 20)
#    0.857    1.571    0.000    3.000    0.000    4.000 
#    0.000    4.286    0.000    0.857    0.000    6.000 
#    0.000    0.000    0.000    0.000    0.000    0.000 
#
# Total GULP energy -155915.361171 kJ/mol
# GULP energy per Si atom -5568.405756 kJ/mol
# Density = 1.682867 g / cm^3
# Si number density = 16.867059 Si / 1000 Ang^3
#
#
#
# Elastic Constant Matrix: (Units=GPa)
#
#
# Indices 1 2 3 4 5 6 
#
# 1 132.3291 33.5805 68.2943 0.0000 -6.2198 0.0000
# 2 33.5805 27.7739 31.2969 0.0000 -0.9493 0.0000
# 3 68.2943 31.2969 133.7860 0.0000 -9.6114 0.0000
# 4 0.0000 0.0000 0.0000 -27.0209 0.0000 24.3983
# 5 -6.2198 -0.9493 -9.6114 0.0000 21.5747 0.0000
# 6 0.0000 0.0000 0.0000 24.3983 0.0000 11.0244
#
#
#
# Elastic Compliance Matrix: (Units=1/GPa)
#
#
# Indices 1 2 3 4 5 6 
#
# 1 0.012191 -0.010584 -0.003645 0.000000 0.001425 0.000000
# 2 -0.010584 0.058276 -0.008538 0.000000 -0.004291 0.000000
# 3 -0.003645 -0.008538 0.011601 0.000000 0.003742 0.000000
# 4 0.000000 0.000000 0.000000 -0.012343 0.000000 0.027317
# 5 0.001425 -0.004291 0.003742 0.000000 0.048240 0.000000
# 6 0.000000 0.000000 0.000000 0.027317 0.000000 0.030253
#
#
# Mechanical properties :
#
#
# Convention : Reuss Voigt Hill
#
# Bulk Modulus (GPa) = 27.37123 62.24806 44.80964
# Shear Modulus (GPa) = 24.28024 11.83012 18.05518
#
# Velocity S-wave (km/s) = 3.79820 2.65122 3.27531
# Velocity P-wave (km/s) = 5.95801 6.80861 6.39747
#
# Compressibility (1/GPa) = 0.03653471
#
# Stress axis : x y z
#
# Youngs Moduli (GPa) = 82.02965 17.15980 86.19640
#
# Poissons Ratio (x) = 0.18161 0.31417
# Poissons Ratio (y) = 0.86816 0.73596
# Poissons Ratio (z) = 0.29899 0.14651
#
# Static dielectric constant tensor:
#      x y z
#    x 1.583630 0.000000 0.011970 
#    y 0.000000 1.568800 0.000000 
#    z 0.011970 0.000000 1.556820 
# 
# From -- ./inp_files/90410.got.cif
#   From: 2010.05.17/outbox.cif.g08.bks.cpg/sg10_46_cif.got.tgz:90410.got - 2010.06.03 11:33:40.
