data_PCOD9150468
_publ_section_title
;
Structure prediction by ZEFSAII (Michael W. Deem and Ramdas Pophale) SiO2 
 PCOD9150468
Probable space group: P 2/M
;
_chemical_formula_sum "Si O2"
_cell_formula_units_Z 28
_cell_length_a 11.301160
_cell_length_b 7.551873
_cell_length_c 15.230883
_cell_angle_alpha 90.000000
_cell_angle_beta 66.326205
_cell_angle_gamma 90.000000
_cell_volume 1190.489021
_symmetry_space_group_name_H-M "P 2/M"
_symmetry_group_IT_number 10
_symmetry_cell_setting 'monoclinic'
loop_
_space_group_symop_operation_xyz
x,y,z
-x,y,-z
-x,-y,-z
x,-y,z
loop_
_atom_site_type_symbol
_atom_site_label
_atom_site_fract_x
_atom_site_fract_y
_atom_site_fract_z
Si Si1 0.244948 0.787882 0.651902
Si Si2 0.041555 0.295389 0.256401
Si Si3 0.397372 0.202221 0.760208
Si Si4 0.381452 0.290177 0.436125
Si Si5 0.126296 0.716598 0.410675
Si Si6 0.901614 0.286023 0.952591
Si Si7 0.407227 0.211626 0.948545
O O1 0.106439 0.712306 0.667594
O O2 0.280839 0.716167 0.738244
O O3 0.352701 0.743229 0.547012
O O4 0.235015 0.000000 0.658199
O O5 0.080528 0.500000 0.235834
O O6 0.124783 0.218369 0.310994
O O7 0.052129 0.217593 0.156461
O O8 0.508164 0.200913 0.653983
O O9 0.440880 0.280188 0.840076
O O10 0.358885 0.000000 0.790812
O O11 0.400993 0.500000 0.420128
O O12 0.250514 0.231741 0.427566
O O13 0.123082 0.500000 0.409411
O O14 0.000000 0.776394 0.500000
O O15 0.910209 0.500000 0.952820
O O16 0.747955 0.243526 0.001226
O O17 0.000000 0.222037 0.000000
O O18 0.427446 0.000000 0.944079
O O19 0.500000 0.281431 0.000000
#
# Coordination Sequence:
#
# PCOD9150468 Si02
#       7
#     4   4   4   4   4   4   4
#     4  11  22  37  57  84 118 154 190 232 287 347
#     4  10  20  36  59  83 115 151 187 235 288 343
#     4  10  23  41  58  80 116 155 190 237 292 344
#     4  11  22  36  59  86 113 150 195 236 283 346
#     4   9  17  33  54  78 110 146 181 226 281 335
#     4  10  22  39  62  93 123 153 198 255 307 357
#     4  10  23  43  64  87 120 161 205 253 304 360
#
# _framework density 23.519746000000001
#
# number of rings (size 3 to 8) (size 9 to 14) (size 15 to 20)
#    0.000    1.857    1.429    2.143    2.000    4.571 
#    0.000    2.143    0.000    0.000    0.000    0.000 
#    0.000    0.000    0.000    0.000    0.000    0.000 
#
# Total GULP energy -156289.545085 kJ/mol
# GULP energy per Si atom -5581.769467 kJ/mol
# Density = 2.346621 g / cm^3
# Si number density = 23.519746 Si / 1000 Ang^3
#
#
#
# Elastic Constant Matrix: (Units=GPa)
#
#
# Indices 1 2 3 4 5 6 
#
# 1 116.3405 -10.4652 59.1818 0.0000 38.4225 0.0000
# 2 -10.4652 68.8280 -4.8011 0.0000 12.0128 0.0000
# 3 59.1818 -4.8011 156.9888 0.0000 42.5478 0.0000
# 4 0.0000 0.0000 0.0000 9.1263 0.0000 -7.9162
# 5 38.4225 12.0128 42.5478 0.0000 51.4151 0.0000
# 6 0.0000 0.0000 0.0000 -7.9162 0.0000 20.7415
#
#
#
# Elastic Compliance Matrix: (Units=1/GPa)
#
#
# Indices 1 2 3 4 5 6 
#
# 1 0.012917 0.003243 -0.002512 0.000000 -0.008331 0.000000
# 2 0.003243 0.016382 0.001254 0.000000 -0.007288 0.000000
# 3 -0.002512 0.001254 0.008928 0.000000 -0.005804 0.000000
# 4 0.000000 0.000000 0.000000 0.163801 0.000000 0.062517
# 5 -0.008331 -0.007288 -0.005804 0.000000 0.032182 0.000000
# 6 0.000000 0.000000 0.000000 0.062517 0.000000 0.072073
#
#
# Mechanical properties :
#
#
# Convention : Reuss Voigt Hill
#
# Bulk Modulus (GPa) = 23.69923 47.77648 35.73786
# Shear Modulus (GPa) = 15.80386 36.13935 25.97161
#
# Velocity S-wave (km/s) = 2.59499 3.92414 3.32663
# Velocity P-wave (km/s) = 4.36770 6.39447 5.47568
#
# Compressibility (1/GPa) = 0.04219546
#
# Stress axis : x y z
#
# Youngs Moduli (GPa) = 77.42002 61.04423 112.00326
#
# Poissons Ratio (x) = -0.19795 0.28137
# Poissons Ratio (y) = -0.25106 -0.14043
# Poissons Ratio (z) = 0.19449 -0.07654
#
# Static dielectric constant tensor:
#      x y z
#    x 1.896790 0.000000 0.034550 
#    y 0.000000 1.873530 0.000000 
#    z 0.034550 0.000000 1.913140 
# 
# From -- ./inp_files/63401.got.cif
#   From: 2010.05.17/outbox.cif.g08.bks.cpg/sg10_32_cif.got.tgz:63401.got - 2010.06.03 11:33:40.
