data_PCOD9150701
_publ_section_title
;
Structure prediction by ZEFSAII (Michael W. Deem and Ramdas Pophale) SiO2 
 PCOD9150701
Probable space group: P 2/M
;
_chemical_formula_sum "Si O2"
_cell_formula_units_Z 24
_cell_length_a 10.294326
_cell_length_b 13.461473
_cell_length_c 11.777330
_cell_angle_alpha 90.000000
_cell_angle_beta 38.564309
_cell_angle_gamma 90.000000
_cell_volume 1017.417073
_symmetry_space_group_name_H-M "P 2/M"
_symmetry_group_IT_number 10
_symmetry_cell_setting 'monoclinic'
loop_
_space_group_symop_operation_xyz
x,y,z
-x,y,-z
-x,-y,-z
x,-y,z
loop_
_atom_site_type_symbol
_atom_site_label
_atom_site_fract_x
_atom_site_fract_y
_atom_site_fract_z
Si Si1 0.051438 0.783605 0.157535
Si Si2 0.392655 0.110470 0.774906
Si Si3 0.664826 0.310733 0.299974
Si Si4 0.329657 0.610474 0.962736
Si Si5 0.776075 0.394501 0.595301
Si Si6 0.828353 0.171560 0.519368
O O1 0.888945 0.713498 0.201087
O O2 0.934789 0.852562 0.327277
O O3 0.194056 0.853596 0.982492
O O4 0.209024 0.701336 0.102678
O O5 0.414910 0.199001 0.670899
O O6 0.612373 0.116974 0.691781
O O7 0.363855 0.000000 0.749950
O O8 0.500000 0.357894 0.500000
O O9 0.680312 0.366709 0.167957
O O10 0.246891 0.500000 0.043241
O O11 0.577662 0.610309 0.814848
O O12 0.750388 0.500000 0.549195
O O13 0.775336 0.288522 0.536857
O O14 0.000000 0.398469 0.500000
O O15 0.000000 0.161076 0.500000
#
# Coordination Sequence:
#
# PCOD9150701 Si02
#       6
#     4   4   4   4   4   4
#     4  11  23  41  63  91 129 162 206 262 307 367
#     4  11  24  43  65  94 123 159 209 257 318 376
#     4  11  21  40  64  93 129 164 207 254 308 374
#     4  10  20  36  61  96 133 168 206 249 308 372
#     4   9  17  34  60  88 123 163 204 246 292 358
#     4  11  23  43  66  89 125 168 208 257 314 366
#
# _framework density 23.589147000000001
#
# number of rings (size 3 to 8) (size 9 to 14) (size 15 to 20)
#    0.000    1.500    5.000    2.000    0.000    5.667 
#    0.000    0.833    0.000    5.000    0.000    0.000 
#    0.000    0.000    0.000    0.000    0.000    0.000 
#
# Total GULP energy -133955.681156 kJ/mol
# GULP energy per Si atom -5581.486715 kJ/mol
# Density = 2.353546 g / cm^3
# Si number density = 23.589147 Si / 1000 Ang^3
#
#
#
# Elastic Constant Matrix: (Units=GPa)
#
#
# Indices 1 2 3 4 5 6 
#
# 1 50.2858 -4.4232 28.2406 0.0000 -20.7333 0.0000
# 2 -4.4232 88.4554 -11.2824 0.0000 -9.3210 0.0000
# 3 28.2406 -11.2824 110.9209 0.0000 -18.3246 0.0000
# 4 0.0000 0.0000 0.0000 -2.8997 0.0000 -0.4535
# 5 -20.7333 -9.3210 -18.3246 0.0000 40.6062 0.0000
# 6 0.0000 0.0000 0.0000 -0.4535 0.0000 11.0332
#
#
#
# Elastic Compliance Matrix: (Units=1/GPa)
#
#
# Indices 1 2 3 4 5 6 
#
# 1 0.027974 0.002110 -0.004828 0.000000 0.012589 0.000000
# 2 0.002110 0.012067 0.001433 0.000000 0.004494 0.000000
# 3 -0.004828 0.001433 0.010846 0.000000 0.002758 0.000000
# 4 0.000000 0.000000 0.000000 -0.342665 0.000000 -0.014084
# 5 0.012589 0.004494 0.002758 0.000000 0.033331 0.000000
# 6 0.000000 0.000000 0.000000 -0.014084 0.000000 0.090056
#
#
# Mechanical properties :
#
#
# Convention : Reuss Voigt Hill
#
# Bulk Modulus (GPa) = 20.69738 30.52577 25.61158
# Shear Modulus (GPa) = -33.39681 25.55642 -3.92019
#
# Velocity S-wave (km/s) = -3.76675 3.29507 -1.29053
# Velocity P-wave (km/s) = 3.18194 5.23883 2.94284
#
# Compressibility (1/GPa) = 0.04831528
#
# Stress axis : x y z
#
# Youngs Moduli (GPa) = 35.74793 82.87156 92.19972
#
# Poissons Ratio (x) = -0.17482 0.44513
# Poissons Ratio (y) = -0.07541 -0.13209
# Poissons Ratio (z) = 0.17259 -0.11873
#
# Static dielectric constant tensor:
#      x y z
#    x 1.974900 0.000000 -0.027540 
#    y 0.000000 1.868520 0.000000 
#    z -0.027540 0.000000 1.968360 
# 
# From -- ./inp_files/51530.got.cif
#   From: 2010.05.17/outbox.cif.g08.bks.cpg/sg10_26_cif.got.tgz:51530.got - 2010.06.03 11:33:40.
