data_PCOD9150763
_publ_section_title
;
Structure prediction by ZEFSAII (Michael W. Deem and Ramdas Pophale) SiO2 
 PCOD9150763
Probable space group: P 2/M
;
_chemical_formula_sum "Si O2"
_cell_formula_units_Z 28
_cell_length_a 9.077192
_cell_length_b 21.674588
_cell_length_c 15.622384
_cell_angle_alpha 90.000000
_cell_angle_beta 151.187164
_cell_angle_gamma 90.000000
_cell_volume 1481.329423
_symmetry_space_group_name_H-M "P 2/M"
_symmetry_group_IT_number 10
_symmetry_cell_setting 'monoclinic'
loop_
_space_group_symop_operation_xyz
x,y,z
-x,y,-z
-x,-y,-z
x,-y,z
loop_
_atom_site_type_symbol
_atom_site_label
_atom_site_fract_x
_atom_site_fract_y
_atom_site_fract_z
Si Si1 0.663176 0.705058 0.992466
Si Si2 0.711747 0.928288 0.690871
Si Si3 0.359961 0.372624 0.692269
Si Si4 0.326608 0.851549 0.001182
Si Si5 0.293120 0.500000 0.084887
Si Si6 0.327366 0.357781 0.321881
Si Si7 0.772277 0.500000 0.709977
Si Si8 0.636724 0.928367 0.308143
O O1 0.452172 0.674327 0.813467
O O2 0.693815 0.778288 0.996264
O O3 0.500000 0.693402 0.000000
O O4 0.998272 0.674351 0.157761
O O5 0.500000 0.920910 0.500000
O O6 0.521239 0.917254 0.680593
O O7 0.816407 0.000000 0.746089
O O8 0.995474 0.882770 0.829801
O O9 0.516288 0.438247 0.797518
O O10 0.482965 0.342468 0.666541
O O11 0.000000 0.382668 0.500000
O O12 0.504969 0.883623 0.169503
O O13 0.500000 0.862937 0.000000
O O14 0.000000 0.500000 0.000000
O O15 0.146031 0.500000 0.913858
O O16 0.500000 0.347134 0.500000
O O17 0.285383 0.431100 0.286623
O O18 0.500000 0.500000 0.500000
O O19 0.000000 0.921134 0.500000
O O20 0.573657 0.000000 0.252532
#
# Coordination Sequence:
#
# PCOD9150763 Si02
#       8
#     4   4   4   4   2   4   2   4
#     4  11  25  44  61  86 120 161 209 255 301 358
#     4  10  21  38  62  93 126 158 198 248 302 363
#     4  12  24  40  64  93 124 162 201 249 306 364
#     4  11  24  40  61  87 121 161 205 252 302 358
#     4  12  19  40  64  93 127 156 199 250 304 365
#     4  11  22  41  66  89 122 160 199 251 307 364
#     4  10  20  36  65  94 123 156 198 248 307 363
#     4  10  21  38  62  92 124 158 198 247 301 357
#
# _framework density 18.901941000000001
#
# number of rings (size 3 to 8) (size 9 to 14) (size 15 to 20)
#    0.000    1.143    2.857    3.214    0.000    6.857 
#    0.000    2.857    0.000    0.000    0.000    0.000 
#    0.000    0.000    0.000    0.000    0.000    0.000 
#
# Total GULP energy -156182.545437 kJ/mol
# GULP energy per Si atom -5577.948051 kJ/mol
# Density = 1.885892 g / cm^3
# Si number density = 18.901941 Si / 1000 Ang^3
#
#
#
# Elastic Constant Matrix: (Units=GPa)
#
#
# Indices 1 2 3 4 5 6 
#
# 1 129.2631 88.3435 76.3364 0.0000 -4.1299 0.0000
# 2 88.3435 103.0276 70.4491 0.0000 -4.4902 0.0000
# 3 76.3364 70.4491 155.6148 0.0000 -3.3935 0.0000
# 4 0.0000 0.0000 0.0000 8.4963 0.0000 -23.3044
# 5 -4.1299 -4.4902 -3.3935 0.0000 39.9162 0.0000
# 6 0.0000 0.0000 0.0000 -23.3044 0.0000 1.3846
#
#
#
# Elastic Compliance Matrix: (Units=1/GPa)
#
#
# Indices 1 2 3 4 5 6 
#
# 1 0.019551 -0.014778 -0.002898 0.000000 0.000114 0.000000
# 2 -0.014778 0.025271 -0.004171 0.000000 0.000959 0.000000
# 3 -0.002898 -0.004171 0.009737 0.000000 0.000059 0.000000
# 4 0.000000 0.000000 0.000000 -0.002606 0.000000 -0.043860
# 5 0.000114 0.000959 0.000059 0.000000 0.025177 0.000000
# 6 0.000000 0.000000 0.000000 -0.043860 0.000000 -0.015991
#
#
# Mechanical properties :
#
#
# Convention : Reuss Voigt Hill
#
# Bulk Modulus (GPa) = 92.02563 95.35150 93.68856
# Shear Modulus (GPa) = 46.10193 20.14453 33.12323
#
# Velocity S-wave (km/s) = 4.94399 3.26811 4.19068
# Velocity P-wave (km/s) = 9.02121 8.04957 8.54920
#
# Compressibility (1/GPa) = 0.01086654
#
# Stress axis : x y z
#
# Youngs Moduli (GPa) = 51.14818 39.57051 102.69988
#
# Poissons Ratio (x) = 0.58477 0.29763
# Poissons Ratio (y) = 0.75586 0.42831
# Poissons Ratio (z) = 0.14823 0.16503
#
# Static dielectric constant tensor:
#      x y z
#    x 1.652180 0.000000 -0.032420 
#    y 0.000000 1.630300 0.000000 
#    z -0.032420 0.000000 1.660940 
# 
# From -- ./inp_files/62649.got.cif
#   From: 2010.05.17/outbox.cif.g08.bks.cpg/sg10_32_cif.got.tgz:62649.got - 2010.06.03 11:33:40.
