data_PCOD9150844
_publ_section_title
;
Structure prediction by ZEFSAII (Michael W. Deem and Ramdas Pophale) SiO2 
 PCOD9150844
Probable space group: P 2/M
;
_chemical_formula_sum "Si O2"
_cell_formula_units_Z 32
_cell_length_a 14.300327
_cell_length_b 14.777126
_cell_length_c 11.950969
_cell_angle_alpha 90.000000
_cell_angle_beta 39.973592
_cell_angle_gamma 90.000000
_cell_volume 1622.437207
_symmetry_space_group_name_H-M "P 2/M"
_symmetry_group_IT_number 10
_symmetry_cell_setting 'monoclinic'
loop_
_space_group_symop_operation_xyz
x,y,z
-x,y,-z
-x,-y,-z
x,-y,z
loop_
_atom_site_type_symbol
_atom_site_label
_atom_site_fract_x
_atom_site_fract_y
_atom_site_fract_z
Si Si1 0.154218 0.609579 0.304478
Si Si2 0.418964 0.185846 0.687383
Si Si3 0.663446 0.107514 0.631541
Si Si4 0.119440 0.893409 0.976167
Si Si5 0.325264 0.278477 0.970510
Si Si6 0.577999 0.400203 0.808121
Si Si7 0.707124 0.105883 0.848770
Si Si8 0.004370 0.891406 0.672637
O O1 0.168055 0.500000 0.273781
O O2 0.266434 0.636053 0.299661
O O3 0.000000 0.629135 0.500000
O O4 0.203686 0.663058 0.147996
O O5 0.500000 0.212676 0.500000
O O6 0.544735 0.151342 0.657682
O O7 0.287601 0.115569 0.785131
O O8 0.319312 0.258778 0.844696
O O9 0.639536 0.114444 0.787757
O O10 0.830415 0.143668 0.468908
O O11 0.661164 0.000000 0.607943
O O12 0.090846 0.000000 0.009994
O O13 0.081923 0.861083 0.136217
O O14 0.000000 0.854547 0.000000
O O15 0.475407 0.333578 0.838632
O O16 0.343699 0.185010 0.022484
O O17 0.588871 0.500000 0.747281
O O18 0.500000 0.409172 0.000000
O O19 0.882773 0.122940 0.687472
O O20 0.686541 0.000000 0.905202
O O21 0.023717 0.000000 0.653053
#
# Coordination Sequence:
#
# PCOD9150844 Si02
#       8
#     4   4   4   4   4   4   4   4
#     4   9  19  37  64  99 128 151 189 241 302 374
#     4  12  26  40  53  79 115 156 211 264 300 353
#     4  10  22  36  56  80 109 155 207 265 313 358
#     4  10  20  37  59  75  97 148 213 271 318 353
#     4  11  22  37  59  87 125 164 197 244 306 357
#     4   8  16  33  60  89 121 154 187 231 295 369
#     4  10  21  36  55  84 125 164 204 245 302 372
#     4   9  17  35  54  75 107 146 196 251 306 361
#
# _framework density 19.723413000000001
#
# number of rings (size 3 to 8) (size 9 to 14) (size 15 to 20)
#    0.000    2.125    1.250    2.625    5.250    5.000 
#    0.000    1.250    0.000    1.500    0.000    0.000 
#    0.000    5.000    0.000    0.000    0.000    0.000 
#
# Total GULP energy -178194.655362 kJ/mol
# GULP energy per Si atom -5568.582980 kJ/mol
# Density = 1.967852 g / cm^3
# Si number density = 19.723413 Si / 1000 Ang^3
#
#
#
# Elastic Constant Matrix: (Units=GPa)
#
#
# Indices 1 2 3 4 5 6 
#
# 1 95.0389 11.6529 29.7683 0.0000 -14.8988 0.0000
# 2 11.6529 36.3035 25.9714 0.0000 10.8150 0.0000
# 3 29.7683 25.9714 112.0960 0.0000 -9.3858 0.0000
# 4 0.0000 0.0000 0.0000 4.2207 0.0000 3.8564
# 5 -14.8988 10.8150 -9.3858 0.0000 36.6405 0.0000
# 6 0.0000 0.0000 0.0000 3.8564 0.0000 6.9421
#
#
#
# Elastic Compliance Matrix: (Units=1/GPa)
#
#
# Indices 1 2 3 4 5 6 
#
# 1 0.012579 -0.004549 -0.001784 0.000000 0.006001 0.000000
# 2 -0.004549 0.040738 -0.009598 0.000000 -0.016333 0.000000
# 3 -0.001784 -0.009598 0.012053 0.000000 0.005195 0.000000
# 4 0.000000 0.000000 0.000000 0.481137 0.000000 -0.267278
# 5 0.006001 -0.016333 0.005195 0.000000 0.035884 0.000000
# 6 0.000000 0.000000 0.000000 -0.267278 0.000000 0.292525
#
#
# Mechanical properties :
#
#
# Convention : Reuss Voigt Hill
#
# Bulk Modulus (GPa) = 29.84351 42.02484 35.93417
# Shear Modulus (GPa) = 5.44693 21.29705 13.37199
#
# Velocity S-wave (km/s) = 1.66363 3.28957 2.60662
# Velocity P-wave (km/s) = 4.34213 5.98178 5.22665
#
# Compressibility (1/GPa) = 0.03350813
#
# Stress axis : x y z
#
# Youngs Moduli (GPa) = 79.49561 24.54730 82.96374
#
# Poissons Ratio (x) = 0.11167 0.14802
# Poissons Ratio (y) = 0.36163 0.79628
# Poissons Ratio (z) = 0.14183 0.23560
#
# Static dielectric constant tensor:
#      x y z
#    x 1.822770 0.000000 -0.064510 
#    y 0.000000 1.759820 0.000000 
#    z -0.064510 0.000000 1.787210 
# 
# From -- ./inp_files/51626.got.cif
#   From: 2010.05.17/outbox.cif.g08.bks.cpg/sg10_26_cif.got.tgz:51626.got - 2010.06.03 11:33:40.
