data_PCOD9150421
_publ_section_title
;
Structure prediction by ZEFSAII (Michael W. Deem and Ramdas Pophale) SiO2 
 PCOD9150421
Probable space group: P 2/M
;
_chemical_formula_sum "Si O2"
_cell_formula_units_Z 28
_cell_length_a 11.408332
_cell_length_b 9.358729
_cell_length_c 14.902429
_cell_angle_alpha 90.000000
_cell_angle_beta 113.217327
_cell_angle_gamma 90.000000
_cell_volume 1462.241934
_symmetry_space_group_name_H-M "P 2/M"
_symmetry_group_IT_number 10
_symmetry_cell_setting 'monoclinic'
loop_
_space_group_symop_operation_xyz
x,y,z
-x,y,-z
-x,-y,-z
x,-y,z
loop_
_atom_site_type_symbol
_atom_site_label
_atom_site_fract_x
_atom_site_fract_y
_atom_site_fract_z
Si Si1 0.619719 0.830326 0.288356
Si Si2 0.852969 0.166674 0.480259
Si Si3 0.789013 0.169990 0.954966
Si Si4 0.833615 0.332240 0.657204
Si Si5 0.981944 0.830776 0.847481
Si Si6 0.454949 0.332987 0.384127
Si Si7 0.525542 0.668035 0.902133
O O1 0.760965 0.801749 0.368899
O O2 0.525687 0.770250 0.336983
O O3 0.582765 0.747542 0.187543
O O4 0.603461 0.000000 0.271802
O O5 0.821605 0.263351 0.555787
O O6 0.000000 0.185092 0.500000
O O7 0.831302 0.000000 0.497807
O O8 0.875160 0.193923 0.892450
O O9 0.660529 0.260011 0.917982
O O10 0.760459 0.000000 0.950017
O O11 0.882285 0.205454 0.066692
O O12 0.858022 0.500000 0.656937
O O13 0.941791 0.255944 0.748242
O O14 0.696882 0.312873 0.664082
O O15 0.982260 0.000000 0.828016
O O16 0.500000 0.307169 0.500000
O O17 0.484027 0.500000 0.372359
O O18 0.528138 0.500000 0.881100
O O19 0.500000 0.684645 0.000000
#
# Coordination Sequence:
#
# PCOD9150421 Si02
#       7
#     4   4   4   4   4   4   4
#     4  11  23  39  63  90 115 151 198 246 294 346
#     4  10  23  42  60  81 113 152 194 239 287 339
#     4   9  19  38  62  87 114 150 194 239 291 345
#     4  11  22  35  56  87 118 154 194 232 283 346
#     4   9  19  36  59  87 120 151 184 237 295 344
#     4  10  20  36  58  86 123 157 188 234 292 347
#     4  11  25  42  60  84 118 157 196 243 296 348
#
# _framework density 19.148679000000001
#
# number of rings (size 3 to 8) (size 9 to 14) (size 15 to 20)
#    0.000    1.857    1.429    3.000    0.000    8.000 
#    0.000    5.714    0.000    0.000    0.000    0.000 
#    0.000    0.000    0.000    0.000    0.000    0.000 
#
# Total GULP energy -156471.621764 kJ/mol
# GULP energy per Si atom -5588.272206 kJ/mol
# Density = 1.910510 g / cm^3
# Si number density = 19.148679 Si / 1000 Ang^3
#
#
#
# Elastic Constant Matrix: (Units=GPa)
#
#
# Indices 1 2 3 4 5 6 
#
# 1 43.4916 46.0461 34.1918 0.0000 16.1977 0.0000
# 2 46.0461 83.0158 78.7694 0.0000 15.7887 0.0000
# 3 34.1918 78.7694 142.6828 0.0000 22.3146 0.0000
# 4 0.0000 0.0000 0.0000 20.4191 0.0000 -9.1926
# 5 16.1977 15.7887 22.3146 0.0000 21.5542 0.0000
# 6 0.0000 0.0000 0.0000 -9.1926 0.0000 8.0934
#
#
#
# Elastic Compliance Matrix: (Units=1/GPa)
#
#
# Indices 1 2 3 4 5 6 
#
# 1 0.079440 -0.051277 0.015194 0.000000 -0.037866 0.000000
# 2 -0.051277 0.058829 -0.023239 0.000000 0.019500 0.000000
# 3 0.015194 -0.023239 0.018280 0.000000 -0.013320 0.000000
# 4 0.000000 0.000000 0.000000 0.100220 0.000000 0.113832
# 5 -0.037866 0.019500 -0.013320 0.000000 0.074356 0.000000
# 6 0.000000 0.000000 0.000000 0.113832 0.000000 0.252849
#
#
# Mechanical properties :
#
#
# Convention : Reuss Voigt Hill
#
# Bulk Modulus (GPa) = 26.38267 65.24497 45.81382
# Shear Modulus (GPa) = 6.99052 17.35888 12.17470
#
# Velocity S-wave (km/s) = 1.91274 3.01413 2.52424
# Velocity P-wave (km/s) = 4.32271 6.80148 5.69851
#
# Compressibility (1/GPa) = 0.03790367
#
# Stress axis : x y z
#
# Youngs Moduli (GPa) = 12.58819 16.99829 54.70397
#
# Poissons Ratio (x) = 0.87162 -0.83115
# Poissons Ratio (y) = 0.64549 1.27128
# Poissons Ratio (z) = -0.19126 0.39503
#
# Static dielectric constant tensor:
#      x y z
#    x 1.644510 0.000000 0.009880 
#    y 0.000000 1.633830 0.000000 
#    z 0.009880 0.000000 1.671250 
# 
# From -- ./inp_files/49615.got.cif
#   From: 2010.05.17/outbox.cif.g08.bks.cpg/sg10_25_cif.got.tgz:49615.got - 2010.06.03 11:33:40.
