data_PCOD9150134
_publ_section_title
;
Structure prediction by ZEFSAII (Michael W. Deem and Ramdas Pophale) SiO2 
 PCOD9150134
Probable space group: P 2/M
;
_chemical_formula_sum "Si O2"
_cell_formula_units_Z 32
_cell_length_a 9.841980
_cell_length_b 10.567899
_cell_length_c 14.563511
_cell_angle_alpha 90.000000
_cell_angle_beta 94.135194
_cell_angle_gamma 90.000000
_cell_volume 1510.793604
_symmetry_space_group_name_H-M "P 2/M"
_symmetry_group_IT_number 10
_symmetry_cell_setting 'monoclinic'
loop_
_space_group_symop_operation_xyz
x,y,z
-x,y,-z
-x,-y,-z
x,-y,z
loop_
_atom_site_type_symbol
_atom_site_label
_atom_site_fract_x
_atom_site_fract_y
_atom_site_fract_z
Si Si1 0.645036 0.356539 0.957137
Si Si2 0.173213 0.143436 0.945429
Si Si3 0.011894 0.640717 0.338440
Si Si4 0.657230 0.863158 0.236111
Si Si5 0.322785 0.646347 0.413832
Si Si6 0.718075 0.352923 0.385015
Si Si7 0.059862 0.856606 0.196859
Si Si8 0.632456 0.773293 0.774050
O O1 0.685340 0.500000 0.982509
O O2 0.628886 0.341224 0.846814
O O3 0.500000 0.331163 0.000000
O O4 0.755852 0.253658 0.993727
O O5 0.257697 0.145623 0.853136
O O6 0.018056 0.162447 0.903136
O O7 0.187770 0.000000 0.984438
O O8 0.004538 0.500000 0.294449
O O9 0.882865 0.650164 0.398556
O O10 0.004833 0.751176 0.263619
O O11 0.158903 0.649859 0.392042
O O12 0.683591 0.744433 0.303186
O O13 0.496730 0.857332 0.207430
O O14 0.689518 0.000000 0.281232
O O15 0.365236 0.500000 0.405988
O O16 0.346650 0.684079 0.520456
O O17 0.378525 0.727064 0.331796
O O18 0.682415 0.500000 0.363180
O O19 0.222041 0.839493 0.205002
O O20 0.027486 0.000000 0.224674
#
# Coordination Sequence:
#
# PCOD9150134 Si02
#       8
#     4   4   4   4   4   4   4   4
#     4  11  24  42  66  96 124 156 203 255 304 359
#     4  10  22  41  65  92 121 159 202 247 301 364
#     4   9  17  32  58  89 122 159 202 250 300 353
#     4  11  23  40  62  89 123 162 203 249 301 361
#     4   9  19  36  58  87 124 162 201 246 304 365
#     4  10  20  35  60  91 121 161 208 250 294 356
#     4  10  21  39  63  91 124 159 202 249 299 359
#     4  11  23  41  62  89 123 162 199 250 310 362
#
# _framework density 21.18092
#
# number of rings (size 3 to 8) (size 9 to 14) (size 15 to 20)
#    0.000    1.875    2.500    1.125    0.000    6.250 
#    0.000    6.875    0.000    3.750    0.000    0.000 
#    0.000    0.000    0.000    0.000    0.000    0.000 
#
# Total GULP energy -178726.180774 kJ/mol
# GULP energy per Si atom -5585.193149 kJ/mol
# Density = 2.113271 g / cm^3
# Si number density = 21.180920 Si / 1000 Ang^3
#
#
#
# Elastic Constant Matrix: (Units=GPa)
#
#
# Indices 1 2 3 4 5 6 
#
# 1 93.3320 12.3283 -2.7252 0.0000 -8.2388 0.0000
# 2 12.3283 119.2522 48.0499 0.0000 5.3901 0.0000
# 3 -2.7252 48.0499 84.8989 0.0000 -5.3542 0.0000
# 4 0.0000 0.0000 0.0000 7.6952 0.0000 11.5385
# 5 -8.2388 5.3901 -5.3542 0.0000 21.7765 0.0000
# 6 0.0000 0.0000 0.0000 11.5385 0.0000 5.1897
#
#
#
# Elastic Compliance Matrix: (Units=1/GPa)
#
#
# Indices 1 2 3 4 5 6 
#
# 1 0.011544 -0.002234 0.001976 0.000000 0.005406 0.000000
# 2 -0.002234 0.011700 -0.007039 0.000000 -0.005472 0.000000
# 3 0.001976 -0.007039 0.016234 0.000000 0.006481 0.000000
# 4 0.000000 0.000000 0.000000 -0.055683 0.000000 0.123802
# 5 0.005406 -0.005472 0.006481 0.000000 0.050914 0.000000
# 6 0.000000 0.000000 0.000000 0.123802 0.000000 -0.082566
#
#
# Mechanical properties :
#
#
# Convention : Reuss Voigt Hill
#
# Bulk Modulus (GPa) = 40.18389 45.86544 43.02466
# Shear Modulus (GPa) = -200.26186 22.92095 -88.67045
#
# Velocity S-wave (km/s) = -9.73414 3.29318 -6.47721
# Velocity P-wave (km/s) = 10.35978 6.01341 5.96506
#
# Compressibility (1/GPa) = 0.02488560
#
# Stress axis : x y z
#
# Youngs Moduli (GPa) = 86.62155 85.47105 61.59732
#
# Poissons Ratio (x) = 0.19094 -0.12171
# Poissons Ratio (y) = 0.19351 0.43355
# Poissons Ratio (z) = -0.17116 0.60159
#
# Static dielectric constant tensor:
#      x y z
#    x 1.804180 0.000000 -0.003760 
#    y 0.000000 1.727690 0.000000 
#    z -0.003760 0.000000 1.760920 
# 
# From -- ./inp_files/63812.got.cif
#   From: 2010.05.17/outbox.cif.g08.bks.cpg/sg10_32_cif.got.tgz:63812.got - 2010.06.03 11:33:40.
