data_PCOD9150485
_publ_section_title
;
Structure prediction by ZEFSAII (Michael W. Deem and Ramdas Pophale) SiO2 
 PCOD9150485
Probable space group: P 2/M
;
_chemical_formula_sum "Si O2"
_cell_formula_units_Z 24
_cell_length_a 11.963836
_cell_length_b 8.403203
_cell_length_c 12.809042
_cell_angle_alpha 90.000000
_cell_angle_beta 89.221107
_cell_angle_gamma 90.000000
_cell_volume 1287.632190
_symmetry_space_group_name_H-M "P 2/M"
_symmetry_group_IT_number 10
_symmetry_cell_setting 'monoclinic'
loop_
_space_group_symop_operation_xyz
x,y,z
-x,y,-z
-x,-y,-z
x,-y,z
loop_
_atom_site_type_symbol
_atom_site_label
_atom_site_fract_x
_atom_site_fract_y
_atom_site_fract_z
Si Si1 0.007147 0.189725 0.121375
Si Si2 0.373945 0.693904 0.021432
Si Si3 0.640736 0.814581 0.588308
Si Si4 0.400084 0.687663 0.635567
Si Si5 0.767828 0.307324 0.179021
Si Si6 0.232998 0.689734 0.221116
O O1 0.111344 0.268417 0.178507
O O2 0.890665 0.234422 0.177159
O O3 0.022974 0.000000 0.121237
O O4 0.000000 0.243649 0.000000
O O5 0.376013 0.500000 0.022421
O O6 0.294040 0.741029 0.927199
O O7 0.500000 0.748871 0.000000
O O8 0.321162 0.745073 0.131477
O O9 0.519435 0.774320 0.639320
O O10 0.645837 0.718106 0.480156
O O11 0.734701 0.768454 0.670107
O O12 0.645082 0.000000 0.562722
O O13 0.421351 0.500000 0.650488
O O14 0.311269 0.739410 0.723567
O O15 0.777389 0.500000 0.179630
O O16 0.243481 0.500000 0.232161
#
# Coordination Sequence:
#
# PCOD9150485 Si02
#       6
#     4   4   4   4   4   4
#     4  11  23  38  56  81 118 156 190 231 286 347
#     4   9  17  30  52  83 113 140 177 230 285 331
#     4  11  22  37  58  85 121 155 188 231 290 348
#     4  10  20  37  62  88 115 149 195 239 281 336
#     4  10  20  36  59  85 112 147 194 240 281 333
#     4  11  21  36  60  83 112 150 196 241 278 333
#
# _framework density 18.638863000000001
#
# number of rings (size 3 to 8) (size 9 to 14) (size 15 to 20)
#    0.000    1.667    1.667    5.000    0.000    4.667 
#    0.000    0.833    0.000    7.500    0.000    0.000 
#    0.000    0.000    0.000    0.000    0.000    0.000 
#
# Total GULP energy -134097.058042 kJ/mol
# GULP energy per Si atom -5587.377418 kJ/mol
# Density = 1.859644 g / cm^3
# Si number density = 18.638863 Si / 1000 Ang^3
#
#
#
# Elastic Constant Matrix: (Units=GPa)
#
#
# Indices 1 2 3 4 5 6 
#
# 1 48.0350 -11.7166 2.6047 0.0000 15.2188 0.0000
# 2 -11.7166 17.5688 -10.3282 0.0000 -1.9052 0.0000
# 3 2.6047 -10.3282 54.9562 0.0000 8.7632 0.0000
# 4 0.0000 0.0000 0.0000 59.7381 0.0000 -73.2821
# 5 15.2188 -1.9052 8.7632 0.0000 31.8561 0.0000
# 6 0.0000 0.0000 0.0000 -73.2821 0.0000 156.7333
#
#
#
# Elastic Compliance Matrix: (Units=1/GPa)
#
#
# Indices 1 2 3 4 5 6 
#
# 1 0.030461 0.021641 0.004955 0.000000 -0.014621 0.000000
# 2 0.021641 0.079373 0.015461 0.000000 -0.009845 0.000000
# 3 0.004955 0.015461 0.022065 0.000000 -0.007512 0.000000
# 4 0.000000 0.000000 0.000000 0.039255 0.000000 0.018354
# 5 -0.014621 -0.009845 -0.007512 0.000000 0.039854 0.000000
# 6 0.000000 0.000000 0.000000 0.018354 0.000000 0.014962
#
#
# Mechanical properties :
#
#
# Convention : Reuss Voigt Hill
#
# Bulk Modulus (GPa) = 4.62933 9.07552 6.85243
# Shear Modulus (GPa) = 23.37987 58.99884 41.18935
#
# Velocity S-wave (km/s) = 3.54554 5.63226 4.70602
# Velocity P-wave (km/s) = 4.38751 6.86849 5.76309
#
# Compressibility (1/GPa) = 0.21601392
#
# Stress axis : x y z
#
# Youngs Moduli (GPa) = 32.82939 12.59870 45.32049
#
# Poissons Ratio (x) = -0.27265 -0.22456
# Poissons Ratio (y) = -0.71047 -0.70071
# Poissons Ratio (z) = -0.16267 -0.19479
#
# Static dielectric constant tensor:
#      x y z
#    x 1.616980 0.000000 -0.002950 
#    y 0.000000 1.638980 0.000000 
#    z -0.002950 0.000000 1.633810 
# 
# From -- ./inp_files/45117.got.cif
#   From: 2010.05.17/outbox.cif.g08.bks.cpg/sg10_23_cif.got.tgz:45117.got - 2010.06.03 11:33:40.
