data_PCOD9150986
_publ_section_title
;
Structure prediction by ZEFSAII (Michael W. Deem and Ramdas Pophale) SiO2 
 PCOD9150986
Probable space group: P 2/M
;
_chemical_formula_sum "Si O2"
_cell_formula_units_Z 18
_cell_length_a 7.540843
_cell_length_b 21.356481
_cell_length_c 7.888518
_cell_angle_alpha 90.000000
_cell_angle_beta 141.442493
_cell_angle_gamma 90.000000
_cell_volume 791.848343
_symmetry_space_group_name_H-M "P 2/M"
_symmetry_group_IT_number 10
_symmetry_cell_setting 'monoclinic'
loop_
_space_group_symop_operation_xyz
x,y,z
-x,y,-z
-x,-y,-z
x,-y,z
loop_
_atom_site_type_symbol
_atom_site_label
_atom_site_fract_x
_atom_site_fract_y
_atom_site_fract_z
Si Si1 0.328289 0.781340 0.700752
Si Si2 0.802238 0.000000 0.117328
Si Si3 0.134538 0.429234 0.908866
Si Si4 0.637345 0.915361 0.420334
Si Si5 0.368952 0.355462 0.590099
O O1 0.361676 0.841377 0.605967
O O2 0.412250 0.714643 0.686683
O O3 0.000000 0.776711 0.500000
O O4 0.500000 0.792966 0.000000
O O5 0.047540 0.945858 0.343261
O O6 0.567874 0.947263 0.872522
O O7 0.113769 0.500000 0.828488
O O8 0.952342 0.379239 0.667615
O O9 0.452739 0.404677 0.166995
O O10 0.000000 0.430099 0.000000
O O11 0.500000 0.930030 0.500000
O O12 0.500000 0.357885 0.500000
#
# Coordination Sequence:
#
# PCOD9150986 Si02
#       5
#     4   2   4   4   4
#     4  12  26  42  58  83 120 158 195 238 287 334
#     4  10  21  38  66  94 116 144 187 242 289 338
#     4   9  17  31  57  91 118 141 184 245 295 336
#     4  11  21  40  65  90 116 149 192 235 285 345
#     4  10  20  37  61  86 113 152 196 236 284 343
#
# _framework density 22.731625000000001
#
# number of rings (size 3 to 8) (size 9 to 14) (size 15 to 20)
#    0.000    1.556    0.000    6.667    0.000    2.667 
#    0.000   17.778    0.000   13.333    0.000    0.000 
#    0.000    0.000    0.000    0.000    0.000    0.000 
#
# Total GULP energy -100246.354237 kJ/mol
# GULP energy per Si atom -5569.241902 kJ/mol
# Density = 2.267989 g / cm^3
# Si number density = 22.731625 Si / 1000 Ang^3
#
#
#
# Elastic Constant Matrix: (Units=GPa)
#
#
# Indices 1 2 3 4 5 6 
#
# 1 44.1871 -8.8674 15.7645 0.0000 -13.1984 0.0000
# 2 -8.8674 158.5008 11.2500 0.0000 -9.2276 0.0000
# 3 15.7645 11.2500 156.2952 0.0000 27.0362 0.0000
# 4 0.0000 0.0000 0.0000 48.1948 0.0000 -33.8636
# 5 -13.1984 -9.2276 27.0362 0.0000 31.7929 0.0000
# 6 0.0000 0.0000 0.0000 -33.8636 0.0000 84.6204
#
#
#
# Elastic Compliance Matrix: (Units=1/GPa)
#
#
# Indices 1 2 3 4 5 6 
#
# 1 0.031795 0.003440 -0.006930 0.000000 0.020091 0.000000
# 2 0.003440 0.006904 -0.001686 0.000000 0.004866 0.000000
# 3 -0.006930 -0.001686 0.009146 0.000000 -0.011144 0.000000
# 4 0.000000 0.000000 0.000000 0.028866 0.000000 0.011552
# 5 0.020091 0.004866 -0.011144 0.000000 0.050683 0.000000
# 6 0.000000 0.000000 0.000000 0.011552 0.000000 0.016440
#
#
# Mechanical properties :
#
#
# Convention : Reuss Voigt Hill
#
# Bulk Modulus (GPa) = 26.67034 43.91970 35.29502
# Shear Modulus (GPa) = 29.99716 55.64404 42.82060
#
# Velocity S-wave (km/s) = 3.63660 4.95296 4.34492
# Velocity P-wave (km/s) = 5.42138 7.21609 6.38214
#
# Compressibility (1/GPa) = 0.03749483
#
# Stress axis : x y z
#
# Youngs Moduli (GPa) = 31.45181 144.83334 109.33599
#
# Poissons Ratio (x) = -0.49827 0.75768
# Poissons Ratio (y) = -0.10820 0.18430
# Poissons Ratio (z) = 0.21796 0.24414
#
# Static dielectric constant tensor:
#      x y z
#    x 2.008020 0.000000 -0.063020 
#    y 0.000000 1.365890 0.000000 
#    z -0.063020 0.000000 1.794650 
# 
# From -- ./inp_files/20358.got.cif
#   From: 2010.05.17/outbox.cif.g08.bks.cpg/sg10_11_cif.got.tgz:20358.got - 2010.06.03 11:33:40.
