data_PCOD9150634
_publ_section_title
;
Structure prediction by ZEFSAII (Michael W. Deem and Ramdas Pophale) SiO2 
 PCOD9150634
Probable space group: P 2/M
;
_chemical_formula_sum "Si O2"
_cell_formula_units_Z 20
_cell_length_a 12.189356
_cell_length_b 12.111817
_cell_length_c 11.915992
_cell_angle_alpha 90.000000
_cell_angle_beta 33.919929
_cell_angle_gamma 90.000000
_cell_volume 981.704429
_symmetry_space_group_name_H-M "P 2/M"
_symmetry_group_IT_number 10
_symmetry_cell_setting 'monoclinic'
loop_
_space_group_symop_operation_xyz
x,y,z
-x,y,-z
-x,-y,-z
x,-y,z
loop_
_atom_site_type_symbol
_atom_site_label
_atom_site_fract_x
_atom_site_fract_y
_atom_site_fract_z
Si Si1 0.632228 0.125367 0.023323
Si Si2 0.167178 0.372701 0.559926
Si Si3 0.788362 0.798248 0.666339
Si Si4 0.919595 0.228408 0.947285
Si Si5 0.580501 0.622985 0.320659
O O1 0.399277 0.147937 0.239439
O O2 0.781918 0.141993 0.998415
O O3 0.651151 0.000000 0.965581
O O4 0.706690 0.207954 0.862461
O O5 0.090182 0.500000 0.628544
O O6 0.158977 0.311994 0.447210
O O7 0.397548 0.380515 0.393443
O O8 0.070404 0.289554 0.734153
O O9 0.000000 0.858455 0.500000
O O10 0.766333 0.322578 0.110183
O O11 0.000000 0.188250 0.000000
O O12 0.500000 0.682532 0.500000
O O13 0.641623 0.500000 0.303930
#
# Coordination Sequence:
#
# PCOD9150634 Si02
#       5
#     4   4   4   4   4
#     4  11  26  45  65  93 123 160 219 269 314 370
#     4  11  23  39  62  96 133 168 205 249 309 379
#     4  11  22  44  69  92 123 163 209 263 315 372
#     4  12  23  40  65  93 132 166 209 256 311 372
#     4  10  20  36  60  90 129 173 210 248 301 371
#
# _framework density 20.372731000000002
#
# number of rings (size 3 to 8) (size 9 to 14) (size 15 to 20)
#    0.000    1.000    6.000    1.800    0.000    3.200 
#    0.000    2.000    0.000    1.800    0.000    0.000 
#    0.000    0.000    0.000    0.000    0.000    0.000 
#
# Total GULP energy -111350.738096 kJ/mol
# GULP energy per Si atom -5567.536905 kJ/mol
# Density = 2.032636 g / cm^3
# Si number density = 20.372731 Si / 1000 Ang^3
#
#
#
# Elastic Constant Matrix: (Units=GPa)
#
#
# Indices 1 2 3 4 5 6 
#
# 1 153.1143 39.2484 37.5006 0.0000 -8.8956 0.0000
# 2 39.2484 41.2228 1.8210 0.0000 8.0251 0.0000
# 3 37.5006 1.8210 83.6008 0.0000 -13.8598 0.0000
# 4 0.0000 0.0000 0.0000 -15.5578 0.0000 24.5853
# 5 -8.8956 8.0251 -13.8598 0.0000 37.0711 0.0000
# 6 0.0000 0.0000 0.0000 24.5853 0.0000 -30.3126
#
#
#
# Elastic Compliance Matrix: (Units=1/GPa)
#
#
# Indices 1 2 3 4 5 6 
#
# 1 0.010296 -0.010265 -0.003856 0.000000 0.003251 0.000000
# 2 -0.010265 0.035752 0.002275 0.000000 -0.009352 0.000000
# 3 -0.003856 0.002275 0.014292 0.000000 0.003926 0.000000
# 4 0.000000 0.000000 0.000000 0.228193 0.000000 0.185078
# 5 0.003251 -0.009352 0.003926 0.000000 0.031248 0.000000
# 6 0.000000 0.000000 0.000000 0.185078 0.000000 0.117119
#
#
# Mechanical properties :
#
#
# Convention : Reuss Voigt Hill
#
# Bulk Modulus (GPa) = 27.28568 48.34197 37.81383
# Shear Modulus (GPa) = 10.57515 11.53133 11.05324
#
# Velocity S-wave (km/s) = 2.28081 2.38169 2.33180
# Velocity P-wave (km/s) = 4.51203 5.59853 5.08439
#
# Compressibility (1/GPa) = 0.03664926
#
# Stress axis : x y z
#
# Youngs Moduli (GPa) = 97.12917 27.97051 69.96721
#
# Poissons Ratio (x) = 0.28712 0.26977
# Poissons Ratio (y) = 0.99704 -0.15920
# Poissons Ratio (z) = 0.37450 -0.06364
#
# Static dielectric constant tensor:
#      x y z
#    x 1.853160 0.000000 0.035690 
#    y 0.000000 1.729700 0.000000 
#    z 0.035690 0.000000 1.784650 
# 
# From -- ./inp_files/6817.got.cif
#   From: 2010.05.17/outbox.cif.g08.bks.cpg/sg10_4_cif.got.tgz:6817.got - 2010.06.03 11:33:40.
