data_PCOD9150523
_publ_section_title
;
Structure prediction by ZEFSAII (Michael W. Deem and Ramdas Pophale) SiO2 
 PCOD9150523
Probable space group: P 2/M
;
_chemical_formula_sum "Si O2"
_cell_formula_units_Z 32
_cell_length_a 27.869377
_cell_length_b 8.793630
_cell_length_c 11.976849
_cell_angle_alpha 90.000000
_cell_angle_beta 146.569765
_cell_angle_gamma 90.000000
_cell_volume 1617.065151
_symmetry_space_group_name_H-M "P 2/M"
_symmetry_group_IT_number 10
_symmetry_cell_setting 'monoclinic'
loop_
_space_group_symop_operation_xyz
x,y,z
-x,y,-z
-x,-y,-z
x,-y,z
loop_
_atom_site_type_symbol
_atom_site_label
_atom_site_fract_x
_atom_site_fract_y
_atom_site_fract_z
Si Si1 0.589573 0.177692 0.605211
Si Si2 0.730768 0.816780 0.472269
Si Si3 0.617372 0.321380 0.068040
Si Si4 0.881876 0.179416 0.321887
Si Si5 0.048699 0.681942 0.763905
Si Si6 0.078837 0.815863 0.068508
Si Si7 0.295795 0.676418 0.994018
Si Si8 0.433646 0.817609 0.698156
O O1 0.500000 0.188987 0.500000
O O2 0.575787 0.221307 0.450508
O O3 0.617366 0.000000 0.662698
O O4 0.659310 0.280457 0.803003
O O5 0.697066 0.751628 0.290174
O O6 0.827182 0.770051 0.698113
O O7 0.653794 0.769103 0.407937
O O8 0.731044 0.000000 0.467644
O O9 0.615063 0.500000 0.086240
O O10 0.636155 0.297458 0.973635
O O11 0.524332 0.250066 0.917283
O O12 0.889031 0.244539 0.209691
O O13 0.787288 0.218034 0.183831
O O14 0.954022 0.263525 0.536816
O O15 0.899097 0.000000 0.354864
O O16 0.054983 0.500000 0.772568
O O17 0.066207 0.743202 0.921990
O O18 0.078416 0.000000 0.055583
O O19 0.000000 0.775761 0.000000
O O20 0.269295 0.500000 0.939970
O O21 0.440115 0.000000 0.720196
#
# Coordination Sequence:
#
# PCOD9150523 Si02
#       8
#     4   4   4   4   4   4   4   4
#     4  10  20  36  59  87 118 159 204 247 302 372
#     4  10  23  41  63  89 120 161 210 263 310 361
#     4  11  24  40  60  88 125 164 207 257 313 373
#     4  11  23  41  67  94 123 164 209 253 303 372
#     4  11  23  42  66  95 130 161 199 256 320 374
#     4  10  23  43  65  93 126 166 216 262 308 371
#     4  11  24  39  58  90 127 162 201 255 316 371
#     4  10  21  39  62  89 121 159 207 259 311 366
#
# _framework density 19.788937000000001
#
# number of rings (size 3 to 8) (size 9 to 14) (size 15 to 20)
#    0.000    1.500    1.250    4.125    3.500    5.000 
#    0.000    0.000    0.000    0.000    0.000    0.000 
#    0.000    0.000    0.000    0.000    0.000    0.000 
#
# Total GULP energy -178827.625624 kJ/mol
# GULP energy per Si atom -5588.363301 kJ/mol
# Density = 1.974390 g / cm^3
# Si number density = 19.788937 Si / 1000 Ang^3
#
#
#
# Elastic Constant Matrix: (Units=GPa)
#
#
# Indices 1 2 3 4 5 6 
#
# 1 57.1963 30.9361 51.2258 0.0000 2.4681 0.0000
# 2 30.9361 48.1383 39.6559 0.0000 2.2620 0.0000
# 3 51.2258 39.6559 118.7614 0.0000 -1.7504 0.0000
# 4 0.0000 0.0000 0.0000 -18.1326 0.0000 -2.7904
# 5 2.4681 2.2620 -1.7504 0.0000 36.4306 0.0000
# 6 0.0000 0.0000 0.0000 -2.7904 0.0000 19.2009
#
#
#
# Elastic Compliance Matrix: (Units=1/GPa)
#
#
# Indices 1 2 3 4 5 6 
#
# 1 0.033901 -0.013276 -0.010218 0.000000 -0.001963 0.000000
# 2 -0.013276 0.034039 -0.005661 0.000000 -0.001486 0.000000
# 3 -0.010218 -0.005661 0.014744 0.000000 0.001752 0.000000
# 4 0.000000 0.000000 0.000000 -0.053943 0.000000 -0.007839
# 5 -0.001963 -0.001486 0.001752 0.000000 0.027759 0.000000
# 6 0.000000 0.000000 0.000000 -0.007839 0.000000 0.050942
#
#
# Mechanical properties :
#
#
# Convention : Reuss Voigt Hill
#
# Bulk Modulus (GPa) = 41.03115 51.97017 46.50066
# Shear Modulus (GPa) = 28.75572 14.31834 21.53703
#
# Velocity S-wave (km/s) = 3.81612 2.69281 3.30257
# Velocity P-wave (km/s) = 6.34006 5.99896 6.17187
#
# Compressibility (1/GPa) = 0.02437173
#
# Stress axis : x y z
#
# Youngs Moduli (GPa) = 29.49763 29.37785 67.82396
#
# Poissons Ratio (x) = 0.39003 0.69306
# Poissons Ratio (y) = 0.39162 0.38398
# Poissons Ratio (z) = 0.30142 0.16632
#
# Static dielectric constant tensor:
#      x y z
#    x 1.707400 0.000000 0.008570 
#    y 0.000000 1.668100 0.000000 
#    z 0.008570 0.000000 1.673130 
# 
# From -- ./inp_files/58235.got.cif
#   From: 2010.05.17/outbox.cif.g08.bks.cpg/sg10_30_cif.got.tgz:58235.got - 2010.06.03 11:33:40.
