data_PCOD9150371
_publ_section_title
;
Structure prediction by ZEFSAII (Michael W. Deem and Ramdas Pophale) SiO2 
 PCOD9150371
Probable space group: P 2/M
;
_chemical_formula_sum "Si O2"
_cell_formula_units_Z 24
_cell_length_a 9.201971
_cell_length_b 17.284693
_cell_length_c 14.848642
_cell_angle_alpha 90.000000
_cell_angle_beta 150.249922
_cell_angle_gamma 90.000000
_cell_volume 1171.929552
_symmetry_space_group_name_H-M "P 2/M"
_symmetry_group_IT_number 10
_symmetry_cell_setting 'monoclinic'
loop_
_space_group_symop_operation_xyz
x,y,z
-x,y,-z
-x,-y,-z
x,-y,z
loop_
_atom_site_type_symbol
_atom_site_label
_atom_site_fract_x
_atom_site_fract_y
_atom_site_fract_z
Si Si1 0.920254 0.834402 0.604191
Si Si2 0.275683 0.000000 0.461223
Si Si3 0.527935 0.834402 0.211873
Si Si4 0.206619 0.677589 0.030780
Si Si5 0.301530 0.410263 0.801530
Si Si6 0.179100 0.677589 0.354939
Si Si7 0.332304 0.000000 0.146765
O O1 0.903679 0.920285 0.635968
O O2 0.718331 0.834182 0.406111
O O3 0.807023 0.766866 0.607078
O O4 0.249447 0.816754 0.749447
O O5 0.500000 0.000000 0.500000
O O6 0.458024 0.000000 0.652674
O O7 0.292814 0.766865 0.092869
O O8 0.399456 0.920285 0.131745
O O9 0.507575 0.631656 0.172881
O O10 0.000000 0.648939 0.000000
O O11 0.017588 0.672527 0.839196
O O12 0.255060 0.500000 0.755061
O O13 0.996508 0.368344 0.661814
O O14 0.500000 0.406795 0.000000
O O15 0.500000 0.648939 0.500000
O O16 0.000000 0.000000 0.000000
#
# Coordination Sequence:
#
# PCOD9150371 Si02
#       7
#     4   2   4   4   4   4   2
#     4  10  20  36  58  82 113 152 196 242 289 339
#     4  10  21  35  51  77 111 152 195 239 285 337
#     4  10  20  36  58  82 113 152 196 242 289 339
#     4  11  22  38  61  89 119 154 195 238 289 347
#     4   9  20  40  63  86 117 154 190 235 291 349
#     4  11  22  38  61  89 119 154 195 238 289 347
#     4  10  21  35  51  77 111 152 195 239 285 337
#
# _framework density 20.479046
#
# number of rings (size 3 to 8) (size 9 to 14) (size 15 to 20)
#    0.000    1.833    1.667    2.500    0.000    6.667 
#    0.000    0.000    0.000   10.000    0.000    0.000 
#    0.000    0.000    0.000    0.000    0.000    0.000 
#
# Total GULP energy -134068.495330 kJ/mol
# GULP energy per Si atom -5586.187305 kJ/mol
# Density = 2.043243 g / cm^3
# Si number density = 20.479046 Si / 1000 Ang^3
#
#
#
# Elastic Constant Matrix: (Units=GPa)
#
#
# Indices 1 2 3 4 5 6 
#
# 1 132.2616 52.2810 22.8552 0.0000 36.1993 0.0000
# 2 52.2810 123.7947 22.4218 0.0000 22.2785 0.0000
# 3 22.8552 22.4218 44.1454 0.0000 29.5463 0.0000
# 4 0.0000 0.0000 0.0000 10.2803 0.0000 0.9026
# 5 36.1993 22.2785 29.5463 0.0000 35.4085 0.0000
# 6 0.0000 0.0000 0.0000 0.9026 0.0000 11.4908
#
#
#
# Elastic Compliance Matrix: (Units=1/GPa)
#
#
# Indices 1 2 3 4 5 6 
#
# 1 0.011948 -0.003392 0.005173 0.000000 -0.014398 0.000000
# 2 -0.003392 0.010135 -0.003272 0.000000 -0.000179 0.000000
# 3 0.005173 -0.003272 0.053900 0.000000 -0.048207 0.000000
# 4 0.000000 0.000000 0.000000 0.097948 0.000000 -0.007694
# 5 -0.014398 -0.000179 -0.048207 0.000000 0.083299 0.000000
# 6 0.000000 0.000000 0.000000 -0.007694 0.000000 0.087631
#
#
# Mechanical properties :
#
#
# Convention : Reuss Voigt Hill
#
# Bulk Modulus (GPa) = 13.69812 55.03531 34.36672
# Shear Modulus (GPa) = 13.43445 24.94551 19.18998
#
# Velocity S-wave (km/s) = 2.56405 3.49391 3.06446
# Velocity P-wave (km/s) = 3.93308 6.57335 5.41655
#
# Compressibility (1/GPa) = 0.07300270
#
# Stress axis : x y z
#
# Youngs Moduli (GPa) = 83.69504 98.66624 18.55271
#
# Poissons Ratio (x) = 0.33466 -0.09598
# Poissons Ratio (y) = 0.28388 0.06070
# Poissons Ratio (z) = -0.43296 0.32281
#
# Static dielectric constant tensor:
#      x y z
#    x 1.730350 0.000000 0.008470 
#    y 0.000000 1.719010 0.000000 
#    z 0.008470 0.000000 1.718990 
# 
# From -- ./inp_files/30049.got.cif
#   From: 2010.05.17/outbox.cif.g08.bks.cpg/sg10_16_cif.got.tgz:30049.got - 2010.06.03 11:33:40.
