data_PCOD9150233
_publ_section_title
;
Structure prediction by ZEFSAII (Michael W. Deem and Ramdas Pophale) SiO2 
 PCOD9150233
Probable space group: P 2/M
;
_chemical_formula_sum "Si O2"
_cell_formula_units_Z 24
_cell_length_a 18.733519
_cell_length_b 9.592847
_cell_length_c 15.063486
_cell_angle_alpha 90.000000
_cell_angle_beta 29.896871
_cell_angle_gamma 90.000000
_cell_volume 1349.290939
_symmetry_space_group_name_H-M "P 2/M"
_symmetry_group_IT_number 10
_symmetry_cell_setting 'monoclinic'
loop_
_space_group_symop_operation_xyz
x,y,z
-x,y,-z
-x,-y,-z
x,-y,z
loop_
_atom_site_type_symbol
_atom_site_label
_atom_site_fract_x
_atom_site_fract_y
_atom_site_fract_z
Si Si1 0.553033 0.333556 0.693072
Si Si2 0.377392 0.334578 0.702632
Si Si3 0.382960 0.343329 0.049131
Si Si4 0.853931 0.839740 0.602502
Si Si5 0.082608 0.166830 0.003108
Si Si6 0.157381 0.167519 0.592587
O O1 0.583717 0.500000 0.668810
O O2 0.451861 0.313920 0.717510
O O3 0.700868 0.249191 0.529362
O O4 0.463469 0.287345 0.875817
O O5 0.500000 0.294614 0.500000
O O6 0.347419 0.500000 0.723515
O O7 0.231720 0.248781 0.848577
O O8 0.331515 0.500000 0.083626
O O9 0.257533 0.252255 0.223835
O O10 0.500000 0.351847 0.000000
O O11 0.869894 0.797595 0.481893
O O12 0.000000 0.833633 0.500000
O O13 0.803813 0.000000 0.655341
O O14 0.976672 0.201618 0.199305
O O15 0.109287 0.000000 0.976382
O O16 0.000000 0.198084 0.000000
O O17 0.179591 0.000000 0.575286
#
# Coordination Sequence:
#
# PCOD9150233 Si02
#       6
#     4   4   4   4   4   4
#     4  10  21  37  57  82 112 144 183 229 273 323
#     4  10  22  39  59  85 113 142 181 227 273 326
#     4  10  20  36  56  80 110 145 185 227 271 321
#     4  10  22  37  54  79 112 147 185 228 272 323
#     4  10  22  39  59  84 114 145 181 225 272 326
#     4  10  21  37  56  81 111 145 185 226 272 326
#
# _framework density 17.787120000000002
#
# number of rings (size 3 to 8) (size 9 to 14) (size 15 to 20)
#    0.000    2.000    1.667    1.000    2.333    3.333 
#    0.000    0.000    0.000    0.000    0.000    0.000 
#    0.000    0.000    0.000    0.000    0.000    0.000 
#
# Total GULP energy -133924.080232 kJ/mol
# GULP energy per Si atom -5580.170010 kJ/mol
# Density = 1.774664 g / cm^3
# Si number density = 17.787120 Si / 1000 Ang^3
#
#
#
# Elastic Constant Matrix: (Units=GPa)
#
#
# Indices 1 2 3 4 5 6 
#
# 1 88.9718 39.5560 76.0197 0.0000 3.3628 0.0000
# 2 39.5560 53.2578 80.0677 0.0000 -11.1105 0.0000
# 3 76.0197 80.0677 186.2518 0.0000 5.9000 0.0000
# 4 0.0000 0.0000 0.0000 38.7167 0.0000 -5.9453
# 5 3.3628 -11.1105 5.9000 0.0000 28.6088 0.0000
# 6 0.0000 0.0000 0.0000 -5.9453 0.0000 30.7200
#
#
#
# Elastic Compliance Matrix: (Units=1/GPa)
#
#
# Indices 1 2 3 4 5 6 
#
# 1 0.018680 -0.011152 -0.002641 0.000000 -0.005982 0.000000
# 2 -0.011152 0.088058 -0.034655 0.000000 0.042656 0.000000
# 3 -0.002641 -0.034655 0.021904 0.000000 -0.017665 0.000000
# 4 0.000000 0.000000 0.000000 0.026620 0.000000 0.005152
# 5 -0.005982 0.042656 -0.017665 0.000000 0.055866 0.000000
# 6 0.000000 0.000000 0.000000 0.005152 0.000000 0.033549
#
#
# Mechanical properties :
#
#
# Convention : Reuss Voigt Hill
#
# Bulk Modulus (GPa) = 31.49876 79.97422 55.73649
# Shear Modulus (GPa) = 14.19829 28.46495 21.33162
#
# Velocity S-wave (km/s) = 2.82837 4.00473 3.46681
# Velocity P-wave (km/s) = 5.33042 8.15128 6.88683
#
# Compressibility (1/GPa) = 0.03174729
#
# Stress axis : x y z
#
# Youngs Moduli (GPa) = 53.53319 11.35613 45.65344
#
# Poissons Ratio (x) = 0.12665 0.12055
# Poissons Ratio (y) = 0.59701 1.58211
# Poissons Ratio (z) = 0.14136 0.39354
#
# Static dielectric constant tensor:
#      x y z
#    x 1.622090 0.000000 0.004610 
#    y 0.000000 1.617500 0.000000 
#    z 0.004610 0.000000 1.578030 
# 
# From -- ./inp_files/27210.got.cif
#   From: 2010.05.17/outbox.cif.g08.bks.cpg/sg10_14_cif.got.tgz:27210.got - 2010.06.03 11:33:40.
