data_PCOD9150798
_publ_section_title
;
Structure prediction by ZEFSAII (Michael W. Deem and Ramdas Pophale) SiO2 
 PCOD9150798
Probable space group: P 2/M
;
_chemical_formula_sum "Si O2"
_cell_formula_units_Z 32
_cell_length_a 11.079099
_cell_length_b 20.736794
_cell_length_c 9.355273
_cell_angle_alpha 90.000000
_cell_angle_beta 45.001160
_cell_angle_gamma 90.000000
_cell_volume 1519.834562
_symmetry_space_group_name_H-M "P 2/M"
_symmetry_group_IT_number 10
_symmetry_cell_setting 'monoclinic'
loop_
_space_group_symop_operation_xyz
x,y,z
-x,y,-z
-x,-y,-z
x,-y,z
loop_
_atom_site_type_symbol
_atom_site_label
_atom_site_fract_x
_atom_site_fract_y
_atom_site_fract_z
Si Si1 0.271335 0.669830 0.579304
Si Si2 0.543442 0.925038 0.809130
Si Si3 0.859895 0.201045 0.217839
Si Si4 0.926862 0.619544 0.710635
Si Si5 0.680881 0.927819 0.264963
Si Si6 0.665730 0.711569 0.768999
Si Si7 0.197604 0.571984 0.886090
Si Si8 0.858533 0.159413 0.512907
O O1 0.273800 0.742729 0.637682
O O2 0.381204 0.674409 0.340856
O O3 0.290091 0.621935 0.699112
O O4 0.086810 0.652060 0.660803
O O5 0.378010 0.921564 0.849174
O O6 0.706010 0.889511 0.608058
O O7 0.589073 0.000000 0.786168
O O8 0.500000 0.897418 0.000000
O O9 0.787958 0.134811 0.214729
O O10 0.946004 0.181093 0.293968
O O11 0.000000 0.231795 0.000000
O O12 0.797465 0.670494 0.751844
O O13 0.000000 0.586581 0.500000
O O14 0.822326 0.584710 0.926437
O O15 0.500000 0.926401 0.500000
O O16 0.755402 0.000000 0.227450
O O17 0.765486 0.777144 0.649811
O O18 0.500000 0.724604 0.000000
O O19 0.268202 0.500000 0.805120
O O20 0.000000 0.572211 0.000000
O O21 0.000000 0.132865 0.500000
#
# Coordination Sequence:
#
# PCOD9150798 Si02
#       8
#     4   4   4   4   4   4   4   4
#     4   9  19  37  55  86 119 147 187 243 294 337
#     4  10  22  41  61  83 113 151 193 239 291 347
#     4  11  22  36  57  87 115 152 195 239 292 347
#     4   9  17  33  57  81 117 152 187 242 290 330
#     4  10  21  41  61  79 115 155 192 242 290 343
#     4  10  20  37  57  81 110 147 193 236 290 349
#     4   9  17  32  57  87 118 153 193 237 286 339
#     4  11  23  38  57  84 115 148 189 242 299 348
#
# _framework density 21.054922999999999
#
# number of rings (size 3 to 8) (size 9 to 14) (size 15 to 20)
#    0.000    2.125    1.250    3.375    1.750    0.750 
#    4.500    2.500    0.000    2.250    0.000    0.000 
#    0.000    0.000    0.000    0.000    0.000    0.000 
#
# Total GULP energy -178298.280475 kJ/mol
# GULP energy per Si atom -5571.821265 kJ/mol
# Density = 2.100700 g / cm^3
# Si number density = 21.054923 Si / 1000 Ang^3
#
#
#
# Elastic Constant Matrix: (Units=GPa)
#
#
# Indices 1 2 3 4 5 6 
#
# 1 44.2789 26.4611 27.3675 0.0000 19.6907 0.0000
# 2 26.4611 95.7980 14.5898 0.0000 20.7954 0.0000
# 3 27.3675 14.5898 94.4575 0.0000 27.9463 0.0000
# 4 0.0000 0.0000 0.0000 10.7305 0.0000 26.4792
# 5 19.6907 20.7954 27.9463 0.0000 30.2505 0.0000
# 6 0.0000 0.0000 0.0000 26.4792 0.0000 60.1114
#
#
#
# Elastic Compliance Matrix: (Units=1/GPa)
#
#
# Indices 1 2 3 4 5 6 
#
# 1 0.035745 -0.005962 -0.005180 0.000000 -0.014383 0.000000
# 2 -0.005962 0.013311 0.001693 0.000000 -0.006834 0.000000
# 3 -0.005180 0.001693 0.015375 0.000000 -0.011996 0.000000
# 4 0.000000 0.000000 0.000000 -1.071084 0.000000 0.471815
# 5 -0.014383 -0.006834 -0.011996 0.000000 0.058200 0.000000
# 6 0.000000 0.000000 0.000000 0.471815 0.000000 -0.191200
#
#
# Mechanical properties :
#
#
# Convention : Reuss Voigt Hill
#
# Bulk Modulus (GPa) = 21.96208 41.26347 31.61278
# Shear Modulus (GPa) = -4.52253 31.29289 13.38518
#
# Velocity S-wave (km/s) = -1.46718 3.85937 2.52410
# Velocity P-wave (km/s) = 2.75378 6.28492 4.85199
#
# Compressibility (1/GPa) = 0.04553303
#
# Stress axis : x y z
#
# Youngs Moduli (GPa) = 27.97596 75.12517 65.03907
#
# Poissons Ratio (x) = 0.44792 0.33692
# Poissons Ratio (y) = 0.16680 -0.11013
# Poissons Ratio (z) = 0.14492 -0.12721
#
# Static dielectric constant tensor:
#      x y z
#    x 1.767290 0.000000 0.068750 
#    y 0.000000 1.763600 0.000000 
#    z 0.068750 0.000000 1.865110 
# 
# From -- ./inp_files/26064.got.cif
#   From: 2010.05.17/outbox.cif.g08.bks.cpg/sg10_14_cif.got.tgz:26064.got - 2010.06.03 11:33:40.
