data_PCOD9150189
_publ_section_title
;
Structure prediction by ZEFSAII (Michael W. Deem and Ramdas Pophale) SiO2 
 PCOD9150189
Probable space group: P 2/M
;
_chemical_formula_sum "Si O2"
_cell_formula_units_Z 32
_cell_length_a 21.215839
_cell_length_b 9.841376
_cell_length_c 26.709277
_cell_angle_alpha 90.000000
_cell_angle_beta 19.464832
_cell_angle_gamma 90.000000
_cell_volume 1858.317524
_symmetry_space_group_name_H-M "P 2/M"
_symmetry_group_IT_number 10
_symmetry_cell_setting 'monoclinic'
loop_
_space_group_symop_operation_xyz
x,y,z
-x,y,-z
-x,-y,-z
x,-y,z
loop_
_atom_site_type_symbol
_atom_site_label
_atom_site_fract_x
_atom_site_fract_y
_atom_site_fract_z
Si Si1 0.601697 0.343162 0.345012
Si Si2 0.963674 0.838389 0.256162
Si Si3 0.383264 0.657438 0.138286
Si Si4 0.380568 0.839527 0.314067
Si Si5 0.801214 0.343122 0.294575
Si Si6 0.428523 0.838544 0.393048
Si Si7 0.614318 0.840127 0.041308
Si Si8 0.962907 0.659898 0.468608
O O1 0.635626 0.500000 0.305057
O O2 0.756691 0.302909 0.270642
O O3 0.401372 0.340648 0.524925
O O4 0.571496 0.245994 0.320596
O O5 0.931475 0.755620 0.229192
O O6 0.784612 0.811820 0.426472
O O7 0.966802 0.000000 0.243570
O O8 0.165716 0.801796 0.128456
O O9 0.385050 0.500000 0.154417
O O10 0.479336 0.751825 0.107503
O O11 0.164642 0.692678 0.292636
O O12 0.500000 0.667257 0.000000
O O13 0.436629 0.802235 0.328575
O O14 0.547244 0.822077 0.148851
O O15 0.203910 0.751874 0.427330
O O16 0.329861 0.000000 0.352497
O O17 0.866254 0.500000 0.246574
O O18 0.462372 0.000000 0.373167
O O19 0.593818 0.000000 0.044394
O O20 0.919534 0.500000 0.493790
O O21 0.000000 0.681455 0.500000
#
# Coordination Sequence:
#
# PCOD9150189 Si02
#       8
#     4   4   4   4   4   4   4   4
#     4   8  14  26  45  70  99 126 157 198 242 287
#     4   9  18  31  47  70  99 127 160 201 242 286
#     4  10  22  38  54  75 101 127 159 202 249 293
#     4  10  21  35  52  73  99 132 166 201 243 291
#     4   8  14  26  45  70  98 127 158 196 242 289
#     4   9  18  31  47  71  99 126 160 202 242 283
#     4  10  21  36  52  72 100 133 165 199 243 294
#     4  10  20  36  55  74  97 126 163 204 242 288
#
# _framework density 17.219878000000001
#
# number of rings (size 3 to 8) (size 9 to 14) (size 15 to 20)
#    0.000    2.750    1.250    0.750    1.750    2.500 
#    0.000    2.500    0.000    0.750    0.000    5.250 
#    0.000    0.000    0.000    0.000    0.000    0.000 
#
# Total GULP energy -178325.785077 kJ/mol
# GULP energy per Si atom -5572.680784 kJ/mol
# Density = 1.718068 g / cm^3
# Si number density = 17.219878 Si / 1000 Ang^3
#
#
#
# Elastic Constant Matrix: (Units=GPa)
#
#
# Indices 1 2 3 4 5 6 
#
# 1 74.4437 32.1029 -11.0300 0.0000 7.0124 0.0000
# 2 32.1029 29.0064 0.4861 0.0000 1.0203 0.0000
# 3 -11.0300 0.4861 17.0303 0.0000 6.4246 0.0000
# 4 0.0000 0.0000 0.0000 28.5902 0.0000 7.5749
# 5 7.0124 1.0203 6.4246 0.0000 15.1033 0.0000
# 6 0.0000 0.0000 0.0000 7.5749 0.0000 47.7081
#
#
#
# Elastic Compliance Matrix: (Units=1/GPa)
#
#
# Indices 1 2 3 4 5 6 
#
# 1 0.043916 -0.048079 0.043218 0.000000 -0.035526 0.000000
# 2 -0.048079 0.087194 -0.047440 0.000000 0.036612 0.000000
# 3 0.043218 -0.047440 0.112473 0.000000 -0.064705 0.000000
# 4 0.000000 0.000000 0.000000 0.036513 0.000000 -0.005797
# 5 -0.035526 0.036612 -0.064705 0.000000 0.107756 0.000000
# 6 0.000000 0.000000 0.000000 -0.005797 0.000000 0.021881
#
#
# Mechanical properties :
#
#
# Convention : Reuss Voigt Hill
#
# Bulk Modulus (GPa) = 7.19526 18.17760 12.68643
# Shear Modulus (GPa) = 8.91801 24.87508 16.89654
#
# Velocity S-wave (km/s) = 2.27819 3.80485 3.13585
# Velocity P-wave (km/s) = 3.33283 5.46641 4.52711
#
# Compressibility (1/GPa) = 0.13898035
#
# Stress axis : x y z
#
# Youngs Moduli (GPa) = 22.77065 11.46869 8.89100
#
# Poissons Ratio (x) = 0.55140 -0.38425
# Poissons Ratio (y) = 1.09479 0.42179
# Poissons Ratio (z) = -0.98409 0.54408
#
# Static dielectric constant tensor:
#      x y z
#    x 1.567300 0.000000 0.020060 
#    y 0.000000 1.573810 0.000000 
#    z 0.020060 0.000000 1.591410 
# 
# From -- ./inp_files/93636.got.cif
#   From: 2010.05.17/outbox.cif.g08.bks.cpg/sg10_47_cif.got.tgz:93636.got - 2010.06.03 11:33:40.
