data_PCOD9150126
_publ_section_title
;
Structure prediction by ZEFSAII (Michael W. Deem and Ramdas Pophale) SiO2 
 PCOD9150126
Probable space group: P 2/M
;
_chemical_formula_sum "Si O2"
_cell_formula_units_Z 28
_cell_length_a 20.391965
_cell_length_b 8.994296
_cell_length_c 14.894443
_cell_angle_alpha 90.000000
_cell_angle_beta 147.079188
_cell_angle_gamma 90.000000
_cell_volume 1484.682549
_symmetry_space_group_name_H-M "P 2/M"
_symmetry_group_IT_number 10
_symmetry_cell_setting 'monoclinic'
loop_
_space_group_symop_operation_xyz
x,y,z
-x,y,-z
-x,-y,-z
x,-y,z
loop_
_atom_site_type_symbol
_atom_site_label
_atom_site_fract_x
_atom_site_fract_y
_atom_site_fract_z
Si Si1 0.718851 0.322621 0.059259
Si Si2 0.555195 0.176311 0.722164
Si Si3 0.641697 0.677357 0.171199
Si Si4 0.930279 0.177360 0.194793
Si Si5 0.219617 0.824914 0.150926
Si Si6 0.790026 0.823007 0.500351
Si Si7 0.295865 0.676606 0.414353
O O1 0.707631 0.500000 0.034420
O O2 0.616161 0.242535 0.881862
O O3 0.702254 0.288722 0.144919
O O4 0.845621 0.265262 0.166108
O O5 0.654212 0.197459 0.757510
O O6 0.430465 0.257066 0.558700
O O7 0.535077 0.000000 0.708923
O O8 0.653060 0.500000 0.201050
O O9 0.703445 0.764841 0.322626
O O10 0.500000 0.711244 0.000000
O O11 0.071042 0.208893 0.365245
O O12 0.909288 0.000000 0.183187
O O13 0.882998 0.212132 0.039900
O O14 0.220374 0.730219 0.241533
O O15 0.210515 0.000000 0.162892
O O16 0.757478 0.743467 0.555716
O O17 0.777468 0.000000 0.497276
O O18 0.300958 0.500000 0.425033
#
# Coordination Sequence:
#
# PCOD9150126 Si02
#       7
#     4   4   4   4   4   4   4
#     4  10  20  35  60  89 118 153 188 232 288 338
#     4  10  20  36  59  86 117 152 192 236 281 336
#     4  10  22  40  60  86 120 152 183 227 286 345
#     4   9  21  41  61  83 113 150 193 239 283 334
#     4   9  19  37  59  82 112 150 190 234 283 337
#     4  11  24  41  61  83 110 150 197 240 283 336
#     4  12  24  36  54  83 118 152 189 238 292 342
#
# _framework density 18.859249999999999
#
# number of rings (size 3 to 8) (size 9 to 14) (size 15 to 20)
#    0.000    1.857    0.000    4.714    0.000    9.429 
#    0.000    5.714    0.000    0.000    0.000    0.000 
#    0.000    0.000    0.000    0.000    0.000    0.000 
#
# Total GULP energy -156515.195021 kJ/mol
# GULP energy per Si atom -5589.828394 kJ/mol
# Density = 1.881633 g / cm^3
# Si number density = 18.859250 Si / 1000 Ang^3
#
#
#
# Elastic Constant Matrix: (Units=GPa)
#
#
# Indices 1 2 3 4 5 6 
#
# 1 80.2802 65.4322 63.5182 0.0000 -28.2811 0.0000
# 2 65.4322 84.4663 50.6994 0.0000 -8.3068 0.0000
# 3 63.5182 50.6994 71.8077 0.0000 10.5771 0.0000
# 4 0.0000 0.0000 0.0000 27.0733 0.0000 -4.0823
# 5 -28.2811 -8.3068 10.5771 0.0000 14.3956 0.0000
# 6 0.0000 0.0000 0.0000 -4.0823 0.0000 33.5352
#
#
#
# Elastic Compliance Matrix: (Units=1/GPa)
#
#
# Indices 1 2 3 4 5 6 
#
# 1 -0.009196 -0.008059 0.019255 0.000000 -0.036864 0.000000
# 2 -0.008059 0.027084 -0.013416 0.000000 0.009655 0.000000
# 3 0.019255 -0.013416 0.002170 0.000000 0.028491 0.000000
# 4 0.000000 0.000000 0.000000 0.037627 0.000000 0.004580
# 5 -0.036864 0.009655 0.028491 0.000000 -0.018319 0.000000
# 6 0.000000 0.000000 0.000000 0.004580 0.000000 0.030377
#
#
# Mechanical properties :
#
#
# Convention : Reuss Voigt Hill
#
# Bulk Modulus (GPa) = 64.03240 66.20597 65.11918
# Shear Modulus (GPa) = 62.98076 18.79446 40.88761
#
# Velocity S-wave (km/s) = 5.78512 3.16027 4.66127
# Velocity P-wave (km/s) = 8.86848 6.96404 7.97333
#
# Compressibility (1/GPa) = 0.01561709
#
# Stress axis : x y z
#
# Youngs Moduli (GPa) = -108.73702 36.92213 460.78041
#
# Poissons Ratio (x) = 0.29754 -8.87212
# Poissons Ratio (y) = -0.87626 6.18201
# Poissons Ratio (z) = 2.09368 0.49536
#
# Static dielectric constant tensor:
#      x y z
#    x 1.635830 0.000000 0.005320 
#    y 0.000000 1.630200 0.000000 
#    z 0.005320 0.000000 1.635890 
# 
# From -- ./inp_files/50038.got.cif
#   From: 2010.05.17/outbox.cif.g08.bks.cpg/sg10_26_cif.got.tgz:50038.got - 2010.06.03 11:33:40.
