data_PCOD9150416
_publ_section_title
;
Structure prediction by ZEFSAII (Michael W. Deem and Ramdas Pophale) SiO2 
 PCOD9150416
Probable space group: P 2/M
;
_chemical_formula_sum "Si O2"
_cell_formula_units_Z 21
_cell_length_a 7.931487
_cell_length_b 24.873001
_cell_length_c 9.013190
_cell_angle_alpha 90.000000
_cell_angle_beta 146.342719
_cell_angle_gamma 90.000000
_cell_volume 985.477339
_symmetry_space_group_name_H-M "P 2/M"
_symmetry_group_IT_number 10
_symmetry_cell_setting 'monoclinic'
loop_
_space_group_symop_operation_xyz
x,y,z
-x,y,-z
-x,-y,-z
x,-y,z
loop_
_atom_site_type_symbol
_atom_site_label
_atom_site_fract_x
_atom_site_fract_y
_atom_site_fract_z
Si Si1 0.961529 0.157307 0.646563
Si Si2 0.153258 0.736577 0.271565
Si Si3 0.296079 0.890141 0.140683
Si Si4 0.316118 0.560183 0.022114
Si Si5 0.000000 0.000000 0.000000
Si Si6 0.817787 0.627147 0.522430
O O1 0.000594 0.216138 0.746427
O O2 0.621425 0.133367 0.421376
O O3 0.000000 0.160590 0.500000
O O4 0.209406 0.118947 0.905744
O O5 0.500000 0.753675 0.500000
O O6 0.164116 0.681904 0.373872
O O7 0.000000 0.728379 0.000000
O O8 0.000000 0.861610 0.000000
O O9 0.253457 0.951865 0.155428
O O10 0.323936 0.500000 0.090475
O O11 0.483529 0.605421 0.240970
O O12 0.500000 0.558416 0.000000
O O13 0.984401 0.580364 0.736338
O O14 0.000000 0.633701 0.500000
#
# Coordination Sequence:
#
# PCOD9150416 Si02
#       6
#     4   4   4   4   1   4
#     4  12  24  41  65  98 128 162 209 269 313 363
#     4  12  25  41  62  87 120 165 207 250 313 385
#     4  10  22  42  68  92 128 171 211 244 304 368
#     4   9  17  31  56  87 116 152 199 248 305 368
#     4   8  24  42  74  94 132 174 218 242 294 378
#     4  10  20  36  58  86 119 153 197 259 307 356
#
# _framework density 21.309470000000001
#
# number of rings (size 3 to 8) (size 9 to 14) (size 15 to 20)
#    0.571    0.952    0.000    6.286    0.000    3.810 
#    0.000    8.571    0.000   11.429    0.000    0.000 
#    0.000    0.000    0.000    0.000    0.000    0.000 
#
# Total GULP energy -117059.807621 kJ/mol
# GULP energy per Si atom -5574.276553 kJ/mol
# Density = 2.126097 g / cm^3
# Si number density = 21.309470 Si / 1000 Ang^3
#
#
#
# Elastic Constant Matrix: (Units=GPa)
#
#
# Indices 1 2 3 4 5 6 
#
# 1 51.0995 25.9401 14.7486 0.0000 -12.8420 0.0000
# 2 25.9401 142.7432 29.6639 0.0000 -21.5047 0.0000
# 3 14.7486 29.6639 120.9970 0.0000 -15.8231 0.0000
# 4 0.0000 0.0000 0.0000 11.5068 0.0000 7.4770
# 5 -12.8420 -21.5047 -15.8231 0.0000 30.5086 0.0000
# 6 0.0000 0.0000 0.0000 7.4770 0.0000 12.0971
#
#
#
# Elastic Compliance Matrix: (Units=1/GPa)
#
#
# Indices 1 2 3 4 5 6 
#
# 1 0.023164 -0.002894 -0.001186 0.000000 0.007095 0.000000
# 2 -0.002894 0.008391 -0.001169 0.000000 0.004090 0.000000
# 3 -0.001186 -0.001169 0.009143 0.000000 0.003418 0.000000
# 4 0.000000 0.000000 0.000000 0.145236 0.000000 -0.089768
# 5 0.007095 0.004090 0.003418 0.000000 0.040420 0.000000
# 6 0.000000 0.000000 0.000000 -0.089768 0.000000 0.138148
#
#
# Mechanical properties :
#
#
# Convention : Reuss Voigt Hill
#
# Bulk Modulus (GPa) = 33.11425 50.61612 41.86519
# Shear Modulus (GPa) = 12.98474 27.12164 20.05319
#
# Velocity S-wave (km/s) = 2.47116 3.57143 3.07098
# Velocity P-wave (km/s) = 4.86987 6.38837 5.68009
#
# Compressibility (1/GPa) = 0.03019848
#
# Stress axis : x y z
#
# Youngs Moduli (GPa) = 43.16980 119.17997 109.37345
#
# Poissons Ratio (x) = 0.34492 0.12973
# Poissons Ratio (y) = 0.12494 0.12791
# Poissons Ratio (z) = 0.05121 0.13938
#
# Static dielectric constant tensor:
#      x y z
#    x 1.841570 0.000000 -0.031740 
#    y 0.000000 1.702160 0.000000 
#    z -0.031740 0.000000 1.772000 
# 
# From -- ./inp_files/20817.got.cif
#   From: 2010.05.17/outbox.cif.g08.bks.cpg/sg10_11_cif.got.tgz:20817.got - 2010.06.03 11:33:40.
