data_PCOD9150343
_publ_section_title
;
Structure prediction by ZEFSAII (Michael W. Deem and Ramdas Pophale) SiO2 
 PCOD9150343
Probable space group: P 2/M
;
_chemical_formula_sum "Si O2"
_cell_formula_units_Z 24
_cell_length_a 15.082671
_cell_length_b 11.199562
_cell_length_c 14.375965
_cell_angle_alpha 90.000000
_cell_angle_beta 31.849025
_cell_angle_gamma 90.000000
_cell_volume 1281.413369
_symmetry_space_group_name_H-M "P 2/M"
_symmetry_group_IT_number 10
_symmetry_cell_setting 'monoclinic'
loop_
_space_group_symop_operation_xyz
x,y,z
-x,y,-z
-x,-y,-z
x,-y,z
loop_
_atom_site_type_symbol
_atom_site_label
_atom_site_fract_x
_atom_site_fract_y
_atom_site_fract_z
Si Si1 0.216609 0.365730 0.438378
Si Si2 0.642263 0.000000 0.501191
Si Si3 0.000000 0.801574 0.500000
Si Si4 0.195102 0.868396 0.147433
Si Si5 0.270730 0.000000 0.794325
Si Si6 0.887999 0.217572 0.300259
Si Si7 0.424608 0.365329 0.962738
Si Si8 0.000000 0.195624 0.000000
O O1 0.163397 0.500000 0.464746
O O2 0.129998 0.279359 0.441471
O O3 0.158177 0.326834 0.592259
O O4 0.416424 0.359029 0.247554
O O5 0.739988 0.880702 0.444475
O O6 0.443149 0.000000 0.698292
O O7 0.671656 0.000000 0.364219
O O8 0.897766 0.870348 0.669881
O O9 0.052815 0.844642 0.197019
O O10 0.273803 0.000000 0.062504
O O11 0.309852 0.749869 0.047417
O O12 0.148106 0.112952 0.910587
O O13 0.920345 0.253215 0.163865
O O14 0.347263 0.500000 0.023083
O O15 0.500000 0.358426 0.000000
#
# Coordination Sequence:
#
# PCOD9150343 Si02
#       8
#     4   2   2   4   2   4   4   2
#     4  10  21  38  58  82 108 149 203 244 283 343
#     4   9  16  34  52  85 113 146 192 233 288 347
#     4  10  20  36  58  80 111 157 188 240 291 354
#     4  11  22  36  56  89 123 153 189 247 306 348
#     4   8  16  28  60  80 107 154 195 231 277 342
#     4  10  21  36  56  84 118 155 189 243 290 351
#     4  10  21  40  60  83 113 156 206 247 286 354
#     4   9  18  36  55  84 120 152 191 237 282 354
#
# _framework density 18.729319
#
# number of rings (size 3 to 8) (size 9 to 14) (size 15 to 20)
#    0.000    2.167    2.500    1.000    0.000    4.333 
#    1.500    0.417    0.000    0.000    0.000   11.667 
#    0.000    0.000    0.000    0.000    0.000    0.000 
#
# Total GULP energy -133721.760493 kJ/mol
# GULP energy per Si atom -5571.740021 kJ/mol
# Density = 1.868669 g / cm^3
# Si number density = 18.729319 Si / 1000 Ang^3
#
#
#
# Elastic Constant Matrix: (Units=GPa)
#
#
# Indices 1 2 3 4 5 6 
#
# 1 78.0663 29.3116 35.4854 0.0000 6.6323 0.0000
# 2 29.3116 115.1202 36.0873 0.0000 -14.2229 0.0000
# 3 35.4854 36.0873 76.1345 0.0000 7.1743 0.0000
# 4 0.0000 0.0000 0.0000 12.6324 0.0000 -18.1337
# 5 6.6323 -14.2229 7.1743 0.0000 45.2537 0.0000
# 6 0.0000 0.0000 0.0000 -18.1337 0.0000 -25.4911
#
#
#
# Elastic Compliance Matrix: (Units=1/GPa)
#
#
# Indices 1 2 3 4 5 6 
#
# 1 0.016893 -0.002559 -0.006448 0.000000 -0.002258 0.000000
# 2 -0.002559 0.011371 -0.004638 0.000000 0.004684 0.000000
# 3 -0.006448 -0.004638 0.018666 0.000000 -0.003472 0.000000
# 4 0.000000 0.000000 0.000000 0.039166 0.000000 -0.027862
# 5 -0.002258 0.004684 -0.003472 0.000000 0.024451 0.000000
# 6 0.000000 0.000000 0.000000 -0.027862 0.000000 -0.019409
#
#
# Mechanical properties :
#
#
# Convention : Reuss Voigt Hill
#
# Bulk Modulus (GPa) = 50.91904 52.34329 51.63117
# Shear Modulus (GPa) = 40.00791 17.70811 28.85801
#
# Velocity S-wave (km/s) = 4.62682 3.07819 3.92955
# Velocity P-wave (km/s) = 7.46921 6.37508 6.94373
#
# Compressibility (1/GPa) = 0.01963902
#
# Stress axis : x y z
#
# Youngs Moduli (GPa) = 59.19519 87.94395 53.57399
#
# Poissons Ratio (x) = 0.22505 0.34545
# Poissons Ratio (y) = 0.15148 0.24850
# Poissons Ratio (z) = 0.38169 0.40792
#
# Static dielectric constant tensor:
#      x y z
#    x 1.643810 0.000000 0.000570 
#    y 0.000000 1.657750 0.000000 
#    z 0.000570 0.000000 1.694560 
# 
# From -- ./inp_files/67297.got.cif
#   From: 2010.05.17/outbox.cif.g08.bks.cpg/sg10_34_cif.got.tgz:67297.got - 2010.06.03 11:33:40.
