data_PCOD9150785
_publ_section_title
;
Structure prediction by ZEFSAII (Michael W. Deem and Ramdas Pophale) SiO2 
 PCOD9150785
Probable space group: P 2/M
;
_chemical_formula_sum "Si O2"
_cell_formula_units_Z 28
_cell_length_a 20.931096
_cell_length_b 14.917719
_cell_length_c 9.458176
_cell_angle_alpha 90.000000
_cell_angle_beta 151.103921
_cell_angle_gamma 90.000000
_cell_volume 1427.081921
_symmetry_space_group_name_H-M "P 2/M"
_symmetry_group_IT_number 10
_symmetry_cell_setting 'monoclinic'
loop_
_space_group_symop_operation_xyz
x,y,z
-x,y,-z
-x,-y,-z
x,-y,z
loop_
_atom_site_type_symbol
_atom_site_label
_atom_site_fract_x
_atom_site_fract_y
_atom_site_fract_z
Si Si1 0.412025 0.761954 0.188384
Si Si2 0.146789 0.319438 0.755936
Si Si3 0.105736 0.402520 0.379012
Si Si4 0.620820 0.104401 0.124684
Si Si5 0.154168 0.223930 0.300170
Si Si6 0.193227 0.359643 0.159645
Si Si7 0.483727 0.601099 0.805286
O O1 0.500000 0.768507 0.500000
O O2 0.453558 0.672839 0.180181
O O3 0.259087 0.751008 0.934985
O O4 0.421458 0.844449 0.099528
O O5 0.134156 0.386418 0.599523
O O6 0.000000 0.281473 0.500000
O O7 0.189953 0.365275 0.984912
O O8 0.153722 0.500000 0.426375
O O9 0.162210 0.316413 0.407295
O O10 0.946208 0.398268 0.056260
O O11 0.746783 0.154030 0.438738
O O12 0.649039 0.000000 0.154141
O O13 0.500000 0.111714 0.000000
O O14 0.192967 0.257222 0.218189
O O15 0.000000 0.196238 0.000000
O O16 0.327627 0.401227 0.473641
O O17 0.537562 0.500000 0.892395
O O18 0.500000 0.629567 0.000000
#
# Coordination Sequence:
#
# PCOD9150785 Si02
#       7
#     4   4   4   4   4   4   4
#     4  12  23  42  67  92 123 165 209 260 314 374
#     4  10  22  39  60  88 122 170 207 251 302 359
#     4  10  21  36  59  90 126 169 215 256 299 355
#     4  11  25  46  70  96 124 155 201 260 323 387
#     4  10  21  39  66  92 123 163 208 257 305 365
#     4  10  20  37  56  87 125 168 208 253 299 354
#     4  11  24  38  57  88 130 173 215 258 304 362
#
# _framework density 19.620456999999998
#
# number of rings (size 3 to 8) (size 9 to 14) (size 15 to 20)
#    0.000    1.429    2.857    2.571    0.000    7.714 
#    0.000    0.000    0.000    0.857    0.000    0.000 
#    0.000    0.000    0.000    0.000    0.000    0.000 
#
# Total GULP energy -156488.401602 kJ/mol
# GULP energy per Si atom -5588.871486 kJ/mol
# Density = 1.957580 g / cm^3
# Si number density = 19.620457 Si / 1000 Ang^3
#
#
#
# Elastic Constant Matrix: (Units=GPa)
#
#
# Indices 1 2 3 4 5 6 
#
# 1 78.7582 50.8468 55.2557 0.0000 -8.0892 0.0000
# 2 50.8468 129.8385 56.8129 0.0000 -0.8814 0.0000
# 3 55.2557 56.8129 150.7772 0.0000 -14.4952 0.0000
# 4 0.0000 0.0000 0.0000 36.3071 0.0000 8.1162
# 5 -8.0892 -0.8814 -14.4952 0.0000 42.5244 0.0000
# 6 0.0000 0.0000 0.0000 8.1162 0.0000 8.8106
#
#
#
# Elastic Compliance Matrix: (Units=1/GPa)
#
#
# Indices 1 2 3 4 5 6 
#
# 1 0.020083 -0.005645 -0.005042 0.000000 0.001985 0.000000
# 2 -0.005645 0.010853 -0.002173 0.000000 -0.001590 0.000000
# 3 -0.005042 -0.002173 0.009514 0.000000 0.002239 0.000000
# 4 0.000000 0.000000 0.000000 0.034686 0.000000 -0.031952
# 5 0.001985 -0.001590 0.002239 0.000000 0.024624 0.000000
# 6 0.000000 0.000000 0.000000 -0.031952 0.000000 0.142934
#
#
# Mechanical properties :
#
#
# Convention : Reuss Voigt Hill
#
# Bulk Modulus (GPa) = 67.89343 76.13385 72.01364
# Shear Modulus (GPa) = 18.29337 30.62564 24.45951
#
# Velocity S-wave (km/s) = 3.05677 3.95511 3.53460
# Velocity P-wave (km/s) = 6.86564 7.72947 7.31033
#
# Compressibility (1/GPa) = 0.01472897
#
# Stress axis : x y z
#
# Youngs Moduli (GPa) = 49.79395 92.14212 105.10599
#
# Poissons Ratio (x) = 0.52015 0.52993
# Poissons Ratio (y) = 0.28109 0.22844
# Poissons Ratio (z) = 0.25106 0.20026
#
# Static dielectric constant tensor:
#      x y z
#    x 1.734960 0.000000 -0.003580 
#    y 0.000000 1.659540 0.000000 
#    z -0.003580 0.000000 1.715240 
# 
# From -- ./inp_files/35291.got.cif
#   From: 2010.05.17/outbox.cif.g08.bks.cpg/sg10_18_cif.got.tgz:35291.got - 2010.06.03 11:33:40.
