data_PCOD9150823
_publ_section_title
;
Structure prediction by ZEFSAII (Michael W. Deem and Ramdas Pophale) SiO2 
 PCOD9150823
Probable space group: P 2/M
;
_chemical_formula_sum "Si O2"
_cell_formula_units_Z 28
_cell_length_a 12.135608
_cell_length_b 7.831666
_cell_length_c 15.451416
_cell_angle_alpha 90.000000
_cell_angle_beta 117.633571
_cell_angle_gamma 90.000000
_cell_volume 1301.021150
_symmetry_space_group_name_H-M "P 2/M"
_symmetry_group_IT_number 10
_symmetry_cell_setting 'monoclinic'
loop_
_space_group_symop_operation_xyz
x,y,z
-x,y,-z
-x,-y,-z
x,-y,z
loop_
_atom_site_type_symbol
_atom_site_label
_atom_site_fract_x
_atom_site_fract_y
_atom_site_fract_z
Si Si1 0.776858 0.801211 0.704112
Si Si2 0.633771 0.297637 0.813630
Si Si3 0.123766 0.290844 0.992137
Si Si4 0.916535 0.201220 0.388853
Si Si5 0.034711 0.693412 0.782519
Si Si6 0.379959 0.791760 0.507710
Si Si7 0.636714 0.206267 0.301439
O O1 0.664964 0.782267 0.731228
O O2 0.734835 0.742695 0.594111
O O3 0.897135 0.696753 0.774235
O O4 0.811050 0.000000 0.713728
O O5 0.645807 0.500000 0.808783
O O6 0.492441 0.260061 0.790330
O O7 0.747257 0.237998 0.915905
O O8 0.120661 0.500000 0.989088
O O9 0.117544 0.231443 0.889935
O O10 0.000000 0.235452 0.000000
O O11 0.973389 0.219471 0.313848
O O12 0.774655 0.267934 0.326468
O O13 0.000000 0.270717 0.500000
O O14 0.903205 0.000000 0.403556
O O15 0.073914 0.500000 0.780112
O O16 0.500000 0.731444 0.500000
O O17 0.375219 0.734192 0.603526
O O18 0.382267 0.000000 0.509517
O O19 0.636788 0.000000 0.298290
#
# Coordination Sequence:
#
# PCOD9150823 Si02
#       7
#     4   4   4   4   4   4   4
#     4  11  20  33  55  83 116 151 190 233 288 352
#     4  11  21  35  56  83 116 151 190 237 292 348
#     4   9  18  36  58  81 116 158 193 231 292 357
#     4  10  22  42  65  86 115 158 199 234 285 354
#     4  11  22  38  61  86 114 150 197 248 291 337
#     4   9  16  29  51  77 107 145 184 219 271 346
#     4  10  20  37  58  81 113 152 192 237 287 343
#
# _framework density 21.521557999999999
#
# number of rings (size 3 to 8) (size 9 to 14) (size 15 to 20)
#    0.000    1.857    2.857    2.143    0.000    3.143 
#    0.000    7.857    0.000    4.286    0.000    0.000 
#    0.000    0.000    0.000    0.000    0.000    0.000 
#
# Total GULP energy -156171.032795 kJ/mol
# GULP energy per Si atom -5577.536886 kJ/mol
# Density = 2.147257 g / cm^3
# Si number density = 21.521558 Si / 1000 Ang^3
#
#
#
# Elastic Constant Matrix: (Units=GPa)
#
#
# Indices 1 2 3 4 5 6 
#
# 1 104.7610 3.0863 39.2902 0.0000 24.3031 0.0000
# 2 3.0863 33.7377 10.3510 0.0000 5.3432 0.0000
# 3 39.2902 10.3510 132.0443 0.0000 25.8637 0.0000
# 4 0.0000 0.0000 0.0000 13.3410 0.0000 3.5228
# 5 24.3031 5.3432 25.8637 0.0000 33.2770 0.0000
# 6 0.0000 0.0000 0.0000 3.5228 0.0000 24.9032
#
#
#
# Elastic Compliance Matrix: (Units=1/GPa)
#
#
# Indices 1 2 3 4 5 6 
#
# 1 0.012022 0.000719 -0.002231 0.000000 -0.007162 0.000000
# 2 0.000719 0.030778 -0.001835 0.000000 -0.004041 0.000000
# 3 -0.002231 -0.001835 0.009441 0.000000 -0.005414 0.000000
# 4 0.000000 0.000000 0.000000 0.077866 0.000000 -0.011015
# 5 -0.007162 -0.004041 -0.005414 0.000000 0.040138 0.000000
# 6 0.000000 0.000000 0.000000 -0.011015 0.000000 0.041714
#
#
# Mechanical properties :
#
#
# Convention : Reuss Voigt Hill
#
# Bulk Modulus (GPa) = 21.95525 41.77757 31.86641
# Shear Modulus (GPa) = 21.38256 28.82527 25.10391
#
# Velocity S-wave (km/s) = 3.15547 3.66371 3.41904
# Velocity P-wave (km/s) = 4.84764 6.11155 5.51592
#
# Compressibility (1/GPa) = 0.04554719
#
# Stress axis : x y z
#
# Youngs Moduli (GPa) = 83.17746 32.49117 105.91703
#
# Poissons Ratio (x) = -0.02336 0.23629
# Poissons Ratio (y) = -0.05980 0.19437
# Poissons Ratio (z) = 0.18556 0.05963
#
# Static dielectric constant tensor:
#      x y z
#    x 1.790950 0.000000 0.039070 
#    y 0.000000 1.785490 0.000000 
#    z 0.039070 0.000000 1.813310 
# 
# From -- ./inp_files/49371.got.cif
#   From: 2010.05.17/outbox.cif.g08.bks.cpg/sg10_25_cif.got.tgz:49371.got - 2010.06.03 11:33:40.
