data_PCOD9150749
_publ_section_title
;
Structure prediction by ZEFSAII (Michael W. Deem and Ramdas Pophale) SiO2 
 PCOD9150749
Probable space group: P 2/M
;
_chemical_formula_sum "Si O2"
_cell_formula_units_Z 22
_cell_length_a 12.451074
_cell_length_b 14.437595
_cell_length_c 9.524001
_cell_angle_alpha 90.000000
_cell_angle_beta 37.331727
_cell_angle_gamma 90.000000
_cell_volume 1038.247550
_symmetry_space_group_name_H-M "P 2/M"
_symmetry_group_IT_number 10
_symmetry_cell_setting 'monoclinic'
loop_
_space_group_symop_operation_xyz
x,y,z
-x,y,-z
-x,-y,-z
x,-y,z
loop_
_atom_site_type_symbol
_atom_site_label
_atom_site_fract_x
_atom_site_fract_y
_atom_site_fract_z
Si Si1 0.669051 0.397969 0.105851
Si Si2 0.583503 0.195239 0.269709
Si Si3 0.937101 0.396163 0.226225
Si Si4 0.038098 0.889836 0.124530
Si Si5 0.744337 0.771665 0.565407
Si Si6 0.500000 0.332890 0.000000
O O1 0.636369 0.500000 0.203209
O O2 0.882816 0.391170 0.868829
O O3 0.619099 0.305791 0.242585
O O4 0.561560 0.389593 0.072017
O O5 0.500000 0.159919 0.500000
O O6 0.432695 0.182861 0.311804
O O7 0.765494 0.145212 0.048297
O O8 0.862759 0.500000 0.316817
O O9 0.802829 0.317542 0.412315
O O10 0.000000 0.383582 0.000000
O O11 0.903930 0.841569 0.372536
O O12 0.023485 0.000000 0.147641
O O13 0.000000 0.862330 0.000000
O O14 0.673401 0.729324 0.784053
#
# Coordination Sequence:
#
# PCOD9150749 Si02
#       6
#     4   4   4   4   4   2
#     4  10  21  38  60  91 130 174 220 261 306 372
#     4  11  21  36  63  95 130 162 205 263 323 388
#     4  10  20  36  63  95 127 167 213 265 328 387
#     4  11  23  41  68  97 127 162 206 270 342 395
#     4  11  22  41  62  89 130 168 212 264 316 379
#     4  10  25  40  61  90 128 180 227 262 303 374
#
# _framework density 21.189551999999999
#
# number of rings (size 3 to 8) (size 9 to 14) (size 15 to 20)
#    0.000    1.455    3.636    1.909    0.000    5.818 
#    0.000    2.273    0.000    5.455    0.000    0.000 
#    0.000    0.000    0.000    0.000    0.000    0.000 
#
# Total GULP energy -122817.641627 kJ/mol
# GULP energy per Si atom -5582.620074 kJ/mol
# Density = 2.114132 g / cm^3
# Si number density = 21.189552 Si / 1000 Ang^3
#
#
#
# Elastic Constant Matrix: (Units=GPa)
#
#
# Indices 1 2 3 4 5 6 
#
# 1 50.9401 3.1003 13.5468 0.0000 -22.0804 0.0000
# 2 3.1003 87.4319 54.0421 0.0000 -1.5955 0.0000
# 3 13.5468 54.0421 125.4057 0.0000 -20.9370 0.0000
# 4 0.0000 0.0000 0.0000 33.3483 0.0000 -13.3953
# 5 -22.0804 -1.5955 -20.9370 0.0000 32.1827 0.0000
# 6 0.0000 0.0000 0.0000 -13.3953 0.0000 18.3259
#
#
#
# Elastic Compliance Matrix: (Units=1/GPa)
#
#
# Indices 1 2 3 4 5 6 
#
# 1 0.028017 -0.001078 0.000716 0.000000 0.019635 0.000000
# 2 -0.001078 0.016113 -0.007648 0.000000 -0.004916 0.000000
# 3 0.000716 -0.007648 0.012578 0.000000 0.008295 0.000000
# 4 0.000000 0.000000 0.000000 0.042450 0.000000 0.031029
# 5 0.019635 -0.004916 0.008295 0.000000 0.049696 0.000000
# 6 0.000000 0.000000 0.000000 0.031029 0.000000 0.077248
#
#
# Mechanical properties :
#
#
# Convention : Reuss Voigt Hill
#
# Bulk Modulus (GPa) = 24.57736 45.01736 34.79736
# Shear Modulus (GPa) = 19.55528 29.64394 24.59961
#
# Velocity S-wave (km/s) = 3.04118 3.74436 3.41094
# Velocity P-wave (km/s) = 4.89445 6.32336 5.65423
#
# Compressibility (1/GPa) = 0.04068786
#
# Stress axis : x y z
#
# Youngs Moduli (GPa) = 35.69276 62.06020 79.50697
#
# Poissons Ratio (x) = 0.06689 -0.05693
# Poissons Ratio (y) = 0.03847 0.60809
# Poissons Ratio (z) = -0.02556 0.47465
#
# Static dielectric constant tensor:
#      x y z
#    x 1.788570 0.000000 0.001620 
#    y 0.000000 1.763860 0.000000 
#    z 0.001620 0.000000 1.778460 
# 
# From -- ./inp_files/51356.got.cif
#   From: 2010.05.17/outbox.cif.g08.bks.cpg/sg10_26_cif.got.tgz:51356.got - 2010.06.03 11:33:40.
