data_PCOD9150727
_publ_section_title
;
Structure prediction by ZEFSAII (Michael W. Deem and Ramdas Pophale) SiO2 
 PCOD9150727
Probable space group: P 2/M
;
_chemical_formula_sum "Si O2"
_cell_formula_units_Z 28
_cell_length_a 22.651897
_cell_length_b 8.282366
_cell_length_c 19.383108
_cell_angle_alpha 90.000000
_cell_angle_beta 159.460337
_cell_angle_gamma 90.000000
_cell_volume 1275.883318
_symmetry_space_group_name_H-M "P 2/M"
_symmetry_group_IT_number 10
_symmetry_cell_setting 'monoclinic'
loop_
_space_group_symop_operation_xyz
x,y,z
-x,y,-z
-x,-y,-z
x,-y,z
loop_
_atom_site_type_symbol
_atom_site_label
_atom_site_fract_x
_atom_site_fract_y
_atom_site_fract_z
Si Si1 0.502925 0.500000 0.086202
Si Si2 0.592826 0.690766 0.430150
Si Si3 0.374866 0.827272 0.798467
Si Si4 0.882732 0.500000 0.303760
Si Si5 0.985396 0.822868 0.612281
Si Si6 0.196720 0.808410 0.210819
Si Si7 0.249292 0.305799 0.116605
Si Si8 0.112975 0.304042 0.348934
O O1 0.311392 0.500000 0.894064
O O2 0.500000 0.500000 0.000000
O O3 0.590509 0.664347 0.205372
O O4 0.577891 0.500000 0.400554
O O5 0.692222 0.720085 0.610345
O O6 0.401520 0.751499 0.233024
O O7 0.721741 0.750667 0.512350
O O8 0.185397 0.819457 0.619833
O O9 0.395061 0.000000 0.784311
O O10 0.500000 0.827994 0.000000
O O11 0.000000 0.500000 0.500000
O O12 0.914901 0.664193 0.297564
O O13 0.913900 0.794359 0.610507
O O14 0.064984 0.000000 0.692415
O O15 0.263818 0.771035 0.207950
O O16 0.203820 0.000000 0.231948
O O17 0.000000 0.757430 0.000000
O O18 0.265946 0.500000 0.141593
O O19 0.060661 0.274314 0.883097
O O20 0.120424 0.500000 0.369067
#
# Coordination Sequence:
#
# PCOD9150727 Si02
#       8
#     2   4   4   2   4   4   4   4
#     4  10  20  36  62  94 124 162 200 249 308 369
#     4  10  21  38  63  91 118 165 217 265 323 383
#     4   9  18  36  61  89 124 161 202 254 310 372
#     4  12  24  42  70  98 130 167 210 263 324 386
#     4  11  24  43  68  98 133 171 214 266 327 394
#     4  11  22  35  56  88 125 166 212 268 327 377
#     4  10  21  38  62  90 123 163 218 268 317 384
#     4  10  21  41  63  87 130 172 212 268 324 387
#
# _framework density 21.945581000000001
#
# number of rings (size 3 to 8) (size 9 to 14) (size 15 to 20)
#    0.000    1.714    2.143    3.000    0.000    4.857 
#    2.571    0.000    0.000    0.000    0.000    0.000 
#    0.000    0.000    0.000    0.000    0.000    0.000 
#
# Total GULP energy -156335.523391 kJ/mol
# GULP energy per Si atom -5583.411550 kJ/mol
# Density = 2.189563 g / cm^3
# Si number density = 21.945581 Si / 1000 Ang^3
#
#
#
# Elastic Constant Matrix: (Units=GPa)
#
#
# Indices 1 2 3 4 5 6 
#
# 1 86.8064 38.2042 21.5822 0.0000 28.9123 0.0000
# 2 38.2042 126.8484 23.3519 0.0000 22.4293 0.0000
# 3 21.5822 23.3519 47.9472 0.0000 28.2446 0.0000
# 4 0.0000 0.0000 0.0000 11.8786 0.0000 -6.9221
# 5 28.9123 22.4293 28.2446 0.0000 40.8279 0.0000
# 6 0.0000 0.0000 0.0000 -6.9221 0.0000 -4.5520
#
#
#
# Elastic Compliance Matrix: (Units=1/GPa)
#
#
# Indices 1 2 3 4 5 6 
#
# 1 0.016134 -0.003142 -0.000031 0.000000 -0.009677 0.000000
# 2 -0.003142 0.009512 -0.002449 0.000000 -0.001306 0.000000
# 3 -0.000031 -0.002449 0.035879 0.000000 -0.023454 0.000000
# 4 0.000000 0.000000 0.000000 0.044633 0.000000 -0.067872
# 5 -0.009677 -0.001306 -0.023454 0.000000 0.048289 0.000000
# 6 0.000000 0.000000 0.000000 -0.067872 0.000000 -0.116471
#
#
# Mechanical properties :
#
#
# Convention : Reuss Voigt Hill
#
# Bulk Modulus (GPa) = 19.88848 47.54204 33.71526
# Shear Modulus (GPa) = 75.78159 21.52849 48.65504
#
# Velocity S-wave (km/s) = 5.88273 3.13548 4.71369
# Velocity P-wave (km/s) = 7.43131 5.90076 6.70982
#
# Compressibility (1/GPa) = 0.05028035
#
# Stress axis : x y z
#
# Youngs Moduli (GPa) = 61.98169 105.13542 27.87156
#
# Poissons Ratio (x) = 0.33037 0.00086
# Poissons Ratio (y) = 0.19476 0.06825
# Poissons Ratio (z) = 0.00192 0.25743
#
# Static dielectric constant tensor:
#      x y z
#    x 1.745120 0.000000 0.020960 
#    y 0.000000 1.822820 0.000000 
#    z 0.020960 0.000000 1.821740 
# 
# From -- ./inp_files/86578.got.cif
#   From: 2010.05.17/outbox.cif.g08.bks.cpg/sg10_44_cif.got.tgz:86578.got - 2010.06.03 11:33:40.
