data_PCOD9150624
_publ_section_title
;
Structure prediction by ZEFSAII (Michael W. Deem and Ramdas Pophale) SiO2 
 PCOD9150624
Probable space group: P 2/M
;
_chemical_formula_sum "Si O2"
_cell_formula_units_Z 24
_cell_length_a 13.700964
_cell_length_b 8.547284
_cell_length_c 14.571074
_cell_angle_alpha 90.000000
_cell_angle_beta 138.687657
_cell_angle_gamma 90.000000
_cell_volume 1126.476999
_symmetry_space_group_name_H-M "P 2/M"
_symmetry_group_IT_number 10
_symmetry_cell_setting 'monoclinic'
loop_
_space_group_symop_operation_xyz
x,y,z
-x,y,-z
-x,-y,-z
x,-y,z
loop_
_atom_site_type_symbol
_atom_site_label
_atom_site_fract_x
_atom_site_fract_y
_atom_site_fract_z
Si Si1 0.972608 0.816803 0.839844
Si Si2 0.482710 0.813860 0.594470
Si Si3 0.267607 0.315176 0.582416
Si Si4 0.216967 0.681395 0.139570
Si Si5 0.963264 0.188035 0.325135
Si Si6 0.636877 0.189300 0.161155
O O1 0.848698 0.719222 0.805928
O O2 0.004377 0.772809 0.758136
O O3 0.931630 0.000000 0.814854
O O4 0.121405 0.786262 0.003048
O O5 0.500000 0.770472 0.500000
O O6 0.330762 0.766464 0.535472
O O7 0.613060 0.727135 0.740456
O O8 0.502288 0.000000 0.614986
O O9 0.276713 0.500000 0.579136
O O10 0.363032 0.257859 0.736574
O O11 0.097871 0.263088 0.476033
O O12 0.193533 0.500000 0.101495
O O13 0.796701 0.235205 0.232535
O O14 0.972412 0.000000 0.342670
O O15 0.632619 0.000000 0.164297
O O16 0.500000 0.238112 0.000000
#
# Coordination Sequence:
#
# PCOD9150624 Si02
#       6
#     4   4   4   4   4   4
#     4  10  20  36  60  89 122 167 218 262 311 377
#     4  11  24  42  65  90 122 167 217 265 313 378
#     4  12  26  42  64  97 133 172 210 262 330 389
#     4  11  22  36  56  88 128 166 207 262 325 381
#     4  10  22  41  66  94 124 166 219 267 314 375
#     4  10  23  44  70  97 126 167 219 272 320 376
#
# _framework density 21.305361999999999
#
# number of rings (size 3 to 8) (size 9 to 14) (size 15 to 20)
#    0.000    1.333    0.000    6.500    2.333    9.667 
#    0.000    0.000    0.000    0.000    0.000    0.000 
#    0.000    0.000    0.000    0.000    0.000    0.000 
#
# Total GULP energy -134269.358690 kJ/mol
# GULP energy per Si atom -5594.556612 kJ/mol
# Density = 2.125687 g / cm^3
# Si number density = 21.305362 Si / 1000 Ang^3
#
#
#
# Elastic Constant Matrix: (Units=GPa)
#
#
# Indices 1 2 3 4 5 6 
#
# 1 90.3665 12.1804 35.3681 0.0000 -0.0807 0.0000
# 2 12.1804 24.0608 12.7662 0.0000 -5.0761 0.0000
# 3 35.3681 12.7662 95.8769 0.0000 1.7510 0.0000
# 4 0.0000 0.0000 0.0000 -39.1387 0.0000 -19.5490
# 5 -0.0807 -5.0761 1.7510 0.0000 37.4980 0.0000
# 6 0.0000 0.0000 0.0000 -19.5490 0.0000 -66.4124
#
#
#
# Elastic Compliance Matrix: (Units=1/GPa)
#
#
# Indices 1 2 3 4 5 6 
#
# 1 0.013370 -0.004559 -0.004318 0.000000 -0.000387 0.000000
# 2 -0.004559 0.047832 -0.004809 0.000000 0.006690 0.000000
# 3 -0.004318 -0.004809 0.012686 0.000000 -0.001253 0.000000
# 4 0.000000 0.000000 0.000000 -0.029954 0.000000 0.008817
# 5 -0.000387 0.006690 -0.001253 0.000000 0.027631 0.000000
# 6 0.000000 0.000000 0.000000 0.008817 0.000000 -0.017653
#
#
# Mechanical properties :
#
#
# Convention : Reuss Voigt Hill
#
# Bulk Modulus (GPa) = 21.49797 36.77041 29.13419
# Shear Modulus (GPa) = 51.65746 -3.61132 24.02307
#
# Velocity S-wave (km/s) = 4.92939 -1.30335 3.36156
# Velocity P-wave (km/s) = 6.52003 3.87702 5.36386
#
# Compressibility (1/GPa) = 0.04651602
#
# Stress axis : x y z
#
# Youngs Moduli (GPa) = 74.79302 20.90629 78.82587
#
# Poissons Ratio (x) = 0.09531 0.34037
# Poissons Ratio (y) = 0.34098 0.37911
# Poissons Ratio (z) = 0.32296 0.10055
#
# Static dielectric constant tensor:
#      x y z
#    x 1.788670 0.000000 0.003170 
#    y 0.000000 1.710970 0.000000 
#    z 0.003170 0.000000 1.776450 
# 
# From -- ./inp_files/66681.got.cif
#   From: 2010.05.17/outbox.cif.g08.bks.cpg/sg10_34_cif.got.tgz:66681.got - 2010.06.03 11:33:40.
