data_PCOD9150490
_publ_section_title
;
Structure prediction by ZEFSAII (Michael W. Deem and Ramdas Pophale) SiO2 
 PCOD9150490
Probable space group: P 2/M
;
_chemical_formula_sum "Si O2"
_cell_formula_units_Z 20
_cell_length_a 26.750733
_cell_length_b 8.842166
_cell_length_c 9.258019
_cell_angle_alpha 90.000000
_cell_angle_beta 29.602975
_cell_angle_gamma 90.000000
_cell_volume 1081.752606
_symmetry_space_group_name_H-M "P 2/M"
_symmetry_group_IT_number 10
_symmetry_cell_setting 'monoclinic'
loop_
_space_group_symop_operation_xyz
x,y,z
-x,y,-z
-x,-y,-z
x,-y,z
loop_
_atom_site_type_symbol
_atom_site_label
_atom_site_fract_x
_atom_site_fract_y
_atom_site_fract_z
Si Si1 0.100553 0.180625 0.840572
Si Si2 0.509083 0.173571 0.302052
Si Si3 0.717224 0.679649 0.799234
Si Si4 0.898285 0.319214 0.845425
Si Si5 0.284965 0.182219 0.874119
O O1 0.196985 0.247324 0.515301
O O2 0.110992 0.000000 0.828974
O O3 0.091155 0.255622 0.020430
O O4 0.000000 0.211841 0.000000
O O5 0.500000 0.173121 0.500000
O O6 0.397421 0.222506 0.533205
O O7 0.528013 0.000000 0.209453
O O8 0.605435 0.274636 0.024179
O O9 0.728067 0.500000 0.777087
O O10 0.727137 0.747091 0.936070
O O11 0.884654 0.500000 0.882534
O O12 0.000000 0.285519 0.500000
O O13 0.803162 0.242578 0.005963
O O14 0.281918 0.000000 0.894369
#
# Coordination Sequence:
#
# PCOD9150490 Si02
#       5
#     4   4   4   4   4
#     4  11  24  41  61  83 110 148 191 232 277 335
#     4   8  16  32  54  81 113 149 189 230 273 326
#     4  11  21  34  57  87 118 150 186 233 283 330
#     4  11  24  40  59  85 116 147 182 231 287 337
#     4  10  20  36  59  85 115 152 192 232 274 328
#
# _framework density 18.488517000000002
#
# number of rings (size 3 to 8) (size 9 to 14) (size 15 to 20)
#    0.000    1.800    0.000    6.000    0.000   10.800 
#    0.000    1.000    0.000    6.000    0.000    0.000 
#    0.000    0.000    0.000    0.000    0.000    0.000 
#
# Total GULP energy -111729.349485 kJ/mol
# GULP energy per Si atom -5586.467474 kJ/mol
# Density = 1.844644 g / cm^3
# Si number density = 18.488517 Si / 1000 Ang^3
#
#
#
# Elastic Constant Matrix: (Units=GPa)
#
#
# Indices 1 2 3 4 5 6 
#
# 1 102.5572 43.0319 65.3652 0.0000 -16.3630 0.0000
# 2 43.0319 72.1316 66.1774 0.0000 -10.8354 0.0000
# 3 65.3652 66.1774 144.5080 0.0000 -13.3227 0.0000
# 4 0.0000 0.0000 0.0000 26.8167 0.0000 3.2252
# 5 -16.3630 -10.8354 -13.3227 0.0000 33.4541 0.0000
# 6 0.0000 0.0000 0.0000 3.2252 0.0000 27.0959
#
#
#
# Elastic Compliance Matrix: (Units=1/GPa)
#
#
# Indices 1 2 3 4 5 6 
#
# 1 0.015057 -0.004239 -0.004482 0.000000 0.004207 0.000000
# 2 -0.004239 0.025506 -0.009543 0.000000 0.002387 0.000000
# 3 -0.004482 -0.009543 0.013319 0.000000 0.000021 0.000000
# 4 0.000000 0.000000 0.000000 0.037832 0.000000 -0.004503
# 5 0.004207 0.002387 0.000021 0.000000 0.032731 0.000000
# 6 0.000000 0.000000 0.000000 -0.004503 0.000000 0.037442
#
#
# Mechanical properties :
#
#
# Convention : Reuss Voigt Hill
#
# Bulk Modulus (GPa) = 57.61914 74.26064 65.93989
# Shear Modulus (GPa) = 24.48581 27.11484 25.80032
#
# Velocity S-wave (km/s) = 3.64315 3.83375 3.73966
# Velocity P-wave (km/s) = 6.99494 7.73627 7.37492
#
# Compressibility (1/GPa) = 0.01735534
#
# Stress axis : x y z
#
# Youngs Moduli (GPa) = 66.41505 39.20581 75.07834
#
# Poissons Ratio (x) = 0.16619 0.33647
# Poissons Ratio (y) = 0.28153 0.71648
# Poissons Ratio (z) = 0.29764 0.37415
#
# Static dielectric constant tensor:
#      x y z
#    x 1.624040 0.000000 -0.020680 
#    y 0.000000 1.613170 0.000000 
#    z -0.020680 0.000000 1.629330 
# 
# From -- ./inp_files/26753.got.cif
#   From: 2010.05.17/outbox.cif.g08.bks.cpg/sg10_14_cif.got.tgz:26753.got - 2010.06.03 11:33:40.
