data_PCOD9150772
_publ_section_title
;
Structure prediction by ZEFSAII (Michael W. Deem and Ramdas Pophale) SiO2 
 PCOD9150772
Probable space group: P 2/M
;
_chemical_formula_sum "Si O2"
_cell_formula_units_Z 32
_cell_length_a 9.417152
_cell_length_b 14.538927
_cell_length_c 21.913484
_cell_angle_alpha 90.000000
_cell_angle_beta 143.395218
_cell_angle_gamma 90.000000
_cell_volume 1789.049104
_symmetry_space_group_name_H-M "P 2/M"
_symmetry_group_IT_number 10
_symmetry_cell_setting 'monoclinic'
loop_
_space_group_symop_operation_xyz
x,y,z
-x,y,-z
-x,-y,-z
x,-y,z
loop_
_atom_site_type_symbol
_atom_site_label
_atom_site_fract_x
_atom_site_fract_y
_atom_site_fract_z
Si Si1 0.054019 0.224324 0.949844
Si Si2 0.219834 0.898723 0.388304
Si Si3 0.753446 0.711329 0.556284
Si Si4 0.957767 0.108044 0.175207
Si Si5 0.725670 0.604244 0.426632
Si Si6 0.025870 0.605598 0.747725
Si Si7 0.781782 0.392080 0.796080
Si Si8 0.580225 0.747780 0.092277
O O1 0.989499 0.155842 0.871468
O O2 0.919365 0.319996 0.886466
O O3 0.339426 0.234592 0.044817
O O4 0.000000 0.194377 0.000000
O O5 0.500000 0.905296 0.500000
O O6 0.121658 0.810228 0.390599
O O7 0.165004 0.881564 0.297728
O O8 0.115263 0.000000 0.366611
O O9 0.500000 0.722862 0.500000
O O10 0.716115 0.680511 0.475088
O O11 0.874096 0.630130 0.636074
O O12 0.732108 0.161677 0.126750
O O13 0.910854 0.000000 0.151044
O O14 0.676288 0.500000 0.433251
O O15 0.505533 0.621498 0.304485
O O16 0.000000 0.604284 0.500000
O O17 0.097794 0.500000 0.773517
O O18 0.245068 0.674469 0.818899
O O19 0.880016 0.623953 0.760415
O O20 0.827998 0.500000 0.826632
O O21 0.500000 0.705818 0.000000
#
# Coordination Sequence:
#
# PCOD9150772 Si02
#       8
#     4   4   4   4   4   4   4   4
#     4  11  24  39  57  83 116 149 196 240 281 338
#     4   9  18  32  58  90 114 140 179 227 282 345
#     4  11  19  31  56  84 113 142 182 234 280 328
#     4  10  20  39  63  85 114 147 186 238 291 341
#     4  10  22  37  54  82 118 157 191 225 277 344
#     4  11  20  32  56  87 113 142 190 240 283 331
#     4  10  20  37  58  80 113 154 192 232 287 336
#     4  10  20  37  55  81 109 145 191 236 288 332
#
# _framework density 17.886596999999998
#
# number of rings (size 3 to 8) (size 9 to 14) (size 15 to 20)
#    0.000    1.750    5.000    0.375    1.750    5.000 
#    0.000    1.250    0.000    0.375    0.000    0.000 
#    0.000    0.000    0.000    0.000    0.000    0.000 
#
# Total GULP energy -178213.444972 kJ/mol
# GULP energy per Si atom -5569.170155 kJ/mol
# Density = 1.784589 g / cm^3
# Si number density = 17.886597 Si / 1000 Ang^3
#
#
#
# Elastic Constant Matrix: (Units=GPa)
#
#
# Indices 1 2 3 4 5 6 
#
# 1 65.0837 31.8427 29.3705 0.0000 5.8343 0.0000
# 2 31.8427 118.5012 41.1139 0.0000 -8.2728 0.0000
# 3 29.3705 41.1139 93.9541 0.0000 4.7304 0.0000
# 4 0.0000 0.0000 0.0000 19.4506 0.0000 3.6579
# 5 5.8343 -8.2728 4.7304 0.0000 15.7757 0.0000
# 6 0.0000 0.0000 0.0000 3.6579 0.0000 21.4337
#
#
#
# Elastic Compliance Matrix: (Units=1/GPa)
#
#
# Indices 1 2 3 4 5 6 
#
# 1 0.020176 -0.004717 -0.003800 0.000000 -0.008796 0.000000
# 2 -0.004717 0.011784 -0.004143 0.000000 0.009166 0.000000
# 3 -0.003800 -0.004143 0.013893 0.000000 -0.004933 0.000000
# 4 0.000000 0.000000 0.000000 0.053117 0.000000 -0.009065
# 5 -0.008796 0.009166 -0.004933 0.000000 0.072928 0.000000
# 6 0.000000 0.000000 0.000000 -0.009065 0.000000 0.048202
#
#
# Mechanical properties :
#
#
# Convention : Reuss Voigt Hill
#
# Bulk Modulus (GPa) = 48.70573 53.57702 51.14137
# Shear Modulus (GPa) = 19.82042 23.01280 21.41661
#
# Velocity S-wave (km/s) = 3.33245 3.59080 3.46404
# Velocity P-wave (km/s) = 6.48817 6.87100 6.68233
#
# Compressibility (1/GPa) = 0.02053147
#
# Stress axis : x y z
#
# Youngs Moduli (GPa) = 49.56356 84.86240 71.97902
#
# Poissons Ratio (x) = 0.40031 0.27352
# Poissons Ratio (y) = 0.23380 0.29824
# Poissons Ratio (z) = 0.18834 0.35162
#
# Static dielectric constant tensor:
#      x y z
#    x 1.615530 0.000000 0.048630 
#    y 0.000000 1.659410 0.000000 
#    z 0.048630 0.000000 1.688800 
# 
# From -- ./inp_files/51641.got.cif
#   From: 2010.05.17/outbox.cif.g08.bks.cpg/sg10_26_cif.got.tgz:51641.got - 2010.06.03 11:33:40.
