data_PCOD9150635
_publ_section_title
;
Structure prediction by ZEFSAII (Michael W. Deem and Ramdas Pophale) SiO2 
 PCOD9150635
Probable space group: P 2/M
;
_chemical_formula_sum "Si O2"
_cell_formula_units_Z 32
_cell_length_a 24.444820
_cell_length_b 8.524276
_cell_length_c 14.637618
_cell_angle_alpha 90.000000
_cell_angle_beta 147.029933
_cell_angle_gamma 90.000000
_cell_volume 1659.869494
_symmetry_space_group_name_H-M "P 2/M"
_symmetry_group_IT_number 10
_symmetry_cell_setting 'monoclinic'
loop_
_space_group_symop_operation_xyz
x,y,z
-x,y,-z
-x,-y,-z
x,-y,z
loop_
_atom_site_type_symbol
_atom_site_label
_atom_site_fract_x
_atom_site_fract_y
_atom_site_fract_z
Si Si1 0.457386 0.312290 0.185805
Si Si2 0.400505 0.812080 0.303551
Si Si3 0.310701 0.310398 0.497228
Si Si4 0.777739 0.687665 0.820954
Si Si5 0.191355 0.189537 0.504589
Si Si6 0.902033 0.808870 0.304914
Si Si7 0.958846 0.810325 0.182117
Si Si8 0.718523 0.189800 0.174495
O O1 0.456469 0.500000 0.187791
O O2 0.412126 0.248084 0.217036
O O3 0.572958 0.258846 0.339641
O O4 0.388451 0.254150 0.006439
O O5 0.500000 0.764211 0.500000
O O6 0.303052 0.747823 0.218469
O O7 0.395113 0.000000 0.294676
O O8 0.309753 0.500000 0.497171
O O9 0.258389 0.258167 0.329637
O O10 0.251783 0.249208 0.502254
O O11 0.777085 0.500000 0.820842
O O12 0.887057 0.748066 0.002498
O O13 0.243432 0.239819 0.672400
O O14 0.074779 0.240235 0.338410
O O15 0.191204 0.000000 0.504440
O O16 0.914041 0.758023 0.217319
O O17 0.801760 0.758431 0.216571
O O18 0.000000 0.761182 0.500000
O O19 0.901371 0.000000 0.303623
O O20 0.956982 0.000000 0.178248
O O21 0.715465 0.000000 0.168927
#
# Coordination Sequence:
#
# PCOD9150635 Si02
#       8
#     4   4   4   4   4   4   4   4
#     4  11  23  40  61  86 119 159 197 240 292 351
#     4  11  22  37  62  93 121 152 190 239 297 354
#     4  10  24  43  60  79 112 160 205 242 292 352
#     4  11  23  40  61  86 119 159 197 240 292 351
#     4  10  22  39  61  87 118 154 197 252 304 346
#     4   9  15  30  58  85 115 150 181 222 285 354
#     4  10  20  36  60  91 120 152 194 242 297 353
#     4  10  20  36  60  91 120 152 194 242 297 353
#
# _framework density 19.278624000000001
#
# number of rings (size 3 to 8) (size 9 to 14) (size 15 to 20)
#    0.000    1.750    2.500    1.875    0.000    5.500 
#    0.000    5.000    0.000    0.750    0.000    0.000 
#    0.000    0.000    0.000    0.000    0.000    0.000 
#
# Total GULP energy -178818.120041 kJ/mol
# GULP energy per Si atom -5588.066251 kJ/mol
# Density = 1.923475 g / cm^3
# Si number density = 19.278624 Si / 1000 Ang^3
#
#
#
# Elastic Constant Matrix: (Units=GPa)
#
#
# Indices 1 2 3 4 5 6 
#
# 1 155.3569 21.2354 88.9716 0.0000 -7.6505 0.0000
# 2 21.2354 15.0065 29.6268 0.0000 -3.9240 0.0000
# 3 88.9716 29.6268 195.6056 0.0000 -19.9045 0.0000
# 4 0.0000 0.0000 0.0000 20.3239 0.0000 0.3791
# 5 -7.6505 -3.9240 -19.9045 0.0000 1.7431 0.0000
# 6 0.0000 0.0000 0.0000 0.3791 0.0000 26.6148
#
#
#
# Elastic Compliance Matrix: (Units=1/GPa)
#
#
# Indices 1 2 3 4 5 6 
#
# 1 0.008259 -0.001991 0.001373 0.000000 0.047449 0.000000
# 2 -0.001991 0.074847 -0.035961 0.000000 -0.250887 0.000000
# 3 0.001373 -0.035961 -0.014257 0.000000 -0.237737 0.000000
# 4 0.000000 0.000000 0.000000 0.049216 0.000000 -0.000701
# 5 0.047449 -0.250887 -0.237737 0.000000 -2.497634 0.000000
# 6 0.000000 0.000000 0.000000 -0.000701 0.000000 0.037583
#
#
# Mechanical properties :
#
#
# Convention : Reuss Voigt Hill
#
# Bulk Modulus (GPa) = -232.13181 71.73743 -80.19719
# Shear Modulus (GPa) = -2.20239 24.81202 11.30482
#
# Velocity S-wave (km/s) = -1.06999 3.59140 2.42418
# Velocity P-wave (km/s) = 11.05427 7.38168 5.81840
#
# Compressibility (1/GPa) = -0.00430790
#
# Stress axis : x y z
#
# Youngs Moduli (GPa) = 121.07835 13.36052 -70.13956
#
# Poissons Ratio (x) = 0.02660 0.09632
# Poissons Ratio (y) = 0.24108 -2.52226
# Poissons Ratio (z) = -0.16627 0.48045
#
# Static dielectric constant tensor:
#      x y z
#    x 1.638150 0.000000 -0.003120 
#    y 0.000000 1.663190 0.000000 
#    z -0.003120 0.000000 1.675260 
# 
# From -- ./inp_files/71671.got.cif
#   From: 2010.05.17/outbox.cif.g08.bks.cpg/sg10_36_cif.got.tgz:71671.got - 2010.06.03 11:33:40.
