data_PCOD9150564
_publ_section_title
;
Structure prediction by ZEFSAII (Michael W. Deem and Ramdas Pophale) SiO2 
 PCOD9150564
Probable space group: P 2/M
;
_chemical_formula_sum "Si O2"
_cell_formula_units_Z 26
_cell_length_a 10.415887
_cell_length_b 7.356929
_cell_length_c 23.035227
_cell_angle_alpha 90.000000
_cell_angle_beta 140.336419
_cell_angle_gamma 90.000000
_cell_volume 1126.667139
_symmetry_space_group_name_H-M "P 2/M"
_symmetry_group_IT_number 10
_symmetry_cell_setting 'monoclinic'
loop_
_space_group_symop_operation_xyz
x,y,z
-x,y,-z
-x,-y,-z
x,-y,z
loop_
_atom_site_type_symbol
_atom_site_label
_atom_site_fract_x
_atom_site_fract_y
_atom_site_fract_z
Si Si1 0.713391 0.000000 0.540138
Si Si2 0.621684 0.719294 0.279272
Si Si3 0.678828 0.282147 0.731615
Si Si4 0.970026 0.279839 0.055389
Si Si5 0.473930 0.282812 0.104666
Si Si6 0.143443 0.000000 0.286509
Si Si7 0.690577 0.000000 0.109393
Si Si8 0.937719 0.717032 0.545214
O O1 0.500000 0.000000 0.500000
O O2 0.762734 0.171104 0.515552
O O3 0.868075 0.000000 0.648381
O O4 0.616079 0.500000 0.280226
O O5 0.524003 0.777793 0.305878
O O6 0.488865 0.769216 0.177589
O O7 0.852241 0.767460 0.350124
O O8 0.676168 0.500000 0.722045
O O9 0.854314 0.234377 0.839252
O O10 0.733048 0.174086 0.693147
O O11 0.971403 0.500000 0.053035
O O12 0.744883 0.228235 0.995558
O O13 0.000000 0.214779 0.000000
O O14 0.493998 0.500000 0.107066
O O15 0.648087 0.180191 0.132228
O O16 0.926468 0.000000 0.179736
O O17 0.500000 0.000000 0.000000
O O18 0.899882 0.500000 0.535206
O O19 0.000000 0.756915 0.500000
#
# Coordination Sequence:
#
# PCOD9150564 Si02
#       8
#     2   4   4   4   4   2   2   4
#     4  12  29  48  68  99 139 181 217 260 329 400
#     4   9  18  36  65  97 122 156 206 262 324 375
#     4  10  21  38  62  92 128 165 208 263 320 379
#     4   9  15  30  55  87 122 155 198 258 318 370
#     4  10  20  36  60  84 116 158 201 255 313 365
#     4  12  28  43  59  89 129 176 218 251 311 388
#     4  12  26  41  55  82 120 163 217 255 294 374
#     4  10  23  45  75 104 129 164 218 276 327 385
#
# _framework density 23.076913999999999
#
# number of rings (size 3 to 8) (size 9 to 14) (size 15 to 20)
#    0.000    1.846    1.538    2.077    2.154    3.077 
#    0.000    0.769    0.000    0.000    0.000    0.000 
#    0.000    0.000    0.000    0.000    0.000    0.000 
#
# Total GULP energy -145289.759786 kJ/mol
# GULP energy per Si atom -5588.067684 kJ/mol
# Density = 2.302439 g / cm^3
# Si number density = 23.076914 Si / 1000 Ang^3
#
#
#
# Elastic Constant Matrix: (Units=GPa)
#
#
# Indices 1 2 3 4 5 6 
#
# 1 145.8175 62.5018 26.0129 0.0000 11.9110 0.0000
# 2 62.5018 108.9826 16.2977 0.0000 -4.4836 0.0000
# 3 26.0129 16.2977 72.5641 0.0000 1.3755 0.0000
# 4 0.0000 0.0000 0.0000 10.2358 0.0000 -3.3809
# 5 11.9110 -4.4836 1.3755 0.0000 40.7641 0.0000
# 6 0.0000 0.0000 0.0000 -3.3809 0.0000 36.8652
#
#
#
# Elastic Compliance Matrix: (Units=1/GPa)
#
#
# Indices 1 2 3 4 5 6 
#
# 1 0.009884 -0.005472 -0.002249 0.000000 -0.003414 0.000000
# 2 -0.005472 0.012576 -0.000920 0.000000 0.003013 0.000000
# 3 -0.002249 -0.000920 0.014793 0.000000 0.000057 0.000000
# 4 0.000000 0.000000 0.000000 0.100748 0.000000 0.009240
# 5 -0.003414 0.003013 0.000057 0.000000 0.025858 0.000000
# 6 0.000000 0.000000 0.000000 0.009240 0.000000 0.027973
#
#
# Mechanical properties :
#
#
# Convention : Reuss Voigt Hill
#
# Bulk Modulus (GPa) = 50.07742 59.66546 54.87144
# Shear Modulus (GPa) = 23.17268 32.40982 27.79125
#
# Velocity S-wave (km/s) = 3.17227 3.75163 3.47405
# Velocity P-wave (km/s) = 5.93001 6.68412 6.31833
#
# Compressibility (1/GPa) = 0.01996908
#
# Stress axis : x y z
#
# Youngs Moduli (GPa) = 101.17727 79.51828 67.60054
#
# Poissons Ratio (x) = 0.43515 0.15206
# Poissons Ratio (y) = 0.55368 0.06218
# Poissons Ratio (z) = 0.22758 0.07314
#
# Static dielectric constant tensor:
#      x y z
#    x 1.848550 0.000000 0.010660 
#    y 0.000000 1.755740 0.000000 
#    z 0.010660 0.000000 1.900030 
# 
# From -- ./inp_files/82271.got.cif
#   From: 2010.05.17/outbox.cif.g08.bks.cpg/sg10_42_cif.got.tgz:82271.got - 2010.06.03 11:33:40.
