data_PCOD9150191
_publ_section_title
;
Structure prediction by ZEFSAII (Michael W. Deem and Ramdas Pophale) SiO2 
 PCOD9150191
Probable space group: P 2/M
;
_chemical_formula_sum "Si O2"
_cell_formula_units_Z 32
_cell_length_a 21.636537
_cell_length_b 7.616977
_cell_length_c 26.922034
_cell_angle_alpha 90.000000
_cell_angle_beta 159.193382
_cell_angle_gamma 90.000000
_cell_volume 1576.048164
_symmetry_space_group_name_H-M "P 2/M"
_symmetry_group_IT_number 10
_symmetry_cell_setting 'monoclinic'
loop_
_space_group_symop_operation_xyz
x,y,z
-x,y,-z
-x,-y,-z
x,-y,z
loop_
_atom_site_type_symbol
_atom_site_label
_atom_site_fract_x
_atom_site_fract_y
_atom_site_fract_z
Si Si1 0.528114 0.788912 0.349183
Si Si2 0.189445 0.206093 0.153587
Si Si3 0.242110 0.289063 0.943581
Si Si4 0.147483 0.288670 0.336215
Si Si5 0.193012 0.208491 0.636278
Si Si6 0.485370 0.287484 0.932755
Si Si7 0.299258 0.287371 0.345970
Si Si8 0.465106 0.211018 0.758921
O O1 0.356547 0.720975 0.249310
O O2 0.701599 0.751732 0.511012
O O3 0.538608 0.723118 0.300357
O O4 0.513581 0.000000 0.335915
O O5 0.222478 0.221907 0.236850
O O6 0.181743 0.000000 0.134333
O O7 0.000000 0.284290 0.000000
O O8 0.234356 0.500000 0.933694
O O9 0.045251 0.222144 0.795964
O O10 0.356898 0.223814 0.983566
O O11 0.353948 0.249439 0.076923
O O12 0.137873 0.500000 0.326320
O O13 0.203394 0.225786 0.323589
O O14 0.309378 0.234776 0.772615
O O15 0.309052 0.278749 0.677369
O O16 0.000000 0.281475 0.500000
O O17 0.174958 0.000000 0.613881
O O18 0.490505 0.500000 0.937208
O O19 0.500000 0.224881 0.000000
O O20 0.500000 0.233512 0.500000
O O21 0.293741 0.500000 0.340734
O O22 0.448372 0.000000 0.744594
#
# Coordination Sequence:
#
# PCOD9150191 Si02
#       8
#     4   4   4   4   4   4   4   4
#     4  10  21  36  52  74 103 133 167 207 251 299
#     4  10  22  37  53  76 103 131 167 209 252 299
#     4   9  19  35  53  75 102 133 169 206 249 299
#     4  10  21  36  53  75 103 133 167 208 252 299
#     4   9  18  33  52  75 103 135 169 206 249 295
#     4   9  18  33  52  75 104 134 166 207 250 294
#     4  10  20  36  55  75 101 132 167 208 252 298
#     4   9  19  35  53  74 103 135 168 208 250 295
#
# _framework density 20.303947000000001
#
# number of rings (size 3 to 8) (size 9 to 14) (size 15 to 20)
#    0.000    2.500    1.250    0.000    1.750    3.500 
#    0.000    0.000    0.000    0.000    0.000    0.000 
#    0.000    0.000    0.000    0.000    0.000    0.000 
#
# Total GULP energy -178592.625555 kJ/mol
# GULP energy per Si atom -5581.019549 kJ/mol
# Density = 2.025773 g / cm^3
# Si number density = 20.303947 Si / 1000 Ang^3
#
#
#
# Elastic Constant Matrix: (Units=GPa)
#
#
# Indices 1 2 3 4 5 6 
#
# 1 169.6753 -1.1124 121.9609 0.0000 -4.8758 0.0000
# 2 -1.1124 39.8669 -0.5392 0.0000 8.3529 0.0000
# 3 121.9609 -0.5392 208.3030 0.0000 20.4912 0.0000
# 4 0.0000 0.0000 0.0000 16.4280 0.0000 -12.0910
# 5 -4.8758 8.3529 20.4912 0.0000 25.7337 0.0000
# 6 0.0000 0.0000 0.0000 -12.0910 0.0000 10.4543
#
#
#
# Elastic Compliance Matrix: (Units=1/GPa)
#
#
# Indices 1 2 3 4 5 6 
#
# 1 0.011691 -0.001643 -0.007725 0.000000 0.008900 0.000000
# 2 -0.001643 0.027341 0.002101 0.000000 -0.010859 0.000000
# 3 -0.007725 0.002101 0.010351 0.000000 -0.010388 0.000000
# 4 0.000000 0.000000 0.000000 0.409188 0.000000 0.473252
# 5 0.008900 -0.010859 -0.010388 0.000000 0.052342 0.000000
# 6 0.000000 0.000000 0.000000 0.473252 0.000000 0.643001
#
#
# Mechanical properties :
#
#
# Convention : Reuss Voigt Hill
#
# Bulk Modulus (GPa) = 28.69483 73.16264 50.92874
# Shear Modulus (GPa) = 4.23706 30.35892 17.29799
#
# Velocity S-wave (km/s) = 1.44615 3.87101 2.92199
# Velocity P-wave (km/s) = 4.11725 7.48943 6.04331
#
# Compressibility (1/GPa) = 0.03484948
#
# Stress axis : x y z
#
# Youngs Moduli (GPa) = 85.53512 36.57488 96.61025
#
# Poissons Ratio (x) = 0.06009 0.74630
# Poissons Ratio (y) = 0.14052 -0.20297
# Poissons Ratio (z) = 0.66074 -0.07684
#
# Static dielectric constant tensor:
#      x y z
#    x 1.659570 0.000000 0.052790 
#    y 0.000000 1.753840 0.000000 
#    z 0.052790 0.000000 1.683770 
# 
# From -- ./inp_files/93658.got.cif
#   From: 2010.05.17/outbox.cif.g08.bks.cpg/sg10_47_cif.got.tgz:93658.got - 2010.06.03 11:33:40.
