data_PCOD9150940
_publ_section_title
;
Structure prediction by ZEFSAII (Michael W. Deem and Ramdas Pophale) SiO2 
 PCOD9150940
Probable space group: P 2/M
;
_chemical_formula_sum "Si O2"
_cell_formula_units_Z 28
_cell_length_a 9.857204
_cell_length_b 8.937481
_cell_length_c 28.132685
_cell_angle_alpha 90.000000
_cell_angle_beta 38.153350
_cell_angle_gamma 90.000000
_cell_volume 1531.107604
_symmetry_space_group_name_H-M "P 2/M"
_symmetry_group_IT_number 10
_symmetry_cell_setting 'monoclinic'
loop_
_space_group_symop_operation_xyz
x,y,z
-x,y,-z
-x,-y,-z
x,-y,z
loop_
_atom_site_type_symbol
_atom_site_label
_atom_site_fract_x
_atom_site_fract_y
_atom_site_fract_z
Si Si1 0.649300 0.320264 0.863013
Si Si2 0.250009 0.825890 0.447396
Si Si3 0.937408 0.322762 0.875597
Si Si4 0.333227 0.322872 0.695997
Si Si5 0.829809 0.821036 0.004808
Si Si6 0.035648 0.178753 0.697264
Si Si7 0.251737 0.672927 0.549014
O O1 0.655944 0.500000 0.856764
O O2 0.405219 0.258578 0.924650
O O3 0.752988 0.284204 0.886592
O O4 0.810927 0.246637 0.779974
O O5 0.422858 0.740213 0.366355
O O6 0.258626 0.751790 0.496560
O O7 0.000000 0.814902 0.500000
O O8 0.312876 0.000000 0.432309
O O9 0.913174 0.500000 0.892782
O O10 0.170866 0.299765 0.785133
O O11 0.916677 0.230592 0.929370
O O12 0.336853 0.500000 0.684613
O O13 0.221620 0.238470 0.682388
O O14 0.800888 0.000000 0.013675
O O15 0.000000 0.780480 0.000000
O O16 0.097311 0.241637 0.628750
O O17 0.029429 0.000000 0.699086
O O18 0.500000 0.675882 0.500000
O O19 0.183444 0.500000 0.563618
#
# Coordination Sequence:
#
# PCOD9150940 Si02
#       7
#     4   4   4   4   4   4   4
#     4  10  21  39  63  89 118 151 194 242 287 346
#     4  11  24  40  58  85 119 158 200 245 298 350
#     4   9  20  38  62  89 114 147 193 242 289 344
#     4  10  20  37  60  87 118 152 196 244 291 350
#     4  11  24  40  58  86 122 157 192 235 289 348
#     4  11  21  35  60  91 121 151 191 245 298 344
#     4  11  22  37  61  88 117 156 200 244 290 347
#
# _framework density 18.287414999999999
#
# number of rings (size 3 to 8) (size 9 to 14) (size 15 to 20)
#    0.000    1.571    1.429    4.714    0.000    8.000 
#    2.571    0.000    0.000    0.000    0.000    0.000 
#    0.000    0.000    0.000    0.000    0.000    0.000 
#
# Total GULP energy -156446.351847 kJ/mol
# GULP energy per Si atom -5587.369709 kJ/mol
# Density = 1.824579 g / cm^3
# Si number density = 18.287415 Si / 1000 Ang^3
#
#
#
# Elastic Constant Matrix: (Units=GPa)
#
#
# Indices 1 2 3 4 5 6 
#
# 1 127.9122 -401.6982 -21.9391 0.0000 -189.8348 0.0000
# 2 -401.6982 4014.7101 748.1549 0.0000 1550.1219 0.0000
# 3 -21.9391 748.1549 234.2888 0.0000 260.5036 0.0000
# 4 0.0000 0.0000 0.0000 34.8238 0.0000 -6.5396
# 5 -189.8348 1550.1219 260.5036 0.0000 643.1014 0.0000
# 6 0.0000 0.0000 0.0000 -6.5396 0.0000 21.9899
#
#
#
# Elastic Compliance Matrix: (Units=1/GPa)
#
#
# Indices 1 2 3 4 5 6 
#
# 1 0.020707 -0.000568 -0.008307 0.000000 0.010847 0.000000
# 2 -0.000568 0.006038 -0.005396 0.000000 -0.012537 0.000000
# 3 -0.008307 -0.005396 0.016350 0.000000 0.003931 0.000000
# 4 0.000000 0.000000 0.000000 0.030415 0.000000 0.009045
# 5 0.010847 -0.012537 0.003931 0.000000 0.033382 0.000000
# 6 0.000000 0.000000 0.000000 0.009045 0.000000 0.048165
#
#
# Mechanical properties :
#
#
# Convention : Reuss Voigt Hill
#
# Bulk Modulus (GPa) = 68.71662 558.43847 313.57755
# Shear Modulus (GPa) = 26.53213 410.14258 218.33736
#
# Velocity S-wave (km/s) = 3.81312 14.99209 10.93852
# Velocity P-wave (km/s) = 7.55275 24.61126 18.20382
#
# Compressibility (1/GPa) = 0.01455252
#
# Stress axis : x y z
#
# Youngs Moduli (GPa) = 48.29401 165.61029 61.16108
#
# Poissons Ratio (x) = 0.09412 0.50806
# Poissons Ratio (y) = 0.02745 0.33002
# Poissons Ratio (z) = 0.40118 0.89363
#
# Static dielectric constant tensor:
#      x y z
#    x 1.608920 0.000000 -0.014520 
#    y 0.000000 1.611680 0.000000 
#    z -0.014520 0.000000 1.640520 
# 
# From -- ./inp_files/37085.got.cif
#   From: 2010.05.17/outbox.cif.g08.bks.cpg/sg10_19_cif.got.tgz:37085.got - 2010.06.03 11:33:40.
