data_PCOD9150124
_publ_section_title
;
Structure prediction by ZEFSAII (Michael W. Deem and Ramdas Pophale) SiO2 
 PCOD9150124
Probable space group: P 2/M
;
_chemical_formula_sum "Si O2"
_cell_formula_units_Z 20
_cell_length_a 20.642777
_cell_length_b 7.596375
_cell_length_c 13.733230
_cell_angle_alpha 90.000000
_cell_angle_beta 155.276719
_cell_angle_gamma 90.000000
_cell_volume 900.676484
_symmetry_space_group_name_H-M "P 2/M"
_symmetry_group_IT_number 10
_symmetry_cell_setting 'monoclinic'
loop_
_space_group_symop_operation_xyz
x,y,z
-x,y,-z
-x,-y,-z
x,-y,z
loop_
_atom_site_type_symbol
_atom_site_label
_atom_site_fract_x
_atom_site_fract_y
_atom_site_fract_z
Si Si1 0.838923 0.704400 0.322180
Si Si2 0.483819 0.786971 0.193412
Si Si3 0.969582 0.214825 0.070253
Si Si4 0.374916 0.214978 0.407288
Si Si5 0.747149 0.207607 0.413975
O O1 0.868925 0.500000 0.381777
O O2 0.778877 0.776736 0.343288
O O3 0.000000 0.781152 0.500000
O O4 0.692594 0.723374 0.050988
O O5 0.574767 0.733506 0.415198
O O6 0.586384 0.725009 0.240797
O O7 0.473917 0.000000 0.178905
O O8 0.105288 0.280089 0.325489
O O9 0.970620 0.000000 0.076646
O O10 0.796111 0.273628 0.856115
O O11 0.000000 0.261882 0.000000
O O12 0.500000 0.273458 0.500000
O O13 0.373214 0.000000 0.405435
O O14 0.741707 0.000000 0.428157
#
# Coordination Sequence:
#
# PCOD9150124 Si02
#       5
#     4   4   4   4   4
#     4  11  26  43  56  75 108 149 192 236 282 330
#     4  10  20  36  59  88 116 142 183 231 273 327
#     4   9  15  28  50  81 118 145 169 213 272 327
#     4   9  17  28  48  83 120 147 173 213 269 329
#     4  10  20  35  60  89 114 143 183 229 274 328
#
# _framework density 22.205532000000002
#
# number of rings (size 3 to 8) (size 9 to 14) (size 15 to 20)
#    0.000    2.200    2.000    1.200    2.800    4.800 
#    0.000    0.000    0.000    2.400    0.000    0.000 
#    0.000    0.000    0.000    0.000    0.000    0.000 
#
# Total GULP energy -111688.441969 kJ/mol
# GULP energy per Si atom -5584.422098 kJ/mol
# Density = 2.215499 g / cm^3
# Si number density = 22.205532 Si / 1000 Ang^3
#
#
#
# Elastic Constant Matrix: (Units=GPa)
#
#
# Indices 1 2 3 4 5 6 
#
# 1 76.8146 0.4579 29.8242 0.0000 27.8264 0.0000
# 2 0.4579 36.6877 0.4550 0.0000 6.0744 0.0000
# 3 29.8242 0.4550 141.4754 0.0000 29.7165 0.0000
# 4 0.0000 0.0000 0.0000 -15.5177 0.0000 34.2856
# 5 27.8264 6.0744 29.7165 0.0000 45.8104 0.0000
# 6 0.0000 0.0000 0.0000 34.2856 0.0000 101.2149
#
#
#
# Elastic Compliance Matrix: (Units=1/GPa)
#
#
# Indices 1 2 3 4 5 6 
#
# 1 0.017081 0.001382 -0.001606 0.000000 -0.009517 0.000000
# 2 0.001382 0.028058 0.000667 0.000000 -0.004993 0.000000
# 3 -0.001606 0.000667 0.008357 0.000000 -0.004534 0.000000
# 4 0.000000 0.000000 0.000000 -0.036857 0.000000 0.012485
# 5 -0.009517 -0.004993 -0.004534 0.000000 0.031213 0.000000
# 6 0.000000 0.000000 0.000000 0.012485 0.000000 0.005651
#
#
# Mechanical properties :
#
#
# Convention : Reuss Voigt Hill
#
# Bulk Modulus (GPa) = 18.38804 35.16133 26.77468
# Shear Modulus (GPa) = 70.67673 41.25087 55.96380
#
# Velocity S-wave (km/s) = 5.64779 4.31476 5.02567
# Velocity P-wave (km/s) = 7.12944 6.37901 6.76464
#
# Compressibility (1/GPa) = 0.05438317
#
# Stress axis : x y z
#
# Youngs Moduli (GPa) = 58.54338 35.64017 119.65763
#
# Poissons Ratio (x) = -0.04927 0.19221
# Poissons Ratio (y) = -0.08093 -0.07982
# Poissons Ratio (z) = 0.09404 -0.02377
#
# Static dielectric constant tensor:
#      x y z
#    x 1.786610 0.000000 0.027720 
#    y 0.000000 1.849540 0.000000 
#    z 0.027720 0.000000 1.816290 
# 
# From -- ./inp_files/22155.got.cif
#   From: 2010.05.17/outbox.cif.g08.bks.cpg/sg10_12_cif.got.tgz:22155.got - 2010.06.03 11:33:40.
