data_PCOD9150253
_publ_section_title
;
Structure prediction by ZEFSAII (Michael W. Deem and Ramdas Pophale) SiO2 
 PCOD9150253
Probable space group: P 2/M
;
_chemical_formula_sum "Si O2"
_cell_formula_units_Z 19
_cell_length_a 7.894691
_cell_length_b 24.357518
_cell_length_c 7.101867
_cell_angle_alpha 90.000000
_cell_angle_beta 140.693842
_cell_angle_gamma 90.000000
_cell_volume 865.092743
_symmetry_space_group_name_H-M "P 2/M"
_symmetry_group_IT_number 10
_symmetry_cell_setting 'monoclinic'
loop_
_space_group_symop_operation_xyz
x,y,z
-x,y,-z
-x,-y,-z
x,-y,z
loop_
_atom_site_type_symbol
_atom_site_label
_atom_site_fract_x
_atom_site_fract_y
_atom_site_fract_z
Si Si1 0.711892 0.380993 0.350469
Si Si2 0.051338 0.830309 0.818860
Si Si3 0.221023 0.724971 0.347154
Si Si4 0.500000 0.000000 0.000000
Si Si5 0.553725 0.896248 0.321500
Si Si6 0.711646 0.500000 0.351647
O O1 0.693296 0.329069 0.468753
O O2 0.681543 0.440800 0.423417
O O3 0.000000 0.379547 0.500000
O O4 0.500000 0.376922 0.000000
O O5 0.934463 0.770898 0.663532
O O6 0.856597 0.875680 0.565284
O O7 0.000000 0.829734 0.000000
O O8 0.354555 0.849669 0.067532
O O9 0.500000 0.748275 0.500000
O O10 0.000000 0.709630 0.000000
O O11 0.493545 0.048235 0.831027
O O12 0.500000 0.902664 0.500000
O O13 0.000000 0.500000 0.500000
O O14 0.500000 0.500000 0.000000
#
# Coordination Sequence:
#
# PCOD9150253 Si02
#       6
#     4   4   4   1   4   2
#     4  10  20  36  56  86 118 159 207 252 302 360
#     4   9  19  39  62  80 114 156 192 223 296 361
#     4  11  21  37  62  88 119 157 201 251 308 367
#     4  12  26  42  64  96 124 146 206 252 294 346
#     4  10  22  41  63  87 117 159 192 239 299 360
#     4   8  16  32  54  74 114 164 202 240 298 370
#
# _framework density 21.962963999999999
#
# number of rings (size 3 to 8) (size 9 to 14) (size 15 to 20)
#    0.000    2.105    0.000    4.737    0.000    2.526 
#    5.684    4.211    0.000    0.000    0.000    0.000 
#    0.000    0.000    0.000    0.000    0.000    0.000 
#
# Total GULP energy -105793.097334 kJ/mol
# GULP energy per Si atom -5568.057754 kJ/mol
# Density = 2.191298 g / cm^3
# Si number density = 21.962964 Si / 1000 Ang^3
#
#
#
# Elastic Constant Matrix: (Units=GPa)
#
#
# Indices 1 2 3 4 5 6 
#
# 1 76.3314 33.2230 39.5899 0.0000 -11.8475 0.0000
# 2 33.2230 182.1642 38.4660 0.0000 -19.9880 0.0000
# 3 39.5899 38.4660 143.6529 0.0000 13.2384 0.0000
# 4 0.0000 0.0000 0.0000 -79.3212 0.0000 -37.1315
# 5 -11.8475 -19.9880 13.2384 0.0000 17.4232 0.0000
# 6 0.0000 0.0000 0.0000 -37.1315 0.0000 18.8105
#
#
#
# Elastic Compliance Matrix: (Units=1/GPa)
#
#
# Indices 1 2 3 4 5 6 
#
# 1 0.019762 -0.000017 -0.007181 0.000000 0.018876 0.000000
# 2 -0.000017 0.007263 -0.002911 0.000000 0.010532 0.000000
# 3 -0.007181 -0.002911 0.011266 0.000000 -0.016783 0.000000
# 4 0.000000 0.000000 0.000000 -0.006552 0.000000 -0.012934
# 5 0.018876 0.010532 -0.016783 0.000000 0.095064 0.000000
# 6 0.000000 0.000000 0.000000 -0.012934 0.000000 0.027630
#
#
# Mechanical properties :
#
#
# Convention : Reuss Voigt Hill
#
# Bulk Modulus (GPa) = 55.32821 69.41179 62.37000
# Shear Modulus (GPa) = 27.67375 10.77381 19.22378
#
# Velocity S-wave (km/s) = 3.55353 2.21723 2.96173
# Velocity P-wave (km/s) = 6.48714 6.18283 6.33681
#
# Compressibility (1/GPa) = 0.01807396
#
# Stress axis : x y z
#
# Youngs Moduli (GPa) = 50.60100 137.68574 88.75913
#
# Poissons Ratio (x) = 0.00230 0.63742
# Poissons Ratio (y) = 0.00084 0.25836
# Poissons Ratio (z) = 0.36339 0.40078
#
# Static dielectric constant tensor:
#      x y z
#    x 1.851820 0.000000 -0.025060 
#    y 0.000000 1.848910 0.000000 
#    z -0.025060 0.000000 1.781350 
# 
# From -- ./inp_files/20692.got.cif
#   From: 2010.05.17/outbox.cif.g08.bks.cpg/sg10_11_cif.got.tgz:20692.got - 2010.06.03 11:33:40.
