data_PCOD9150278
_publ_section_title
;
Structure prediction by ZEFSAII (Michael W. Deem and Ramdas Pophale) SiO2 
 PCOD9150278
Probable space group: P 2/M
;
_chemical_formula_sum "Si O2"
_cell_formula_units_Z 32
_cell_length_a 30.941298
_cell_length_b 7.523253
_cell_length_c 12.774875
_cell_angle_alpha 90.000000
_cell_angle_beta 151.554022
_cell_angle_gamma 90.000000
_cell_volume 1416.474432
_symmetry_space_group_name_H-M "P 2/M"
_symmetry_group_IT_number 10
_symmetry_cell_setting 'monoclinic'
loop_
_space_group_symop_operation_xyz
x,y,z
-x,y,-z
-x,-y,-z
x,-y,z
loop_
_atom_site_type_symbol
_atom_site_label
_atom_site_fract_x
_atom_site_fract_y
_atom_site_fract_z
Si Si1 0.315122 0.718640 0.373398
Si Si2 0.252019 0.216650 0.881189
Si Si3 0.265465 0.213210 0.674605
Si Si4 0.116442 0.705569 0.978171
Si Si5 0.051178 0.205559 0.509123
Si Si6 0.100573 0.215498 0.184486
Si Si7 0.414739 0.293266 0.382283
Si Si8 0.601040 0.288064 0.228985
O O1 0.312601 0.500000 0.366780
O O2 0.383705 0.779641 0.428881
O O3 0.348249 0.777852 0.558645
O O4 0.210972 0.777123 0.132344
O O5 0.277248 0.277131 0.817702
O O6 0.149654 0.278521 0.689427
O O7 0.253731 0.000000 0.886477
O O8 0.326036 0.281469 0.120886
O O9 0.172354 0.277243 0.423365
O O10 0.343352 0.256602 0.758066
O O11 0.259151 0.000000 0.667341
O O12 0.109010 0.500000 0.932753
O O13 0.022821 0.791113 0.740976
O O14 0.125867 0.720492 0.122987
O O15 0.000000 0.287257 0.500000
O O16 0.069585 0.000000 0.575313
O O17 0.102028 0.000000 0.184754
O O18 0.000000 0.273201 0.000000
O O19 0.500000 0.214632 0.500000
O O20 0.437912 0.500000 0.451138
O O21 0.594239 0.500000 0.229390
O O22 0.500000 0.215701 0.000000
#
# Coordination Sequence:
#
# PCOD9150278 Si02
#       8
#     4   4   4   4   4   4   4   4
#     4   9  19  37  56  84 120 147 183 238 289 335
#     4  10  22  40  59  84 119 153 189 239 291 334
#     4  10  21  37  57  83 118 153 188 236 286 337
#     4  11  21  34  56  84 117 150 183 234 289 338
#     4  10  21  38  60  84 113 153 199 238 279 341
#     4  10  20  36  57  80 111 153 193 229 278 337
#     4  10  22  39  62  87 113 150 194 237 285 343
#     4  10  21  37  61  85 112 151 191 236 288 341
#
# _framework density 22.591301999999999
#
# number of rings (size 3 to 8) (size 9 to 14) (size 15 to 20)
#    0.000    2.000    1.250    1.875    1.750    4.000 
#    0.000    2.500    0.000    0.000    0.000    0.000 
#    0.000    0.000    0.000    0.000    0.000    0.000 
#
# Total GULP energy -178834.528732 kJ/mol
# GULP energy per Si atom -5588.579023 kJ/mol
# Density = 2.253988 g / cm^3
# Si number density = 22.591302 Si / 1000 Ang^3
#
#
#
# Elastic Constant Matrix: (Units=GPa)
#
#
# Indices 1 2 3 4 5 6 
#
# 1 151.7928 -3.8807 37.4013 0.0000 15.2077 0.0000
# 2 -3.8807 55.7381 -4.7755 0.0000 5.1075 0.0000
# 3 37.4013 -4.7755 66.9779 0.0000 12.0387 0.0000
# 4 0.0000 0.0000 0.0000 8.3929 0.0000 -10.6183
# 5 15.2077 5.1075 12.0387 0.0000 46.4650 0.0000
# 6 0.0000 0.0000 0.0000 -10.6183 0.0000 11.1349
#
#
#
# Elastic Compliance Matrix: (Units=1/GPa)
#
#
# Indices 1 2 3 4 5 6 
#
# 1 0.007741 0.000334 -0.004024 0.000000 -0.001528 0.000000
# 2 0.000334 0.018331 0.001576 0.000000 -0.002533 0.000000
# 3 -0.004024 0.001576 0.017919 0.000000 -0.003499 0.000000
# 4 0.000000 0.000000 0.000000 -0.577081 0.000000 -0.550310
# 5 -0.001528 -0.002533 -0.003499 0.000000 0.023206 0.000000
# 6 0.000000 0.000000 0.000000 -0.550310 0.000000 -0.434974
#
#
# Mechanical properties :
#
#
# Convention : Reuss Voigt Hill
#
# Bulk Modulus (GPa) = 25.14952 36.88877 31.01915
# Shear Modulus (GPa) = -5.39157 29.58280 12.09562
#
# Velocity S-wave (km/s) = -1.54653 3.62260 2.31640
# Velocity P-wave (km/s) = 2.82269 5.81909 4.57326
#
# Compressibility (1/GPa) = 0.03976219
#
# Stress axis : x y z
#
# Youngs Moduli (GPa) = 129.18052 54.55127 55.80755
#
# Poissons Ratio (x) = -0.01823 0.22459
# Poissons Ratio (y) = -0.04317 -0.08793
# Poissons Ratio (z) = 0.51986 -0.08595
#
# Static dielectric constant tensor:
#      x y z
#    x 1.827180 0.000000 0.006100 
#    y 0.000000 1.881010 0.000000 
#    z 0.006100 0.000000 1.803440 
# 
# From -- ./inp_files/58213.got.cif
#   From: 2010.05.17/outbox.cif.g08.bks.cpg/sg10_30_cif.got.tgz:58213.got - 2010.06.03 11:33:40.
