data_PCOD9150285
_publ_section_title
;
Structure prediction by ZEFSAII (Michael W. Deem and Ramdas Pophale) SiO2 
 PCOD9150285
Probable space group: P 2/M
;
_chemical_formula_sum "Si O2"
_cell_formula_units_Z 28
_cell_length_a 28.351561
_cell_length_b 9.433856
_cell_length_c 8.746182
_cell_angle_alpha 90.000000
_cell_angle_beta 39.052620
_cell_angle_gamma 90.000000
_cell_volume 1473.834141
_symmetry_space_group_name_H-M "P 2/M"
_symmetry_group_IT_number 10
_symmetry_cell_setting 'monoclinic'
loop_
_space_group_symop_operation_xyz
x,y,z
-x,y,-z
-x,-y,-z
x,-y,z
loop_
_atom_site_type_symbol
_atom_site_label
_atom_site_fract_x
_atom_site_fract_y
_atom_site_fract_z
Si Si1 0.714446 0.659832 0.315264
Si Si2 0.228801 0.828675 0.110499
Si Si3 0.172048 0.751135 0.727793
Si Si4 0.312780 0.159543 0.185229
Si Si5 0.903696 0.666168 0.395790
Si Si6 0.411848 0.829379 0.204614
Si Si7 0.024573 0.835265 0.262096
O O1 0.703488 0.500000 0.286316
O O2 0.773264 0.655189 0.307856
O O3 0.637370 0.735088 0.558002
O O4 0.750577 0.764655 0.102313
O O5 0.290178 0.776485 0.080592
O O6 0.152959 0.758019 0.359286
O O7 0.223801 0.000000 0.123319
O O8 0.235773 0.842812 0.478897
O O9 0.124582 0.684429 0.707547
O O10 0.112114 0.820560 0.995028
O O11 0.378892 0.218001 0.122868
O O12 0.335544 0.000000 0.092931
O O13 0.902674 0.500000 0.435540
O O14 0.981906 0.735113 0.248846
O O15 0.395967 0.000000 0.262490
O O16 0.500000 0.809898 0.000000
O O17 0.000000 0.798941 0.500000
O O18 0.003130 0.000000 0.293843
#
# Coordination Sequence:
#
# PCOD9150285 Si02
#       7
#     4   4   4   4   4   4   4
#     4  11  22  36  57  84 114 146 180 221 271 324
#     4  10  20  36  57  81 110 143 183 226 270 323
#     4  10  21  36  56  79 108 143 184 226 272 325
#     4   8  16  32  55  81 106 138 180 227 273 317
#     4  11  23  38  57  80 108 141 180 228 279 328
#     4   9  18  35  59  85 112 144 184 226 268 318
#     4  11  24  39  56  80 110 145 185 228 273 322
#
# _framework density 18.998066999999999
#
# number of rings (size 3 to 8) (size 9 to 14) (size 15 to 20)
#    0.000    2.000    0.000    3.429    0.000    7.429 
#    0.000    1.429    0.000    4.286    0.000    0.000 
#    0.000    0.000    0.000    0.000    0.000    0.000 
#
# Total GULP energy -155911.675802 kJ/mol
# GULP energy per Si atom -5568.274136 kJ/mol
# Density = 1.895483 g / cm^3
# Si number density = 18.998067 Si / 1000 Ang^3
#
#
#
# Elastic Constant Matrix: (Units=GPa)
#
#
# Indices 1 2 3 4 5 6 
#
# 1 97.0742 36.9480 47.7505 0.0000 -15.9111 0.0000
# 2 36.9480 106.1377 40.1541 0.0000 -4.6630 0.0000
# 3 47.7505 40.1541 81.2594 0.0000 -5.0262 0.0000
# 4 0.0000 0.0000 0.0000 -4.3864 0.0000 -0.0917
# 5 -15.9111 -4.6630 -5.0262 0.0000 27.4691 0.0000
# 6 0.0000 0.0000 0.0000 -0.0917 0.0000 12.8906
#
#
#
# Elastic Compliance Matrix: (Units=1/GPa)
#
#
# Indices 1 2 3 4 5 6 
#
# 1 0.016374 -0.002341 -0.007994 0.000000 0.007624 0.000000
# 2 -0.002341 0.011946 -0.004537 0.000000 -0.000158 0.000000
# 3 -0.007994 -0.004537 0.019128 0.000000 -0.001900 0.000000
# 4 0.000000 0.000000 0.000000 -0.227944 0.000000 -0.001622
# 5 0.007624 -0.000158 -0.001900 0.000000 0.040446 0.000000
# 6 0.000000 0.000000 0.000000 -0.001622 0.000000 0.077564
#
#
# Mechanical properties :
#
#
# Convention : Reuss Voigt Hill
#
# Bulk Modulus (GPa) = 56.48218 59.35295 57.91756
# Shear Modulus (GPa) = -186.29420 17.83591 -84.22914
#
# Velocity S-wave (km/s) = -9.91325 3.06735 -6.66572
# Velocity P-wave (km/s) = 10.06155 6.62226 5.35633
#
# Compressibility (1/GPa) = 0.01770470
#
# Stress axis : x y z
#
# Youngs Moduli (GPa) = 61.07212 83.70807 52.27904
#
# Poissons Ratio (x) = 0.19596 0.41789
# Poissons Ratio (y) = 0.14297 0.23721
# Poissons Ratio (z) = 0.48818 0.37982
#
# Static dielectric constant tensor:
#      x y z
#    x 1.701300 0.000000 0.008670 
#    y 0.000000 1.654360 0.000000 
#    z 0.008670 0.000000 1.664800 
# 
# From -- ./inp_files/37041.got.cif
#   From: 2010.05.17/outbox.cif.g08.bks.cpg/sg10_19_cif.got.tgz:37041.got - 2010.06.03 11:33:40.
