data_PCOD9150138
_publ_section_title
;
Structure prediction by ZEFSAII (Michael W. Deem and Ramdas Pophale) SiO2 
 PCOD9150138
Probable space group: P 2/M
;
_chemical_formula_sum "Si O2"
_cell_formula_units_Z 28
_cell_length_a 14.795061
_cell_length_b 22.052807
_cell_length_c 10.190377
_cell_angle_alpha 90.000000
_cell_angle_beta 151.862898
_cell_angle_gamma 90.000000
_cell_volume 1567.938536
_symmetry_space_group_name_H-M "P 2/M"
_symmetry_group_IT_number 10
_symmetry_cell_setting 'monoclinic'
loop_
_space_group_symop_operation_xyz
x,y,z
-x,y,-z
-x,-y,-z
x,-y,z
loop_
_atom_site_type_symbol
_atom_site_label
_atom_site_fract_x
_atom_site_fract_y
_atom_site_fract_z
Si Si1 0.623884 0.000000 0.290488
Si Si2 0.538816 0.355439 0.705394
Si Si3 0.707715 0.880574 0.539527
Si Si4 0.079167 0.572033 0.741825
Si Si5 0.419086 0.217265 0.247662
Si Si6 0.170473 0.571610 0.323007
Si Si7 0.047727 0.000000 0.714811
Si Si8 0.872868 0.120881 0.043338
O O1 0.601411 0.939460 0.346819
O O2 0.500000 0.000000 0.000000
O O3 0.845416 0.000000 0.531172
O O4 0.500000 0.356224 0.500000
O O5 0.582690 0.286183 0.802413
O O6 0.351842 0.385726 0.530656
O O7 0.725302 0.394798 0.973358
O O8 0.567841 0.823374 0.356859
O O9 0.904226 0.870218 0.710185
O O10 0.767399 0.890371 0.768383
O O11 0.116299 0.500000 0.784775
O O12 0.000000 0.591658 0.500000
O O13 0.922229 0.582059 0.653743
O O14 0.500000 0.219887 0.500000
O O15 0.222327 0.179381 0.010207
O O16 0.223462 0.500000 0.377970
O O17 0.000000 0.583192 0.000000
O O18 0.147896 0.061612 0.892071
O O19 0.000000 0.000000 0.500000
#
# Coordination Sequence:
#
# PCOD9150138 Si02
#       8
#     2   4   4   4   4   4   2   4
#     4  10  21  33  54  80 106 134 175 229 284 326
#     4  11  21  36  59  88 119 155 197 244 286 350
#     4   9  18  35  55  77 102 139 177 226 271 325
#     4  10  22  39  60  87 121 156 194 246 301 347
#     4   9  20  34  54  83 108 142 187 223 278 331
#     4  10  20  35  60  93 119 152 198 244 299 348
#     4  10  21  33  52  80 102 136 171 219 284 328
#     4   9  18  35  55  76 105 136 179 224 268 331
#
# _framework density 17.857842999999999
#
# number of rings (size 3 to 8) (size 9 to 14) (size 15 to 20)
#    0.000    2.286    1.429    0.857    2.000    4.000 
#    2.571    5.000    3.143    0.000    0.000    0.000 
#    0.000    0.000    0.000    0.000    0.000    0.000 
#
# Total GULP energy -156192.810474 kJ/mol
# GULP energy per Si atom -5578.314660 kJ/mol
# Density = 1.781720 g / cm^3
# Si number density = 17.857843 Si / 1000 Ang^3
#
#
#
# Elastic Constant Matrix: (Units=GPa)
#
#
# Indices 1 2 3 4 5 6 
#
# 1 88.1522 75.1908 47.0681 0.0000 5.8953 0.0000
# 2 75.1908 128.2559 65.2187 0.0000 16.1316 0.0000
# 3 47.0681 65.2187 78.6062 0.0000 6.3775 0.0000
# 4 0.0000 0.0000 0.0000 6.6875 0.0000 -14.4519
# 5 5.8953 16.1316 6.3775 0.0000 27.1827 0.0000
# 6 0.0000 0.0000 0.0000 -14.4519 0.0000 14.8378
#
#
#
# Elastic Compliance Matrix: (Units=1/GPa)
#
#
# Indices 1 2 3 4 5 6 
#
# 1 0.023841 -0.012066 -0.004512 0.000000 0.003049 0.000000
# 2 -0.012066 0.020446 -0.009141 0.000000 -0.007372 0.000000
# 3 -0.004512 -0.009141 0.022924 0.000000 0.001025 0.000000
# 4 0.000000 0.000000 0.000000 -0.135345 0.000000 -0.131825
# 5 0.003049 -0.007372 0.001025 0.000000 0.040262 0.000000
# 6 0.000000 0.000000 0.000000 -0.131825 0.000000 -0.061001
#
#
# Mechanical properties :
#
#
# Convention : Reuss Voigt Hill
#
# Bulk Modulus (GPa) = 63.39617 74.44107 68.91862
# Shear Modulus (GPa) = -155.39198 16.91073 -69.24063
#
# Velocity S-wave (km/s) = -9.33836 3.08062 -6.23357
# Velocity P-wave (km/s) = 8.98308 7.37763 3.62397
#
# Compressibility (1/GPa) = 0.01577382
#
# Stress axis : x y z
#
# Youngs Moduli (GPa) = 41.94393 48.90867 43.62200
#
# Poissons Ratio (x) = 0.59015 0.19682
# Poissons Ratio (y) = 0.50611 0.39874
# Poissons Ratio (z) = 0.18925 0.44707
#
# Static dielectric constant tensor:
#      x y z
#    x 1.614280 0.000000 -0.002160 
#    y 0.000000 1.609000 0.000000 
#    z -0.002160 0.000000 1.594310 
# 
# From -- ./inp_files/30348.got.cif
#   From: 2010.05.17/outbox.cif.g08.bks.cpg/sg10_16_cif.got.tgz:30348.got - 2010.06.03 11:33:40.
