data_PCOD9150119
_publ_section_title
;
Structure prediction by ZEFSAII (Michael W. Deem and Ramdas Pophale) SiO2 
 PCOD9150119
Probable space group: P 2/M
;
_chemical_formula_sum "Si O2"
_cell_formula_units_Z 18
_cell_length_a 11.396738
_cell_length_b 13.079732
_cell_length_c 6.207336
_cell_angle_alpha 90.000000
_cell_angle_beta 93.296660
_cell_angle_gamma 90.000000
_cell_volume 923.773257
_symmetry_space_group_name_H-M "P 2/M"
_symmetry_group_IT_number 10
_symmetry_cell_setting 'monoclinic'
loop_
_space_group_symop_operation_xyz
x,y,z
-x,y,-z
-x,-y,-z
x,-y,z
loop_
_atom_site_type_symbol
_atom_site_label
_atom_site_fract_x
_atom_site_fract_y
_atom_site_fract_z
Si Si1 0.205983 0.270617 0.308551
Si Si2 0.000000 0.244709 0.000000
Si Si3 0.370234 0.195629 0.949263
Si Si4 0.155084 0.882785 0.679951
Si Si5 0.380610 0.616590 0.626170
O O1 0.304019 0.220785 0.164080
O O2 0.157658 0.183250 0.463130
O O3 0.270851 0.354336 0.461333
O O4 0.098085 0.305546 0.146220
O O5 0.071340 0.173287 0.842268
O O6 0.500000 0.153526 0.000000
O O7 0.285167 0.125869 0.797227
O O8 0.382491 0.302004 0.818701
O O9 0.123121 0.000000 0.642564
O O10 0.500000 0.627245 0.500000
O O11 0.372377 0.500000 0.701600
#
# Coordination Sequence:
#
# PCOD9150119 Si02
#       5
#     4   2   4   4   4
#     4  10  21  37  57  83 118 149 188 232 282 331
#     4  10  21  38  61  82 112 152 189 234 281 332
#     4  10  20  36  56  83 120 152 184 229 284 337
#     4  10  22  37  58  85 113 149 193 237 279 330
#     4  10  20  35  60  88 113 145 188 234 281 335
#
# _framework density 19.485301
#
# number of rings (size 3 to 8) (size 9 to 14) (size 15 to 20)
#    0.000    2.000    2.222    1.000    0.000    7.111 
#    0.000    1.667    0.000   17.333    0.000    0.000 
#    0.000    0.000    0.000    0.000    0.000    0.000 
#
# Total GULP energy -100507.711113 kJ/mol
# GULP energy per Si atom -5583.761729 kJ/mol
# Density = 1.944095 g / cm^3
# Si number density = 19.485301 Si / 1000 Ang^3
#
#
#
# Elastic Constant Matrix: (Units=GPa)
#
#
# Indices 1 2 3 4 5 6 
#
# 1 122.6362 0.0176 32.6961 0.0000 23.5703 0.0000
# 2 0.0176 61.5401 10.9342 0.0000 -6.7769 0.0000
# 3 32.6961 10.9342 86.4306 0.0000 -10.4781 0.0000
# 4 0.0000 0.0000 0.0000 0.4912 0.0000 -5.1528
# 5 23.5703 -6.7769 -10.4781 0.0000 46.6846 0.0000
# 6 0.0000 0.0000 0.0000 -5.1528 0.0000 3.7354
#
#
#
# Elastic Compliance Matrix: (Units=1/GPa)
#
#
# Indices 1 2 3 4 5 6 
#
# 1 0.010688 0.000146 -0.004845 0.000000 -0.006462 0.000000
# 2 0.000146 0.016808 -0.001948 0.000000 0.001929 0.000000
# 3 -0.004845 -0.001948 0.014301 0.000000 0.005373 0.000000
# 4 0.000000 0.000000 0.000000 -0.151128 0.000000 -0.208475
# 5 -0.006462 0.001929 0.005373 0.000000 0.026169 0.000000
# 6 0.000000 0.000000 0.000000 -0.208475 0.000000 -0.019872
#
#
# Mechanical properties :
#
#
# Convention : Reuss Voigt Hill
#
# Bulk Modulus (GPa) = 35.08386 39.76696 37.42541
# Shear Modulus (GPa) = -62.31334 25.31283 -18.50025
#
# Velocity S-wave (km/s) = -5.66119 3.60818 -3.08465
# Velocity P-wave (km/s) = 4.96868 6.14911 2.56162
#
# Compressibility (1/GPa) = 0.02850313
#
# Stress axis : x y z
#
# Youngs Moduli (GPa) = 93.56284 59.49540 69.92681
#
# Poissons Ratio (x) = -0.00870 0.33880
# Poissons Ratio (y) = -0.01368 0.13620
# Poissons Ratio (z) = 0.45332 0.11589
#
# Static dielectric constant tensor:
#      x y z
#    x 1.715340 0.000000 0.035430 
#    y 0.000000 1.613660 0.000000 
#    z 0.035430 0.000000 1.674280 
# 
# From -- ./inp_files/6251.got.cif
#   From: 2010.05.17/outbox.cif.g08.bks.cpg/sg10_4_cif.got.tgz:6251.got - 2010.06.03 11:33:40.
