data_PCOD9150980
_publ_section_title
;
Structure prediction by ZEFSAII (Michael W. Deem and Ramdas Pophale) SiO2 
 PCOD9150980
Probable space group: P 2/M
;
_chemical_formula_sum "Si O2"
_cell_formula_units_Z 24
_cell_length_a 25.188774
_cell_length_b 7.611997
_cell_length_c 17.825329
_cell_angle_alpha 90.000000
_cell_angle_beta 158.086746
_cell_angle_gamma 90.000000
_cell_volume 1275.521039
_symmetry_space_group_name_H-M "P 2/M"
_symmetry_group_IT_number 10
_symmetry_cell_setting 'monoclinic'
loop_
_space_group_symop_operation_xyz
x,y,z
-x,y,-z
-x,-y,-z
x,-y,z
loop_
_atom_site_type_symbol
_atom_site_label
_atom_site_fract_x
_atom_site_fract_y
_atom_site_fract_z
Si Si1 0.840339 0.207342 0.284604
Si Si2 0.162413 0.000000 0.302317
Si Si3 0.558848 0.214049 0.995883
Si Si4 0.666192 0.292523 0.737994
Si Si5 0.662437 0.711800 0.905018
Si Si6 0.619891 0.298266 0.383066
Si Si7 0.163492 0.000000 0.124082
O O1 0.000000 0.281910 0.500000
O O2 0.851629 0.000000 0.315212
O O3 0.718338 0.274094 0.181978
O O4 0.773801 0.228198 0.114165
O O5 0.246950 0.171073 0.440006
O O6 0.166428 0.000000 0.217522
O O7 0.000297 0.000000 0.115505
O O8 0.455260 0.286445 0.796145
O O9 0.556394 0.000000 0.987993
O O10 0.500000 0.264162 0.000000
O O11 0.500000 0.271132 0.500000
O O12 0.699515 0.500000 0.774241
O O13 0.690880 0.236890 0.856899
O O14 0.757805 0.170946 0.804406
O O15 0.661349 0.500000 0.906244
O O16 0.504066 0.767439 0.722796
O O17 0.655172 0.500000 0.447255
#
# Coordination Sequence:
#
# PCOD9150980 Si02
#       7
#     4   2   4   4   4   4   2
#     4   9  18  32  50  78 111 151 190 229 291 345
#     4  11  24  42  57  84 114 152 200 228 285 350
#     4   9  17  33  55  80 113 149 195 246 281 335
#     4  10  21  39  61  90 119 146 188 238 291 345
#     4   9  19  34  57  85 112 146 188 235 286 344
#     4  10  20  37  61  85 113 151 194 239 284 338
#     4  11  25  40  60  84 117 154 187 237 289 347
#
# _framework density 18.815840999999999
#
# number of rings (size 3 to 8) (size 9 to 14) (size 15 to 20)
#    0.000    2.333    0.833    1.250    2.333    3.333 
#    3.000    1.667    0.000    0.000    0.000    0.000 
#    0.000    0.000    0.000    0.000    0.000    0.000 
#
# Total GULP energy -133960.371005 kJ/mol
# GULP energy per Si atom -5581.682125 kJ/mol
# Density = 1.877301 g / cm^3
# Si number density = 18.815841 Si / 1000 Ang^3
#
#
#
# Elastic Constant Matrix: (Units=GPa)
#
#
# Indices 1 2 3 4 5 6 
#
# 1 96.4429 23.1095 36.4038 0.0000 13.1998 0.0000
# 2 23.1095 74.6609 46.9057 0.0000 16.6585 0.0000
# 3 36.4038 46.9057 130.0425 0.0000 21.1230 0.0000
# 4 0.0000 0.0000 0.0000 8.2092 0.0000 -14.0881
# 5 13.1998 16.6585 21.1230 0.0000 16.9473 0.0000
# 6 0.0000 0.0000 0.0000 -14.0881 0.0000 -5.5056
#
#
#
# Elastic Compliance Matrix: (Units=1/GPa)
#
#
# Indices 1 2 3 4 5 6 
#
# 1 0.012222 -0.001207 -0.002047 0.000000 -0.005782 0.000000
# 2 -0.001207 0.019463 -0.004674 0.000000 -0.012366 0.000000
# 3 -0.002047 -0.004674 0.011214 0.000000 -0.007788 0.000000
# 4 0.000000 0.000000 0.000000 0.022594 0.000000 -0.057816
# 5 -0.005782 -0.012366 -0.007788 0.000000 0.085372 0.000000
# 6 0.000000 0.000000 0.000000 -0.057816 0.000000 -0.033690
#
#
# Mechanical properties :
#
#
# Convention : Reuss Voigt Hill
#
# Bulk Modulus (GPa) = 36.97772 57.10937 47.04354
# Shear Modulus (GPa) = 35.20005 16.91199 26.05602
#
# Velocity S-wave (km/s) = 4.32993 3.00128 3.72532
# Velocity P-wave (km/s) = 6.68527 6.51367 6.60003
#
# Compressibility (1/GPa) = 0.02704331
#
# Stress axis : x y z
#
# Youngs Moduli (GPa) = 81.81957 51.38003 89.17729
#
# Poissons Ratio (x) = 0.06202 0.18254
# Poissons Ratio (y) = 0.09876 0.41678
# Poissons Ratio (z) = 0.16748 0.24013
#
# Static dielectric constant tensor:
#      x y z
#    x 1.645940 0.000000 0.007360 
#    y 0.000000 1.665790 0.000000 
#    z 0.007360 0.000000 1.634740 
# 
# From -- ./inp_files/80145.got.cif
#   From: 2010.05.17/outbox.cif.g08.bks.cpg/sg10_41_cif.got.tgz:80145.got - 2010.06.03 11:33:40.
