data_PCOD9150910
_publ_section_title
;
Structure prediction by ZEFSAII (Michael W. Deem and Ramdas Pophale) SiO2 
 PCOD9150910
Probable space group: P 2/M
;
_chemical_formula_sum "Si O2"
_cell_formula_units_Z 32
_cell_length_a 11.273924
_cell_length_b 7.967475
_cell_length_c 25.456742
_cell_angle_alpha 90.000000
_cell_angle_beta 41.844696
_cell_angle_gamma 90.000000
_cell_volume 1525.452057
_symmetry_space_group_name_H-M "P 2/M"
_symmetry_group_IT_number 10
_symmetry_cell_setting 'monoclinic'
loop_
_space_group_symop_operation_xyz
x,y,z
-x,y,-z
-x,-y,-z
x,-y,z
loop_
_atom_site_type_symbol
_atom_site_label
_atom_site_fract_x
_atom_site_fract_y
_atom_site_fract_z
Si Si1 0.948080 0.693652 0.184903
Si Si2 0.365266 0.705307 0.498337
Si Si3 0.970804 0.703013 0.657692
Si Si4 0.447439 0.705720 0.670451
Si Si5 0.425732 0.306020 0.897773
Si Si6 0.952034 0.806144 0.958005
Si Si7 0.398500 0.295243 0.268631
Si Si8 0.781447 0.191310 0.824550
O O1 0.961872 0.500000 0.196621
O O2 0.115062 0.784947 0.155529
O O3 0.757365 0.760210 0.266467
O O4 0.957582 0.708201 0.119136
O O5 0.500000 0.757388 0.500000
O O6 0.363430 0.500000 0.499072
O O7 0.164315 0.761830 0.575952
O O8 0.439009 0.758155 0.417354
O O9 0.973072 0.500000 0.656863
O O10 0.804718 0.756489 0.676100
O O11 0.919470 0.759468 0.733082
O O12 0.445228 0.500000 0.672048
O O13 0.528169 0.761048 0.699544
O O14 0.371141 0.500000 0.911340
O O15 0.260590 0.207395 0.975586
O O16 0.483708 0.243296 0.820564
O O17 0.603110 0.296085 0.874302
O O18 0.008668 0.000000 0.935901
O O19 0.000000 0.741252 0.000000
O O20 0.400827 0.500000 0.267502
O O21 0.727827 0.000000 0.835019
#
# Coordination Sequence:
#
# PCOD9150910 Si02
#       8
#     4   4   4   4   4   4   4   4
#     4  11  22  37  58  81 107 143 188 233 276 325
#     4   9  16  26  44  73 108 143 181 227 274 319
#     4   9  17  31  52  78 108 142 181 223 269 327
#     4   9  17  29  49  78 108 138 177 228 279 321
#     4  10  20  37  60  84 110 142 185 230 273 325
#     4  11  24  40  58  84 118 151 183 222 271 325
#     4   8  15  28  48  77 108 136 172 221 271 319
#     4  11  22  37  57  81 111 144 179 223 280 338
#
# _framework density 20.97739
#
# number of rings (size 3 to 8) (size 9 to 14) (size 15 to 20)
#    0.000    2.250    0.000    4.500    0.000    5.000 
#    0.000    5.000    0.000    4.875    0.000    3.500 
#    0.000    0.000    0.000    0.000    0.000    0.000 
#
# Total GULP energy -178754.359127 kJ/mol
# GULP energy per Si atom -5586.073723 kJ/mol
# Density = 2.092964 g / cm^3
# Si number density = 20.977390 Si / 1000 Ang^3
#
#
#
# Elastic Constant Matrix: (Units=GPa)
#
#
# Indices 1 2 3 4 5 6 
#
# 1 55.6295 0.1294 -3.0488 0.0000 6.7928 0.0000
# 2 0.1294 28.1120 -0.7167 0.0000 -0.7774 0.0000
# 3 -3.0488 -0.7167 53.2495 0.0000 -16.1239 0.0000
# 4 0.0000 0.0000 0.0000 -229.4999 0.0000 86.3497
# 5 6.7928 -0.7774 -16.1239 0.0000 27.0746 0.0000
# 6 0.0000 0.0000 0.0000 86.3497 0.0000 -19.8188
#
#
#
# Elastic Compliance Matrix: (Units=1/GPa)
#
#
# Indices 1 2 3 4 5 6 
#
# 1 0.018554 -0.000232 -0.000430 0.000000 -0.004918 0.000000
# 2 -0.000232 0.035644 0.000969 0.000000 0.001659 0.000000
# 3 -0.000430 0.000969 0.022947 0.000000 0.013801 0.000000
# 4 0.000000 0.000000 0.000000 0.006816 0.000000 0.029695
# 5 -0.004918 0.001659 0.013801 0.000000 0.046436 0.000000
# 6 0.000000 0.000000 0.000000 0.029695 0.000000 0.078924
#
#
# Mechanical properties :
#
#
# Convention : Reuss Voigt Hill
#
# Bulk Modulus (GPa) = 12.86056 14.41319 13.63688
# Shear Modulus (GPa) = 21.31050 -35.07369 -6.88159
#
# Velocity S-wave (km/s) = 3.19074 -4.09342 -1.81317
# Velocity P-wave (km/s) = 4.44055 3.93137 1.45993
#
# Compressibility (1/GPa) = 0.07775712
#
# Stress axis : x y z
#
# Youngs Moduli (GPa) = 53.89803 28.05545 43.57861
#
# Poissons Ratio (x) = 0.00652 0.01874
# Poissons Ratio (y) = 0.01253 -0.04222
# Poissons Ratio (z) = 0.02317 -0.02718
#
# Static dielectric constant tensor:
#      x y z
#    x 1.752480 0.000000 -0.001200 
#    y 0.000000 1.748400 0.000000 
#    z -0.001200 0.000000 1.717470 
# 
# From -- ./inp_files/88673.got.cif
#   From: 2010.05.17/outbox.cif.g08.bks.cpg/sg10_45_cif.got.tgz:88673.got - 2010.06.03 11:33:40.
