data_PCOD9150554
_publ_section_title
;
Structure prediction by ZEFSAII (Michael W. Deem and Ramdas Pophale) SiO2 
 PCOD9150554
Probable space group: P 2/M
;
_chemical_formula_sum "Si O2"
_cell_formula_units_Z 20
_cell_length_a 19.793639
_cell_length_b 10.114215
_cell_length_c 11.911536
_cell_angle_alpha 90.000000
_cell_angle_beta 24.031927
_cell_angle_gamma 90.000000
_cell_volume 971.140427
_symmetry_space_group_name_H-M "P 2/M"
_symmetry_group_IT_number 10
_symmetry_cell_setting 'monoclinic'
loop_
_space_group_symop_operation_xyz
x,y,z
-x,y,-z
-x,-y,-z
x,-y,z
loop_
_atom_site_type_symbol
_atom_site_label
_atom_site_fract_x
_atom_site_fract_y
_atom_site_fract_z
Si Si1 0.741618 0.853325 0.548147
Si Si2 0.271042 0.851700 0.050987
Si Si3 0.925267 0.228805 0.860265
Si Si4 0.351427 0.846715 0.569917
Si Si5 0.231974 0.649001 0.312771
O O1 0.695394 0.830377 0.489677
O O2 0.683464 0.735695 0.717306
O O3 0.940471 0.849196 0.267773
O O4 0.682048 0.000000 0.669766
O O5 0.451466 0.830413 0.721204
O O6 0.271384 0.000000 0.100813
O O7 0.133902 0.843945 0.162446
O O8 0.245326 0.738837 0.182001
O O9 0.038236 0.349257 0.645401
O O10 0.762452 0.247026 0.181970
O O11 0.314224 0.000000 0.658753
O O12 0.291719 0.500000 0.208926
#
# Coordination Sequence:
#
# PCOD9150554 Si02
#       5
#     4   4   4   4   4
#     4   9  19  36  62  87 112 148 193 235 283 340
#     4  11  22  36  60  90 119 148 187 236 289 341
#     4  10  21  35  62  86 116 147 192 231 286 338
#     4  10  20  36  59  92 121 144 181 240 295 340
#     4  10  24  41  59  82 116 156 199 238 279 332
#
# _framework density 20.594342000000001
#
# number of rings (size 3 to 8) (size 9 to 14) (size 15 to 20)
#    1.200    0.800    0.000    4.200    0.000    6.400 
#    0.000    8.000    0.000    2.400    0.000    0.000 
#    0.000    0.000    0.000    0.000    0.000    0.000 
#
# Total GULP energy -111460.589937 kJ/mol
# GULP energy per Si atom -5573.029497 kJ/mol
# Density = 2.054747 g / cm^3
# Si number density = 20.594342 Si / 1000 Ang^3
#
#
#
# Elastic Constant Matrix: (Units=GPa)
#
#
# Indices 1 2 3 4 5 6 
#
# 1 116.8493 -0.2074 -3.8008 0.0000 -68.1804 0.0000
# 2 -0.2074 123.8779 30.4551 0.0000 36.1462 0.0000
# 3 -3.8008 30.4551 90.3854 0.0000 9.3625 0.0000
# 4 0.0000 0.0000 0.0000 -13.3723 0.0000 50.5952
# 5 -68.1804 36.1462 9.3625 0.0000 92.2386 0.0000
# 6 0.0000 0.0000 0.0000 50.5952 0.0000 -114.9587
#
#
#
# Elastic Compliance Matrix: (Units=1/GPa)
#
#
# Indices 1 2 3 4 5 6 
#
# 1 0.016692 -0.004198 0.000675 0.000000 0.013915 0.000000
# 2 -0.004198 0.010890 -0.003115 0.000000 -0.007054 0.000000
# 3 0.000675 -0.003115 0.012091 0.000000 0.000492 0.000000
# 4 0.000000 0.000000 0.000000 0.112418 0.000000 0.049477
# 5 0.013915 -0.007054 0.000492 0.000000 0.023841 0.000000
# 6 0.000000 0.000000 0.000000 0.049477 0.000000 0.013077
#
#
# Mechanical properties :
#
#
# Convention : Reuss Voigt Hill
#
# Bulk Modulus (GPa) = 37.88488 42.66739 40.27614
# Shear Modulus (GPa) = 23.68743 13.09256 18.38999
#
# Velocity S-wave (km/s) = 3.39513 2.52412 2.99149
# Velocity P-wave (km/s) = 5.81420 5.40905 5.61528
#
# Compressibility (1/GPa) = 0.02639575
#
# Stress axis : x y z
#
# Youngs Moduli (GPa) = 59.91042 91.83027 82.70812
#
# Poissons Ratio (x) = 0.38552 -0.05584
# Poissons Ratio (y) = 0.25151 0.25764
# Poissons Ratio (z) = -0.04045 0.28606
#
# Static dielectric constant tensor:
#      x y z
#    x 1.724560 0.000000 -0.004030 
#    y 0.000000 1.680400 0.000000 
#    z -0.004030 0.000000 1.778230 
# 
# From -- ./inp_files/41386.got.cif
#   From: 2010.05.17/outbox.cif.g08.bks.cpg/sg10_21_cif.got.tgz:41386.got - 2010.06.03 11:33:40.
