data_PCOD9150021
_publ_section_title
;
Structure prediction by ZEFSAII (Michael W. Deem and Ramdas Pophale) SiO2 
 PCOD9150021
Probable space group: P 2/M
;
_chemical_formula_sum "Si O2"
_cell_formula_units_Z 28
_cell_length_a 29.977623
_cell_length_b 8.921670
_cell_length_c 9.557481
_cell_angle_alpha 90.000000
_cell_angle_beta 37.469007
_cell_angle_gamma 90.000000
_cell_volume 1554.989966
_symmetry_space_group_name_H-M "P 2/M"
_symmetry_group_IT_number 10
_symmetry_cell_setting 'monoclinic'
loop_
_space_group_symop_operation_xyz
x,y,z
-x,y,-z
-x,-y,-z
x,-y,z
loop_
_atom_site_type_symbol
_atom_site_label
_atom_site_fract_x
_atom_site_fract_y
_atom_site_fract_z
Si Si1 0.430806 0.819107 0.073793
Si Si2 0.868733 0.820741 0.661823
Si Si3 0.998751 0.679183 0.164892
Si Si4 0.870608 0.819621 0.984219
Si Si5 0.296380 0.817821 0.600520
Si Si6 0.301555 0.180640 0.909437
Si Si7 0.430124 0.320550 0.769041
O O1 0.357187 0.769671 0.338393
O O2 0.428550 0.000000 0.063761
O O3 0.500000 0.783074 0.000000
O O4 0.437149 0.746639 0.906269
O O5 0.883719 0.785478 0.787689
O O6 0.925688 0.738218 0.421727
O O7 0.877385 0.000000 0.624249
O O8 0.783467 0.784678 0.846166
O O9 0.000653 0.500000 0.166555
O O10 0.068786 0.744562 0.071166
O O11 0.000000 0.726481 0.000000
O O12 0.874747 0.000000 0.988776
O O13 0.786974 0.771897 0.225287
O O14 0.314812 0.773364 0.714393
O O15 0.296254 0.000000 0.601976
O O16 0.357929 0.257916 0.872658
O O17 0.309942 0.000000 0.896471
O O18 0.500000 0.277262 0.500000
O O19 0.427153 0.500000 0.784007
#
# Coordination Sequence:
#
# PCOD9150021 Si02
#       7
#     4   4   4   4   4   4   4
#     4  10  20  35  58  84 107 137 180 225 267 313
#     4   9  19  36  59  84 105 132 174 221 268 317
#     4  11  24  37  49  73 110 146 180 218 260 311
#     4   9  18  35  58  80 104 135 174 219 266 319
#     4   8  16  33  57  84 108 131 168 221 273 317
#     4   9  18  36  61  84 106 134 173 220 266 315
#     4  11  24  38  52  76 112 149 181 215 260 314
#
# _framework density 18.006547000000001
#
# number of rings (size 3 to 8) (size 9 to 14) (size 15 to 20)
#    0.000    2.429    0.000    3.857    0.000    7.714 
#    0.000    7.857    0.000    0.000    0.000    0.000 
#    0.000    0.000    0.000    0.000    0.000    0.000 
#
# Total GULP energy -156302.476233 kJ/mol
# GULP energy per Si atom -5582.231294 kJ/mol
# Density = 1.796556 g / cm^3
# Si number density = 18.006547 Si / 1000 Ang^3
#
#
#
# Elastic Constant Matrix: (Units=GPa)
#
#
# Indices 1 2 3 4 5 6 
#
# 1 180.2669 59.2600 110.4976 0.0000 0.2656 0.0000
# 2 59.2600 28.0338 55.8725 0.0000 1.7261 0.0000
# 3 110.4976 55.8725 181.0280 0.0000 11.9801 0.0000
# 4 0.0000 0.0000 0.0000 -0.9886 0.0000 112.6580
# 5 0.2656 1.7261 11.9801 0.0000 15.0862 0.0000
# 6 0.0000 0.0000 0.0000 112.6580 0.0000 -514.9079
#
#
#
# Elastic Compliance Matrix: (Units=1/GPa)
#
#
# Indices 1 2 3 4 5 6 
#
# 1 0.018609 -0.042791 0.001631 0.000000 0.003273 0.000000
# 2 -0.042791 0.193475 -0.033965 0.000000 0.005588 0.000000
# 3 0.001631 -0.033965 0.015574 0.000000 -0.008510 0.000000
# 4 0.000000 0.000000 0.000000 0.042265 0.000000 0.009247
# 5 0.003273 0.005588 -0.008510 0.000000 0.072347 0.000000
# 6 0.000000 0.000000 0.000000 0.009247 0.000000 0.000081
#
#
# Mechanical properties :
#
#
# Convention : Reuss Voigt Hill
#
# Bulk Modulus (GPa) = 12.91823 93.39875 53.15849
# Shear Modulus (GPa) = 9.64501 -89.24881 -39.80190
#
# Velocity S-wave (km/s) = 2.31690 -7.04785 -4.70660
# Velocity P-wave (km/s) = 3.78776 3.77462 0.22293
#
# Compressibility (1/GPa) = 0.07740997
#
# Stress axis : x y z
#
# Youngs Moduli (GPa) = 53.73645 5.16864 64.20859
#
# Poissons Ratio (x) = 0.22117 -0.10475
# Poissons Ratio (y) = 2.29943 2.18082
# Poissons Ratio (z) = -0.08767 0.17555
#
# Static dielectric constant tensor:
#      x y z
#    x 1.586250 0.000000 -0.005240 
#    y 0.000000 1.598650 0.000000 
#    z -0.005240 0.000000 1.612290 
# 
# From -- ./inp_files/37103.got.cif
#   From: 2010.05.17/outbox.cif.g08.bks.cpg/sg10_19_cif.got.tgz:37103.got - 2010.06.03 11:33:40.
