data_PCOD9150245
_publ_section_title
;
Structure prediction by ZEFSAII (Michael W. Deem and Ramdas Pophale) SiO2 
 PCOD9150245
Probable space group: P 2/M
;
_chemical_formula_sum "Si O2"
_cell_formula_units_Z 26
_cell_length_a 11.710900
_cell_length_b 14.459752
_cell_length_c 8.894086
_cell_angle_alpha 90.000000
_cell_angle_beta 63.523340
_cell_angle_gamma 90.000000
_cell_volume 1348.130040
_symmetry_space_group_name_H-M "P 2/M"
_symmetry_group_IT_number 10
_symmetry_cell_setting 'monoclinic'
loop_
_space_group_symop_operation_xyz
x,y,z
-x,y,-z
-x,-y,-z
x,-y,z
loop_
_atom_site_type_symbol
_atom_site_label
_atom_site_fract_x
_atom_site_fract_y
_atom_site_fract_z
Si Si1 0.637833 0.105581 0.840255
Si Si2 0.223020 0.637345 0.660936
Si Si3 0.851286 0.596457 0.621705
Si Si4 0.000000 0.682981 0.000000
Si Si5 0.571078 0.393628 0.213981
Si Si6 0.397700 0.771574 0.433514
Si Si7 0.227078 0.732970 0.081310
O O1 0.625341 0.156907 0.686765
O O2 0.723981 0.167030 0.900524
O O3 0.681439 0.000000 0.796866
O O4 0.500000 0.105048 0.000000
O O5 0.210387 0.595600 0.505045
O O6 0.337156 0.598992 0.694530
O O7 0.268804 0.742376 0.597050
O O8 0.090398 0.628804 0.828889
O O9 0.820911 0.500000 0.721869
O O10 0.814796 0.682530 0.742221
O O11 0.000000 0.600378 0.500000
O O12 0.108165 0.734052 0.035836
O O13 0.537766 0.500000 0.188077
O O14 0.457848 0.322962 0.324923
O O15 0.659601 0.333308 0.048815
O O16 0.500000 0.802257 0.500000
#
# Coordination Sequence:
#
# PCOD9150245 Si02
#       7
#     4   4   4   2   4   4   4
#     4  11  23  42  66  92 121 154 198 256 318 372
#     4  10  20  36  56  82 121 163 200 243 286 347
#     4  11  21  33  53  85 120 160 205 243 285 347
#     4  10  22  38  62  84 118 168 198 244 298 358
#     4  10  21  36  56  87 126 167 203 240 293 353
#     4  10  21  38  62  90 122 156 199 247 301 360
#     4  11  21  40  61  88 123 161 202 253 301 359
#
# _framework density 19.285972999999998
#
# number of rings (size 3 to 8) (size 9 to 14) (size 15 to 20)
#    0.000    1.538    4.615    0.923    0.000    3.692 
#    0.000    3.462    0.000    4.154    0.000    0.000 
#    0.000    0.000    0.000    0.000    0.000    0.000 
#
# Total GULP energy -144979.669747 kJ/mol
# GULP energy per Si atom -5576.141144 kJ/mol
# Density = 1.924208 g / cm^3
# Si number density = 19.285973 Si / 1000 Ang^3
#
#
#
# Elastic Constant Matrix: (Units=GPa)
#
#
# Indices 1 2 3 4 5 6 
#
# 1 73.8336 46.3295 24.4662 0.0000 4.1602 0.0000
# 2 46.3295 138.5124 36.5424 0.0000 8.7069 0.0000
# 3 24.4662 36.5424 83.1494 0.0000 0.4544 0.0000
# 4 0.0000 0.0000 0.0000 26.0656 0.0000 -3.5808
# 5 4.1602 8.7069 0.4544 0.0000 33.0115 0.0000
# 6 0.0000 0.0000 0.0000 -3.5808 0.0000 15.5700
#
#
#
# Elastic Compliance Matrix: (Units=1/GPa)
#
#
# Indices 1 2 3 4 5 6 
#
# 1 0.017786 -0.005108 -0.002984 0.000000 -0.000853 0.000000
# 2 -0.005108 0.009782 -0.002786 0.000000 -0.001898 0.000000
# 3 -0.002984 -0.002786 0.014124 0.000000 0.000916 0.000000
# 4 0.000000 0.000000 0.000000 0.039616 0.000000 0.009111
# 5 -0.000853 -0.001898 0.000916 0.000000 0.030888 0.000000
# 6 0.000000 0.000000 0.000000 0.009111 0.000000 0.066322
#
#
# Mechanical properties :
#
#
# Convention : Reuss Voigt Hill
#
# Bulk Modulus (GPa) = 50.15869 56.68573 53.42221
# Shear Modulus (GPa) = 24.16397 27.47323 25.81860
#
# Velocity S-wave (km/s) = 3.54351 3.77837 3.66283
# Velocity P-wave (km/s) = 6.54265 6.96354 6.75637
#
# Compressibility (1/GPa) = 0.01993672
#
# Stress axis : x y z
#
# Youngs Moduli (GPa) = 56.22346 102.22412 70.80260
#
# Poissons Ratio (x) = 0.52219 0.21126
# Poissons Ratio (y) = 0.28721 0.19724
# Poissons Ratio (z) = 0.16776 0.28477
#
# Static dielectric constant tensor:
#      x y z
#    x 1.700250 0.000000 0.000510 
#    y 0.000000 1.666740 0.000000 
#    z 0.000510 0.000000 1.708490 
# 
# From -- ./inp_files/24800.got.cif
#   From: 2010.05.17/outbox.cif.g08.bks.cpg/sg10_13_cif.got.tgz:24800.got - 2010.06.03 11:33:40.
