data_PCOD9150820
_publ_section_title
;
Structure prediction by ZEFSAII (Michael W. Deem and Ramdas Pophale) SiO2 
 PCOD9150820
Probable space group: P 2/M
;
_chemical_formula_sum "Si O2"
_cell_formula_units_Z 24
_cell_length_a 12.828034
_cell_length_b 7.618325
_cell_length_c 9.628013
_cell_angle_alpha 90.000000
_cell_angle_beta 100.670810
_cell_angle_gamma 90.000000
_cell_volume 924.656507
_symmetry_space_group_name_H-M "P 2/M"
_symmetry_group_IT_number 10
_symmetry_cell_setting 'monoclinic'
loop_
_space_group_symop_operation_xyz
x,y,z
-x,y,-z
-x,-y,-z
x,-y,z
loop_
_atom_site_type_symbol
_atom_site_label
_atom_site_fract_x
_atom_site_fract_y
_atom_site_fract_z
Si Si1 0.494220 0.211817 0.658805
Si Si2 0.975514 0.700938 0.280143
Si Si3 0.725252 0.788935 0.718920
Si Si4 0.826506 0.709850 0.019274
Si Si5 0.608248 0.293384 0.094102
Si Si6 0.833565 0.801076 0.484780
O O1 0.500000 0.267588 0.500000
O O2 0.610202 0.268790 0.743797
O O3 0.405778 0.274889 0.743738
O O4 0.487259 0.000000 0.656577
O O5 0.012798 0.500000 0.274728
O O6 0.929339 0.776045 0.126247
O O7 0.874327 0.701276 0.360429
O O8 0.065351 0.804128 0.384809
O O9 0.746378 0.724465 0.567822
O O10 0.723357 0.000000 0.707790
O O11 0.813237 0.740155 0.852925
O O12 0.831267 0.500000 0.042157
O O13 0.718084 0.781117 0.062356
O O14 0.610248 0.500000 0.061148
O O15 0.500000 0.217212 0.000000
O O16 0.805848 0.000000 0.437561
#
# Coordination Sequence:
#
# PCOD9150820 Si02
#       6
#     4   4   4   4   4   4
#     4  10  22  38  56  82 114 147 185 227 273 326
#     4  10  21  38  59  84 111 143 185 227 275 332
#     4  10  22  38  56  82 113 146 185 227 274 328
#     4  10  22  38  57  83 113 146 185 228 274 326
#     4  10  20  37  58  81 112 147 184 226 271 324
#     4  10  21  38  59  83 113 145 182 228 276 327
#
# _framework density 25.955584999999999
#
# number of rings (size 3 to 8) (size 9 to 14) (size 15 to 20)
#    0.000    2.000    1.667    2.000    2.333    4.667 
#    0.000    3.333    0.000    0.000    0.000    0.000 
#    0.000    0.000    0.000    0.000    0.000    0.000 
#
# Total GULP energy -134252.592601 kJ/mol
# GULP energy per Si atom -5593.858025 kJ/mol
# Density = 2.589651 g / cm^3
# Si number density = 25.955585 Si / 1000 Ang^3
#
#
#
# Elastic Constant Matrix: (Units=GPa)
#
#
# Indices 1 2 3 4 5 6 
#
# 1 58.7754 -0.6945 9.6955 0.0000 -10.6071 0.0000
# 2 -0.6945 67.2903 -9.0764 0.0000 0.5824 0.0000
# 3 9.6955 -9.0764 118.8843 0.0000 -0.8144 0.0000
# 4 0.0000 0.0000 0.0000 28.5992 0.0000 -6.4128
# 5 -10.6071 0.5824 -0.8144 0.0000 53.0767 0.0000
# 6 0.0000 0.0000 0.0000 -6.4128 0.0000 13.0996
#
#
#
# Elastic Compliance Matrix: (Units=1/GPa)
#
#
# Indices 1 2 3 4 5 6 
#
# 1 0.017892 -0.000040 -0.001438 0.000000 0.003554 0.000000
# 2 -0.000040 0.015017 0.001149 0.000000 -0.000155 0.000000
# 3 -0.001438 0.001149 0.008615 0.000000 -0.000168 0.000000
# 4 0.000000 0.000000 0.000000 0.039278 0.000000 0.019228
# 5 0.003554 -0.000155 -0.000168 0.000000 0.019550 0.000000
# 6 0.000000 0.000000 0.000000 0.019228 0.000000 0.085751
#
#
# Mechanical properties :
#
#
# Convention : Reuss Voigt Hill
#
# Bulk Modulus (GPa) = 24.47037 27.19991 25.83514
# Shear Modulus (GPa) = 24.95217 35.29012 30.12115
#
# Velocity S-wave (km/s) = 3.10391 3.69132 3.41029
# Velocity P-wave (km/s) = 4.72165 5.35444 5.04797
#
# Compressibility (1/GPa) = 0.04086575
#
# Stress axis : x y z
#
# Youngs Moduli (GPa) = 55.89086 66.59186 116.07190
#
# Poissons Ratio (x) = 0.00267 0.16690
# Poissons Ratio (y) = 0.00224 -0.13333
# Poissons Ratio (z) = 0.08036 -0.07649
#
# Static dielectric constant tensor:
#      x y z
#    x 2.123500 0.000000 0.018170 
#    y 0.000000 1.924460 0.000000 
#    z 0.018170 0.000000 2.033530 
# 
# From -- ./inp_files/27230.got.cif
#   From: 2010.05.17/outbox.cif.g08.bks.cpg/sg10_14_cif.got.tgz:27230.got - 2010.06.03 11:33:40.
