data_PCOD9150709
_publ_section_title
;
Structure prediction by ZEFSAII (Michael W. Deem and Ramdas Pophale) SiO2 
 PCOD9150709
Probable space group: P 2/M
;
_chemical_formula_sum "Si O2"
_cell_formula_units_Z 28
_cell_length_a 18.306969
_cell_length_b 14.047264
_cell_length_c 9.342557
_cell_angle_alpha 90.000000
_cell_angle_beta 37.974049
_cell_angle_gamma 90.000000
_cell_volume 1478.304969
_symmetry_space_group_name_H-M "P 2/M"
_symmetry_group_IT_number 10
_symmetry_cell_setting 'monoclinic'
loop_
_space_group_symop_operation_xyz
x,y,z
-x,y,-z
-x,-y,-z
x,-y,z
loop_
_atom_site_type_symbol
_atom_site_label
_atom_site_fract_x
_atom_site_fract_y
_atom_site_fract_z
Si Si1 0.869296 0.106243 0.767636
Si Si2 0.277845 0.612068 0.019191
Si Si3 0.885356 0.386853 0.460229
Si Si4 0.516172 0.721298 0.135309
Si Si5 0.134625 0.717372 0.018697
Si Si6 0.315527 0.111141 0.206703
Si Si7 0.250825 0.741089 0.544370
O O1 0.855648 0.186150 0.906550
O O2 0.778191 0.118018 0.777838
O O3 0.000000 0.113236 0.500000
O O4 0.853194 0.000000 0.852537
O O5 0.299936 0.500000 0.983420
O O6 0.167890 0.630180 0.299190
O O7 0.234592 0.648996 0.932946
O O8 0.391246 0.665559 0.909595
O O9 0.901288 0.500000 0.416971
O O10 0.788743 0.343445 0.500828
O O11 0.007666 0.332029 0.241910
O O12 0.383638 0.726975 0.399276
O O13 0.500000 0.677889 0.000000
O O14 0.573150 0.825292 0.016700
O O15 0.159739 0.740155 0.815229
O O16 0.260568 0.164997 0.429525
O O17 0.341580 0.000000 0.192696
#
# Coordination Sequence:
#
# PCOD9150709 Si02
#       7
#     4   4   4   4   4   4   4
#     4  10  20  36  62  88 118 160 203 248 300 361
#     4  11  22  39  64  89 115 158 209 253 296 358
#     4  11  23  41  64  88 118 164 214 251 295 362
#     4  10  20  40  62  88 117 156 207 251 296 353
#     4  12  23  38  59  89 131 154 193 252 314 362
#     4  10  20  40  66  90 117 160 213 254 297 360
#     4  11  24  38  59  90 124 162 195 251 307 363
#
# _framework density 18.940611000000001
#
# number of rings (size 3 to 8) (size 9 to 14) (size 15 to 20)
#    0.000    1.286    4.286    3.000    0.000    7.429 
#    0.000    0.714    0.000    6.000    0.000    0.000 
#    0.000    0.000    0.000    0.000    0.000    0.000 
#
# Total GULP energy -156377.165257 kJ/mol
# GULP energy per Si atom -5584.898759 kJ/mol
# Density = 1.889750 g / cm^3
# Si number density = 18.940611 Si / 1000 Ang^3
#
#
#
# Elastic Constant Matrix: (Units=GPa)
#
#
# Indices 1 2 3 4 5 6 
#
# 1 63.9372 29.4100 25.9627 0.0000 -15.2744 0.0000
# 2 29.4100 110.6821 38.9172 0.0000 5.1097 0.0000
# 3 25.9627 38.9172 51.6316 0.0000 2.5909 0.0000
# 4 0.0000 0.0000 0.0000 -2.8077 0.0000 -2.4893
# 5 -15.2744 5.1097 2.5909 0.0000 33.4484 0.0000
# 6 0.0000 0.0000 0.0000 -2.4893 0.0000 2.4859
#
#
#
# Elastic Compliance Matrix: (Units=1/GPa)
#
#
# Indices 1 2 3 4 5 6 
#
# 1 0.024374 -0.003432 -0.010294 0.000000 0.012452 0.000000
# 2 -0.003432 0.012821 -0.007792 0.000000 -0.002922 0.000000
# 3 -0.010294 -0.007792 0.030713 0.000000 -0.005890 0.000000
# 4 0.000000 0.000000 0.000000 -0.188664 0.000000 -0.188922
# 5 0.012452 -0.002922 -0.005890 0.000000 0.036486 0.000000
# 6 0.000000 0.000000 0.000000 -0.188922 0.000000 0.213088
#
#
# Mechanical properties :
#
#
# Convention : Reuss Voigt Hill
#
# Bulk Modulus (GPa) = 40.20530 46.09228 43.14879
# Shear Modulus (GPa) = 27.75545 15.42272 21.58909
#
# Velocity S-wave (km/s) = 3.83220 2.85663 3.37980
# Velocity P-wave (km/s) = 6.39172 5.93873 6.16938
#
# Compressibility (1/GPa) = 0.02487234
#
# Stress axis : x y z
#
# Youngs Moduli (GPa) = 41.02760 77.99495 32.55943
#
# Poissons Ratio (x) = 0.26766 0.33518
# Poissons Ratio (y) = 0.14079 0.25370
# Poissons Ratio (z) = 0.42236 0.60772
#
# Static dielectric constant tensor:
#      x y z
#    x 1.664760 0.000000 -0.017730 
#    y 0.000000 1.654380 0.000000 
#    z -0.017730 0.000000 1.649580 
# 
# From -- ./inp_files/24909.got.cif
#   From: 2010.05.17/outbox.cif.g08.bks.cpg/sg10_13_cif.got.tgz:24909.got - 2010.06.03 11:33:40.
