data_PCOD9150577
_publ_section_title
;
Structure prediction by ZEFSAII (Michael W. Deem and Ramdas Pophale) SiO2 
 PCOD9150577
Probable space group: P 2/M
;
_chemical_formula_sum "Si O2"
_cell_formula_units_Z 28
_cell_length_a 17.354293
_cell_length_b 14.104499
_cell_length_c 8.541711
_cell_angle_alpha 90.000000
_cell_angle_beta 33.187803
_cell_angle_gamma 90.000000
_cell_volume 1144.464751
_symmetry_space_group_name_H-M "P 2/M"
_symmetry_group_IT_number 10
_symmetry_cell_setting 'monoclinic'
loop_
_space_group_symop_operation_xyz
x,y,z
-x,y,-z
-x,-y,-z
x,-y,z
loop_
_atom_site_type_symbol
_atom_site_label
_atom_site_fract_x
_atom_site_fract_y
_atom_site_fract_z
Si Si1 0.852045 0.184847 0.439806
Si Si2 0.431509 0.109660 0.942536
Si Si3 0.598624 0.609135 0.195518
Si Si4 0.323946 0.601091 0.492490
Si Si5 0.909248 0.892310 0.794005
Si Si6 0.168674 0.611417 0.431628
Si Si7 0.705650 0.798195 0.353852
O O1 0.909958 0.291429 0.381827
O O2 0.787974 0.174376 0.374850
O O3 0.979448 0.114221 0.253576
O O4 0.720799 0.157186 0.776011
O O5 0.544052 0.170064 0.652274
O O6 0.421160 0.000000 0.907553
O O7 0.500000 0.108036 0.000000
O O8 0.500000 0.652831 0.500000
O O9 0.621389 0.500000 0.205746
O O10 0.490697 0.606959 0.232482
O O11 0.747847 0.637377 0.869689
O O12 0.272492 0.500000 0.638240
O O13 0.276998 0.608794 0.394319
O O14 0.267654 0.686375 0.690629
O O15 0.000000 0.847796 0.500000
O O16 0.876903 0.000000 0.806297
O O17 0.769754 0.843410 0.091204
O O18 0.115305 0.500000 0.511315
#
# Coordination Sequence:
#
# PCOD9150577 Si02
#       7
#     4   4   4   4   4   4   4
#     4  10  20  36  60  86 111 146 190 231 278 336
#     4   9  17  30  52  84 114 137 176 237 287 321
#     4   9  16  25  41  69 106 149 191 225 264 320
#     4   9  17  30  49  75 108 144 184 233 282 327
#     4  11  25  43  60  81 112 148 185 227 278 337
#     4   9  17  30  49  75 108 144 184 233 282 327
#     4  10  20  36  60  86 111 146 190 231 278 336
#
# _framework density 24.465584
#
# number of rings (size 3 to 8) (size 9 to 14) (size 15 to 20)
#    0.000    2.429    0.000    2.571    0.000    7.429 
#    0.000    1.429    0.000    6.857    0.000    0.000 
#    0.000    0.000    0.000    0.000    0.000    0.000 
#
# Total GULP energy -156102.538638 kJ/mol
# GULP energy per Si atom -5575.090666 kJ/mol
# Density = 2.440990 g / cm^3
# Si number density = 24.465584 Si / 1000 Ang^3
#
#
#
# Elastic Constant Matrix: (Units=GPa)
#
#
# Indices 1 2 3 4 5 6 
#
# 1 32.9922 -3.0886 -5.4429 0.0000 0.3853 0.0000
# 2 -3.0886 127.9401 51.8921 0.0000 13.8919 0.0000
# 3 -5.4429 51.8921 127.2211 0.0000 10.0625 0.0000
# 4 0.0000 0.0000 0.0000 -27.5874 0.0000 -2.1826
# 5 0.3853 13.8919 10.0625 0.0000 22.6373 0.0000
# 6 0.0000 0.0000 0.0000 -2.1826 0.0000 13.2536
#
#
#
# Elastic Compliance Matrix: (Units=1/GPa)
#
#
# Indices 1 2 3 4 5 6 
#
# 1 0.030568 0.000368 0.001261 0.000000 -0.001307 0.000000
# 2 0.000368 0.009771 -0.003622 0.000000 -0.004392 0.000000
# 3 0.001261 -0.003622 0.009554 0.000000 -0.002045 0.000000
# 4 0.000000 0.000000 0.000000 -0.035782 0.000000 -0.005893
# 5 -0.001307 -0.004392 -0.002045 0.000000 0.047802 0.000000
# 6 0.000000 0.000000 0.000000 -0.005893 0.000000 0.074481
#
#
# Mechanical properties :
#
#
# Convention : Reuss Voigt Hill
#
# Bulk Modulus (GPa) = 21.78337 41.65274 31.71805
# Shear Modulus (GPa) = 32.11691 17.98022 25.04857
#
# Velocity S-wave (km/s) = 3.62710 2.71388 3.20320
# Velocity P-wave (km/s) = 5.14433 5.18480 5.16461
#
# Compressibility (1/GPa) = 0.04590659
#
# Stress axis : x y z
#
# Youngs Moduli (GPa) = 32.71399 102.34133 104.67283
#
# Poissons Ratio (x) = -0.03771 -0.13198
# Poissons Ratio (y) = -0.01205 0.37917
# Poissons Ratio (z) = -0.04125 0.37072
#
# Static dielectric constant tensor:
#      x y z
#    x 2.008160 0.000000 0.035400 
#    y 0.000000 1.995960 0.000000 
#    z 0.035400 0.000000 1.946070 
# 
# From -- ./inp_files/35219.got.cif
#   From: 2010.05.17/outbox.cif.g08.bks.cpg/sg10_18_cif.got.tgz:35219.got - 2010.06.03 11:33:40.
