data_PCOD9150471
_publ_section_title
;
Structure prediction by ZEFSAII (Michael W. Deem and Ramdas Pophale) SiO2 
 PCOD9150471
Probable space group: P 2/M
;
_chemical_formula_sum "Si O2"
_cell_formula_units_Z 32
_cell_length_a 16.069784
_cell_length_b 7.710767
_cell_length_c 12.245594
_cell_angle_alpha 90.000000
_cell_angle_beta 89.809807
_cell_angle_gamma 90.000000
_cell_volume 1517.347603
_symmetry_space_group_name_H-M "P 2/M"
_symmetry_group_IT_number 10
_symmetry_cell_setting 'monoclinic'
loop_
_space_group_symop_operation_xyz
x,y,z
-x,y,-z
-x,-y,-z
x,-y,z
loop_
_atom_site_type_symbol
_atom_site_label
_atom_site_fract_x
_atom_site_fract_y
_atom_site_fract_z
Si Si1 0.911215 0.294455 0.232329
Si Si2 0.658213 0.211943 0.996947
Si Si3 0.754168 0.707361 0.609567
Si Si4 0.402375 0.790459 0.241287
Si Si5 0.850064 0.792324 0.998067
Si Si6 0.093340 0.292695 0.245418
Si Si7 0.749828 0.290883 0.361801
Si Si8 0.413760 0.791607 0.774488
O O1 0.912767 0.500000 0.254343
O O2 0.829296 0.223696 0.293038
O O3 0.000737 0.222547 0.268056
O O4 0.900191 0.271214 0.102764
O O5 0.622810 0.268354 0.880553
O O6 0.754156 0.267044 0.007879
O O7 0.657059 0.000000 0.996796
O O8 0.606945 0.270688 0.102718
O O9 0.764787 0.500000 0.602730
O O10 0.668425 0.738365 0.673621
O O11 0.831802 0.777083 0.680124
O O12 0.751686 0.774465 0.486015
O O13 0.496003 0.728973 0.265185
O O14 0.402620 0.000000 0.239826
O O15 0.885245 0.736765 0.881408
O O16 0.850549 0.000000 0.001207
O O17 0.090575 0.500000 0.262165
O O18 0.755311 0.500000 0.364186
O O19 0.663690 0.249480 0.302248
O O20 0.418848 0.000000 0.780872
#
# Coordination Sequence:
#
# PCOD9150471 Si02
#       8
#     4   4   4   4   4   4   4   4
#     4  10  21  37  57  81 110 144 182 224 270 322
#     4   9  17  32  55  82 110 139 172 216 267 317
#     4  10  22  39  57  78 107 144 185 229 273 316
#     4  10  20  36  59  84 110 142 180 221 268 325
#     4  11  20  33  57  85 113 144 177 218 271 328
#     4  10  21  37  57  81 110 144 182 224 270 322
#     4  10  22  39  57  78 107 144 185 229 273 316
#     4  10  20  36  59  84 110 142 180 221 268 325
#
# _framework density 21.089433
#
# number of rings (size 3 to 8) (size 9 to 14) (size 15 to 20)
#    0.000    2.000    2.500    1.125    0.000    5.500 
#    0.000    5.625    0.000    1.500    0.000    3.500 
#    0.000    0.000    0.000    0.000    0.000    0.000 
#
# Total GULP energy -178766.549866 kJ/mol
# GULP energy per Si atom -5586.454683 kJ/mol
# Density = 2.104143 g / cm^3
# Si number density = 21.089433 Si / 1000 Ang^3
#
#
#
# Elastic Constant Matrix: (Units=GPa)
#
#
# Indices 1 2 3 4 5 6 
#
# 1 96.6361 -5.2377 18.7507 0.0000 3.6559 0.0000
# 2 -5.2377 34.0246 -9.2841 0.0000 3.5498 0.0000
# 3 18.7507 -9.2841 110.6126 0.0000 7.0619 0.0000
# 4 0.0000 0.0000 0.0000 4.5011 0.0000 -3.7131
# 5 3.6559 3.5498 7.0619 0.0000 10.0495 0.0000
# 6 0.0000 0.0000 0.0000 -3.7131 0.0000 -11.4680
#
#
#
# Elastic Compliance Matrix: (Units=1/GPa)
#
#
# Indices 1 2 3 4 5 6 
#
# 1 0.010856 0.001631 -0.001481 0.000000 -0.003484 0.000000
# 2 0.001631 0.032034 0.003322 0.000000 -0.014243 0.000000
# 3 -0.001481 0.003322 0.010062 0.000000 -0.007705 0.000000
# 4 0.000000 0.000000 0.000000 0.175336 0.000000 -0.056770
# 5 -0.003484 -0.014243 -0.007705 0.000000 0.111221 0.000000
# 6 0.000000 0.000000 0.000000 -0.056770 0.000000 -0.068818
#
#
# Mechanical properties :
#
#
# Convention : Reuss Voigt Hill
#
# Bulk Modulus (GPa) = 16.69611 27.74792 22.22201
# Shear Modulus (GPa) = 17.62345 16.41946 17.02146
#
# Velocity S-wave (km/s) = 2.89390 2.79330 2.84405
# Velocity P-wave (km/s) = 4.37038 4.85687 4.62003
#
# Compressibility (1/GPa) = 0.05989421
#
# Stress axis : x y z
#
# Youngs Moduli (GPa) = 92.11796 31.21706 99.38048
#
# Poissons Ratio (x) = -0.05090 0.14717
# Poissons Ratio (y) = -0.15020 -0.33010
# Poissons Ratio (z) = 0.13642 -0.10369
#
# Static dielectric constant tensor:
#      x y z
#    x 1.766690 0.000000 0.000260 
#    y 0.000000 1.792370 0.000000 
#    z 0.000260 0.000000 1.719980 
# 
# From -- ./inp_files/43000.got.cif
#   From: 2010.05.17/outbox.cif.g08.bks.cpg/sg10_22_cif.got.tgz:43000.got - 2010.06.03 11:33:40.
