data_PCOD9150400
_publ_section_title
;
Structure prediction by ZEFSAII (Michael W. Deem and Ramdas Pophale) SiO2 
 PCOD9150400
Probable space group: P 2/M
;
_chemical_formula_sum "Si O2"
_cell_formula_units_Z 28
_cell_length_a 9.424691
_cell_length_b 8.683397
_cell_length_c 29.916485
_cell_angle_alpha 90.000000
_cell_angle_beta 38.162368
_cell_angle_gamma 90.000000
_cell_volume 1512.794692
_symmetry_space_group_name_H-M "P 2/M"
_symmetry_group_IT_number 10
_symmetry_cell_setting 'monoclinic'
loop_
_space_group_symop_operation_xyz
x,y,z
-x,y,-z
-x,-y,-z
x,-y,z
loop_
_atom_site_type_symbol
_atom_site_label
_atom_site_fract_x
_atom_site_fract_y
_atom_site_fract_z
Si Si1 0.668214 0.185354 0.269830
Si Si2 0.258946 0.185285 0.432118
Si Si3 0.013039 0.684701 0.730136
Si Si4 0.430849 0.685285 0.566520
Si Si5 0.189121 0.684658 0.860892
Si Si6 0.347218 0.685716 0.994980
Si Si7 0.494089 0.183414 0.139167
O O1 0.416396 0.232059 0.350925
O O2 0.853432 0.252052 0.259240
O O3 0.715167 0.247945 0.209044
O O4 0.683768 0.000000 0.266384
O O5 0.397923 0.240056 0.440662
O O6 0.000000 0.244870 0.500000
O O7 0.250458 0.000000 0.433569
O O8 0.994833 0.500000 0.738485
O O9 0.175325 0.722352 0.647442
O O10 0.762836 0.756665 0.788128
O O11 0.500000 0.736006 0.500000
O O12 0.453162 0.500000 0.563148
O O13 0.206865 0.500000 0.855681
O O14 0.331217 0.747821 0.867675
O O15 0.919694 0.725034 0.931627
O O16 0.364827 0.500000 0.986029
O O17 0.500000 0.730938 0.000000
O O18 0.435949 0.761200 0.927594
O O19 0.500152 0.000000 0.140083
#
# Coordination Sequence:
#
# PCOD9150400 Si02
#       7
#     4   4   4   4   4   4   4
#     4  10  20  36  58  84 114 147 189 236 279 330
#     4   9  19  35  54  79 112 149 186 226 276 333
#     4  10  20  37  59  81 111 150 190 231 281 341
#     4   9  19  35  55  81 110 142 185 235 280 326
#     4  11  23  39  60  85 116 152 187 227 279 336
#     4  10  22  41  64  87 112 146 187 228 275 335
#     4  12  25  39  58  85 117 149 186 235 282 326
#
# _framework density 18.508787999999999
#
# number of rings (size 3 to 8) (size 9 to 14) (size 15 to 20)
#    0.000    1.857    0.000    3.857    0.000    7.143 
#    0.000    2.857    0.000    0.000    0.000    0.000 
#    0.000    0.000    0.000    0.000    0.000    0.000 
#
# Total GULP energy -156403.341545 kJ/mol
# GULP energy per Si atom -5585.833627 kJ/mol
# Density = 1.846666 g / cm^3
# Si number density = 18.508788 Si / 1000 Ang^3
#
#
#
# Elastic Constant Matrix: (Units=GPa)
#
#
# Indices 1 2 3 4 5 6 
#
# 1 128.2130 40.3618 94.9220 0.0000 -12.2295 0.0000
# 2 40.3618 42.9709 49.3372 0.0000 -7.1589 0.0000
# 3 94.9220 49.3372 154.8452 0.0000 -12.3868 0.0000
# 4 0.0000 0.0000 0.0000 25.9689 0.0000 1.8653
# 5 -12.2295 -7.1589 -12.3868 0.0000 37.2536 0.0000
# 6 0.0000 0.0000 0.0000 1.8653 0.0000 33.4746
#
#
#
# Elastic Compliance Matrix: (Units=1/GPa)
#
#
# Indices 1 2 3 4 5 6 
#
# 1 0.015166 -0.005459 -0.007441 0.000000 0.001455 0.000000
# 2 -0.005459 0.039048 -0.008874 0.000000 0.002761 0.000000
# 3 -0.007441 -0.008874 0.013885 0.000000 0.000469 0.000000
# 4 0.000000 0.000000 0.000000 0.038662 0.000000 -0.002154
# 5 0.001455 0.002761 0.000469 0.000000 0.028007 0.000000
# 6 0.000000 0.000000 0.000000 -0.002154 0.000000 0.029993
#
#
# Mechanical properties :
#
#
# Convention : Reuss Voigt Hill
#
# Bulk Modulus (GPa) = 40.73362 77.25235 58.99299
# Shear Modulus (GPa) = 23.09538 28.76662 25.93100
#
# Velocity S-wave (km/s) = 3.53626 3.94663 3.74707
# Velocity P-wave (km/s) = 6.22327 7.91180 7.11778
#
# Compressibility (1/GPa) = 0.02454975
#
# Stress axis : x y z
#
# Youngs Moduli (GPa) = 65.93783 25.60941 72.02262
#
# Poissons Ratio (x) = 0.13980 0.53592
# Poissons Ratio (y) = 0.35996 0.63915
# Poissons Ratio (z) = 0.49064 0.22726
#
# Static dielectric constant tensor:
#      x y z
#    x 1.593280 0.000000 -0.010790 
#    y 0.000000 1.621500 0.000000 
#    z -0.010790 0.000000 1.645970 
# 
# From -- ./inp_files/37336.got.cif
#   From: 2010.05.17/outbox.cif.g08.bks.cpg/sg10_19_cif.got.tgz:37336.got - 2010.06.03 11:33:40.
