data_PCOD9150432
_publ_section_title
;
Structure prediction by ZEFSAII (Michael W. Deem and Ramdas Pophale) SiO2 
 PCOD9150432
Probable space group: P 2/M
;
_chemical_formula_sum "Si O2"
_cell_formula_units_Z 16
_cell_length_a 11.217663
_cell_length_b 12.633652
_cell_length_c 11.061677
_cell_angle_alpha 90.000000
_cell_angle_beta 26.281569
_cell_angle_gamma 90.000000
_cell_volume 694.133491
_symmetry_space_group_name_H-M "P 2/M"
_symmetry_group_IT_number 10
_symmetry_cell_setting 'monoclinic'
loop_
_space_group_symop_operation_xyz
x,y,z
-x,y,-z
-x,-y,-z
x,-y,z
loop_
_atom_site_type_symbol
_atom_site_label
_atom_site_fract_x
_atom_site_fract_y
_atom_site_fract_z
Si Si1 0.183344 0.382247 0.454815
Si Si2 0.701045 0.834577 0.719835
Si Si3 0.502127 0.119356 0.343207
Si Si4 0.024008 0.735755 0.846031
O O1 0.294107 0.500000 0.375163
O O2 0.053814 0.337948 0.698957
O O3 0.000000 0.389759 0.500000
O O4 0.379451 0.287381 0.238491
O O5 0.671024 0.890904 0.621661
O O6 0.000000 0.836581 0.500000
O O7 0.500000 0.878055 0.000000
O O8 0.287229 0.188276 0.615181
O O9 0.575462 0.000000 0.314109
O O10 0.766714 0.187278 0.070753
O O11 0.000000 0.680122 0.000000
#
# Coordination Sequence:
#
# PCOD9150432 Si02
#       4
#     4   4   4   4
#     4   9  19  38  64  90 119 157 199 247 303 359
#     4  10  20  36  58  88 126 160 197 247 303 362
#     4  11  23  39  61  88 120 161 206 251 300 356
#     4  11  24  41  61  89 124 160 203 251 298 357
#
# _framework density 23.050321
#
# number of rings (size 3 to 8) (size 9 to 14) (size 15 to 20)
#    0.000    1.750    0.000    6.000    0.000    5.000 
#    0.000   12.500    0.000    8.250    0.000    0.000 
#    0.000    0.000    0.000    0.000    0.000    0.000 
#
# Total GULP energy -89181.241353 kJ/mol
# GULP energy per Si atom -5573.827585 kJ/mol
# Density = 2.299786 g / cm^3
# Si number density = 23.050321 Si / 1000 Ang^3
#
#
#
# Elastic Constant Matrix: (Units=GPa)
#
#
# Indices 1 2 3 4 5 6 
#
# 1 138.9623 17.8181 38.3482 0.0000 26.9564 0.0000
# 2 17.8181 133.6602 10.4952 0.0000 0.1876 0.0000
# 3 38.3482 10.4952 109.7919 0.0000 -2.6975 0.0000
# 4 0.0000 0.0000 0.0000 29.6642 0.0000 -3.3682
# 5 26.9564 0.1876 -2.6975 0.0000 57.8351 0.0000
# 6 0.0000 0.0000 0.0000 -3.3682 0.0000 10.7735
#
#
#
# Elastic Compliance Matrix: (Units=1/GPa)
#
#
# Indices 1 2 3 4 5 6 
#
# 1 0.009039 -0.000950 -0.003173 0.000000 -0.004358 0.000000
# 2 -0.000950 0.007638 -0.000389 0.000000 0.000400 0.000000
# 3 -0.003173 -0.000389 0.010302 0.000000 0.001961 0.000000
# 4 0.000000 0.000000 0.000000 0.034951 0.000000 0.010927
# 5 -0.004358 0.000400 0.001961 0.000000 0.019412 0.000000
# 6 0.000000 0.000000 0.000000 0.010927 0.000000 0.096236
#
#
# Mechanical properties :
#
#
# Convention : Reuss Voigt Hill
#
# Bulk Modulus (GPa) = 55.69278 57.30416 56.49847
# Shear Modulus (GPa) = 25.96220 40.70477 33.33348
#
# Velocity S-wave (km/s) = 3.35972 4.20683 3.80691
# Velocity P-wave (km/s) = 6.26611 6.96498 6.62477
#
# Compressibility (1/GPa) = 0.01795565
#
# Stress axis : x y z
#
# Youngs Moduli (GPa) = 110.63049 130.92064 97.06945
#
# Poissons Ratio (x) = 0.12433 0.30805
# Poissons Ratio (y) = 0.10506 0.03772
# Poissons Ratio (z) = 0.35108 0.05088
#
# Static dielectric constant tensor:
#      x y z
#    x 1.932140 0.000000 0.018940 
#    y 0.000000 1.892020 0.000000 
#    z 0.018940 0.000000 1.789640 
# 
# From -- ./inp_files/38616.got.cif
#   From: 2010.05.17/outbox.cif.g08.bks.cpg/sg10_20_cif.got.tgz:38616.got - 2010.06.03 11:33:40.
