data_PCOD9150352
_publ_section_title
;
Structure prediction by ZEFSAII (Michael W. Deem and Ramdas Pophale) SiO2 
 PCOD9150352
Probable space group: P 2/M
;
_chemical_formula_sum "Si O2"
_cell_formula_units_Z 32
_cell_length_a 11.549127
_cell_length_b 8.645109
_cell_length_c 23.022331
_cell_angle_alpha 90.000000
_cell_angle_beta 48.744107
_cell_angle_gamma 90.000000
_cell_volume 1728.045063
_symmetry_space_group_name_H-M "P 2/M"
_symmetry_group_IT_number 10
_symmetry_cell_setting 'monoclinic'
loop_
_space_group_symop_operation_xyz
x,y,z
-x,y,-z
-x,-y,-z
x,-y,z
loop_
_atom_site_type_symbol
_atom_site_label
_atom_site_fract_x
_atom_site_fract_y
_atom_site_fract_z
Si Si1 0.908775 0.314257 0.869233
Si Si2 0.774195 0.313071 0.791207
Si Si3 0.085678 0.183888 0.635162
Si Si4 0.771078 0.313386 0.297232
Si Si5 0.465973 0.312949 0.827527
Si Si6 0.149554 0.312772 0.487400
Si Si7 0.847874 0.184789 0.015758
Si Si8 0.472017 0.688569 0.325102
O O1 0.900315 0.500000 0.879025
O O2 0.803629 0.270528 0.848638
O O3 0.083541 0.274856 0.792258
O O4 0.861787 0.236459 0.944488
O O5 0.785422 0.500000 0.783925
O O6 0.610060 0.265423 0.820017
O O7 0.915049 0.245382 0.707504
O O8 0.194350 0.241815 0.651601
O O9 0.137589 0.250380 0.556383
O O10 0.084431 0.000000 0.634065
O O11 0.770334 0.500000 0.303601
O O12 0.612386 0.263243 0.320163
O O13 0.460550 0.500000 0.829600
O O14 0.305481 0.251507 0.904566
O O15 0.497492 0.261749 0.751012
O O16 0.149920 0.500000 0.489491
O O17 0.306752 0.261847 0.404055
O O18 0.000000 0.264577 0.500000
O O19 0.842839 0.000000 0.020602
O O20 0.000000 0.239561 0.000000
O O21 0.471869 0.500000 0.324704
#
# Coordination Sequence:
#
# PCOD9150352 Si02
#       8
#     4   4   4   4   4   4   4   4
#     4   9  18  34  57  81 105 138 180 226 271 315
#     4   9  19  37  60  84 109 139 178 224 271 318
#     4  11  22  35  54  81 113 147 180 215 264 324
#     4   9  18  35  57  80 107 139 181 227 268 314
#     4  10  20  37  61  84 106 135 178 228 272 317
#     4  10  20  36  58  81 108 142 181 226 273 320
#     4  11  24  38  52  76 112 149 181 217 267 324
#     4   9  18  33  57  84 104 134 182 230 272 314
#
# _framework density 18.518035000000001
#
# number of rings (size 3 to 8) (size 9 to 14) (size 15 to 20)
#    0.000    2.250    0.000    3.750    0.000    7.750 
#    0.000    6.875    0.000    0.000    0.000    0.000 
#    0.000    0.000    0.000    0.000    0.000    0.000 
#
# Total GULP energy -178695.200580 kJ/mol
# GULP energy per Si atom -5584.225018 kJ/mol
# Density = 1.847589 g / cm^3
# Si number density = 18.518035 Si / 1000 Ang^3
#
#
#
# Elastic Constant Matrix: (Units=GPa)
#
#
# Indices 1 2 3 4 5 6 
#
# 1 194.2557 36.6485 123.4732 0.0000 -15.5219 0.0000
# 2 36.6485 16.4231 36.3977 0.0000 -0.5332 0.0000
# 3 123.4732 36.3977 186.8513 0.0000 7.8802 0.0000
# 4 0.0000 0.0000 0.0000 -12.9944 0.0000 -9.2877
# 5 -15.5219 -0.5332 7.8802 0.0000 23.9444 0.0000
# 6 0.0000 0.0000 0.0000 -9.2877 0.0000 6.5813
#
#
#
# Elastic Compliance Matrix: (Units=1/GPa)
#
#
# Indices 1 2 3 4 5 6 
#
# 1 0.012230 -0.014407 -0.005675 0.000000 0.009475 0.000000
# 2 -0.014407 0.126239 -0.015003 0.000000 -0.001590 0.000000
# 3 -0.005675 -0.015003 0.012365 0.000000 -0.008082 0.000000
# 4 0.000000 0.000000 0.000000 -0.038312 0.000000 -0.054067
# 5 0.009475 -0.001590 -0.008082 0.000000 0.050530 0.000000
# 6 0.000000 0.000000 0.000000 -0.054067 0.000000 0.075645
#
#
# Mechanical properties :
#
#
# Convention : Reuss Voigt Hill
#
# Bulk Modulus (GPa) = 12.39718 87.84098 50.11908
# Shear Modulus (GPa) = 14.89180 16.90698 15.89939
#
# Velocity S-wave (km/s) = 2.83888 3.02487 2.93335
# Velocity P-wave (km/s) = 4.17790 7.72904 6.21261
#
# Compressibility (1/GPa) = 0.08066352
#
# Stress axis : x y z
#
# Youngs Moduli (GPa) = 81.76548 7.92151 80.87094
#
# Poissons Ratio (x) = 0.11412 0.45894
# Poissons Ratio (y) = 1.17799 1.21334
# Poissons Ratio (z) = 0.46402 0.11885
#
# Static dielectric constant tensor:
#      x y z
#    x 1.635280 0.000000 -0.001790 
#    y 0.000000 1.620170 0.000000 
#    z -0.001790 0.000000 1.598230 
# 
# From -- ./inp_files/83537.got.cif
#   From: 2010.05.17/outbox.cif.g08.bks.cpg/sg10_42_cif.got.tgz:83537.got - 2010.06.03 11:33:40.
