data_PCOD9150535
_publ_section_title
;
Structure prediction by ZEFSAII (Michael W. Deem and Ramdas Pophale) SiO2 
 PCOD9150535
Probable space group: P 2/M
;
_chemical_formula_sum "Si O2"
_cell_formula_units_Z 14
_cell_length_a 7.711378
_cell_length_b 17.798885
_cell_length_c 7.498340
_cell_angle_alpha 90.000000
_cell_angle_beta 37.993374
_cell_angle_gamma 90.000000
_cell_volume 633.530613
_symmetry_space_group_name_H-M "P 2/M"
_symmetry_group_IT_number 10
_symmetry_cell_setting 'monoclinic'
loop_
_space_group_symop_operation_xyz
x,y,z
-x,y,-z
-x,-y,-z
x,-y,z
loop_
_atom_site_type_symbol
_atom_site_label
_atom_site_fract_x
_atom_site_fract_y
_atom_site_fract_z
Si Si1 0.688399 0.243042 0.173411
Si Si2 0.309776 0.080139 0.831157
Si Si3 0.806139 0.500000 0.331974
Si Si4 0.300330 0.632242 0.310815
O O1 0.500000 0.234188 0.500000
O O2 0.674720 0.161536 0.087870
O O3 0.528742 0.308022 0.196855
O O4 0.000000 0.260301 0.000000
O O5 0.500000 0.079884 0.500000
O O6 0.359412 0.000000 0.887311
O O7 0.000000 0.079164 0.000000
O O8 0.500000 0.500000 0.500000
O O9 0.814248 0.572887 0.451336
O O10 0.000000 0.500000 0.000000
O O11 0.000000 0.669752 0.500000
O O12 0.500000 0.592572 0.000000
#
# Coordination Sequence:
#
# PCOD9150535 Si02
#       4
#     4   4   2   4
#     4  10  20  36  59  88 119 158 208 250 291 352
#     4   8  14  26  48  79 113 149 196 252 294 329
#     4  12  26  46  70  92 115 152 207 254 296 360
#     4  12  25  42  63  91 127 160 194 246 314 369
#
# _framework density 22.098378
#
# number of rings (size 3 to 8) (size 9 to 14) (size 15 to 20)
#    0.000    1.714    0.000    5.143    0.000    2.286 
#    0.000    0.000    0.000    1.714    0.000    0.000 
#    0.000    0.000    0.000    0.000    0.000    0.286 
#
# Total GULP energy -77950.303117 kJ/mol
# GULP energy per Si atom -5567.878794 kJ/mol
# Density = 2.204808 g / cm^3
# Si number density = 22.098378 Si / 1000 Ang^3
#
#
#
# Elastic Constant Matrix: (Units=GPa)
#
#
# Indices 1 2 3 4 5 6 
#
# 1 64.1509 55.6465 42.3747 0.0000 -24.5416 0.0000
# 2 55.6465 185.7344 30.1130 0.0000 -6.7990 0.0000
# 3 42.3747 30.1130 189.7569 0.0000 -28.8125 0.0000
# 4 0.0000 0.0000 0.0000 22.3568 0.0000 -14.0333
# 5 -24.5416 -6.7990 -28.8125 0.0000 45.4245 0.0000
# 6 0.0000 0.0000 0.0000 -14.0333 0.0000 -53.3541
#
#
#
# Elastic Compliance Matrix: (Units=1/GPa)
#
#
# Indices 1 2 3 4 5 6 
#
# 1 0.029419 -0.007799 -0.003426 0.000000 0.012554 0.000000
# 2 -0.007799 0.007597 0.000076 0.000000 -0.003028 0.000000
# 3 -0.003426 0.000076 0.006356 0.000000 0.002192 0.000000
# 4 0.000000 0.000000 0.000000 0.038391 0.000000 -0.010098
# 5 0.012554 -0.003028 0.002192 0.000000 0.029734 0.000000
# 6 0.000000 0.000000 0.000000 -0.010098 0.000000 -0.016087
#
#
# Mechanical properties :
#
#
# Convention : Reuss Voigt Hill
#
# Bulk Modulus (GPa) = 47.45009 77.32340 62.38674
# Shear Modulus (GPa) = 40.08590 23.65264 31.86927
#
# Velocity S-wave (km/s) = 4.26370 3.27514 3.80169
# Velocity P-wave (km/s) = 6.76444 7.02628 6.89660
#
# Compressibility (1/GPa) = 0.02107478
#
# Stress axis : x y z
#
# Youngs Moduli (GPa) = 33.99186 131.62333 157.34073
#
# Poissons Ratio (x) = 1.02653 0.53900
# Poissons Ratio (y) = 0.26510 -0.01198
# Poissons Ratio (z) = 0.11645 -0.01002
#
# Static dielectric constant tensor:
#      x y z
#    x 1.778840 0.000000 0.030910 
#    y 0.000000 1.932760 0.000000 
#    z 0.030910 0.000000 1.768220 
# 
# From -- ./inp_files/14455.got.cif
#   From: 2010.05.17/outbox.cif.g08.bks.cpg/sg10_8_cif.got.tgz:14455.got - 2010.06.03 11:33:40.
