data_PCOD9150274
_publ_section_title
;
Structure prediction by ZEFSAII (Michael W. Deem and Ramdas Pophale) SiO2 
 PCOD9150274
Probable space group: P 2/M
;
_chemical_formula_sum "Si O2"
_cell_formula_units_Z 32
_cell_length_a 27.906930
_cell_length_b 9.029246
_cell_length_c 20.983280
_cell_angle_alpha 90.000000
_cell_angle_beta 162.896313
_cell_angle_gamma 90.000000
_cell_volume 1555.015246
_symmetry_space_group_name_H-M "P 2/M"
_symmetry_group_IT_number 10
_symmetry_cell_setting 'monoclinic'
loop_
_space_group_symop_operation_xyz
x,y,z
-x,y,-z
-x,-y,-z
x,-y,z
loop_
_atom_site_type_symbol
_atom_site_label
_atom_site_fract_x
_atom_site_fract_y
_atom_site_fract_z
Si Si1 0.309493 0.668031 0.777364
Si Si2 0.403848 0.821967 0.023778
Si Si3 0.894322 0.674373 0.107304
Si Si4 0.773313 0.175829 0.455525
Si Si5 0.713588 0.171528 0.984506
Si Si6 0.633301 0.827779 0.523533
Si Si7 0.774378 0.173792 0.837286
Si Si8 0.077151 0.334307 0.168090
O O1 0.244037 0.500000 0.692205
O O2 0.234680 0.772728 0.628263
O O3 0.500000 0.660137 0.000000
O O4 0.309685 0.738745 0.847579
O O5 0.597524 0.787120 0.263327
O O6 0.332961 0.784681 0.002868
O O7 0.391268 0.000000 0.998849
O O8 0.895288 0.500000 0.105950
O O9 0.073712 0.738739 0.321143
O O10 0.842804 0.730717 0.111466
O O11 0.766224 0.737755 0.892681
O O12 0.797521 0.000000 0.491518
O O13 0.548417 0.178734 0.733102
O O14 0.768229 0.000000 0.054663
O O15 0.660420 0.784151 0.632218
O O16 0.745006 0.729893 0.619113
O O17 0.688887 0.000000 0.590556
O O18 0.753558 0.000000 0.823333
O O19 0.956553 0.215424 0.045809
O O20 0.075496 0.500000 0.195269
O O21 0.000000 0.350182 0.000000
#
# Coordination Sequence:
#
# PCOD9150274 Si02
#       8
#     4   4   4   4   4   4   4   4
#     4   9  17  32  57  90 125 156 187 230 282 339
#     4   9  19  36  62  92 119 150 192 237 285 343
#     4  12  26  41  56  82 118 156 196 243 299 354
#     4  10  20  37  63  92 119 153 193 238 287 342
#     4  10  22  41  60  83 116 154 196 244 294 348
#     4   9  19  35  58  83 109 148 198 246 291 347
#     4  10  20  36  57  80 109 150 198 245 293 346
#     4   9  17  30  50  80 114 142 176 231 293 346
#
# _framework density 20.578575000000001
#
# number of rings (size 3 to 8) (size 9 to 14) (size 15 to 20)
#    0.000    2.250    0.000    2.625    1.750    5.500 
#    0.000    3.125    0.000    3.750    0.000    0.000 
#    0.000    0.000    0.000    0.000    0.000    0.000 
#
# Total GULP energy -178618.520120 kJ/mol
# GULP energy per Si atom -5581.828754 kJ/mol
# Density = 2.053174 g / cm^3
# Si number density = 20.578575 Si / 1000 Ang^3
#
#
#
# Elastic Constant Matrix: (Units=GPa)
#
#
# Indices 1 2 3 4 5 6 
#
# 1 105.0124 21.4424 -3.1395 0.0000 -12.9191 0.0000
# 2 21.4424 52.4332 0.6095 0.0000 -0.7358 0.0000
# 3 -3.1395 0.6095 13.3053 0.0000 -8.0018 0.0000
# 4 0.0000 0.0000 0.0000 10.8174 0.0000 3.4937
# 5 -12.9191 -0.7358 -8.0018 0.0000 25.6342 0.0000
# 6 0.0000 0.0000 0.0000 3.4937 0.0000 4.2105
#
#
#
# Elastic Compliance Matrix: (Units=1/GPa)
#
#
# Indices 1 2 3 4 5 6 
#
# 1 0.011756 -0.004784 0.007970 0.000000 0.008275 0.000000
# 2 -0.004784 0.021031 -0.003914 0.000000 -0.003029 0.000000
# 3 0.007970 -0.003914 0.097955 0.000000 0.034481 0.000000
# 4 0.000000 0.000000 0.000000 0.126286 0.000000 -0.104786
# 5 0.008275 -0.003029 0.034481 0.000000 0.053857 0.000000
# 6 0.000000 0.000000 0.000000 -0.104786 0.000000 0.324445
#
#
# Mechanical properties :
#
#
# Convention : Reuss Voigt Hill
#
# Bulk Modulus (GPa) = 7.73481 23.17507 15.45494
# Shear Modulus (GPa) = 7.35422 18.25500 12.80461
#
# Velocity S-wave (km/s) = 1.89248 2.98163 2.49716
# Velocity P-wave (km/s) = 2.92269 4.81038 3.98007
#
# Compressibility (1/GPa) = 0.12928560
#
# Stress axis : x y z
#
# Youngs Moduli (GPa) = 85.06401 47.54822 10.20878
#
# Poissons Ratio (x) = 0.22747 -0.08136
# Poissons Ratio (y) = 0.40695 0.03996
# Poissons Ratio (z) = -0.67794 0.18610
#
# Static dielectric constant tensor:
#      x y z
#    x 1.776230 0.000000 -0.009700 
#    y 0.000000 1.707730 0.000000 
#    z -0.009700 0.000000 1.728770 
# 
# From -- ./inp_files/87070.got.cif
#   From: 2010.05.17/outbox.cif.g08.bks.cpg/sg10_44_cif.got.tgz:87070.got - 2010.06.03 11:33:40.
