data_PCOD9150928
_publ_section_title
;
Structure prediction by ZEFSAII (Michael W. Deem and Ramdas Pophale) SiO2 
 PCOD9150928
Probable space group: P 2/M
;
_chemical_formula_sum "Si O2"
_cell_formula_units_Z 26
_cell_length_a 18.385826
_cell_length_b 10.872245
_cell_length_c 8.458919
_cell_angle_alpha 90.000000
_cell_angle_beta 50.622201
_cell_angle_gamma 90.000000
_cell_volume 1307.028919
_symmetry_space_group_name_H-M "P 2/M"
_symmetry_group_IT_number 10
_symmetry_cell_setting 'monoclinic'
loop_
_space_group_symop_operation_xyz
x,y,z
-x,y,-z
-x,-y,-z
x,-y,z
loop_
_atom_site_type_symbol
_atom_site_label
_atom_site_fract_x
_atom_site_fract_y
_atom_site_fract_z
Si Si1 0.672558 0.863871 0.718999
Si Si2 0.180631 0.727030 0.900030
Si Si3 0.500000 0.288516 0.500000
Si Si4 0.352542 0.366918 0.455875
Si Si5 0.112768 0.861658 0.695253
Si Si6 0.997965 0.637101 0.312817
Si Si7 0.664815 0.857093 0.104615
O O1 0.631607 0.749365 0.679681
O O2 0.782904 0.865377 0.523382
O O3 0.633884 0.000000 0.728552
O O4 0.663294 0.846249 0.918205
O O5 0.254644 0.655584 0.685462
O O6 0.128019 0.823361 0.856780
O O7 0.244297 0.794018 0.942792
O O8 0.102055 0.646983 0.094932
O O9 0.436002 0.364054 0.467788
O O10 0.426952 0.205230 0.696641
O O11 0.348912 0.500000 0.380255
O O12 0.058393 0.750819 0.684863
O O13 0.072653 0.000000 0.734624
O O14 0.959200 0.500000 0.328872
O O15 0.000000 0.649507 0.500000
O O16 0.666845 0.000000 0.144783
#
# Coordination Sequence:
#
# PCOD9150928 Si02
#       7
#     4   4   2   4   4   4   4
#     4   9  20  38  59  85 115 148 186 230 279 331
#     4  10  21  37  59  84 111 148 189 232 279 331
#     4  10  22  36  56  86 113 146 187 232 279 334
#     4  10  21  39  60  82 112 149 189 231 279 334
#     4  10  21  37  59  86 114 146 188 234 279 329
#     4  11  24  39  56  82 116 152 190 231 277 331
#     4  10  20  37  60  85 115 148 184 229 282 337
#
# _framework density 19.892443
#
# number of rings (size 3 to 8) (size 9 to 14) (size 15 to 20)
#    0.000    2.000    0.000    2.769    0.000   10.769 
#    0.000    6.923    0.000    0.000    0.000    0.000 
#    0.000    0.000    0.000    0.000    0.000    0.000 
#
# Total GULP energy -145175.799383 kJ/mol
# GULP energy per Si atom -5583.684592 kJ/mol
# Density = 1.984717 g / cm^3
# Si number density = 19.892443 Si / 1000 Ang^3
#
#
#
# Elastic Constant Matrix: (Units=GPa)
#
#
# Indices 1 2 3 4 5 6 
#
# 1 70.1432 69.0086 13.2995 0.0000 5.6810 0.0000
# 2 69.0086 190.2004 38.4259 0.0000 16.4728 0.0000
# 3 13.2995 38.4259 63.0116 0.0000 16.5376 0.0000
# 4 0.0000 0.0000 0.0000 -46.5182 0.0000 16.9811
# 5 5.6810 16.4728 16.5376 0.0000 15.0005 0.0000
# 6 0.0000 0.0000 0.0000 16.9811 0.0000 -20.1094
#
#
#
# Elastic Compliance Matrix: (Units=1/GPa)
#
#
# Indices 1 2 3 4 5 6 
#
# 1 0.022175 -0.008109 0.000185 0.000000 0.000303 0.000000
# 2 -0.008109 0.009103 -0.002845 0.000000 -0.003788 0.000000
# 3 0.000185 -0.002845 0.023590 0.000000 -0.022953 0.000000
# 4 0.000000 0.000000 0.000000 -0.031076 0.000000 -0.026242
# 5 0.000303 -0.003788 -0.022953 0.000000 0.096016 0.000000
# 6 0.000000 0.000000 0.000000 -0.026242 0.000000 -0.071888
#
#
# Mechanical properties :
#
#
# Convention : Reuss Voigt Hill
#
# Bulk Modulus (GPa) = 30.00314 62.75814 46.38064
# Shear Modulus (GPa) = 62.06001 3.18264 32.62133
#
# Velocity S-wave (km/s) = 5.59156 1.26625 4.05394
# Velocity P-wave (km/s) = 7.53676 5.80991 6.72896
#
# Compressibility (1/GPa) = 0.03332985
#
# Stress axis : x y z
#
# Youngs Moduli (GPa) = 45.09605 109.85760 42.39036
#
# Poissons Ratio (x) = 0.89085 -0.00786
# Poissons Ratio (y) = 0.36569 0.12061
# Poissons Ratio (z) = -0.00836 0.31257
#
# Static dielectric constant tensor:
#      x y z
#    x 1.684250 0.000000 -0.009910 
#    y 0.000000 1.722670 0.000000 
#    z -0.009910 0.000000 1.682430 
# 
# From -- ./inp_files/34177.got.cif
#   From: 2010.05.17/outbox.cif.g08.bks.cpg/sg10_18_cif.got.tgz:34177.got - 2010.06.03 11:33:40.
