data_PCOD9150643
_publ_section_title
;
Structure prediction by ZEFSAII (Michael W. Deem and Ramdas Pophale) SiO2 
 PCOD9150643
Probable space group: P 2/M
;
_chemical_formula_sum "Si O2"
_cell_formula_units_Z 24
_cell_length_a 9.691855
_cell_length_b 15.730952
_cell_length_c 14.005127
_cell_angle_alpha 90.000000
_cell_angle_beta 149.481143
_cell_angle_gamma 90.000000
_cell_volume 1084.327324
_symmetry_space_group_name_H-M "P 2/M"
_symmetry_group_IT_number 10
_symmetry_cell_setting 'monoclinic'
loop_
_space_group_symop_operation_xyz
x,y,z
-x,y,-z
-x,-y,-z
x,-y,z
loop_
_atom_site_type_symbol
_atom_site_label
_atom_site_fract_x
_atom_site_fract_y
_atom_site_fract_z
Si Si1 0.952434 0.682039 0.740632
Si Si2 0.564302 0.837791 0.275522
Si Si3 0.765113 0.500000 0.094447
Si Si4 0.599334 0.684165 0.705828
Si Si5 0.944393 0.000000 0.730727
Si Si6 0.319900 0.500000 0.173120
Si Si7 0.869060 0.162481 0.264901
Si Si8 0.378240 0.000000 0.271939
O O1 0.867435 0.694500 0.800506
O O2 0.667327 0.697808 0.517169
O O3 0.059955 0.586291 0.790223
O O4 0.143829 0.751781 0.805406
O O5 0.421316 0.750031 0.220020
O O6 0.639825 0.844783 0.209434
O O7 0.394510 0.916470 0.216154
O O8 0.850665 0.838187 0.505248
O O9 0.500000 0.500000 0.000000
O O10 0.643414 0.500000 0.916527
O O11 0.573778 0.586753 0.720713
O O12 0.657838 0.000000 0.501282
O O13 0.859988 0.000000 0.791449
O O14 0.102911 0.917018 0.789336
O O15 0.000000 0.500000 0.000000
#
# Coordination Sequence:
#
# PCOD9150643 Si02
#       8
#     4   4   2   4   2   2   4   2
#     4  10  20  38  57  83 111 147 186 230 278 329
#     4   9  17  28  46  76 108 144 180 226 272 324
#     4  12  27  41  57  81 114 145 183 232 287 336
#     4  10  20  36  61  82 109 145 190 232 273 328
#     4   9  15  25  43  71 107 147 177 223 272 323
#     4  12  23  41  59  83 108 144 189 232 280 333
#     4   9  17  28  46  74 112 143 178 222 280 326
#     4   9  15  25  43  71 107 143 185 221 268 320
#
# _framework density 22.133538999999999
#
# number of rings (size 3 to 8) (size 9 to 14) (size 15 to 20)
#    0.000    2.167    1.667    2.000    2.333    7.333 
#    0.000    0.833    0.000    0.000    0.000    2.333 
#    0.000    0.000    0.000    0.000    0.000    0.000 
#
# Total GULP energy -134141.954888 kJ/mol
# GULP energy per Si atom -5589.248120 kJ/mol
# Density = 2.208316 g / cm^3
# Si number density = 22.133539 Si / 1000 Ang^3
#
#
#
# Elastic Constant Matrix: (Units=GPa)
#
#
# Indices 1 2 3 4 5 6 
#
# 1 258.5760 117.9426 16.3866 0.0000 5.7487 0.0000
# 2 117.9426 191.3420 6.8746 0.0000 2.8724 0.0000
# 3 16.3866 6.8746 57.1248 0.0000 11.9172 0.0000
# 4 0.0000 0.0000 0.0000 -6.5227 0.0000 6.9701
# 5 5.7487 2.8724 11.9172 0.0000 13.8868 0.0000
# 6 0.0000 0.0000 0.0000 6.9701 0.0000 31.4116
#
#
#
# Elastic Compliance Matrix: (Units=1/GPa)
#
#
# Indices 1 2 3 4 5 6 
#
# 1 0.005462 -0.003319 -0.001022 0.000000 -0.000698 0.000000
# 2 -0.003319 0.007271 0.000127 0.000000 -0.000239 0.000000
# 3 -0.001022 0.000127 0.021561 0.000000 -0.018106 0.000000
# 4 0.000000 0.000000 0.000000 -0.123927 0.000000 0.027499
# 5 -0.000698 -0.000239 -0.018106 0.000000 0.087887 0.000000
# 6 0.000000 0.000000 0.000000 0.027499 0.000000 0.025734
#
#
# Mechanical properties :
#
#
# Convention : Reuss Voigt Hill
#
# Bulk Modulus (GPa) = 38.66194 87.71671 63.18933
# Shear Modulus (GPa) = 121.84030 32.14440 76.99235
#
# Velocity S-wave (km/s) = 7.42747 3.81503 5.90431
# Velocity P-wave (km/s) = 9.54264 7.68913 8.66558
#
# Compressibility (1/GPa) = 0.02586523
#
# Stress axis : x y z
#
# Youngs Moduli (GPa) = 183.09567 137.52689 46.38105
#
# Poissons Ratio (x) = 0.45650 0.04739
# Poissons Ratio (y) = 0.60776 -0.00589
# Poissons Ratio (z) = 0.18707 -0.01746
#
# Static dielectric constant tensor:
#      x y z
#    x 1.781200 0.000000 0.008890 
#    y 0.000000 1.909830 0.000000 
#    z 0.008890 0.000000 1.870680 
# 
# From -- ./inp_files/32912.got.cif
#   From: 2010.05.17/outbox.cif.g08.bks.cpg/sg10_17_cif.got.tgz:32912.got - 2010.06.03 11:33:40.
