data_PCOD9150098
_publ_section_title
;
Structure prediction by ZEFSAII (Michael W. Deem and Ramdas Pophale) SiO2 
 PCOD9150098
Probable space group: P 2/M
;
_chemical_formula_sum "Si O2"
_cell_formula_units_Z 28
_cell_length_a 25.200260
_cell_length_b 8.903393
_cell_length_c 22.751810
_cell_angle_alpha 90.000000
_cell_angle_beta 162.655785
_cell_angle_gamma 90.000000
_cell_volume 1521.792194
_symmetry_space_group_name_H-M "P 2/M"
_symmetry_group_IT_number 10
_symmetry_cell_setting 'monoclinic'
loop_
_space_group_symop_operation_xyz
x,y,z
-x,y,-z
-x,-y,-z
x,-y,z
loop_
_atom_site_type_symbol
_atom_site_label
_atom_site_fract_x
_atom_site_fract_y
_atom_site_fract_z
Si Si1 0.910537 0.179603 0.343310
Si Si2 0.465728 0.319902 0.031954
Si Si3 0.290396 0.172557 0.296710
Si Si4 0.797937 0.681235 0.915664
Si Si5 0.398505 0.319192 0.528063
Si Si6 0.136280 0.317119 0.350370
Si Si7 0.164679 0.681325 0.514886
O O1 0.000000 0.226651 0.500000
O O2 0.021447 0.248342 0.407157
O O3 0.915087 0.000000 0.345152
O O4 0.709783 0.238513 0.131275
O O5 0.438839 0.500000 0.006314
O O6 0.639763 0.281749 0.253610
O O7 0.500000 0.280169 0.000000
O O8 0.500000 0.176718 0.500000
O O9 0.189522 0.251293 0.136387
O O10 0.286681 0.256038 0.354924
O O11 0.236273 0.000000 0.245400
O O12 0.800603 0.500000 0.913873
O O13 0.604881 0.725536 0.738127
O O14 0.958517 0.728901 0.127580
O O15 0.393042 0.500000 0.519330
O O16 0.306085 0.270933 0.490848
O O17 0.136333 0.500000 0.351645
O O18 0.142220 0.267304 0.423964
O O19 0.146814 0.500000 0.497862
#
# Coordination Sequence:
#
# PCOD9150098 Si02
#       7
#     4   4   4   4   4   4   4
#     4  11  23  37  57  84 114 148 181 221 274 330
#     4  10  20  35  59  88 113 142 180 226 277 325
#     4   9  17  30  49  74 102 133 171 215 262 308
#     4   9  17  31  52  75 101 134 171 213 263 313
#     4   9  17  31  51  73 100 132 171 215 262 313
#     4   9  19  34  53  78 103 134 176 220 262 313
#     4  10  21  38  59  83 113 145 185 232 276 328
#
# _framework density 18.399359
#
# number of rings (size 3 to 8) (size 9 to 14) (size 15 to 20)
#    0.000    2.429    1.429    0.857    0.000    4.857 
#    0.000    9.286    0.000    3.429    0.000    0.000 
#    0.000    0.000    0.000    0.000    0.000    0.000 
#
# Total GULP energy -156272.029565 kJ/mol
# GULP energy per Si atom -5581.143913 kJ/mol
# Density = 1.835748 g / cm^3
# Si number density = 18.399359 Si / 1000 Ang^3
#
#
#
# Elastic Constant Matrix: (Units=GPa)
#
#
# Indices 1 2 3 4 5 6 
#
# 1 111.3191 18.1609 21.7747 0.0000 0.1450 0.0000
# 2 18.1609 11.5558 16.6890 0.0000 3.5445 0.0000
# 3 21.7747 16.6890 65.7423 0.0000 1.3602 0.0000
# 4 0.0000 0.0000 0.0000 -241.5153 0.0000 -760.2646
# 5 0.1450 3.5445 1.3602 0.0000 31.7801 0.0000
# 6 0.0000 0.0000 0.0000 -760.2646 0.0000-2278.0422
#
#
#
# Elastic Compliance Matrix: (Units=1/GPa)
#
#
# Indices 1 2 3 4 5 6 
#
# 1 0.012318 -0.022295 0.001531 0.000000 0.002365 0.000000
# 2 -0.022295 0.183275 -0.038754 0.000000 -0.018681 0.000000
# 3 0.001531 -0.038754 0.024474 0.000000 0.003268 0.000000
# 4 0.000000 0.000000 0.000000 0.081885 0.000000 -0.027328
# 5 0.002365 -0.018681 0.003268 0.000000 0.033399 0.000000
# 6 0.000000 0.000000 0.000000 -0.027328 0.000000 0.008681
#
#
# Mechanical properties :
#
#
# Convention : Reuss Voigt Hill
#
# Bulk Modulus (GPa) = 9.89802 33.54069 21.71935
# Shear Modulus (GPa) = 10.06551 -488.75597 -239.34523
#
# Velocity S-wave (km/s) = 2.34146 -16.31607 -11.41779
# Velocity P-wave (km/s) = 3.56387 18.34893 12.72757
#
# Compressibility (1/GPa) = 0.10103030
#
# Stress axis : x y z
#
# Youngs Moduli (GPa) = 81.18257 5.45628 40.85941
#
# Poissons Ratio (x) = 0.12165 -0.06255
# Poissons Ratio (y) = 1.80997 1.58348
# Poissons Ratio (z) = -0.12428 0.21145
#
# Static dielectric constant tensor:
#      x y z
#    x 1.618470 0.000000 0.009810 
#    y 0.000000 1.613280 0.000000 
#    z 0.009810 0.000000 1.631600 
# 
# From -- ./inp_files/86519.got.cif
#   From: 2010.05.17/outbox.cif.g08.bks.cpg/sg10_44_cif.got.tgz:86519.got - 2010.06.03 11:33:40.
