data_PCOD9150386
_publ_section_title
;
Structure prediction by ZEFSAII (Michael W. Deem and Ramdas Pophale) SiO2 
 PCOD9150386
Probable space group: P 2/M
;
_chemical_formula_sum "Si O2"
_cell_formula_units_Z 28
_cell_length_a 24.999817
_cell_length_b 7.526155
_cell_length_c 9.593034
_cell_angle_alpha 90.000000
_cell_angle_beta 138.570559
_cell_angle_gamma 90.000000
_cell_volume 1194.332580
_symmetry_space_group_name_H-M "P 2/M"
_symmetry_group_IT_number 10
_symmetry_cell_setting 'monoclinic'
loop_
_space_group_symop_operation_xyz
x,y,z
-x,y,-z
-x,-y,-z
x,-y,z
loop_
_atom_site_type_symbol
_atom_site_label
_atom_site_fract_x
_atom_site_fract_y
_atom_site_fract_z
Si Si1 0.324264 0.716226 0.324840
Si Si2 0.570231 0.705308 0.229604
Si Si3 0.327794 0.783273 0.822201
Si Si4 0.996665 0.784843 0.332429
Si Si5 0.424153 0.207157 0.267789
Si Si6 0.838421 0.708444 0.842755
Si Si7 0.149870 0.208275 0.458406
O O1 0.324230 0.500000 0.325180
O O2 0.399816 0.781517 0.566795
O O3 0.345257 0.777941 0.211712
O O4 0.241255 0.779084 0.233038
O O5 0.548330 0.500000 0.211301
O O6 0.648012 0.715245 0.282101
O O7 0.500000 0.791395 0.000000
O O8 0.237202 0.721088 0.676437
O O9 0.328672 0.000000 0.821884
O O10 0.395497 0.719246 0.063605
O O11 0.072907 0.718085 0.390287
O O12 0.000000 0.724698 0.500000
O O13 0.998613 0.000000 0.338307
O O14 0.915109 0.734747 0.092379
O O15 0.500000 0.287893 0.500000
O O16 0.442580 0.000000 0.281139
O O17 0.824821 0.500000 0.796304
O O18 0.854518 0.779265 0.718385
O O19 0.151264 0.000000 0.495020
#
# Coordination Sequence:
#
# PCOD9150386 Si02
#       7
#     4   4   4   4   4   4   4
#     4  10  22  38  56  84 117 152 196 238 284 347
#     4  10  20  36  58  83 114 152 194 238 283 338
#     4  10  21  36  57  85 116 150 193 241 288 343
#     4  10  23  41  64  91 119 153 193 236 285 346
#     4  10  22  38  57  85 119 154 195 244 295 345
#     4  11  23  40  61  88 121 154 192 239 291 344
#     4  10  21  39  61  87 116 152 196 238 287 348
#
# _framework density 23.444054999999999
#
# number of rings (size 3 to 8) (size 9 to 14) (size 15 to 20)
#    0.000    1.857    1.429    1.714    2.000    5.429 
#    0.000    0.000    0.000    0.000    0.000    0.000 
#    0.000    0.000    0.000    0.000    0.000    0.000 
#
# Total GULP energy -156480.098389 kJ/mol
# GULP energy per Si atom -5588.574942 kJ/mol
# Density = 2.339070 g / cm^3
# Si number density = 23.444055 Si / 1000 Ang^3
#
#
#
# Elastic Constant Matrix: (Units=GPa)
#
#
# Indices 1 2 3 4 5 6 
#
# 1 125.3359 -2.9881 25.9571 0.0000 2.9759 0.0000
# 2 -2.9881 70.0527 -3.9563 0.0000 5.8220 0.0000
# 3 25.9571 -3.9563 112.3022 0.0000 4.3559 0.0000
# 4 0.0000 0.0000 0.0000 4.4247 0.0000 4.1968
# 5 2.9759 5.8220 4.3559 0.0000 42.4496 0.0000
# 6 0.0000 0.0000 0.0000 4.1968 0.0000 23.0730
#
#
#
# Elastic Compliance Matrix: (Units=1/GPa)
#
#
# Indices 1 2 3 4 5 6 
#
# 1 0.008392 0.000286 -0.001913 0.000000 -0.000431 0.000000
# 2 0.000286 0.014488 0.000524 0.000000 -0.002061 0.000000
# 3 -0.001913 0.000524 0.009400 0.000000 -0.000902 0.000000
# 4 0.000000 0.000000 0.000000 0.273129 0.000000 -0.049681
# 5 -0.000431 -0.002061 -0.000902 0.000000 0.023963 0.000000
# 6 0.000000 0.000000 0.000000 -0.049681 0.000000 0.052377
#
#
# Mechanical properties :
#
#
# Convention : Reuss Voigt Hill
#
# Bulk Modulus (GPa) = 33.25094 38.41292 35.83193
# Shear Modulus (GPa) = 12.69101 33.23466 22.96283
#
# Velocity S-wave (km/s) = 2.32918 3.76921 3.13305
# Velocity P-wave (km/s) = 4.63112 5.94669 5.32965
#
# Compressibility (1/GPa) = 0.03007434
#
# Stress axis : x y z
#
# Youngs Moduli (GPa) = 119.16445 69.02245 106.38135
#
# Poissons Ratio (x) = -0.01972 0.20349
# Poissons Ratio (y) = -0.03405 -0.05577
# Poissons Ratio (z) = 0.22794 -0.03619
#
# Static dielectric constant tensor:
#      x y z
#    x 1.886780 0.000000 0.039870 
#    y 0.000000 1.903460 0.000000 
#    z 0.039870 0.000000 1.857930 
# 
# From -- ./inp_files/36916.got.cif
#   From: 2010.05.17/outbox.cif.g08.bks.cpg/sg10_19_cif.got.tgz:36916.got - 2010.06.03 11:33:40.
