data_PCOD9150411
_publ_section_title
;
Structure prediction by ZEFSAII (Michael W. Deem and Ramdas Pophale) SiO2 
 PCOD9150411
Probable space group: P 2/M
;
_chemical_formula_sum "Si O2"
_cell_formula_units_Z 32
_cell_length_a 11.308807
_cell_length_b 15.570960
_cell_length_c 14.457434
_cell_angle_alpha 90.000000
_cell_angle_beta 140.573739
_cell_angle_gamma 90.000000
_cell_volume 1616.795145
_symmetry_space_group_name_H-M "P 2/M"
_symmetry_group_IT_number 10
_symmetry_cell_setting 'monoclinic'
loop_
_space_group_symop_operation_xyz
x,y,z
-x,y,-z
-x,-y,-z
x,-y,z
loop_
_atom_site_type_symbol
_atom_site_label
_atom_site_fract_x
_atom_site_fract_y
_atom_site_fract_z
Si Si1 0.039492 0.597341 0.416309
Si Si2 0.414532 0.900999 0.146753
Si Si3 0.424670 0.097172 0.360353
Si Si4 0.966711 0.307655 0.192917
Si Si5 0.456143 0.401445 0.713763
Si Si6 0.007991 0.854794 0.108052
Si Si7 0.455147 0.722070 0.079661
Si Si8 0.671917 0.396689 0.668715
O O1 0.970646 0.500000 0.354361
O O2 0.262809 0.596544 0.540744
O O3 0.000000 0.614126 0.500000
O O4 0.962254 0.664792 0.296882
O O5 0.469064 0.870359 0.284005
O O6 0.473693 0.822957 0.116152
O O7 0.478611 0.000000 0.169726
O O8 0.188610 0.902708 0.004588
O O9 0.500000 0.140160 0.500000
O O10 0.200614 0.094689 0.227676
O O11 0.499752 0.000000 0.405698
O O12 0.020944 0.211039 0.200166
O O13 0.127428 0.363521 0.241649
O O14 0.755833 0.310925 0.029433
O O15 0.492004 0.500000 0.765716
O O16 0.428354 0.337769 0.781860
O O17 0.615888 0.371982 0.739393
O O18 0.000000 0.812270 0.000000
O O19 0.500000 0.709415 0.000000
O O20 0.500000 0.366886 0.500000
O O21 0.673182 0.500000 0.666007
#
# Coordination Sequence:
#
# PCOD9150411 Si02
#       8
#     4   4   4   4   4   4   4   4
#     4  10  20  37  59  79 106 152 203 240 278 337
#     4   9  19  37  59  80 109 151 192 233 286 346
#     4   9  17  30  51  82 113 139 173 221 280 345
#     4  11  22  34  57  81 111 146 190 237 286 337
#     4  10  22  38  57  84 118 155 189 235 295 349
#     4   9  19  32  50  77 112 148 181 222 281 348
#     4  11  25  41  57  83 117 152 199 250 288 337
#     4  10  20  36  58  85 116 148 189 239 293 352
#
# _framework density 19.792242000000002
#
# number of rings (size 3 to 8) (size 9 to 14) (size 15 to 20)
#    0.000    2.125    1.250    1.500    5.250    4.500 
#    0.000    1.250    0.000    0.000    0.000    0.000 
#    0.000   13.000    0.000    0.000    0.000    0.000 
#
# Total GULP energy -178282.225395 kJ/mol
# GULP energy per Si atom -5571.319544 kJ/mol
# Density = 1.974719 g / cm^3
# Si number density = 19.792242 Si / 1000 Ang^3
#
#
#
# Elastic Constant Matrix: (Units=GPa)
#
#
# Indices 1 2 3 4 5 6 
#
# 1 69.9717 27.7590 14.6225 0.0000 -14.5916 0.0000
# 2 27.7590 76.8148 34.4739 0.0000 -26.3554 0.0000
# 3 14.6225 34.4739 64.5459 0.0000 -16.1738 0.0000
# 4 0.0000 0.0000 0.0000 20.6184 0.0000 0.1355
# 5 -14.5916 -26.3554 -16.1738 0.0000 32.7106 0.0000
# 6 0.0000 0.0000 0.0000 0.1355 0.0000 24.5590
#
#
#
# Elastic Compliance Matrix: (Units=1/GPa)
#
#
# Indices 1 2 3 4 5 6 
#
# 1 0.017000 -0.004727 -0.000435 0.000000 0.003560 0.000000
# 2 -0.004727 0.022389 -0.007871 0.000000 0.012039 0.000000
# 3 -0.000435 -0.007871 0.020725 0.000000 0.003712 0.000000
# 4 0.000000 0.000000 0.000000 0.048502 0.000000 -0.000268
# 5 0.003560 0.012039 0.003712 0.000000 0.043695 0.000000
# 6 0.000000 0.000000 0.000000 -0.000268 0.000000 0.040720
#
#
# Mechanical properties :
#
#
# Convention : Reuss Voigt Hill
#
# Bulk Modulus (GPa) = 29.36803 40.56035 34.96419
# Shear Modulus (GPa) = 21.69708 24.54272 23.11990
#
# Velocity S-wave (km/s) = 3.31455 3.52521 3.42150
# Velocity P-wave (km/s) = 5.43311 6.09155 5.77173
#
# Compressibility (1/GPa) = 0.03405063
#
# Stress axis : x y z
#
# Youngs Moduli (GPa) = 58.82376 44.66385 48.25045
#
# Poissons Ratio (x) = 0.21112 0.02097
# Poissons Ratio (y) = 0.27805 0.37976
# Poissons Ratio (z) = 0.02556 0.35153
#
# Static dielectric constant tensor:
#      x y z
#    x 1.724870 0.000000 -0.001960 
#    y 0.000000 1.707310 0.000000 
#    z -0.001960 0.000000 1.719920 
# 
# From -- ./inp_files/65140.got.cif
#   From: 2010.05.17/outbox.cif.g08.bks.cpg/sg10_33_cif.got.tgz:65140.got - 2010.06.03 11:33:40.
