data_PCOD9150688
_publ_section_title
;
Structure prediction by ZEFSAII (Michael W. Deem and Ramdas Pophale) SiO2 
 PCOD9150688
Probable space group: P 2/M
;
_chemical_formula_sum "Si O2"
_cell_formula_units_Z 21
_cell_length_a 9.983879
_cell_length_b 21.069406
_cell_length_c 5.293035
_cell_angle_alpha 90.000000
_cell_angle_beta 105.465965
_cell_angle_gamma 90.000000
_cell_volume 1073.095429
_symmetry_space_group_name_H-M "P 2/M"
_symmetry_group_IT_number 10
_symmetry_cell_setting 'monoclinic'
loop_
_space_group_symop_operation_xyz
x,y,z
-x,y,-z
-x,-y,-z
x,-y,z
loop_
_atom_site_type_symbol
_atom_site_label
_atom_site_fract_x
_atom_site_fract_y
_atom_site_fract_z
Si Si1 0.667273 0.651817 0.583512
Si Si2 0.332054 0.572113 0.916033
Si Si3 0.085874 0.253878 0.288731
Si Si4 0.122730 0.894542 0.374344
Si Si5 0.581206 0.923453 0.286978
Si Si6 0.000000 0.000000 0.000000
O O1 0.500000 0.664351 0.500000
O O2 0.703439 0.610470 0.354378
O O3 0.763374 0.713733 0.629805
O O4 0.703290 0.610948 0.850270
O O5 0.277789 0.500000 0.889808
O O6 0.500000 0.567890 0.000000
O O7 0.100222 0.177694 0.284691
O O8 0.000000 0.268933 0.500000
O O9 0.000000 0.275272 0.000000
O O10 0.263835 0.899002 0.601601
O O11 0.112438 0.944037 0.140791
O O12 0.000000 0.916682 0.500000
O O13 0.500000 0.905957 0.500000
O O14 0.588249 0.000000 0.276983
O O15 0.500000 0.900134 0.000000
#
# Coordination Sequence:
#
# PCOD9150688 Si02
#       6
#     4   4   4   4   4   1
#     4  10  20  36  61  90 122 161 203 248 295 353
#     4   9  17  32  59  94 124 154 200 253 296 339
#     4  11  24  42  60  86 121 163 203 246 308 366
#     4  11  25  40  65  90 117 157 210 257 310 369
#     4  10  23  38  58  85 119 148 181 237 310 368
#     4  12  22  40  68  92 116 148 214 276 300 366
#
# _framework density 19.569555999999999
#
# number of rings (size 3 to 8) (size 9 to 14) (size 15 to 20)
#    0.000    1.714    1.905    2.000    2.667    3.048 
#    0.000    2.857    0.000   11.429    0.000    0.000 
#    0.000    0.000    0.000    0.000    0.000    0.000 
#
# Total GULP energy -117032.851779 kJ/mol
# GULP energy per Si atom -5572.992942 kJ/mol
# Density = 1.952501 g / cm^3
# Si number density = 19.569556 Si / 1000 Ang^3
#
#
#
# Elastic Constant Matrix: (Units=GPa)
#
#
# Indices 1 2 3 4 5 6 
#
# 1 86.3014 28.3684 49.5334 0.0000 13.3066 0.0000
# 2 28.3684 68.5963 30.8700 0.0000 -8.8255 0.0000
# 3 49.5334 30.8700 148.5442 0.0000 -1.4406 0.0000
# 4 0.0000 0.0000 0.0000 -33.7492 0.0000 107.9677
# 5 13.3066 -8.8255 -1.4406 0.0000 31.3612 0.0000
# 6 0.0000 0.0000 0.0000 107.9677 0.0000 -283.2973
#
#
#
# Elastic Compliance Matrix: (Units=1/GPa)
#
#
# Indices 1 2 3 4 5 6 
#
# 1 0.017933 -0.006538 -0.004715 0.000000 -0.009665 0.000000
# 2 -0.006538 0.019089 -0.001709 0.000000 0.008067 0.000000
# 3 -0.004715 -0.001709 0.008678 0.000000 0.001918 0.000000
# 4 0.000000 0.000000 0.000000 0.135162 0.000000 0.051512
# 5 -0.009665 0.008067 0.001918 0.000000 0.038346 0.000000
# 6 0.000000 0.000000 0.000000 0.051512 0.000000 0.016102
#
#
# Mechanical properties :
#
#
# Convention : Reuss Voigt Hill
#
# Bulk Modulus (GPa) = 50.56485 57.88727 54.22606
# Shear Modulus (GPa) = 18.66896 -44.15906 -12.74505
#
# Velocity S-wave (km/s) = 3.09201 -4.75544 -2.55477
# Velocity P-wave (km/s) = 6.21627 0.71256 4.36659
#
# Compressibility (1/GPa) = 0.01977659
#
# Stress axis : x y z
#
# Youngs Moduli (GPa) = 55.76356 52.38703 115.23513
#
# Poissons Ratio (x) = 0.34250 0.54332
# Poissons Ratio (y) = 0.36458 0.19689
# Poissons Ratio (z) = 0.26292 0.08951
#
# Static dielectric constant tensor:
#      x y z
#    x 1.674570 0.000000 -0.019670 
#    y 0.000000 1.664570 0.000000 
#    z -0.019670 0.000000 1.717870 
# 
# From -- ./inp_files/4763.got.cif
#   From: 2010.05.17/outbox.cif.g08.bks.cpg/sg10_3_cif.got.tgz:4763.got - 2010.06.03 11:33:40.
