data_PCOD9150608
_publ_section_title
;
Structure prediction by ZEFSAII (Michael W. Deem and Ramdas Pophale) SiO2 
 PCOD9150608
Probable space group: P 2/M
;
_chemical_formula_sum "Si O2"
_cell_formula_units_Z 28
_cell_length_a 27.777383
_cell_length_b 8.889622
_cell_length_c 9.467628
_cell_angle_alpha 90.000000
_cell_angle_beta 37.722549
_cell_angle_gamma 90.000000
_cell_volume 1430.383609
_symmetry_space_group_name_H-M "P 2/M"
_symmetry_group_IT_number 10
_symmetry_cell_setting 'monoclinic'
loop_
_space_group_symop_operation_xyz
x,y,z
-x,y,-z
-x,-y,-z
x,-y,z
loop_
_atom_site_type_symbol
_atom_site_label
_atom_site_fract_x
_atom_site_fract_y
_atom_site_fract_z
Si Si1 0.266043 0.320881 0.017039
Si Si2 0.161339 0.319637 0.790428
Si Si3 0.429305 0.328170 0.776184
Si Si4 0.019787 0.819915 0.291759
Si Si5 0.292263 0.819775 0.663710
Si Si6 0.119672 0.320849 0.564632
Si Si7 0.527734 0.180365 0.784302
O O1 0.270906 0.500000 0.975386
O O2 0.197423 0.297881 0.289641
O O3 0.349309 0.272320 0.890691
O O4 0.253580 0.234725 0.899824
O O5 0.164819 0.500000 0.789304
O O6 0.244572 0.250988 0.644611
O O7 0.135872 0.278054 0.689762
O O8 0.097552 0.257796 0.049497
O O9 0.500000 0.330646 0.500000
O O10 0.414745 0.500000 0.857293
O O11 0.462791 0.230587 0.824241
O O12 0.949893 0.768658 0.349833
O O13 0.000000 0.775988 0.500000
O O14 0.029269 0.000000 0.266510
O O15 0.383468 0.768095 0.455290
O O16 0.289536 0.000000 0.660745
O O17 0.100642 0.500000 0.606966
O O18 0.530867 0.000000 0.779446
O O19 0.500000 0.236917 0.000000
#
# Coordination Sequence:
#
# PCOD9150608 Si02
#       7
#     4   4   4   4   4   4   4
#     4  10  21  39  61  87 120 156 197 247 299 352
#     4  11  24  41  63  90 122 157 195 241 294 350
#     4  10  20  36  60  88 116 152 201 251 297 347
#     4  11  24  42  65  93 123 155 196 239 286 347
#     4  11  23  39  59  86 119 157 202 247 294 352
#     4  10  23  41  62  90 122 156 196 240 293 352
#     4  10  23  40  57  82 119 160 201 246 300 357
#
# _framework density 19.575167
#
# number of rings (size 3 to 8) (size 9 to 14) (size 15 to 20)
#    0.000    1.571    1.429    2.571    2.000    8.571 
#    0.000    0.000    0.000    0.000    0.000    0.000 
#    0.000    0.000    0.000    0.000    0.000    0.000 
#
# Total GULP energy -156462.274744 kJ/mol
# GULP energy per Si atom -5587.938384 kJ/mol
# Density = 1.953061 g / cm^3
# Si number density = 19.575167 Si / 1000 Ang^3
#
#
#
# Elastic Constant Matrix: (Units=GPa)
#
#
# Indices 1 2 3 4 5 6 
#
# 1 126.2123 34.9115 21.2996 0.0000 5.6512 0.0000
# 2 34.9115 35.3908 23.4162 0.0000 5.6720 0.0000
# 3 21.2996 23.4162 50.5531 0.0000 14.0053 0.0000
# 4 0.0000 0.0000 0.0000 19.5527 0.0000 -1.1937
# 5 5.6512 5.6720 14.0053 0.0000 37.5648 0.0000
# 6 0.0000 0.0000 0.0000 -1.1937 0.0000 40.2656
#
#
#
# Elastic Compliance Matrix: (Units=1/GPa)
#
#
# Indices 1 2 3 4 5 6 
#
# 1 0.010909 -0.011138 0.000615 0.000000 -0.000189 0.000000
# 2 -0.011138 0.052146 -0.019788 0.000000 0.001180 0.000000
# 3 0.000615 -0.019788 0.031098 0.000000 -0.008699 0.000000
# 4 0.000000 0.000000 0.000000 0.051237 0.000000 0.001519
# 5 -0.000189 0.001180 -0.008699 0.000000 0.029714 0.000000
# 6 0.000000 0.000000 0.000000 0.001519 0.000000 0.024880
#
#
# Mechanical properties :
#
#
# Convention : Reuss Voigt Hill
#
# Bulk Modulus (GPa) = 29.82295 41.26787 35.54541
# Shear Modulus (GPa) = 18.39705 28.31189 23.35447
#
# Velocity S-wave (km/s) = 3.06897 3.80717 3.45783
# Velocity P-wave (km/s) = 5.27506 6.36031 5.84294
#
# Compressibility (1/GPa) = 0.03353122
#
# Stress axis : x y z
#
# Youngs Moduli (GPa) = 91.67119 19.17676 32.15645
#
# Poissons Ratio (x) = 0.21358 -0.01978
# Poissons Ratio (y) = 1.02099 0.63633
# Poissons Ratio (z) = -0.05638 0.37948
#
# Static dielectric constant tensor:
#      x y z
#    x 1.725750 0.000000 0.002100 
#    y 0.000000 1.665580 0.000000 
#    z 0.002100 0.000000 1.685540 
# 
# From -- ./inp_files/31542.got.cif
#   From: 2010.05.17/outbox.cif.g08.bks.cpg/sg10_16_cif.got.tgz:31542.got - 2010.06.03 11:33:40.
