data_PCOD9150205
_publ_section_title
;
Structure prediction by ZEFSAII (Michael W. Deem and Ramdas Pophale) SiO2 
 PCOD9150205
Probable space group: P 2/M
;
_chemical_formula_sum "Si O2"
_cell_formula_units_Z 32
_cell_length_a 11.503122
_cell_length_b 13.335600
_cell_length_c 17.806221
_cell_angle_alpha 90.000000
_cell_angle_beta 148.676079
_cell_angle_gamma 90.000000
_cell_volume 1420.036966
_symmetry_space_group_name_H-M "P 2/M"
_symmetry_group_IT_number 10
_symmetry_cell_setting 'monoclinic'
loop_
_space_group_symop_operation_xyz
x,y,z
-x,y,-z
-x,-y,-z
x,-y,z
loop_
_atom_site_type_symbol
_atom_site_label
_atom_site_fract_x
_atom_site_fract_y
_atom_site_fract_z
Si Si1 0.854122 0.113870 0.343753
Si Si2 0.916859 0.885816 0.735100
Si Si3 0.424398 0.692578 0.831339
Si Si4 0.218358 0.618068 0.574346
Si Si5 0.682296 0.879606 0.465683
Si Si6 0.210217 0.117322 0.160826
Si Si7 0.317140 0.382373 0.458609
Si Si8 0.840904 0.310719 0.163262
O O1 0.650543 0.191908 0.227472
O O2 0.000000 0.107644 0.500000
O O3 0.064073 0.151773 0.411385
O O4 0.782207 0.000000 0.285846
O O5 0.698173 0.865307 0.563520
O O6 0.854834 0.879681 0.787820
O O7 0.107815 0.806674 0.821413
O O8 0.987643 0.000000 0.758201
O O9 0.400218 0.635592 0.739435
O O10 0.256296 0.664824 0.807541
O O11 0.660384 0.668951 0.999546
O O12 0.173138 0.500000 0.538698
O O13 0.288395 0.656169 0.529640
O O14 0.000000 0.660436 0.500000
O O15 0.464940 0.841835 0.301146
O O16 0.677332 0.000000 0.449253
O O17 0.225253 0.000000 0.144730
O O18 0.000000 0.163140 0.000000
O O19 0.500000 0.342796 0.500000
O O20 0.366952 0.500000 0.494904
O O21 0.076521 0.365736 0.288014
#
# Coordination Sequence:
#
# PCOD9150205 Si02
#       8
#     4   4   4   4   4   4   4   4
#     4  10  21  36  57  86 121 170 223 274 332 381
#     4  10  20  36  55  80 118 167 221 265 314 384
#     4  11  23  39  61  94 137 169 220 283 325 393
#     4  10  20  40  72 103 129 169 216 261 325 398
#     4   9  17  32  52  74 104 149 206 260 315 379
#     4   9  18  32  52  77 108 150 208 275 328 377
#     4  10  23  46  74 103 136 172 215 268 329 403
#     4  11  24  39  60  96 132 175 219 273 341 387
#
# _framework density 22.534624999999998
#
# number of rings (size 3 to 8) (size 9 to 14) (size 15 to 20)
#    0.000    2.000    2.500    0.750    0.000    4.500 
#    0.000    6.875    0.000    2.250    0.000    0.000 
#    0.000    0.000    0.000    0.000    0.000    0.000 
#
# Total GULP energy -178263.190395 kJ/mol
# GULP energy per Si atom -5570.724700 kJ/mol
# Density = 2.248333 g / cm^3
# Si number density = 22.534625 Si / 1000 Ang^3
#
#
#
# Elastic Constant Matrix: (Units=GPa)
#
#
# Indices 1 2 3 4 5 6 
#
# 1 116.2510 8.9706 38.7725 0.0000 -10.7227 0.0000
# 2 8.9706 32.1603 -25.2181 0.0000 -1.2801 0.0000
# 3 38.7725 -25.2181 115.9057 0.0000 -9.3585 0.0000
# 4 0.0000 0.0000 0.0000 99.8578 0.0000 -13.2076
# 5 -10.7227 -1.2801 -9.3585 0.0000 27.4941 0.0000
# 6 0.0000 0.0000 0.0000 -13.2076 0.0000 15.7514
#
#
#
# Elastic Compliance Matrix: (Units=1/GPa)
#
#
# Indices 1 2 3 4 5 6 
#
# 1 0.011013 -0.006904 -0.005003 0.000000 0.002271 0.000000
# 2 -0.006904 0.042406 0.011803 0.000000 0.003299 0.000000
# 3 -0.005003 0.011803 0.013117 0.000000 0.003063 0.000000
# 4 0.000000 0.000000 0.000000 0.011263 0.000000 0.009444
# 5 0.002271 0.003299 0.003063 0.000000 0.038453 0.000000
# 6 0.000000 0.000000 0.000000 0.009444 0.000000 0.071405
#
#
# Mechanical properties :
#
#
# Convention : Reuss Voigt Hill
#
# Bulk Modulus (GPa) = 15.07704 34.37413 24.72559
# Shear Modulus (GPa) = 23.81224 44.74013 34.27619
#
# Velocity S-wave (km/s) = 3.25421 4.46061 3.90429
# Velocity P-wave (km/s) = 4.56344 6.46656 5.59649
#
# Compressibility (1/GPa) = 0.06632602
#
# Stress axis : x y z
#
# Youngs Moduli (GPa) = 90.80264 23.58142 76.23983
#
# Poissons Ratio (x) = 0.16282 0.38142
# Poissons Ratio (y) = 0.62694 -0.89982
# Poissons Ratio (z) = 0.45428 -0.27832
#
# Static dielectric constant tensor:
#      x y z
#    x -4.124130 0.000000 3.958870 
#    y 0.000000 1.877270 0.000000 
#    z 3.958870 0.000000 -0.732330 
# 
# From -- ./inp_files/77047.got.cif
#   From: 2010.05.17/outbox.cif.g08.bks.cpg/sg10_39_cif.got.tgz:77047.got - 2010.06.03 11:33:40.
