data_PCOD9150725
_publ_section_title
;
Structure prediction by ZEFSAII (Michael W. Deem and Ramdas Pophale) SiO2 
 PCOD9150725
Probable space group: P 2/M
;
_chemical_formula_sum "Si O2"
_cell_formula_units_Z 32
_cell_length_a 29.529364
_cell_length_b 8.806071
_cell_length_c 12.232956
_cell_angle_alpha 90.000000
_cell_angle_beta 31.769601
_cell_angle_gamma 90.000000
_cell_volume 1674.827274
_symmetry_space_group_name_H-M "P 2/M"
_symmetry_group_IT_number 10
_symmetry_cell_setting 'monoclinic'
loop_
_space_group_symop_operation_xyz
x,y,z
-x,y,-z
-x,-y,-z
x,-y,z
loop_
_atom_site_type_symbol
_atom_site_label
_atom_site_fract_x
_atom_site_fract_y
_atom_site_fract_z
Si Si1 0.258138 0.669207 0.951945
Si Si2 0.418172 0.171428 0.592537
Si Si3 0.675862 0.820689 0.813959
Si Si4 0.514644 0.318513 0.767529
Si Si5 0.831260 0.674474 0.633176
Si Si6 0.671617 0.180441 0.566089
Si Si7 0.183521 0.821064 0.900211
Si Si8 0.997421 0.816397 0.635311
O O1 0.257348 0.500000 0.906051
O O2 0.352454 0.721263 0.790809
O O3 0.230879 0.787834 0.916614
O O4 0.200853 0.672480 0.175801
O O5 0.500000 0.159588 0.500000
O O6 0.442572 0.250332 0.429437
O O7 0.385805 0.000000 0.639696
O O8 0.755162 0.749390 0.718444
O O9 0.693089 0.803379 0.649290
O O10 0.669584 0.000000 0.853186
O O11 0.582281 0.745837 0.025945
O O12 0.511895 0.500000 0.770735
O O13 0.581716 0.262805 0.722741
O O14 0.844267 0.500000 0.570953
O O15 0.920809 0.762842 0.462242
O O16 0.751641 0.236887 0.327011
O O17 0.659227 0.000000 0.568655
O O18 0.173903 0.000000 0.899022
O O19 0.087988 0.760857 0.124853
O O20 0.000000 0.767112 0.500000
O O21 0.995720 0.000000 0.635160
#
# Coordination Sequence:
#
# PCOD9150725 Si02
#       8
#     4   4   4   4   4   4   4   4
#     4  11  22  35  55  85 119 154 192 240 301 360
#     4  11  23  37  55  81 116 160 202 242 293 354
#     4  11  24  42  63  86 117 160 210 255 297 354
#     4  12  24  38  60  90 122 157 200 249 303 360
#     4  11  24  40  60  89 126 161 197 249 309 364
#     4  10  22  41  64  89 118 159 208 254 298 349
#     4  10  20  37  62  89 119 152 194 246 297 353
#     4  10  20  36  62  94 121 156 202 244 296 365
#
# _framework density 19.106449000000001
#
# number of rings (size 3 to 8) (size 9 to 14) (size 15 to 20)
#    0.000    1.250    2.500    3.750    0.000    7.750 
#    0.000    0.625    0.000    3.750    0.000    0.000 
#    0.000    0.000    0.000    0.000    0.000    0.000 
#
# Total GULP energy -178534.694868 kJ/mol
# GULP energy per Si atom -5579.209215 kJ/mol
# Density = 1.906296 g / cm^3
# Si number density = 19.106449 Si / 1000 Ang^3
#
#
#
# Elastic Constant Matrix: (Units=GPa)
#
#
# Indices 1 2 3 4 5 6 
#
# 1 25.0755 29.0142 8.3325 0.0000 -19.9866 0.0000
# 2 29.0142 43.4419 28.1503 0.0000 -1.3091 0.0000
# 3 8.3325 28.1503 83.0624 0.0000 -29.3528 0.0000
# 4 0.0000 0.0000 0.0000 19.7288 0.0000 2.1053
# 5 -19.9866 -1.3091 -29.3528 0.0000 28.1888 0.0000
# 6 0.0000 0.0000 0.0000 2.1053 0.0000 11.4063
#
#
#
# Elastic Compliance Matrix: (Units=1/GPa)
#
#
# Indices 1 2 3 4 5 6 
#
# 1 -0.031238 0.036222 -0.025908 0.000000 -0.047444 0.000000
# 2 0.036222 -0.008345 0.012869 0.000000 0.038694 0.000000
# 3 -0.025908 0.012869 0.006324 0.000000 -0.011187 0.000000
# 4 0.000000 0.000000 0.000000 0.051706 0.000000 -0.009543
# 5 -0.047444 0.038694 -0.011187 0.000000 -0.008015 0.000000
# 6 0.000000 0.000000 0.000000 -0.009543 0.000000 0.089432
#
#
# Mechanical properties :
#
#
# Convention : Reuss Voigt Hill
#
# Bulk Modulus (GPa) = 76.30365 31.39711 53.85038
# Shear Modulus (GPa) = 86.40498 17.60365 52.00431
#
# Velocity S-wave (km/s) = 6.73210 3.03866 5.22277
# Velocity P-wave (km/s) = 10.02252 5.36467 8.03836
#
# Compressibility (1/GPa) = 0.01310553
#
# Stress axis : x y z
#
# Youngs Moduli (GPa) = -32.01280 -119.82729 158.13577
#
# Poissons Ratio (x) = 4.34033 4.09694
# Poissons Ratio (y) = 1.15955 -2.03498
# Poissons Ratio (z) = -0.82938 1.54200
#
# Static dielectric constant tensor:
#      x y z
#    x 1.773120 0.000000 -0.112230 
#    y 0.000000 1.676580 0.000000 
#    z -0.112230 0.000000 1.804040 
# 
# From -- ./inp_files/49787.got.cif
#   From: 2010.05.17/outbox.cif.g08.bks.cpg/sg10_25_cif.got.tgz:49787.got - 2010.06.03 11:33:40.
