data_PCOD9150162
_publ_section_title
;
Structure prediction by ZEFSAII (Michael W. Deem and Ramdas Pophale) SiO2 
 PCOD9150162
Probable space group: P 2/M
;
_chemical_formula_sum "Si O2"
_cell_formula_units_Z 27
_cell_length_a 9.576063
_cell_length_b 13.331627
_cell_length_c 21.689669
_cell_angle_alpha 90.000000
_cell_angle_beta 27.746825
_cell_angle_gamma 90.000000
_cell_volume 1289.151159
_symmetry_space_group_name_H-M "P 2/M"
_symmetry_group_IT_number 10
_symmetry_cell_setting 'monoclinic'
loop_
_space_group_symop_operation_xyz
x,y,z
-x,y,-z
-x,-y,-z
x,-y,z
loop_
_atom_site_type_symbol
_atom_site_label
_atom_site_fract_x
_atom_site_fract_y
_atom_site_fract_z
Si Si1 0.188448 0.388192 0.552957
Si Si2 0.234445 0.255886 0.356293
Si Si3 0.500000 0.783655 0.500000
Si Si4 0.746475 0.706386 0.952116
Si Si5 0.000000 0.000000 0.000000
Si Si6 0.655736 0.608622 0.260847
Si Si7 0.991472 0.887005 0.773687
Si Si8 0.494510 0.848607 0.143436
O O1 0.152232 0.500000 0.593798
O O2 0.250451 0.294731 0.572999
O O3 0.475566 0.389838 0.395580
O O4 0.915414 0.353234 0.617099
O O5 0.533332 0.297263 0.270746
O O6 0.302904 0.172420 0.279529
O O7 0.000000 0.221904 0.500000
O O8 0.312639 0.851905 0.620622
O O9 0.998395 0.624916 0.862794
O O10 0.889957 0.806271 0.864105
O O11 0.500000 0.671167 0.000000
O O12 0.606998 0.743633 0.070562
O O13 0.779562 0.086043 0.052848
O O14 0.593677 0.500000 0.256317
O O15 0.735559 0.887024 0.819828
O O16 0.010202 0.000000 0.791359
#
# Coordination Sequence:
#
# PCOD9150162 Si02
#       8
#     4   4   2   4   1   4   4   4
#     4  10  20  35  62  93 122 161 207 252 312 376
#     4  10  21  40  62  90 127 163 198 256 314 369
#     4  12  20  38  62  94 126 158 198 266 318 368
#     4  10  23  40  62  88 120 163 208 261 307 366
#     4  12  24  40  64  90 118 166 212 254 298 370
#     4  10  20  38  61  88 124 166 207 249 307 374
#     4  11  23  41  65  90 121 160 209 259 317 368
#     4  11  23  41  64  88 122 159 212 260 305 368
#
# _framework density 20.944013000000002
#
# number of rings (size 3 to 8) (size 9 to 14) (size 15 to 20)
#    0.000    1.481    3.704    1.778    1.037    2.963 
#    0.000    2.593    0.000    0.000    0.000    0.000 
#    0.000    0.000    0.000    0.000    0.000    0.000 
#
# Total GULP energy -150415.670550 kJ/mol
# GULP energy per Si atom -5570.950761 kJ/mol
# Density = 2.089634 g / cm^3
# Si number density = 20.944013 Si / 1000 Ang^3
#
#
#
# Elastic Constant Matrix: (Units=GPa)
#
#
# Indices 1 2 3 4 5 6 
#
# 1 52.2121 2.2764 10.8949 0.0000 -5.3701 0.0000
# 2 2.2764 35.2581 -4.2174 0.0000 2.4848 0.0000
# 3 10.8949 -4.2174 52.4172 0.0000 -7.4518 0.0000
# 4 0.0000 0.0000 0.0000 5.4898 0.0000 -7.4430
# 5 -5.3701 2.4848 -7.4518 0.0000 27.9351 0.0000
# 6 0.0000 0.0000 0.0000 -7.4430 0.0000 17.7701
#
#
#
# Elastic Compliance Matrix: (Units=1/GPa)
#
#
# Indices 1 2 3 4 5 6 
#
# 1 0.020380 -0.002004 -0.003965 0.000000 0.003038 0.000000
# 2 -0.002004 0.028944 0.002416 0.000000 -0.002315 0.000000
# 3 -0.003965 0.002416 0.020744 0.000000 0.004556 0.000000
# 4 0.000000 0.000000 0.000000 0.421541 0.000000 0.176563
# 5 0.003038 -0.002315 0.004556 0.000000 0.037803 0.000000
# 6 0.000000 0.000000 0.000000 0.176563 0.000000 0.130228
#
#
# Mechanical properties :
#
#
# Convention : Reuss Voigt Hill
#
# Bulk Modulus (GPa) = 15.88279 17.53279 16.70779
# Shear Modulus (GPa) = 7.27026 18.96789 13.11908
#
# Velocity S-wave (km/s) = 1.86516 3.01266 2.50549
# Velocity P-wave (km/s) = 3.49833 4.52669 4.04532
#
# Compressibility (1/GPa) = 0.06296125
#
# Stress axis : x y z
#
# Youngs Moduli (GPa) = 49.06792 34.54961 48.20659
#
# Poissons Ratio (x) = 0.06924 0.19115
# Poissons Ratio (y) = 0.09834 -0.11648
# Poissons Ratio (z) = 0.19457 -0.08348
#
# Static dielectric constant tensor:
#      x y z
#    x 1.886720 0.000000 -0.008980 
#    y 0.000000 1.718160 0.000000 
#    z -0.008980 0.000000 1.750050 
# 
# From -- ./inp_files/82928.got.cif
#   From: 2010.05.17/outbox.cif.g08.bks.cpg/sg10_42_cif.got.tgz:82928.got - 2010.06.03 11:33:40.
