data_PCOD9150272
_publ_section_title
;
Structure prediction by ZEFSAII (Michael W. Deem and Ramdas Pophale) SiO2 
 PCOD9150272
Probable space group: P 2/M
;
_chemical_formula_sum "Si O2"
_cell_formula_units_Z 32
_cell_length_a 26.274338
_cell_length_b 9.054842
_cell_length_c 12.514115
_cell_angle_alpha 90.000000
_cell_angle_beta 151.602778
_cell_angle_gamma 90.000000
_cell_volume 1415.917034
_symmetry_space_group_name_H-M "P 2/M"
_symmetry_group_IT_number 10
_symmetry_cell_setting 'monoclinic'
loop_
_space_group_symop_operation_xyz
x,y,z
-x,y,-z
-x,-y,-z
x,-y,z
loop_
_atom_site_type_symbol
_atom_site_label
_atom_site_fract_x
_atom_site_fract_y
_atom_site_fract_z
Si Si1 0.609954 0.172359 0.082893
Si Si2 0.682589 0.170402 0.969084
Si Si3 0.106429 0.326775 0.895971
Si Si4 0.641090 0.329237 0.687239
Si Si5 0.602193 0.827385 0.398287
Si Si6 0.178111 0.676286 0.465608
Si Si7 0.904623 0.822388 0.468559
Si Si8 0.147171 0.173638 0.192157
O O1 0.486029 0.219487 0.851580
O O2 0.621807 0.000000 0.140495
O O3 0.639138 0.177319 0.009676
O O4 0.697065 0.273882 0.300404
O O5 0.807017 0.217890 0.210045
O O6 0.680200 0.000000 0.930198
O O7 0.620743 0.261825 0.765846
O O8 0.079623 0.500000 0.849889
O O9 0.022194 0.241192 0.666409
O O10 0.229952 0.312468 0.090377
O O11 0.099589 0.254898 0.001309
O O12 0.613787 0.500000 0.635148
O O13 0.592101 0.252576 0.492929
O O14 0.723975 0.813893 0.585506
O O15 0.580737 0.000000 0.376793
O O16 0.168026 0.500000 0.448735
O O17 0.129573 0.751133 0.481440
O O18 0.124856 0.746577 0.262398
O O19 0.907056 0.000000 0.480407
O O20 0.119085 0.000000 0.141839
#
# Coordination Sequence:
#
# PCOD9150272 Si02
#       8
#     4   4   4   4   4   4   4   4
#     4   9  19  37  57  79 106 140 181 223 263 309
#     4   9  19  35  55  77 105 139 178 220 262 311
#     4  10  21  37  55  79 109 140 174 218 268 317
#     4  10  21  35  53  78 111 143 174 216 267 319
#     4   9  19  36  58  79 104 140 182 223 263 308
#     4  11  22  36  55  80 110 142 173 215 267 319
#     4  10  21  38  58  80 105 138 179 222 262 310
#     4  10  20  36  57  80 106 140 180 221 261 311
#
# _framework density 22.600193000000001
#
# number of rings (size 3 to 8) (size 9 to 14) (size 15 to 20)
#    0.000    2.250    0.000    3.375    0.000    7.000 
#    0.000   10.000    0.000    0.000    0.000    0.000 
#    0.000    0.000    0.000    0.000    0.000    0.000 
#
# Total GULP energy -178988.930867 kJ/mol
# GULP energy per Si atom -5593.404090 kJ/mol
# Density = 2.254875 g / cm^3
# Si number density = 22.600193 Si / 1000 Ang^3
#
#
#
# Elastic Constant Matrix: (Units=GPa)
#
#
# Indices 1 2 3 4 5 6 
#
# 1 54.7494 18.1684 12.3799 0.0000 -8.6878 0.0000
# 2 18.1684 70.3137 43.1091 0.0000 -13.8390 0.0000
# 3 12.3799 43.1091 109.1582 0.0000 -3.7756 0.0000
# 4 0.0000 0.0000 0.0000 43.2622 0.0000 -13.4997
# 5 -8.6878 -13.8390 -3.7756 0.0000 46.8034 0.0000
# 6 0.0000 0.0000 0.0000 -13.4997 0.0000 29.5784
#
#
#
# Elastic Compliance Matrix: (Units=1/GPa)
#
#
# Indices 1 2 3 4 5 6 
#
# 1 0.020233 -0.004487 -0.000440 0.000000 0.002393 0.000000
# 2 -0.004487 0.020986 -0.007615 0.000000 0.004758 0.000000
# 3 -0.000440 -0.007615 0.012171 0.000000 -0.001351 0.000000
# 4 0.000000 0.000000 0.000000 0.026954 0.000000 0.012302
# 5 0.002393 0.004758 -0.001351 0.000000 0.023108 0.000000
# 6 0.000000 0.000000 0.000000 0.012302 0.000000 0.039423
#
#
# Mechanical properties :
#
#
# Convention : Reuss Voigt Hill
#
# Bulk Modulus (GPa) = 35.32603 42.39290 38.85946
# Shear Modulus (GPa) = 28.18566 34.63306 31.40936
#
# Velocity S-wave (km/s) = 3.53532 3.91886 3.73202
# Velocity P-wave (km/s) = 5.68590 6.26699 5.98350
#
# Compressibility (1/GPa) = 0.02830774
#
# Stress axis : x y z
#
# Youngs Moduli (GPa) = 49.42318 47.64989 82.16045
#
# Poissons Ratio (x) = 0.21383 0.03613
# Poissons Ratio (y) = 0.22178 0.62561
# Poissons Ratio (z) = 0.02173 0.36283
#
# Static dielectric constant tensor:
#      x y z
#    x 1.941380 0.000000 0.082460 
#    y 0.000000 1.744580 0.000000 
#    z 0.082460 0.000000 1.847110 
# 
# From -- ./inp_files/58268.got.cif
#   From: 2010.05.17/outbox.cif.g08.bks.cpg/sg10_30_cif.got.tgz:58268.got - 2010.06.03 11:33:40.
