data_PCOD9150973
_publ_section_title
;
Structure prediction by ZEFSAII (Michael W. Deem and Ramdas Pophale) SiO2 
 PCOD9150973
Probable space group: P 2/M
;
_chemical_formula_sum "Si O2"
_cell_formula_units_Z 32
_cell_length_a 20.193715
_cell_length_b 7.753919
_cell_length_c 25.794370
_cell_angle_alpha 90.000000
_cell_angle_beta 158.113366
_cell_angle_gamma 90.000000
_cell_volume 1505.583707
_symmetry_space_group_name_H-M "P 2/M"
_symmetry_group_IT_number 10
_symmetry_cell_setting 'monoclinic'
loop_
_space_group_symop_operation_xyz
x,y,z
-x,y,-z
-x,-y,-z
x,-y,z
loop_
_atom_site_type_symbol
_atom_site_label
_atom_site_fract_x
_atom_site_fract_y
_atom_site_fract_z
Si Si1 0.347483 0.703200 0.665051
Si Si2 0.183027 0.702396 0.345768
Si Si3 0.192055 0.199820 0.657492
Si Si4 0.320280 0.208892 0.160877
Si Si5 0.062754 0.288287 0.372022
Si Si6 0.066191 0.798945 0.150444
Si Si7 0.693569 0.300954 0.148381
Si Si8 0.583558 0.790677 0.652763
O O1 0.317258 0.500000 0.650116
O O2 0.318040 0.787654 0.699272
O O3 0.540057 0.731901 0.780538
O O4 0.202293 0.767753 0.517582
O O5 0.142488 0.500000 0.314268
O O6 0.123541 0.767990 0.359130
O O7 0.086422 0.786408 0.226805
O O8 0.394692 0.727409 0.495179
O O9 0.261708 0.295711 0.758391
O O10 0.000000 0.267823 0.500000
O O11 0.169222 0.000000 0.655944
O O12 0.389312 0.261702 0.267724
O O13 0.317742 0.000000 0.158295
O O14 0.121014 0.273621 0.005179
O O15 0.065834 0.500000 0.374848
O O16 0.865168 0.228387 0.243325
O O17 0.245599 0.726844 0.255095
O O18 0.063721 0.000000 0.133231
O O19 0.680616 0.500000 0.121197
O O20 0.500000 0.219330 0.000000
O O21 0.577762 0.000000 0.645922
#
# Coordination Sequence:
#
# PCOD9150973 Si02
#       8
#     4   4   4   4   4   4   4   4
#     4  11  21  37  62  86 115 154 194 239 289 343
#     4  11  22  37  57  84 118 154 195 242 291 343
#     4  11  23  38  59  89 121 153 192 239 287 338
#     4  10  21  38  60  86 116 149 192 243 293 344
#     4   9  19  36  57  82 114 149 188 236 286 342
#     4  10  22  39  57  83 118 154 191 238 294 350
#     4  10  21  39  63  89 117 154 197 238 288 348
#     4  10  20  37  61  84 111 152 199 240 288 350
#
# _framework density 21.254214000000001
#
# number of rings (size 3 to 8) (size 9 to 14) (size 15 to 20)
#    0.000    1.750    2.500    1.875    0.000    5.750 
#    0.000    2.500    0.000    2.250    0.000    0.000 
#    0.000    0.000    0.000    0.000    0.000    0.000 
#
# Total GULP energy -178835.553630 kJ/mol
# GULP energy per Si atom -5588.611051 kJ/mol
# Density = 2.120584 g / cm^3
# Si number density = 21.254214 Si / 1000 Ang^3
#
#
#
# Elastic Constant Matrix: (Units=GPa)
#
#
# Indices 1 2 3 4 5 6 
#
# 1 67.7823 -10.6132 -0.8623 0.0000 19.3698 0.0000
# 2 -10.6132 33.1507 -6.4902 0.0000 3.1451 0.0000
# 3 -0.8623 -6.4902 81.3916 0.0000 8.7601 0.0000
# 4 0.0000 0.0000 0.0000 -66.6061 0.0000 -39.1387
# 5 19.3698 3.1451 8.7601 0.0000 31.5733 0.0000
# 6 0.0000 0.0000 0.0000 -39.1387 0.0000 0.9244
#
#
#
# Elastic Compliance Matrix: (Units=1/GPa)
#
#
# Indices 1 2 3 4 5 6 
#
# 1 0.019980 0.008156 0.002339 0.000000 -0.013719 0.000000
# 2 0.008156 0.034433 0.003855 0.000000 -0.009503 0.000000
# 3 0.002339 0.003855 0.013209 0.000000 -0.005483 0.000000
# 4 0.000000 0.000000 0.000000 -0.000580 0.000000 -0.024563
# 5 -0.013719 -0.009503 -0.005483 0.000000 0.042557 0.000000
# 6 0.000000 0.000000 0.000000 -0.024563 0.000000 0.041801
#
#
# Mechanical properties :
#
#
# Convention : Reuss Voigt Hill
#
# Bulk Modulus (GPa) = 10.38196 16.26592 13.32394
# Shear Modulus (GPa) = 32.29824 6.53099 19.41462
#
# Velocity S-wave (km/s) = 3.90245 1.75484 3.02561
# Velocity P-wave (km/s) = 5.02004 3.43156 4.29979
#
# Compressibility (1/GPa) = 0.09632092
#
# Stress axis : x y z
#
# Youngs Moduli (GPa) = 50.04920 29.04213 75.70811
#
# Poissons Ratio (x) = -0.23687 -0.17705
# Poissons Ratio (y) = -0.40821 -0.29185
# Poissons Ratio (z) = -0.11705 -0.11195
#
# Static dielectric constant tensor:
#      x y z
#    x 1.738150 0.000000 0.021210 
#    y 0.000000 1.810620 0.000000 
#    z 0.021210 0.000000 1.745430 
# 
# From -- ./inp_files/93823.got.cif
#   From: 2010.05.17/outbox.cif.g08.bks.cpg/sg10_47_cif.got.tgz:93823.got - 2010.06.03 11:33:40.
