data_PCOD9150296
_publ_section_title
;
Structure prediction by ZEFSAII (Michael W. Deem and Ramdas Pophale) SiO2 
 PCOD9150296
Probable space group: P 2/M
;
_chemical_formula_sum "Si O2"
_cell_formula_units_Z 32
_cell_length_a 11.180071
_cell_length_b 8.589291
_cell_length_c 15.711656
_cell_angle_alpha 90.000000
_cell_angle_beta 91.454177
_cell_angle_gamma 90.000000
_cell_volume 1508.286865
_symmetry_space_group_name_H-M "P 2/M"
_symmetry_group_IT_number 10
_symmetry_cell_setting 'monoclinic'
loop_
_space_group_symop_operation_xyz
x,y,z
-x,y,-z
-x,-y,-z
x,-y,z
loop_
_atom_site_type_symbol
_atom_site_label
_atom_site_fract_x
_atom_site_fract_y
_atom_site_fract_z
Si Si1 0.020682 0.824624 0.092696
Si Si2 0.638484 0.810409 0.477556
Si Si3 0.371622 0.322654 0.043458
Si Si4 0.636162 0.818397 0.286793
Si Si5 0.111764 0.310468 0.441298
Si Si6 0.364974 0.824364 0.225581
Si Si7 0.865537 0.677837 0.743292
Si Si8 0.251956 0.822289 0.881729
O O1 0.102384 0.751620 0.165699
O O2 0.889444 0.830574 0.130722
O O3 0.066382 0.000000 0.076176
O O4 0.000000 0.748068 0.000000
O O5 0.500000 0.765538 0.500000
O O6 0.660825 0.755108 0.380592
O O7 0.756045 0.751878 0.530439
O O8 0.639113 0.000000 0.480696
O O9 0.344409 0.500000 0.069329
O O10 0.375321 0.214777 0.126000
O O11 0.500000 0.319869 0.000000
O O12 0.282097 0.265586 0.969052
O O13 0.494510 0.816376 0.269512
O O14 0.693170 0.747906 0.202427
O O15 0.675876 0.000000 0.288331
O O16 0.118646 0.500000 0.441421
O O17 0.083028 0.256736 0.343934
O O18 0.000000 0.265725 0.500000
O O19 0.276302 0.702111 0.265978
O O20 0.317867 0.000000 0.236490
O O21 0.901688 0.500000 0.749262
O O22 0.299653 0.000000 0.891884
#
# Coordination Sequence:
#
# PCOD9150296 Si02
#       8
#     4   4   4   4   4   4   4   4
#     4  10  22  39  60  88 119 154 200 248 297 359
#     4  10  21  39  64  94 126 157 203 264 318 370
#     4  11  22  35  53  84 124 160 199 246 295 356
#     4   9  19  34  56  87 117 151 193 247 305 358
#     4  10  24  45  65  91 129 171 213 257 314 384
#     4  11  21  37  62  87 119 160 204 248 302 364
#     4  11  24  41  63  89 123 161 203 254 304 360
#     4  10  20  36  57  81 115 156 201 246 297 359
#
# _framework density 21.216121999999999
#
# number of rings (size 3 to 8) (size 9 to 14) (size 15 to 20)
#    0.000    1.750    1.250    2.625    1.750    4.750 
#    0.000    1.875    0.000    0.000    0.000    0.000 
#    0.000    0.000    0.000    0.000    0.000    0.000 
#
# Total GULP energy -178542.697401 kJ/mol
# GULP energy per Si atom -5579.459294 kJ/mol
# Density = 2.116783 g / cm^3
# Si number density = 21.216122 Si / 1000 Ang^3
#
#
#
# Elastic Constant Matrix: (Units=GPa)
#
#
# Indices 1 2 3 4 5 6 
#
# 1 65.0619 4.6046 17.4226 0.0000 4.2903 0.0000
# 2 4.6046 21.0270 11.2867 0.0000 9.7908 0.0000
# 3 17.4226 11.2867 137.8728 0.0000 9.5053 0.0000
# 4 0.0000 0.0000 0.0000 9.2146 0.0000 -6.3015
# 5 4.2903 9.7908 9.5053 0.0000 28.9427 0.0000
# 6 0.0000 0.0000 0.0000 -6.3015 0.0000 5.5937
#
#
#
# Elastic Compliance Matrix: (Units=1/GPa)
#
#
# Indices 1 2 3 4 5 6 
#
# 1 0.016066 -0.002046 -0.001787 0.000000 -0.001103 0.000000
# 2 -0.002046 0.058294 -0.003249 0.000000 -0.018349 0.000000
# 3 -0.001787 -0.003249 0.007828 0.000000 -0.001207 0.000000
# 4 0.000000 0.000000 0.000000 0.472637 0.000000 0.532440
# 5 -0.001103 -0.018349 -0.001207 0.000000 0.041318 0.000000
# 6 0.000000 0.000000 0.000000 0.532440 0.000000 0.778582
#
#
# Mechanical properties :
#
#
# Convention : Reuss Voigt Hill
#
# Bulk Modulus (GPa) = 14.70036 32.28773 23.49405
# Shear Modulus (GPa) = 3.54218 21.46007 12.50113
#
# Velocity S-wave (km/s) = 1.29352 3.18386 2.43003
# Velocity P-wave (km/s) = 3.02900 5.36353 4.35559
#
# Compressibility (1/GPa) = 0.06802554
#
# Stress axis : x y z
#
# Youngs Moduli (GPa) = 62.24348 17.15457 127.74661
#
# Poissons Ratio (x) = 0.03509 0.22825
# Poissons Ratio (y) = 0.12733 0.41499
# Poissons Ratio (z) = 0.11121 0.05573
#
# Static dielectric constant tensor:
#      x y z
#    x 1.783260 0.000000 -0.017270 
#    y 0.000000 1.782760 0.000000 
#    z -0.017270 0.000000 1.796470 
# 
# From -- ./inp_files/63803.got.cif
#   From: 2010.05.17/outbox.cif.g08.bks.cpg/sg10_32_cif.got.tgz:63803.got - 2010.06.03 11:33:40.
