data_PCOD9150666
_publ_section_title
;
Structure prediction by ZEFSAII (Michael W. Deem and Ramdas Pophale) SiO2 
 PCOD9150666
Probable space group: P 2/M
;
_chemical_formula_sum "Si O2"
_cell_formula_units_Z 32
_cell_length_a 9.822904
_cell_length_b 13.648555
_cell_length_c 12.704229
_cell_angle_alpha 90.000000
_cell_angle_beta 87.360494
_cell_angle_gamma 90.000000
_cell_volume 1701.429192
_symmetry_space_group_name_H-M "P 2/M"
_symmetry_group_IT_number 10
_symmetry_cell_setting 'monoclinic'
loop_
_space_group_symop_operation_xyz
x,y,z
-x,y,-z
-x,-y,-z
x,-y,z
loop_
_atom_site_type_symbol
_atom_site_label
_atom_site_fract_x
_atom_site_fract_y
_atom_site_fract_z
Si Si1 0.196236 0.389318 0.925172
Si Si2 0.661176 0.111096 0.016494
Si Si3 0.025820 0.274921 0.775354
Si Si4 0.526748 0.384450 0.219234
Si Si5 0.131022 0.613811 0.569603
Si Si6 0.739510 0.290273 0.869207
Si Si7 0.241009 0.884446 0.747846
Si Si8 0.382472 0.736771 0.585422
O O1 0.151429 0.500000 0.905668
O O2 0.086668 0.314617 0.882783
O O3 0.339778 0.372977 0.859382
O O4 0.222543 0.372738 0.046639
O O5 0.693566 0.130213 0.138198
O O6 0.708547 0.000000 0.991991
O O7 0.500000 0.115105 0.000000
O O8 0.726033 0.191806 0.938736
O O9 0.085373 0.348566 0.685926
O O10 0.094873 0.169820 0.753344
O O11 0.863885 0.277311 0.784775
O O12 0.493274 0.500000 0.223175
O O13 0.401595 0.321986 0.178357
O O14 0.564397 0.343150 0.332154
O O15 0.172796 0.500000 0.571348
O O16 0.254826 0.684342 0.532991
O O17 0.000000 0.622970 0.500000
O O18 0.329460 0.827584 0.657284
O O19 0.232528 0.000000 0.728658
O O20 0.500000 0.763283 0.500000
#
# Coordination Sequence:
#
# PCOD9150666 Si02
#       8
#     4   4   4   4   4   4   4   4
#     4  11  21  37  57  80 120 167 200 235 289 353
#     4  10  20  36  61  88 119 159 201 245 298 356
#     4  11  23  38  57  87 120 156 200 248 298 349
#     4  11  23  39  59  87 124 166 203 242 295 358
#     4  10  22  41  62  84 117 161 201 243 299 360
#     4  12  23  35  56  89 126 156 202 249 288 349
#     4  10  21  41  65  86 117 160 200 243 307 368
#     4  11  23  40  64  92 118 149 197 259 307 355
#
# _framework density 18.807717
#
# number of rings (size 3 to 8) (size 9 to 14) (size 15 to 20)
#    0.000    1.250    3.750    3.375    1.750    5.250 
#    0.000    1.250    0.000    6.000    0.000    0.000 
#    0.000    0.000    0.000    0.000    0.000    0.000 
#
# Total GULP energy -178806.660103 kJ/mol
# GULP energy per Si atom -5587.708128 kJ/mol
# Density = 1.876491 g / cm^3
# Si number density = 18.807717 Si / 1000 Ang^3
#
#
#
# Elastic Constant Matrix: (Units=GPa)
#
#
# Indices 1 2 3 4 5 6 
#
# 1 77.9407 40.3253 23.1851 0.0000 -9.7329 0.0000
# 2 40.3253 128.5102 15.9707 0.0000 -4.9959 0.0000
# 3 23.1851 15.9707 35.7903 0.0000 -2.6803 0.0000
# 4 0.0000 0.0000 0.0000 14.7526 0.0000 13.1904
# 5 -9.7329 -4.9959 -2.6803 0.0000 32.9403 0.0000
# 6 0.0000 0.0000 0.0000 13.1904 0.0000 9.9270
#
#
#
# Elastic Compliance Matrix: (Units=1/GPa)
#
#
# Indices 1 2 3 4 5 6 
#
# 1 0.018522 -0.004449 -0.009713 0.000000 0.004008 0.000000
# 2 -0.004449 0.009337 -0.001285 0.000000 -0.000003 0.000000
# 3 -0.009713 -0.001285 0.034788 0.000000 -0.000234 0.000000
# 4 0.000000 0.000000 0.000000 -0.360485 0.000000 0.478990
# 5 0.004008 -0.000003 -0.000234 0.000000 0.031523 0.000000
# 6 0.000000 0.000000 0.000000 0.478990 0.000000 -0.535718
#
#
# Mechanical properties :
#
#
# Convention : Reuss Voigt Hill
#
# Bulk Modulus (GPa) = 31.49227 44.57818 38.03522
# Shear Modulus (GPa) = -6.57415 22.37464 7.90024
#
# Velocity S-wave (km/s) = -1.87164 3.45288 2.05174
# Velocity P-wave (km/s) = 3.47994 6.29682 5.08724
#
# Compressibility (1/GPa) = 0.03175382
#
# Stress axis : x y z
#
# Youngs Moduli (GPa) = 53.98983 107.09962 28.74519
#
# Poissons Ratio (x) = 0.47650 0.27921
# Poissons Ratio (y) = 0.24021 0.03692
# Poissons Ratio (z) = 0.52441 0.13758
#
# Static dielectric constant tensor:
#      x y z
#    x 1.662690 0.000000 0.002770 
#    y 0.000000 1.645810 0.000000 
#    z 0.002770 0.000000 1.645480 
# 
# From -- ./inp_files/42994.got.cif
#   From: 2010.05.17/outbox.cif.g08.bks.cpg/sg10_22_cif.got.tgz:42994.got - 2010.06.03 11:33:40.
