data_PCOD9150207
_publ_section_title
;
Structure prediction by ZEFSAII (Michael W. Deem and Ramdas Pophale) SiO2 
 PCOD9150207
Probable space group: P 2/M
;
_chemical_formula_sum "Si O2"
_cell_formula_units_Z 32
_cell_length_a 17.941261
_cell_length_b 13.646463
_cell_length_c 11.752288
_cell_angle_alpha 90.000000
_cell_angle_beta 29.204861
_cell_angle_gamma 90.000000
_cell_volume 1403.965128
_symmetry_space_group_name_H-M "P 2/M"
_symmetry_group_IT_number 10
_symmetry_cell_setting 'monoclinic'
loop_
_space_group_symop_operation_xyz
x,y,z
-x,y,-z
-x,-y,-z
x,-y,z
loop_
_atom_site_type_symbol
_atom_site_label
_atom_site_fract_x
_atom_site_fract_y
_atom_site_fract_z
Si Si1 0.827288 0.384784 0.979835
Si Si2 0.326923 0.613715 0.594904
Si Si3 0.816600 0.615414 0.448617
Si Si4 0.645216 0.881584 0.230169
Si Si5 0.420286 0.818687 0.940814
Si Si6 0.369935 0.611805 0.943832
Si Si7 0.972019 0.882319 0.906978
Si Si8 0.261974 0.181758 0.372992
O O1 0.789092 0.500000 0.019488
O O2 0.001797 0.378695 0.781878
O O3 0.723952 0.342856 0.218496
O O4 0.786554 0.352478 0.907001
O O5 0.279678 0.500000 0.664703
O O6 0.235495 0.649657 0.607226
O O7 0.503617 0.613366 0.326167
O O8 0.771179 0.500000 0.526020
O O9 0.750660 0.699525 0.616119
O O10 0.500000 0.849805 0.500000
O O11 0.621278 0.844807 0.132885
O O12 0.641403 0.000000 0.230820
O O13 0.808334 0.855255 0.069733
O O14 0.424757 0.700328 0.947011
O O15 0.591265 0.850271 0.747462
O O16 0.299976 0.855496 0.195420
O O17 0.364542 0.500000 0.996423
O O18 0.108336 0.851113 0.640868
O O19 0.973832 0.000000 0.911006
O O20 0.000000 0.845827 0.000000
#
# Coordination Sequence:
#
# PCOD9150207 Si02
#       8
#     4   4   4   4   4   4   4   4
#     4   9  18  30  49  79 114 155 208 271 337 390
#     4   9  16  30  51  75 110 157 210 265 321 382
#     4  10  20  36  55  82 122 172 225 275 325 383
#     4  10  23  46  76 107 136 167 208 264 332 404
#     4  11  25  43  63  94 135 180 230 278 328 387
#     4  10  20  36  55  82 122 172 225 275 325 383
#     4  10  23  46  76 107 136 167 208 264 332 404
#     4  11  25  43  63  94 135 180 230 278 328 387
#
# _framework density 22.792589
#
# number of rings (size 3 to 8) (size 9 to 14) (size 15 to 20)
#    0.000    2.000    1.250    1.500    1.750    8.000 
#    0.000    3.750    0.000    2.250    0.000    0.000 
#    0.000    0.000    0.000    0.000    0.000    0.000 
#
# Total GULP energy -178561.435552 kJ/mol
# GULP energy per Si atom -5580.044861 kJ/mol
# Density = 2.274071 g / cm^3
# Si number density = 22.792589 Si / 1000 Ang^3
#
#
#
# Elastic Constant Matrix: (Units=GPa)
#
#
# Indices 1 2 3 4 5 6 
#
# 1 125.7188 15.8474 84.4604 0.0000 -10.7747 0.0000
# 2 15.8474 58.5920 28.4499 0.0000 3.2430 0.0000
# 3 84.4604 28.4499 149.1760 0.0000 2.1630 0.0000
# 4 0.0000 0.0000 0.0000 -28.7040 0.0000 -23.2833
# 5 -10.7747 3.2430 2.1630 0.0000 33.8404 0.0000
# 6 0.0000 0.0000 0.0000 -23.2833 0.0000 15.1639
#
#
#
# Elastic Compliance Matrix: (Units=1/GPa)
#
#
# Indices 1 2 3 4 5 6 
#
# 1 0.013581 -0.000191 -0.007723 0.000000 0.004836 0.000000
# 2 -0.000191 0.018896 -0.003472 0.000000 -0.001650 0.000000
# 3 -0.007723 -0.003472 0.011780 0.000000 -0.002879 0.000000
# 4 0.000000 0.000000 0.000000 -0.015515 0.000000 -0.023822
# 5 0.004836 -0.001650 -0.002879 0.000000 0.031432 0.000000
# 6 0.000000 0.000000 0.000000 -0.023822 0.000000 0.029368
#
#
# Mechanical properties :
#
#
# Convention : Reuss Voigt Hill
#
# Bulk Modulus (GPa) = 46.54271 65.66690 56.10480
# Shear Modulus (GPa) = 41.84908 17.70867 29.77887
#
# Velocity S-wave (km/s) = 4.28960 2.79040 3.61850
# Velocity P-wave (km/s) = 6.70811 6.26538 6.49052
#
# Compressibility (1/GPa) = 0.02148564
#
# Stress axis : x y z
#
# Youngs Moduli (GPa) = 73.62990 52.92171 84.88921
#
# Poissons Ratio (x) = 0.01011 0.65562
# Poissons Ratio (y) = 0.01406 0.29471
# Poissons Ratio (z) = 0.56866 0.18373
#
# Static dielectric constant tensor:
#      x y z
#    x 1.903930 0.000000 0.026540 
#    y 0.000000 1.910260 0.000000 
#    z 0.026540 0.000000 1.828480 
# 
# From -- ./inp_files/53994.got.cif
#   From: 2010.05.17/outbox.cif.g08.bks.cpg/sg10_27_cif.got.tgz:53994.got - 2010.06.03 11:33:40.
