data_PCOD9150238
_publ_section_title
;
Structure prediction by ZEFSAII (Michael W. Deem and Ramdas Pophale) SiO2 
 PCOD9150238
Probable space group: P 2/M
;
_chemical_formula_sum "Si O2"
_cell_formula_units_Z 25
_cell_length_a 5.379263
_cell_length_b 12.439336
_cell_length_c 21.378542
_cell_angle_alpha 90.000000
_cell_angle_beta 62.789845
_cell_angle_gamma 90.000000
_cell_volume 1272.224084
_symmetry_space_group_name_H-M "P 2/M"
_symmetry_group_IT_number 10
_symmetry_cell_setting 'monoclinic'
loop_
_space_group_symop_operation_xyz
x,y,z
-x,y,-z
-x,-y,-z
x,-y,z
loop_
_atom_site_type_symbol
_atom_site_label
_atom_site_fract_x
_atom_site_fract_y
_atom_site_fract_z
Si Si1 0.895298 0.754278 0.689054
Si Si2 0.361612 0.380116 0.176802
Si Si3 0.186375 0.614236 0.061338
Si Si4 0.833074 0.625692 0.454179
Si Si5 0.184074 0.805849 0.894392
Si Si6 0.698107 0.872386 0.259575
Si Si7 0.000000 0.000000 0.000000
O O1 0.796214 0.654208 0.742982
O O2 0.612427 0.820029 0.705090
O O3 0.046371 0.706857 0.611104
O O4 0.104493 0.822104 0.709443
O O5 0.484954 0.500000 0.169776
O O6 0.167511 0.386012 0.138495
O O7 0.566784 0.281667 0.136258
O O8 0.058179 0.500000 0.055810
O O9 0.068484 0.728535 0.057524
O O10 0.500000 0.611074 0.000000
O O11 0.500000 0.641835 0.500000
O O12 0.874197 0.500000 0.430822
O O13 0.000000 0.640848 0.500000
O O14 0.170244 0.848513 0.824366
O O15 0.179889 0.905924 0.941284
O O16 0.677860 0.000000 0.270023
#
# Coordination Sequence:
#
# PCOD9150238 Si02
#       7
#     4   4   4   4   4   4   1
#     4  11  22  40  68  96 129 174 217 265 319 386
#     4  10  21  37  59  88 120 157 209 264 327 392
#     4  10  20  36  56  81 115 153 199 259 333 394
#     4  10  21  39  65 102 143 174 206 255 324 399
#     4  11  22  39  56  84 117 163 214 273 329 384
#     4  11  23  42  64  90 129 168 224 274 323 369
#     4  12  24  40  60  80 120 162 228 272 332 410
#
# _framework density 19.650624000000001
#
# number of rings (size 3 to 8) (size 9 to 14) (size 15 to 20)
#    0.000    1.440    2.400    3.360    0.000    0.000 
#    0.000    8.400    0.000    9.600    0.000    0.000 
#    0.000    0.000    0.000    0.000    0.000    0.000 
#
# Total GULP energy -139174.791302 kJ/mol
# GULP energy per Si atom -5566.991652 kJ/mol
# Density = 1.960590 g / cm^3
# Si number density = 19.650624 Si / 1000 Ang^3
#
#
#
# Elastic Constant Matrix: (Units=GPa)
#
#
# Indices 1 2 3 4 5 6 
#
# 1 108.6569 56.8107 46.2412 0.0000 2.5149 0.0000
# 2 56.8107 189.0142 67.3960 0.0000 -1.7340 0.0000
# 3 46.2412 67.3960 111.9396 0.0000 -0.7168 0.0000
# 4 0.0000 0.0000 0.0000 34.1996 0.0000 4.6663
# 5 2.5149 -1.7340 -0.7168 0.0000 25.6834 0.0000
# 6 0.0000 0.0000 0.0000 4.6663 0.0000 28.3305
#
#
#
# Elastic Compliance Matrix: (Units=1/GPa)
#
#
# Indices 1 2 3 4 5 6 
#
# 1 0.011971 -0.002349 -0.003540 0.000000 -0.001430 0.000000
# 2 -0.002349 0.007201 -0.003361 0.000000 0.000622 0.000000
# 3 -0.003540 -0.003361 0.012422 0.000000 0.000466 0.000000
# 4 0.000000 0.000000 0.000000 0.029912 0.000000 -0.004927
# 5 -0.001430 0.000622 0.000466 0.000000 0.039131 0.000000
# 6 0.000000 0.000000 0.000000 -0.004927 0.000000 0.036109
#
#
# Mechanical properties :
#
#
# Convention : Reuss Voigt Hill
#
# Bulk Modulus (GPa) = 76.37061 83.38959 79.88010
# Shear Modulus (GPa) = 31.32615 33.58689 32.45652
#
# Velocity S-wave (km/s) = 3.99702 4.13873 4.06849
# Velocity P-wave (km/s) = 7.76210 8.08499 7.92519
#
# Compressibility (1/GPa) = 0.01309404
#
# Stress axis : x y z
#
# Youngs Moduli (GPa) = 83.53501 138.87414 80.49992
#
# Poissons Ratio (x) = 0.32620 0.28497
# Poissons Ratio (y) = 0.19622 0.27057
# Poissons Ratio (z) = 0.29572 0.46677
#
# Static dielectric constant tensor:
#      x y z
#    x 1.805670 0.000000 -0.005610 
#    y 0.000000 1.676790 0.000000 
#    z -0.005610 0.000000 1.679990 
# 
# From -- ./inp_files/81044.got.cif
#   From: 2010.05.17/outbox.cif.g08.bks.cpg/sg10_41_cif.got.tgz:81044.got - 2010.06.03 11:33:40.
