data_PCOD9150886
_publ_section_title
;
Structure prediction by ZEFSAII (Michael W. Deem and Ramdas Pophale) SiO2 
 PCOD9150886
Probable space group: P 2/M
;
_chemical_formula_sum "Si O2"
_cell_formula_units_Z 28
_cell_length_a 14.116124
_cell_length_b 7.774772
_cell_length_c 11.298178
_cell_angle_alpha 90.000000
_cell_angle_beta 113.709260
_cell_angle_gamma 90.000000
_cell_volume 1135.314525
_symmetry_space_group_name_H-M "P 2/M"
_symmetry_group_IT_number 10
_symmetry_cell_setting 'monoclinic'
loop_
_space_group_symop_operation_xyz
x,y,z
-x,y,-z
-x,-y,-z
x,-y,z
loop_
_atom_site_type_symbol
_atom_site_label
_atom_site_fract_x
_atom_site_fract_y
_atom_site_fract_z
Si Si1 0.952145 0.293556 0.601974
Si Si2 0.117307 0.794187 0.071504
Si Si3 0.320698 0.301341 0.286367
Si Si4 0.348947 0.257225 0.812042
Si Si5 0.845428 0.800854 0.176646
Si Si6 0.437353 0.189467 0.113397
Si Si7 0.713310 0.288130 0.473707
O O1 0.954528 0.500000 0.612575
O O2 0.833665 0.240105 0.548091
O O3 0.000000 0.242713 0.500000
O O4 0.033224 0.221755 0.736695
O O5 0.196599 0.711962 0.203083
O O6 0.113738 0.000000 0.091818
O O7 0.166964 0.765814 0.967627
O O8 0.000000 0.730049 0.000000
O O9 0.351204 0.500000 0.294300
O O10 0.374839 0.209936 0.202906
O O11 0.341940 0.241173 0.430607
O O12 0.230047 0.313899 0.780812
O O13 0.467017 0.319324 0.849478
O O14 0.328766 0.201599 0.665927
O O15 0.370520 0.194761 0.959421
O O16 0.819042 0.000000 0.191188
O O17 0.488066 0.000000 0.138724
O O18 0.706169 0.500000 0.455881
#
# Coordination Sequence:
#
# PCOD9150886 Si02
#       7
#     4   4   4   4   4   4   4
#     4  10  20  37  59  87 125 171 209 249 311 377
#     4  10  21  39  63  91 129 171 211 260 318 375
#     4  11  24  42  65  94 130 172 215 261 319 381
#     4  11  22  41  69  93 120 169 214 264 325 380
#     4  11  21  36  60  94 126 160 209 264 315 370
#     4  11  24  46  69  94 128 164 213 273 326 381
#     4  10  23  43  64  93 135 172 208 261 319 382
#
# _framework density 24.662766999999999
#
# number of rings (size 3 to 8) (size 9 to 14) (size 15 to 20)
#    0.000    1.429    2.857    3.000    0.000    2.857 
#    0.000    8.571    0.000    0.000    0.000    0.000 
#    0.000    0.000    0.000    0.000    0.000    0.000 
#
# Total GULP energy -155974.813326 kJ/mol
# GULP energy per Si atom -5570.529047 kJ/mol
# Density = 2.460663 g / cm^3
# Si number density = 24.662767 Si / 1000 Ang^3
#
#
#
# Elastic Constant Matrix: (Units=GPa)
#
#
# Indices 1 2 3 4 5 6 
#
# 1 140.1193 22.2526 57.9234 0.0000 -14.5576 0.0000
# 2 22.2526 52.1167 31.5559 0.0000 -16.3037 0.0000
# 3 57.9234 31.5559 184.4280 0.0000 -23.0012 0.0000
# 4 0.0000 0.0000 0.0000 20.9100 0.0000 27.2781
# 5 -14.5576 -16.3037 -23.0012 0.0000 50.7679 0.0000
# 6 0.0000 0.0000 0.0000 27.2781 0.0000 28.8659
#
#
#
# Elastic Compliance Matrix: (Units=1/GPa)
#
#
# Indices 1 2 3 4 5 6 
#
# 1 0.008453 -0.002029 -0.002212 0.000000 0.000770 0.000000
# 2 -0.002029 0.023463 -0.002660 0.000000 0.005748 0.000000
# 3 -0.002212 -0.002660 0.006769 0.000000 0.001578 0.000000
# 4 0.000000 0.000000 0.000000 -0.205434 0.000000 0.194134
# 5 0.000770 0.005748 0.001578 0.000000 0.022479 0.000000
# 6 0.000000 0.000000 0.000000 0.194134 0.000000 -0.148813
#
#
# Mechanical properties :
#
#
# Convention : Reuss Voigt Hill
#
# Bulk Modulus (GPa) = 40.18883 66.68087 53.43485
# Shear Modulus (GPa) = -18.45113 37.77087 9.65987
#
# Velocity S-wave (km/s) = -2.73818 3.91768 1.98123
# Velocity P-wave (km/s) = 2.51673 6.89638 5.19105
#
# Compressibility (1/GPa) = 0.02488253
#
# Stress axis : x y z
#
# Youngs Moduli (GPa) = 118.29623 42.62018 147.73645
#
# Poissons Ratio (x) = 0.08649 0.32674
# Poissons Ratio (y) = 0.24006 0.39304
# Poissons Ratio (z) = 0.26163 0.11339
#
# Static dielectric constant tensor:
#      x y z
#    x 1.957120 0.000000 0.006060 
#    y 0.000000 2.213750 0.000000 
#    z 0.006060 0.000000 1.934470 
# 
# From -- ./inp_files/50037.got.cif
#   From: 2010.05.17/outbox.cif.g08.bks.cpg/sg10_26_cif.got.tgz:50037.got - 2010.06.03 11:33:40.
