data_PCOD9150110
_publ_section_title
;
Structure prediction by ZEFSAII (Michael W. Deem and Ramdas Pophale) SiO2 
 PCOD9150110
Probable space group: P 2/M
;
_chemical_formula_sum "Si O2"
_cell_formula_units_Z 28
_cell_length_a 13.236919
_cell_length_b 9.021718
_cell_length_c 12.784374
_cell_angle_alpha 90.000000
_cell_angle_beta 111.993682
_cell_angle_gamma 90.000000
_cell_volume 1415.600908
_symmetry_space_group_name_H-M "P 2/M"
_symmetry_group_IT_number 10
_symmetry_cell_setting 'monoclinic'
loop_
_space_group_symop_operation_xyz
x,y,z
-x,y,-z
-x,-y,-z
x,-y,z
loop_
_atom_site_type_symbol
_atom_site_label
_atom_site_fract_x
_atom_site_fract_y
_atom_site_fract_z
Si Si1 0.511262 0.324967 0.825797
Si Si2 0.818442 0.825066 0.670067
Si Si3 0.870034 0.824647 0.454280
Si Si4 0.885538 0.673741 0.896998
Si Si5 0.259224 0.675827 0.783806
Si Si6 0.434262 0.825969 0.369010
Si Si7 0.278246 0.823623 0.006975
O O1 0.532344 0.500000 0.845395
O O2 0.386876 0.296144 0.809268
O O3 0.529212 0.273104 0.713609
O O4 0.599753 0.237245 0.928166
O O5 0.832059 0.777956 0.555354
O O6 0.889168 0.735078 0.780721
O O7 0.693117 0.807555 0.655893
O O8 0.846357 0.000000 0.686557
O O9 0.811079 0.736026 0.339778
O O10 0.000000 0.807459 0.500000
O O11 0.844335 0.000000 0.432176
O O12 0.857152 0.500000 0.885489
O O13 0.794508 0.762989 0.925985
O O14 0.000000 0.692502 0.000000
O O15 0.243837 0.500000 0.790753
O O16 0.232494 0.758784 0.881088
O O17 0.500000 0.792412 0.500000
O O18 0.453261 0.000000 0.350104
O O19 0.277823 0.000000 0.006483
#
# Coordination Sequence:
#
# PCOD9150110 Si02
#       7
#     4   4   4   4   4   4   4
#     4  11  23  40  62  92 129 167 209 260 316 381
#     4  10  21  39  63  93 128 166 210 258 309 370
#     4  10  23  43  66  95 128 168 216 263 313 372
#     4  11  25  43  65  95 129 167 209 258 318 379
#     4  11  25  43  64  93 130 171 213 261 320 378
#     4  10  20  35  59  90 125 167 208 254 309 370
#     4  12  25  42  67  96 127 167 212 262 320 378
#
# _framework density 19.779585999999998
#
# number of rings (size 3 to 8) (size 9 to 14) (size 15 to 20)
#    0.000    1.286    1.429    3.857    2.000    7.429 
#    0.000    0.000    0.000    0.000    0.000    0.000 
#    0.000    0.000    0.000    0.000    0.000    0.000 
#
# Total GULP energy -156661.230582 kJ/mol
# GULP energy per Si atom -5595.043949 kJ/mol
# Density = 1.973457 g / cm^3
# Si number density = 19.779586 Si / 1000 Ang^3
#
#
#
# Elastic Constant Matrix: (Units=GPa)
#
#
# Indices 1 2 3 4 5 6 
#
# 1 31.6556 34.8589 23.0513 0.0000 -2.3103 0.0000
# 2 34.8589 81.6124 58.5143 0.0000 9.6292 0.0000
# 3 23.0513 58.5143 143.5588 0.0000 3.9573 0.0000
# 4 0.0000 0.0000 0.0000 55.6067 0.0000 -13.4968
# 5 -2.3103 9.6292 3.9573 0.0000 30.3271 0.0000
# 6 0.0000 0.0000 0.0000 -13.4968 0.0000 34.0990
#
#
#
# Elastic Compliance Matrix: (Units=1/GPa)
#
#
# Indices 1 2 3 4 5 6 
#
# 1 0.065416 -0.030858 0.001672 0.000000 0.014563 0.000000
# 2 -0.030858 0.032531 -0.007984 0.000000 -0.011638 0.000000
# 3 0.001672 -0.007984 0.009914 0.000000 0.001369 0.000000
# 4 0.000000 0.000000 0.000000 0.019895 0.000000 0.007875
# 5 0.014563 -0.011638 0.001369 0.000000 0.037600 0.000000
# 6 0.000000 0.000000 0.000000 0.007875 0.000000 0.032443
#
#
# Mechanical properties :
#
#
# Convention : Reuss Voigt Hill
#
# Bulk Modulus (GPa) = 29.83194 54.40843 42.12018
# Shear Modulus (GPa) = 17.64851 33.36671 25.50761
#
# Velocity S-wave (km/s) = 2.99031 4.11168 3.59499
# Velocity P-wave (km/s) = 5.19976 7.07872 6.21071
#
# Compressibility (1/GPa) = 0.03352112
#
# Stress axis : x y z
#
# Youngs Moduli (GPa) = 15.28689 30.74028 100.87100
#
# Poissons Ratio (x) = 0.94859 -0.16870
# Poissons Ratio (y) = 0.47172 0.80532
# Poissons Ratio (z) = -0.02557 0.24542
#
# Static dielectric constant tensor:
#      x y z
#    x 1.680650 0.000000 -0.001210 
#    y 0.000000 1.665660 0.000000 
#    z -0.001210 0.000000 1.680270 
# 
# From -- ./inp_files/49314.got.cif
#   From: 2010.05.17/outbox.cif.g08.bks.cpg/sg10_25_cif.got.tgz:49314.got - 2010.06.03 11:33:40.
