data_PCOD9150977
_publ_section_title
;
Structure prediction by ZEFSAII (Michael W. Deem and Ramdas Pophale) SiO2 
 PCOD9150977
Probable space group: P 2/M
;
_chemical_formula_sum "Si O2"
_cell_formula_units_Z 28
_cell_length_a 7.377778
_cell_length_b 18.465357
_cell_length_c 17.828449
_cell_angle_alpha 90.000000
_cell_angle_beta 36.208637
_cell_angle_gamma 90.000000
_cell_volume 1434.775329
_symmetry_space_group_name_H-M "P 2/M"
_symmetry_group_IT_number 10
_symmetry_cell_setting 'monoclinic'
loop_
_space_group_symop_operation_xyz
x,y,z
-x,y,-z
-x,-y,-z
x,-y,z
loop_
_atom_site_type_symbol
_atom_site_label
_atom_site_fract_x
_atom_site_fract_y
_atom_site_fract_z
Si Si1 0.041166 0.419945 0.594477
Si Si2 0.589199 0.917688 0.882005
Si Si3 0.260087 0.420972 0.692743
Si Si4 0.180196 0.734449 0.769950
Si Si5 0.733617 0.268859 0.696110
Si Si6 0.168036 0.168312 0.631505
Si Si7 0.278412 0.225876 0.960500
O O1 0.907569 0.500000 0.621769
O O2 0.104095 0.417071 0.662759
O O3 0.375824 0.416460 0.444882
O O4 0.855749 0.348254 0.635880
O O5 0.929725 0.888211 0.748314
O O6 0.552748 0.000000 0.867709
O O7 0.500000 0.916557 0.000000
O O8 0.368656 0.857737 0.919079
O O9 0.191025 0.500000 0.748601
O O10 0.163634 0.351977 0.771936
O O11 0.472125 0.754136 0.724534
O O12 0.227787 0.768793 0.672854
O O13 0.861395 0.763141 0.910996
O O14 0.000169 0.209469 0.618389
O O15 0.568246 0.270200 0.833358
O O16 0.500000 0.137170 0.500000
O O17 0.000000 0.247522 0.000000
#
# Coordination Sequence:
#
# PCOD9150977 Si02
#       7
#     4   4   4   4   4   4   4
#     4   9  17  32  49  72 106 142 184 229 271 326
#     4  10  20  37  61  85 109 145 187 217 264 334
#     4   9  18  31  50  73 104 145 182 223 280 327
#     4  11  20  35  56  78 113 144 184 235 272 321
#     4  10  21  34  54  82 106 145 191 225 276 329
#     4  11  22  36  57  85 116 146 178 226 281 322
#     4   9  20  37  56  83 108 142 185 227 270 323
#
# _framework density 19.515252
#
# number of rings (size 3 to 8) (size 9 to 14) (size 15 to 20)
#    0.000    2.143    2.857    1.714    0.000    3.429 
#    0.000    2.143    0.000    4.286    0.000    4.000 
#    0.000    0.000    0.000    0.000    0.000    0.000 
#
# Total GULP energy -156179.153449 kJ/mol
# GULP energy per Si atom -5577.826909 kJ/mol
# Density = 1.947083 g / cm^3
# Si number density = 19.515252 Si / 1000 Ang^3
#
#
#
# Elastic Constant Matrix: (Units=GPa)
#
#
# Indices 1 2 3 4 5 6 
#
# 1 56.4189 3.7176 9.2211 0.0000 -3.3086 0.0000
# 2 3.7176 109.2943 32.8858 0.0000 -5.5651 0.0000
# 3 9.2211 32.8858 78.3180 0.0000 -17.4549 0.0000
# 4 0.0000 0.0000 0.0000 21.5537 0.0000 -1.6016
# 5 -3.3086 -5.5651 -17.4549 0.0000 21.1582 0.0000
# 6 0.0000 0.0000 0.0000 -1.6016 0.0000 15.3338
#
#
#
# Elastic Compliance Matrix: (Units=1/GPa)
#
#
# Indices 1 2 3 4 5 6 
#
# 1 0.018102 0.000005 -0.001841 0.000000 0.001313 0.000000
# 2 0.000005 0.010493 -0.004645 0.000000 -0.001072 0.000000
# 3 -0.001841 -0.004645 0.017888 0.000000 0.013248 0.000000
# 4 0.000000 0.000000 0.000000 0.046759 0.000000 0.004884
# 5 0.001313 -0.001072 0.013248 0.000000 0.058115 0.000000
# 6 0.000000 0.000000 0.000000 0.004884 0.000000 0.065725
#
#
# Mechanical properties :
#
#
# Convention : Reuss Voigt Hill
#
# Bulk Modulus (GPa) = 29.83205 37.29779 33.56492
# Shear Modulus (GPa) = 20.72816 24.82294 22.77555
#
# Velocity S-wave (km/s) = 3.26260 3.57035 3.41994
# Velocity P-wave (km/s) = 5.43254 6.01250 5.72986
#
# Compressibility (1/GPa) = 0.03352100
#
# Stress axis : x y z
#
# Youngs Moduli (GPa) = 55.24218 95.30529 55.90262
#
# Poissons Ratio (x) = -0.00048 0.10290
# Poissons Ratio (y) = -0.00028 0.25968
# Poissons Ratio (z) = 0.10168 0.44272
#
# Static dielectric constant tensor:
#      x y z
#    x 1.726050 0.000000 0.010350 
#    y 0.000000 1.663640 0.000000 
#    z 0.010350 0.000000 1.717170 
# 
# From -- ./inp_files/35394.got.cif
#   From: 2010.05.17/outbox.cif.g08.bks.cpg/sg10_18_cif.got.tgz:35394.got - 2010.06.03 11:33:40.
