data_PCOD9150681
_publ_section_title
;
Structure prediction by ZEFSAII (Michael W. Deem and Ramdas Pophale) SiO2 
 PCOD9150681
Probable space group: P 2/M
;
_chemical_formula_sum "Si O2"
_cell_formula_units_Z 22
_cell_length_a 9.648119
_cell_length_b 27.134659
_cell_length_c 5.116283
_cell_angle_alpha 90.000000
_cell_angle_beta 59.271943
_cell_angle_gamma 90.000000
_cell_volume 1151.381051
_symmetry_space_group_name_H-M "P 2/M"
_symmetry_group_IT_number 10
_symmetry_cell_setting 'monoclinic'
loop_
_space_group_symop_operation_xyz
x,y,z
-x,y,-z
-x,-y,-z
x,-y,z
loop_
_atom_site_type_symbol
_atom_site_label
_atom_site_fract_x
_atom_site_fract_y
_atom_site_fract_z
Si Si1 0.386530 0.862507 0.361790
Si Si2 0.183048 0.657408 0.421006
Si Si3 0.385671 0.249690 0.362290
Si Si4 0.113710 0.944294 0.641995
Si Si5 0.616528 0.500000 0.139422
Si Si6 0.683100 0.393544 0.212317
O O1 0.500000 0.870990 0.500000
O O2 0.322237 0.806329 0.444761
O O3 0.248632 0.903025 0.488914
O O4 0.500000 0.865574 0.000000
O O5 0.248290 0.709767 0.460407
O O6 0.208135 0.620938 0.643707
O O7 0.000000 0.659014 0.500000
O O8 0.287491 0.640807 0.067642
O O9 0.500000 0.260125 0.500000
O O10 0.500000 0.251621 0.000000
O O11 0.000000 0.942859 0.500000
O O12 0.182180 0.000000 0.598541
O O13 0.000000 0.935560 0.000000
O O14 0.500000 0.500000 0.500000
O O15 0.711376 0.448875 0.076444
O O16 0.500000 0.500000 0.000000
O O17 0.500000 0.389693 0.500000
#
# Coordination Sequence:
#
# PCOD9150681 Si02
#       6
#     4   4   4   4   2   4
#     4  10  21  37  58  85 112 144 191 242 284 328
#     4  12  24  38  57  87 118 148 187 232 284 338
#     4  10  21  38  59  81 110 149 191 232 281 337
#     4  10  21  37  57  83 117 155 190 227 280 343
#     4  10  20  36  61  90 109 140 195 236 267 328
#     4  11  22  40  63  85 112 150 191 232 276 333
#
# _framework density 19.107489999999999
#
# number of rings (size 3 to 8) (size 9 to 14) (size 15 to 20)
#    0.000    1.455    0.000    7.091    0.000    1.455 
#    0.000    4.545    0.000    0.000    0.000    0.000 
#    0.000    0.000    0.000    0.000    0.000    0.000 
#
# Total GULP energy -122917.277974 kJ/mol
# GULP energy per Si atom -5587.148999 kJ/mol
# Density = 1.906400 g / cm^3
# Si number density = 19.107490 Si / 1000 Ang^3
#
#
#
# Elastic Constant Matrix: (Units=GPa)
#
#
# Indices 1 2 3 4 5 6 
#
# 1 129.4433 102.3107 51.2752 0.0000 20.8190 0.0000
# 2 102.3107 173.0599 47.3906 0.0000 -4.1958 0.0000
# 3 51.2752 47.3906 104.1778 0.0000 33.4663 0.0000
# 4 0.0000 0.0000 0.0000 12.3626 0.0000 22.3242
# 5 20.8190 -4.1958 33.4663 0.0000 34.4254 0.0000
# 6 0.0000 0.0000 0.0000 22.3242 0.0000 14.7379
#
#
#
# Elastic Compliance Matrix: (Units=1/GPa)
#
#
# Indices 1 2 3 4 5 6 
#
# 1 0.018818 -0.011458 0.000080 0.000000 -0.012854 0.000000
# 2 -0.011458 0.014353 -0.005348 0.000000 0.013878 0.000000
# 3 0.000080 -0.005348 0.017765 0.000000 -0.017970 0.000000
# 4 0.000000 0.000000 0.000000 -0.046614 0.000000 0.070608
# 5 -0.012854 0.013878 -0.017970 0.000000 0.055983 0.000000
# 6 0.000000 0.000000 0.000000 0.070608 0.000000 -0.039101
#
#
# Mechanical properties :
#
#
# Convention : Reuss Voigt Hill
#
# Bulk Modulus (GPa) = 57.19588 89.84822 73.52205
# Shear Modulus (GPa) = 82.66672 26.01883 54.34277
#
# Velocity S-wave (km/s) = 6.58468 3.69414 5.33875
# Velocity P-wave (km/s) = 9.37066 8.08209 8.75013
#
# Compressibility (1/GPa) = 0.01748378
#
# Stress axis : x y z
#
# Youngs Moduli (GPa) = 53.14146 69.67084 56.29011
#
# Poissons Ratio (x) = 0.79831 -0.00450
# Poissons Ratio (y) = 0.60891 0.30102
# Poissons Ratio (z) = -0.00424 0.37258
#
# Static dielectric constant tensor:
#      x y z
#    x 1.619930 0.000000 0.002320 
#    y 0.000000 1.715630 0.000000 
#    z 0.002320 0.000000 1.634960 
# 
# From -- ./inp_files/5147.got.cif
#   From: 2010.05.17/outbox.cif.g08.bks.cpg/sg10_3_cif.got.tgz:5147.got - 2010.06.03 11:33:40.
