data_PCOD9150828
_publ_section_title
;
Structure prediction by ZEFSAII (Michael W. Deem and Ramdas Pophale) SiO2 
 PCOD9150828
Probable space group: P 2/M
;
_chemical_formula_sum "Si O2"
_cell_formula_units_Z 21
_cell_length_a 7.399349
_cell_length_b 7.479387
_cell_length_c 14.877398
_cell_angle_alpha 90.000000
_cell_angle_beta 100.633490
_cell_angle_gamma 90.000000
_cell_volume 809.214896
_symmetry_space_group_name_H-M "P 2/M"
_symmetry_group_IT_number 10
_symmetry_cell_setting 'monoclinic'
loop_
_space_group_symop_operation_xyz
x,y,z
-x,y,-z
-x,-y,-z
x,-y,z
loop_
_atom_site_type_symbol
_atom_site_label
_atom_site_fract_x
_atom_site_fract_y
_atom_site_fract_z
Si Si1 0.216266 0.202636 0.529218
Si Si2 0.766964 0.790055 0.663820
Si Si3 0.431680 0.705709 0.089788
Si Si4 0.372324 0.791949 0.722659
Si Si5 0.000000 0.500000 0.000000
Si Si6 0.949067 0.797599 0.857782
O O1 0.267074 0.288546 0.438339
O O2 0.252151 0.284742 0.630190
O O3 0.000000 0.186569 0.500000
O O4 0.299860 0.000000 0.540756
O O5 0.574154 0.779320 0.696566
O O6 0.916506 0.731483 0.751804
O O7 0.811496 0.000000 0.652859
O O8 0.362051 0.500000 0.073122
O O9 0.597233 0.709830 0.176877
O O10 0.257294 0.803572 0.117053
O O11 0.500000 0.770866 0.000000
O O12 0.322081 0.000000 0.731923
O O13 0.048490 0.657146 0.929376
O O14 0.021665 0.000000 0.865043
#
# Coordination Sequence:
#
# PCOD9150828 Si02
#       6
#     4   4   4   4   1   4
#     4   9  16  28  48  80 114 141 179 236 293 345
#     4   8  15  30  52  76 106 145 190 232 279 344
#     4  10  20  37  58  82 115 151 195 251 299 342
#     4   9  17  30  53  79 105 145 191 235 287 347
#     4  12  22  40  58  86 124 152 196 252 282 354
#     4  10  21  38  61  86 115 157 198 240 294 350
#
# _framework density 25.951079
#
# number of rings (size 3 to 8) (size 9 to 14) (size 15 to 20)
#    0.000    2.667    0.952    2.571    0.000    3.810 
#    3.429    0.000    2.095    2.857    0.000    0.000 
#    0.000    0.000    0.000    0.000    0.000    0.000 
#
# Total GULP energy -117060.405944 kJ/mol
# GULP energy per Si atom -5574.305045 kJ/mol
# Density = 2.589201 g / cm^3
# Si number density = 25.951079 Si / 1000 Ang^3
#
#
#
# Elastic Constant Matrix: (Units=GPa)
#
#
# Indices 1 2 3 4 5 6 
#
# 1 34.3041 8.3519 42.3790 0.0000 -8.7427 0.0000
# 2 8.3519 104.7189 40.4059 0.0000 12.3565 0.0000
# 3 42.3790 40.4059 270.8384 0.0000 2.9890 0.0000
# 4 0.0000 0.0000 0.0000 43.4541 0.0000 6.4394
# 5 -8.7427 12.3565 2.9890 0.0000 52.8401 0.0000
# 6 0.0000 0.0000 0.0000 6.4394 0.0000 6.5119
#
#
#
# Elastic Compliance Matrix: (Units=1/GPa)
#
#
# Indices 1 2 3 4 5 6 
#
# 1 0.038624 -0.001652 -0.005876 0.000000 0.007109 0.000000
# 2 -0.001652 0.010487 -0.001277 0.000000 -0.002653 0.000000
# 3 -0.005876 -0.001277 0.004813 0.000000 -0.000946 0.000000
# 4 0.000000 0.000000 0.000000 0.026964 0.000000 -0.026664
# 5 0.007109 -0.002653 -0.000946 0.000000 0.020775 0.000000
# 6 0.000000 0.000000 0.000000 -0.026664 0.000000 0.179934
#
#
# Mechanical properties :
#
#
# Convention : Reuss Voigt Hill
#
# Bulk Modulus (GPa) = 27.53750 65.79277 46.66514
# Shear Modulus (GPa) = 16.06115 41.80952 28.93533
#
# Velocity S-wave (km/s) = 2.49047 4.01819 3.34278
# Velocity P-wave (km/s) = 4.34790 6.85095 5.73758
#
# Compressibility (1/GPa) = 0.03631412
#
# Stress axis : x y z
#
# Youngs Moduli (GPa) = 25.89085 95.35737 207.79174
#
# Poissons Ratio (x) = 0.15755 1.22089
# Poissons Ratio (y) = 0.04278 0.26529
# Poissons Ratio (z) = 0.15212 0.12174
#
# Static dielectric constant tensor:
#      x y z
#    x 2.411550 0.000000 0.151970 
#    y 0.000000 2.000270 0.000000 
#    z 0.151970 0.000000 2.179710 
# 
# From -- ./inp_files/60140.got.cif
#   From: 2010.05.17/outbox.cif.g08.bks.cpg/sg10_31_cif.got.tgz:60140.got - 2010.06.03 11:33:40.
