data_PCOD9150428
_publ_section_title
;
Structure prediction by ZEFSAII (Michael W. Deem and Ramdas Pophale) SiO2 
 PCOD9150428
Probable space group: P 2/M
;
_chemical_formula_sum "Si O2"
_cell_formula_units_Z 28
_cell_length_a 12.128652
_cell_length_b 13.504739
_cell_length_c 9.565012
_cell_angle_alpha 90.000000
_cell_angle_beta 54.101643
_cell_angle_gamma 90.000000
_cell_volume 1269.113924
_symmetry_space_group_name_H-M "P 2/M"
_symmetry_group_IT_number 10
_symmetry_cell_setting 'monoclinic'
loop_
_space_group_symop_operation_xyz
x,y,z
-x,y,-z
-x,-y,-z
x,-y,z
loop_
_atom_site_type_symbol
_atom_site_label
_atom_site_fract_x
_atom_site_fract_y
_atom_site_fract_z
Si Si1 0.074886 0.613921 0.295496
Si Si2 0.841785 0.117375 0.632161
Si Si3 0.198887 0.158239 0.747902
Si Si4 0.599869 0.705638 0.312191
Si Si5 0.622720 0.384657 0.994467
Si Si6 0.914646 0.817123 0.861589
Si Si7 0.406175 0.888939 0.379808
O O1 0.045535 0.500000 0.271544
O O2 0.237562 0.621791 0.194755
O O3 0.053312 0.701313 0.197446
O O4 0.000000 0.628991 0.500000
O O5 0.818930 0.143582 0.810643
O O6 0.713528 0.151090 0.635156
O O7 0.000000 0.153672 0.500000
O O8 0.846376 0.000000 0.606186
O O9 0.263609 0.268185 0.703653
O O10 0.322865 0.100836 0.587019
O O11 0.065859 0.137017 0.755506
O O12 0.152480 0.151309 0.942551
O O13 0.500000 0.656263 0.500000
O O14 0.520342 0.805914 0.319460
O O15 0.637285 0.654673 0.140230
O O16 0.590988 0.500000 0.036662
O O17 0.500000 0.336238 0.000000
O O18 0.451837 0.000000 0.303321
#
# Coordination Sequence:
#
# PCOD9150428 Si02
#       7
#     4   4   4   4   4   4   4
#     4  10  22  39  64  96 126 163 211 259 317 376
#     4  10  20  36  58  88 118 156 205 257 317 371
#     4  10  22  36  55  89 121 162 207 243 311 376
#     4  10  22  39  61  89 126 168 211 251 311 379
#     4  10  22  41  65  94 128 166 213 266 318 377
#     4  11  21  37  61  87 124 161 201 259 310 372
#     4  10  22  40  62  88 123 163 210 261 312 376
#
# _framework density 22.062636999999999
#
# number of rings (size 3 to 8) (size 9 to 14) (size 15 to 20)
#    0.000    1.857    2.857    0.429    2.000    4.571 
#    0.000    3.571    0.000    2.143    0.000    0.000 
#    0.000    0.000    0.000    0.000    0.000    0.000 
#
# Total GULP energy -155871.830665 kJ/mol
# GULP energy per Si atom -5566.851095 kJ/mol
# Density = 2.201242 g / cm^3
# Si number density = 22.062637 Si / 1000 Ang^3
#
#
#
# Elastic Constant Matrix: (Units=GPa)
#
#
# Indices 1 2 3 4 5 6 
#
# 1 90.0726 16.2282 22.8819 0.0000 14.9809 0.0000
# 2 16.2282 61.1314 8.0496 0.0000 -0.2305 0.0000
# 3 22.8819 8.0496 99.7718 0.0000 1.8791 0.0000
# 4 0.0000 0.0000 0.0000 -2.0405 0.0000 28.7516
# 5 14.9809 -0.2305 1.8791 0.0000 32.7251 0.0000
# 6 0.0000 0.0000 0.0000 28.7516 0.0000 -44.4868
#
#
#
# Elastic Compliance Matrix: (Units=1/GPa)
#
#
# Indices 1 2 3 4 5 6 
#
# 1 0.013361 -0.003215 -0.002692 0.000000 -0.005984 0.000000
# 2 -0.003215 0.017309 -0.000690 0.000000 0.001633 0.000000
# 3 -0.002692 -0.000690 0.010684 0.000000 0.000614 0.000000
# 4 0.000000 0.000000 0.000000 0.060454 0.000000 0.039071
# 5 -0.005984 0.001633 0.000614 0.000000 0.033273 0.000000
# 6 0.000000 0.000000 0.000000 0.039071 0.000000 0.002773
#
#
# Mechanical properties :
#
#
# Convention : Reuss Voigt Hill
#
# Bulk Modulus (GPa) = 35.51144 38.36612 36.93878
# Shear Modulus (GPa) = 31.16544 10.82728 20.99636
#
# Velocity S-wave (km/s) = 3.76252 2.21770 3.08826
# Velocity P-wave (km/s) = 5.91659 4.89744 5.43098
#
# Compressibility (1/GPa) = 0.02815994
#
# Stress axis : x y z
#
# Youngs Moduli (GPa) = 74.84717 57.77469 93.59467
#
# Poissons Ratio (x) = 0.18574 0.25196
# Poissons Ratio (y) = 0.24062 0.06457
# Poissons Ratio (z) = 0.20149 0.03986
#
# Static dielectric constant tensor:
#      x y z
#    x 1.850180 0.000000 -0.010480 
#    y 0.000000 1.877240 0.000000 
#    z -0.010480 0.000000 1.927930 
# 
# From -- ./inp_files/25226.got.cif
#   From: 2010.05.17/outbox.cif.g08.bks.cpg/sg10_13_cif.got.tgz:25226.got - 2010.06.03 11:33:40.
