data_PCOD9150442
_publ_section_title
;
Structure prediction by ZEFSAII (Michael W. Deem and Ramdas Pophale) SiO2 
 PCOD9150442
Probable space group: P 2/M
;
_chemical_formula_sum "Si O2"
_cell_formula_units_Z 30
_cell_length_a 11.492079
_cell_length_b 7.763127
_cell_length_c 15.177340
_cell_angle_alpha 90.000000
_cell_angle_beta 77.702243
_cell_angle_gamma 90.000000
_cell_volume 1322.968445
_symmetry_space_group_name_H-M "P 2/M"
_symmetry_group_IT_number 10
_symmetry_cell_setting 'monoclinic'
loop_
_space_group_symop_operation_xyz
x,y,z
-x,y,-z
-x,-y,-z
x,-y,z
loop_
_atom_site_type_symbol
_atom_site_label
_atom_site_fract_x
_atom_site_fract_y
_atom_site_fract_z
Si Si1 0.642425 0.697097 0.470862
Si Si2 0.452548 0.196427 0.099890
Si Si3 0.791444 0.792883 0.283673
Si Si4 0.303640 0.313972 0.275981
Si Si5 0.675573 0.000000 0.598851
Si Si6 0.696758 0.702639 0.111723
Si Si7 0.895674 0.708483 0.947721
Si Si8 0.942928 0.200148 0.739967
O O1 0.500000 0.724240 0.500000
O O2 0.669055 0.500000 0.492129
O O3 0.689699 0.724024 0.364301
O O4 0.698752 0.846379 0.521331
O O5 0.351815 0.295430 0.168567
O O6 0.571830 0.202135 0.139502
O O7 0.414182 0.000000 0.091275
O O8 0.500000 0.270734 0.000000
O O9 0.772588 0.729508 0.187544
O O10 0.922340 0.739032 0.296157
O O11 0.788820 0.000000 0.283122
O O12 0.342398 0.500000 0.303650
O O13 0.160922 0.298986 0.293687
O O14 0.349188 0.152369 0.323409
O O15 0.672906 0.500000 0.106186
O O16 0.773147 0.761434 0.015032
O O17 0.895555 0.500000 0.938796
O O18 0.918596 0.786138 0.848533
O O19 0.000000 0.753517 0.000000
O O20 0.932547 0.000000 0.714686
#
# Coordination Sequence:
#
# PCOD9150442 Si02
#       8
#     4   4   4   4   2   4   4   4
#     4  11  26  47  76 108 140 177 220 282 355 416
#     4  11  24  43  65  95 139 185 232 282 336 399
#     4  11  24  42  68 100 135 177 224 283 343 409
#     4  12  26  45  73 101 136 188 232 281 341 406
#     4  12  25  50  72 104 137 171 230 284 338 419
#     4  11  23  37  61  97 136 178 232 283 336 409
#     4  10  20  36  58  92 136 182 228 281 337 394
#     4  11  23  42  66  97 139 181 235 282 334 406
#
# _framework density 22.676279999999998
#
# number of rings (size 3 to 8) (size 9 to 14) (size 15 to 20)
#    0.000    0.933    3.333    3.000    1.867    6.133 
#    0.000    1.333    0.000    1.600    0.000    0.000 
#    0.000    0.000    0.000    0.000    0.000    0.000 
#
# Total GULP energy -167364.586540 kJ/mol
# GULP energy per Si atom -5578.819551 kJ/mol
# Density = 2.262467 g / cm^3
# Si number density = 22.676280 Si / 1000 Ang^3
#
#
#
# Elastic Constant Matrix: (Units=GPa)
#
#
# Indices 1 2 3 4 5 6 
#
# 1 56.0324 8.7064 -10.0726 0.0000 -27.1339 0.0000
# 2 8.7064 132.5508 14.4412 0.0000 1.9461 0.0000
# 3 -10.0726 14.4412 78.9458 0.0000 -13.1850 0.0000
# 4 0.0000 0.0000 0.0000 3.4563 0.0000 -1.0400
# 5 -27.1339 1.9461 -13.1850 0.0000 28.9332 0.0000
# 6 0.0000 0.0000 0.0000 -1.0400 0.0000 19.5372
#
#
#
# Elastic Compliance Matrix: (Units=1/GPa)
#
#
# Indices 1 2 3 4 5 6 
#
# 1 0.045695 -0.005392 0.015190 0.000000 0.050138 0.000000
# 2 -0.005392 0.008376 -0.003419 0.000000 -0.007179 0.000000
# 3 0.015190 -0.003419 0.019102 0.000000 0.023180 0.000000
# 4 0.000000 0.000000 0.000000 0.294037 0.000000 0.015652
# 5 0.050138 -0.007179 0.023180 0.000000 0.092629 0.000000
# 6 0.000000 0.000000 0.000000 0.015652 0.000000 0.052018
#
#
# Mechanical properties :
#
#
# Convention : Reuss Voigt Hill
#
# Bulk Modulus (GPa) = 11.63734 32.63101 22.13417
# Shear Modulus (GPa) = 9.47432 27.34893 18.41162
#
# Velocity S-wave (km/s) = 2.04625 3.47660 2.85254
# Velocity P-wave (km/s) = 3.27505 5.52602 4.54218
#
# Compressibility (1/GPa) = 0.08593031
#
# Stress axis : x y z
#
# Youngs Moduli (GPa) = 21.88429 119.38315 52.35082
#
# Poissons Ratio (x) = 0.64377 -0.79522
# Poissons Ratio (y) = 0.11801 0.17900
# Poissons Ratio (z) = -0.33243 0.40820
#
# Static dielectric constant tensor:
#      x y z
#    x 1.951410 0.000000 0.049680 
#    y 0.000000 1.858060 0.000000 
#    z 0.049680 0.000000 1.846480 
# 
# From -- ./inp_files/63717.got.cif
#   From: 2010.05.17/outbox.cif.g08.bks.cpg/sg10_32_cif.got.tgz:63717.got - 2010.06.03 11:33:40.
