data_PCOD9150516
_publ_section_title
;
Structure prediction by ZEFSAII (Michael W. Deem and Ramdas Pophale) SiO2 
 PCOD9150516
Probable space group: P 2/M
;
_chemical_formula_sum "Si O2"
_cell_formula_units_Z 25
_cell_length_a 12.577454
_cell_length_b 15.012867
_cell_length_c 15.250767
_cell_angle_alpha 90.000000
_cell_angle_beta 152.073455
_cell_angle_gamma 90.000000
_cell_volume 1348.678954
_symmetry_space_group_name_H-M "P 2/M"
_symmetry_group_IT_number 10
_symmetry_cell_setting 'monoclinic'
loop_
_space_group_symop_operation_xyz
x,y,z
-x,y,-z
-x,-y,-z
x,-y,z
loop_
_atom_site_type_symbol
_atom_site_label
_atom_site_fract_x
_atom_site_fract_y
_atom_site_fract_z
Si Si1 0.377320 0.901387 0.004386
Si Si2 0.747046 0.640807 0.778201
Si Si3 0.249269 0.597709 0.425667
Si Si4 0.052953 0.788132 0.299019
Si Si5 0.205801 0.156140 0.214614
Si Si6 0.500000 0.000000 0.500000
Si Si7 0.183411 0.103423 0.560300
O O1 0.570258 0.892680 0.217447
O O2 0.265665 0.000000 0.934616
O O3 0.500000 0.902823 0.000000
O O4 0.205828 0.820087 0.882374
O O5 0.514098 0.602522 0.648219
O O6 0.750006 0.608522 0.679733
O O7 0.708663 0.747476 0.755116
O O8 0.000000 0.622054 0.000000
O O9 0.158383 0.500000 0.382488
O O10 0.108635 0.684296 0.352056
O O11 0.125426 0.821814 0.255459
O O12 0.173118 0.841751 0.464274
O O13 0.385940 0.078318 0.354717
O O14 0.000000 0.130843 0.000000
O O15 0.000000 0.133907 0.500000
O O16 0.127090 0.000000 0.500791
#
# Coordination Sequence:
#
# PCOD9150516 Si02
#       7
#     4   4   4   4   4   1   4
#     4  10  20  36  60  87 116 142 186 246 296 348
#     4   9  18  37  59  79 110 151 196 246 294 329
#     4  10  21  35  55  86 115 148 196 244 289 347
#     4  11  22  37  59  84 118 155 190 242 300 342
#     4  10  23  38  52  77 118 159 199 233 273 345
#     4  12  22  36  52  70 118 170 202 224 270 332
#     4  10  20  36  59  87 113 142 188 242 296 346
#
# _framework density 18.536657999999999
#
# number of rings (size 3 to 8) (size 9 to 14) (size 15 to 20)
#    0.000    1.920    1.600    3.600    2.240    6.400 
#    2.880    0.000    0.000    0.960    0.000    0.000 
#    0.000    0.000    0.000    0.000    0.000    0.000 
#
# Total GULP energy -139201.459892 kJ/mol
# GULP energy per Si atom -5568.058396 kJ/mol
# Density = 1.849447 g / cm^3
# Si number density = 18.536658 Si / 1000 Ang^3
#
#
#
# Elastic Constant Matrix: (Units=GPa)
#
#
# Indices 1 2 3 4 5 6 
#
# 1 41.6552 36.5848 21.0799 0.0000 -7.2163 0.0000
# 2 36.5848 134.7417 62.1927 0.0000 5.4656 0.0000
# 3 21.0799 62.1927 128.4454 0.0000 -15.3279 0.0000
# 4 0.0000 0.0000 0.0000 15.9635 0.0000 4.7266
# 5 -7.2163 5.4656 -15.3279 0.0000 30.5127 0.0000
# 6 0.0000 0.0000 0.0000 4.7266 0.0000 11.2139
#
#
#
# Elastic Compliance Matrix: (Units=1/GPa)
#
#
# Indices 1 2 3 4 5 6 
#
# 1 0.034231 -0.009867 0.000358 0.000000 0.010043 0.000000
# 2 -0.009867 0.012962 -0.005545 0.000000 -0.007441 0.000000
# 3 0.000358 -0.005545 0.011212 0.000000 0.006710 0.000000
# 4 0.000000 0.000000 0.000000 0.071575 0.000000 -0.030168
# 5 0.010043 -0.007441 0.006710 0.000000 0.039852 0.000000
# 6 0.000000 0.000000 0.000000 -0.030168 0.000000 0.101891
#
#
# Mechanical properties :
#
#
# Convention : Reuss Voigt Hill
#
# Bulk Modulus (GPa) = 35.33809 60.50633 47.92221
# Shear Modulus (GPa) = 16.06360 23.87037 19.96699
#
# Velocity S-wave (km/s) = 2.94698 3.59240 3.28558
# Velocity P-wave (km/s) = 5.53939 7.06537 6.34840
#
# Compressibility (1/GPa) = 0.02829808
#
# Stress axis : x y z
#
# Youngs Moduli (GPa) = 29.21302 77.15013 89.18988
#
# Poissons Ratio (x) = 0.76125 -0.03195
# Poissons Ratio (y) = 0.28825 0.49452
# Poissons Ratio (z) = -0.01046 0.42777
#
# Static dielectric constant tensor:
#      x y z
#    x 1.639580 0.000000 0.021860 
#    y 0.000000 1.651040 0.000000 
#    z 0.021860 0.000000 1.680730 
# 
# From -- ./inp_files/65191.got.cif
#   From: 2010.05.17/outbox.cif.g08.bks.cpg/sg10_33_cif.got.tgz:65191.got - 2010.06.03 11:33:40.
