data_PCOD9150946
_publ_section_title
;
Structure prediction by ZEFSAII (Michael W. Deem and Ramdas Pophale) SiO2 
 PCOD9150946
Probable space group: P 2/M
;
_chemical_formula_sum "Si O2"
_cell_formula_units_Z 30
_cell_length_a 16.005732
_cell_length_b 7.486133
_cell_length_c 11.092179
_cell_angle_alpha 90.000000
_cell_angle_beta 93.487188
_cell_angle_gamma 90.000000
_cell_volume 1326.615522
_symmetry_space_group_name_H-M "P 2/M"
_symmetry_group_IT_number 10
_symmetry_cell_setting 'monoclinic'
loop_
_space_group_symop_operation_xyz
x,y,z
-x,y,-z
-x,-y,-z
x,-y,z
loop_
_atom_site_type_symbol
_atom_site_label
_atom_site_fract_x
_atom_site_fract_y
_atom_site_fract_z
Si Si1 0.919932 0.000000 0.275314
Si Si2 0.031500 0.711181 0.140036
Si Si3 0.635116 0.205414 0.188634
Si Si4 0.318806 0.717238 0.427207
Si Si5 0.610251 0.795644 0.927872
Si Si6 0.519344 0.701696 0.678547
Si Si7 0.213140 0.703558 0.650893
Si Si8 0.774256 0.284910 0.824859
O O1 0.978612 0.157357 0.218230
O O2 0.858800 0.156973 0.327859
O O3 0.024206 0.500000 0.174075
O O4 0.129408 0.762506 0.152310
O O5 0.000000 0.726808 0.000000
O O6 0.567223 0.212090 0.289173
O O7 0.720060 0.299371 0.234114
O O8 0.656231 0.000000 0.166059
O O9 0.594854 0.275505 0.060645
O O10 0.324325 0.500000 0.427015
O O11 0.414094 0.779699 0.410848
O O12 0.269761 0.766207 0.542720
O O13 0.262693 0.771350 0.307792
O O14 0.572114 0.699156 0.808766
O O15 0.710403 0.790628 0.917674
O O16 0.579391 0.000000 0.916194
O O17 0.498074 0.500000 0.641392
O O18 0.183763 0.500000 0.625525
O O19 0.768784 0.500000 0.831747
#
# Coordination Sequence:
#
# PCOD9150946 Si02
#       8
#     2   4   4   4   4   4   4   4
#     4  12  25  44  63  93 129 158 204 261 308 368
#     4  10  23  41  67  98 129 165 201 247 308 373
#     4  11  23  38  55  87 127 161 206 259 309 362
#     4   8  18  40  63  84 118 160 207 256 303 358
#     4  10  21  34  56  87 126 163 195 249 310 365
#     4  10  20  37  60  87 120 161 208 257 303 361
#     4  11  24  43  64  86 121 169 209 254 310 364
#     4   9  19  38  63  90 119 157 202 249 304 367
#
# _framework density 22.613938000000001
#
# number of rings (size 3 to 8) (size 9 to 14) (size 15 to 20)
#    0.000    2.000    0.667    3.000    2.800    4.267 
#    6.000    4.000    0.000    3.200    0.000    0.000 
#    0.000    0.000    0.000    0.000    0.000    0.000 
#
# Total GULP energy -167148.621931 kJ/mol
# GULP energy per Si atom -5571.620731 kJ/mol
# Density = 2.256247 g / cm^3
# Si number density = 22.613938 Si / 1000 Ang^3
#
#
#
# Elastic Constant Matrix: (Units=GPa)
#
#
# Indices 1 2 3 4 5 6 
#
# 1 120.3622 37.3983 43.3929 0.0000 -37.3902 0.0000
# 2 37.3983 104.9090 14.4458 0.0000 -18.4202 0.0000
# 3 43.3929 14.4458 63.3922 0.0000 -12.6573 0.0000
# 4 0.0000 0.0000 0.0000 17.1211 0.0000 -13.9263
# 5 -37.3902 -18.4202 -12.6573 0.0000 35.8485 0.0000
# 6 0.0000 0.0000 0.0000 -13.9263 0.0000 36.7468
#
#
#
# Elastic Compliance Matrix: (Units=1/GPa)
#
#
# Indices 1 2 3 4 5 6 
#
# 1 0.015678 -0.002345 -0.007717 0.000000 0.012423 0.000000
# 2 -0.002345 0.010947 -0.000274 0.000000 0.003082 0.000000
# 3 -0.007717 -0.000274 0.020962 0.000000 -0.000788 0.000000
# 4 0.000000 0.000000 0.000000 0.084436 0.000000 0.031999
# 5 0.012423 0.003082 -0.000788 0.000000 0.042157 0.000000
# 6 0.000000 0.000000 0.000000 0.031999 0.000000 0.039340
#
#
# Mechanical properties :
#
#
# Convention : Reuss Voigt Hill
#
# Bulk Modulus (GPa) = 37.15386 53.23748 45.19567
# Shear Modulus (GPa) = 20.56216 30.83837 25.70027
#
# Velocity S-wave (km/s) = 3.01868 3.69682 3.37483
# Velocity P-wave (km/s) = 5.34932 6.46645 5.93423
#
# Compressibility (1/GPa) = 0.02691510
#
# Stress axis : x y z
#
# Youngs Moduli (GPa) = 63.78296 91.34939 47.70468
#
# Poissons Ratio (x) = 0.21423 0.36814
# Poissons Ratio (y) = 0.14958 0.01306
# Poissons Ratio (z) = 0.49222 0.02502
#
# Static dielectric constant tensor:
#      x y z
#    x 1.840180 0.000000 0.082900 
#    y 0.000000 1.812690 0.000000 
#    z 0.082900 0.000000 2.028420 
# 
# From -- ./inp_files/49305.got.cif
#   From: 2010.05.17/outbox.cif.g08.bks.cpg/sg10_25_cif.got.tgz:49305.got - 2010.06.03 11:33:40.
