data_PCOD9150923
_publ_section_title
;
Structure prediction by ZEFSAII (Michael W. Deem and Ramdas Pophale) SiO2 
 PCOD9150923
Probable space group: P 2/M
;
_chemical_formula_sum "Si O2"
_cell_formula_units_Z 28
_cell_length_a 25.499703
_cell_length_b 7.644161
_cell_length_c 22.607171
_cell_angle_alpha 90.000000
_cell_angle_beta 162.614089
_cell_angle_gamma 90.000000
_cell_volume 1316.741970
_symmetry_space_group_name_H-M "P 2/M"
_symmetry_group_IT_number 10
_symmetry_cell_setting 'monoclinic'
loop_
_space_group_symop_operation_xyz
x,y,z
-x,y,-z
-x,-y,-z
x,-y,z
loop_
_atom_site_type_symbol
_atom_site_label
_atom_site_fract_x
_atom_site_fract_y
_atom_site_fract_z
Si Si1 0.849800 0.214410 0.504098
Si Si2 0.582149 0.201899 0.439981
Si Si3 0.900347 0.786236 0.332579
Si Si4 0.866903 0.205306 0.655591
Si Si5 0.513282 0.786560 0.945886
Si Si6 0.208911 0.708336 0.219097
Si Si7 0.779288 0.298688 0.899117
O O1 0.879893 0.276760 0.603266
O O2 0.994223 0.271633 0.611780
O O3 0.854896 0.000000 0.509352
O O4 0.658257 0.267794 0.274593
O O5 0.710287 0.278904 0.527723
O O6 0.690033 0.209497 0.617394
O O7 0.394625 0.288414 0.248944
O O8 0.544403 0.000000 0.385319
O O9 0.698614 0.729602 0.118546
O O10 0.000000 0.733031 0.500000
O O11 0.901432 0.000000 0.333713
O O12 0.826680 0.000000 0.606120
O O13 0.051439 0.217673 0.888013
O O14 0.513467 0.000000 0.946294
O O15 0.500000 0.731800 0.000000
O O16 0.246509 0.500000 0.263464
O O17 0.260570 0.773710 0.209407
O O18 0.000000 0.734232 0.000000
O O19 0.828598 0.500000 0.942271
#
# Coordination Sequence:
#
# PCOD9150923 Si02
#       7
#     4   4   4   4   4   4   4
#     4   9  17  28  42  64  98 138 176 214 261 319
#     4  11  23  37  57  84 116 149 183 225 278 335
#     4   9  14  21  37  61  89 128 173 213 254 307
#     4  10  22  38  54  77 113 153 186 222 274 334
#     4   9  14  21  36  59  89 126 169 210 253 309
#     4  10  20  37  60  85 110 141 185 233 280 324
#     4  11  23  39  61  83 108 144 187 234 278 324
#
# _framework density 21.264607000000002
#
# number of rings (size 3 to 8) (size 9 to 14) (size 15 to 20)
#    0.000    2.143    2.857    1.286    0.000    4.857 
#    0.000    4.286    0.000    0.000    0.000    0.000 
#    0.000    1.143    0.000    0.143    0.000    0.000 
#
# Total GULP energy -156402.706105 kJ/mol
# GULP energy per Si atom -5585.810932 kJ/mol
# Density = 2.121621 g / cm^3
# Si number density = 21.264607 Si / 1000 Ang^3
#
#
#
# Elastic Constant Matrix: (Units=GPa)
#
#
# Indices 1 2 3 4 5 6 
#
# 1 198.7458 2.6855 72.3876 0.0000 16.0052 0.0000
# 2 2.6855 37.8393 -5.3788 0.0000 0.4843 0.0000
# 3 72.3876 -5.3788 69.8373 0.0000 25.7364 0.0000
# 4 0.0000 0.0000 0.0000 20.9781 0.0000 2.2147
# 5 16.0052 0.4843 25.7364 0.0000 36.6659 0.0000
# 6 0.0000 0.0000 0.0000 2.2147 0.0000 1.1042
#
#
#
# Elastic Compliance Matrix: (Units=1/GPa)
#
#
# Indices 1 2 3 4 5 6 
#
# 1 0.008530 -0.002116 -0.010309 0.000000 0.003541 0.000000
# 2 -0.002116 0.027406 0.005527 0.000000 -0.003318 0.000000
# 3 -0.010309 0.005527 0.032103 0.000000 -0.018106 0.000000
# 4 0.000000 0.000000 0.000000 0.060474 0.000000 -0.121297
# 5 0.003541 -0.003318 -0.018106 0.000000 0.038481 0.000000
# 6 0.000000 0.000000 0.000000 -0.121297 0.000000 1.148956
#
#
# Mechanical properties :
#
#
# Convention : Reuss Voigt Hill
#
# Bulk Modulus (GPa) = 18.43606 49.53454 33.98530
# Shear Modulus (GPa) = 3.70968 27.53150 15.62059
#
# Velocity S-wave (km/s) = 1.32224 3.60211 2.71326
# Velocity P-wave (km/s) = 3.31960 6.37536 5.08257
#
# Compressibility (1/GPa) = 0.05424152
#
# Stress axis : x y z
#
# Youngs Moduli (GPa) = 117.23606 36.48860 31.15002
#
# Poissons Ratio (x) = 0.07721 0.32113
# Poissons Ratio (y) = 0.24808 -0.17216
# Poissons Ratio (z) = 1.20859 -0.20166
#
# Static dielectric constant tensor:
#      x y z
#    x 1.776440 0.000000 0.009000 
#    y 0.000000 1.795530 0.000000 
#    z 0.009000 0.000000 1.709860 
# 
# From -- ./inp_files/86524.got.cif
#   From: 2010.05.17/outbox.cif.g08.bks.cpg/sg10_44_cif.got.tgz:86524.got - 2010.06.03 11:33:40.
