data_PCOD9150266
_publ_section_title
;
Structure prediction by ZEFSAII (Michael W. Deem and Ramdas Pophale) SiO2 
 PCOD9150266
Probable space group: P 2/M
;
_chemical_formula_sum "Si O2"
_cell_formula_units_Z 32
_cell_length_a 25.525464
_cell_length_b 8.836144
_cell_length_c 15.892171
_cell_angle_alpha 90.000000
_cell_angle_beta 149.190294
_cell_angle_gamma 90.000000
_cell_volume 1835.901471
_symmetry_space_group_name_H-M "P 2/M"
_symmetry_group_IT_number 10
_symmetry_cell_setting 'monoclinic'
loop_
_space_group_symop_operation_xyz
x,y,z
-x,y,-z
-x,-y,-z
x,-y,z
loop_
_atom_site_type_symbol
_atom_site_label
_atom_site_fract_x
_atom_site_fract_y
_atom_site_fract_z
Si Si1 0.187132 0.181794 0.585655
Si Si2 0.437548 0.317970 0.330128
Si Si3 0.730958 0.180209 0.485665
Si Si4 0.063624 0.318244 0.168840
Si Si5 0.979356 0.681510 0.237041
Si Si6 0.296793 0.681869 0.898926
Si Si7 0.522919 0.319234 0.265730
Si Si8 0.230000 0.180791 0.983749
O O1 0.245295 0.221692 0.578784
O O2 0.245297 0.250845 0.745219
O O3 0.073679 0.250239 0.419933
O O4 0.181785 0.000000 0.584799
O O5 0.500000 0.279922 0.500000
O O6 0.420031 0.500000 0.304705
O O7 0.501046 0.280386 0.333235
O O8 0.328844 0.236158 0.172513
O O9 0.823955 0.248188 0.668216
O O10 0.622147 0.240104 0.365877
O O11 0.733915 0.000000 0.495761
O O12 0.074173 0.500000 0.178767
O O13 0.004471 0.282773 0.174021
O O14 0.000000 0.266658 0.000000
O O15 0.976553 0.500000 0.242534
O O16 0.873229 0.753226 0.119270
O O17 0.286728 0.500000 0.887342
O O18 0.245993 0.751422 0.912409
O O19 0.417794 0.718511 0.071987
O O20 0.537353 0.500000 0.280827
O O21 0.226553 0.000000 0.975504
#
# Coordination Sequence:
#
# PCOD9150266 Si02
#       8
#     4   4   4   4   4   4   4   4
#     4  10  21  37  55  79 109 139 174 218 268 316
#     4   9  19  37  58  79 106 142 183 224 264 310
#     4  10  21  35  53  78 110 143 173 213 265 319
#     4   9  19  36  57  79 104 138 180 222 262 307
#     4  10  20  36  57  79 106 141 180 220 262 314
#     4  10  21  38  58  80 105 138 180 221 263 312
#     4   9  19  35  55  78 105 138 178 221 260 307
#     4  11  22  36  55  80 111 142 174 218 269 319
#
# _framework density 17.430129999999998
#
# number of rings (size 3 to 8) (size 9 to 14) (size 15 to 20)
#    0.000    2.250    0.000    3.375    0.000    7.000 
#    0.000   10.000    0.000    0.000    0.000    0.000 
#    0.000    0.000    0.000    0.000    0.000    0.000 
#
# Total GULP energy -178647.125570 kJ/mol
# GULP energy per Si atom -5582.722674 kJ/mol
# Density = 1.739046 g / cm^3
# Si number density = 17.430130 Si / 1000 Ang^3
#
#
#
# Elastic Constant Matrix: (Units=GPa)
#
#
# Indices 1 2 3 4 5 6 
#
# 1 102.1299 57.4351 112.8290 0.0000 18.3727 0.0000
# 2 57.4351 66.6706 74.1148 0.0000 5.7282 0.0000
# 3 112.8290 74.1148 179.5884 0.0000 -5.8641 0.0000
# 4 0.0000 0.0000 0.0000 -4.0348 0.0000 -2.5979
# 5 18.3727 5.7282 -5.8641 0.0000 38.4750 0.0000
# 6 0.0000 0.0000 0.0000 -2.5979 0.0000 25.1391
#
#
#
# Elastic Compliance Matrix: (Units=1/GPa)
#
#
# Indices 1 2 3 4 5 6 
#
# 1 0.057390 -0.010320 -0.032805 0.000000 -0.030868 0.000000
# 2 -0.010320 0.030968 -0.006318 0.000000 -0.000645 0.000000
# 3 -0.032805 -0.006318 0.029475 0.000000 0.021098 0.000000
# 4 0.000000 0.000000 0.000000 -0.232380 0.000000 -0.024014
# 5 -0.030868 -0.000645 0.021098 0.000000 0.044043 0.000000
# 6 0.000000 0.000000 0.000000 -0.024014 0.000000 0.037297
#
#
# Mechanical properties :
#
#
# Convention : Reuss Voigt Hill
#
# Bulk Modulus (GPa) = 52.77799 93.01631 72.89715
# Shear Modulus (GPa) = 69.45082 18.84986 44.15034
#
# Velocity S-wave (km/s) = 6.31916 3.29211 5.03834
# Velocity P-wave (km/s) = 9.14264 8.24207 8.70401
#
# Compressibility (1/GPa) = 0.01894729
#
# Stress axis : x y z
#
# Youngs Moduli (GPa) = 17.42468 32.29130 33.92746
#
# Poissons Ratio (x) = 0.33325 1.11299
# Poissons Ratio (y) = 0.17982 0.21434
# Poissons Ratio (z) = 0.57162 0.20401
#
# Static dielectric constant tensor:
#      x y z
#    x 1.574670 0.000000 -0.009180 
#    y 0.000000 1.579830 0.000000 
#    z -0.009180 0.000000 1.565680 
# 
# From -- ./inp_files/71448.got.cif
#   From: 2010.05.17/outbox.cif.g08.bks.cpg/sg10_36_cif.got.tgz:71448.got - 2010.06.03 11:33:40.
