data_PCOD9150083
_publ_section_title
;
Structure prediction by ZEFSAII (Michael W. Deem and Ramdas Pophale) SiO2 
 PCOD9150083
Probable space group: P 2/M
;
_chemical_formula_sum "Si O2"
_cell_formula_units_Z 20
_cell_length_a 7.857118
_cell_length_b 13.154536
_cell_length_c 15.412463
_cell_angle_alpha 90.000000
_cell_angle_beta 37.501706
_cell_angle_gamma 90.000000
_cell_volume 969.783601
_symmetry_space_group_name_H-M "P 2/M"
_symmetry_group_IT_number 10
_symmetry_cell_setting 'monoclinic'
loop_
_space_group_symop_operation_xyz
x,y,z
-x,y,-z
-x,-y,-z
x,-y,z
loop_
_atom_site_type_symbol
_atom_site_label
_atom_site_fract_x
_atom_site_fract_y
_atom_site_fract_z
Si Si1 0.186063 0.677132 0.791053
Si Si2 0.397854 0.675604 0.900987
Si Si3 0.757072 0.885187 0.330377
Si Si4 0.202712 0.500000 0.291857
Si Si5 0.580613 0.500000 0.593816
Si Si6 0.373868 0.890145 0.147738
O O1 0.276951 0.660378 0.853713
O O2 0.238353 0.791998 0.738278
O O3 0.382195 0.597907 0.661092
O O4 0.852008 0.658683 0.929145
O O5 0.654226 0.598842 0.807761
O O6 0.497185 0.791525 0.862151
O O7 0.500000 0.875148 0.500000
O O8 0.042745 0.878997 0.269881
O O9 0.750203 0.000000 0.294493
O O10 0.303907 0.500000 0.352586
O O11 0.868335 0.500000 0.424060
O O12 0.436278 0.000000 0.163948
O O13 0.500000 0.892527 0.000000
#
# Coordination Sequence:
#
# PCOD9150083 Si02
#       6
#     4   4   4   2   2   4
#     4  10  20  36  58  84 111 143 185 227 270 323
#     4  10  20  35  59  85 110 142 184 230 270 320
#     4  10  22  39  57  79 113 151 181 220 277 331
#     4   9  19  35  55  81 111 145 181 223 278 325
#     4   9  19  35  55  79 113 148 177 222 278 328
#     4  10  20  37  57  80 112 148 182 219 274 331
#
# _framework density 20.623159000000001
#
# number of rings (size 3 to 8) (size 9 to 14) (size 15 to 20)
#    0.000    2.200    2.000    0.600    2.800    3.200 
#    0.000    4.000    0.000    3.600    0.000    0.000 
#    0.000    0.000    0.000    0.000    0.000    0.000 
#
# Total GULP energy -111608.451081 kJ/mol
# GULP energy per Si atom -5580.422554 kJ/mol
# Density = 2.057622 g / cm^3
# Si number density = 20.623159 Si / 1000 Ang^3
#
#
#
# Elastic Constant Matrix: (Units=GPa)
#
#
# Indices 1 2 3 4 5 6 
#
# 1 25.8488 19.2503 27.6765 0.0000 -4.5534 0.0000
# 2 19.2503 158.8384 80.2044 0.0000 -22.6556 0.0000
# 3 27.6765 80.2044 182.5340 0.0000 -43.2193 0.0000
# 4 0.0000 0.0000 0.0000 31.9919 0.0000 -2.1346
# 5 -4.5534 -22.6556 -43.2193 0.0000 25.9023 0.0000
# 6 0.0000 0.0000 0.0000 -2.1346 0.0000 41.7839
#
#
#
# Elastic Compliance Matrix: (Units=1/GPa)
#
#
# Indices 1 2 3 4 5 6 
#
# 1 0.047774 -0.002941 -0.007558 0.000000 -0.006785 0.000000
# 2 -0.002941 0.008328 -0.002663 0.000000 0.002324 0.000000
# 3 -0.007558 -0.002663 0.011453 0.000000 0.015452 0.000000
# 4 0.000000 0.000000 0.000000 0.031365 0.000000 0.001602
# 5 -0.006785 0.002324 0.015452 0.000000 0.065229 0.000000
# 6 0.000000 0.000000 0.000000 0.001602 0.000000 0.024015
#
#
# Mechanical properties :
#
#
# Convention : Reuss Voigt Hill
#
# Bulk Modulus (GPa) = 24.25372 69.05372 46.65372
# Shear Modulus (GPa) = 21.90743 35.94162 28.92452
#
# Velocity S-wave (km/s) = 3.26279 4.17919 3.74909
# Velocity P-wave (km/s) = 5.09709 7.53948 6.43522
#
# Compressibility (1/GPa) = 0.04123079
#
# Stress axis : x y z
#
# Youngs Moduli (GPa) = 20.93188 120.07062 87.31079
#
# Poissons Ratio (x) = 0.35318 0.65987
# Poissons Ratio (y) = 0.06157 0.23254
# Poissons Ratio (z) = 0.15820 0.31979
#
# Static dielectric constant tensor:
#      x y z
#    x 1.745710 0.000000 0.015500 
#    y 0.000000 1.744820 0.000000 
#    z 0.015500 0.000000 1.736430 
# 
# From -- ./inp_files/17964.got.cif
#   From: 2010.05.17/outbox.cif.g08.bks.cpg/sg10_9_cif.got.tgz:17964.got - 2010.06.03 11:33:40.
