data_PCOD9150644
_publ_section_title
;
Structure prediction by ZEFSAII (Michael W. Deem and Ramdas Pophale) SiO2 
 PCOD9150644
Probable space group: P 2/M
;
_chemical_formula_sum "Si O2"
_cell_formula_units_Z 30
_cell_length_a 8.180308
_cell_length_b 25.496954
_cell_length_c 13.900547
_cell_angle_alpha 90.000000
_cell_angle_beta 32.943569
_cell_angle_gamma 90.000000
_cell_volume 1576.664319
_symmetry_space_group_name_H-M "P 2/M"
_symmetry_group_IT_number 10
_symmetry_cell_setting 'monoclinic'
loop_
_space_group_symop_operation_xyz
x,y,z
-x,y,-z
-x,-y,-z
x,-y,z
loop_
_atom_site_type_symbol
_atom_site_label
_atom_site_fract_x
_atom_site_fract_y
_atom_site_fract_z
Si Si1 0.361352 0.727784 0.806072
Si Si2 0.654380 0.363856 0.321815
Si Si3 0.534182 0.059349 0.314937
Si Si4 0.375657 0.642773 0.958057
Si Si5 0.642039 0.438392 0.689152
Si Si6 0.983657 0.058890 0.268581
Si Si7 0.500000 0.140684 0.000000
Si Si8 0.348538 0.160189 0.860926
O O1 0.427765 0.693680 0.679174
O O2 0.458862 0.690268 0.845286
O O3 0.479703 0.786861 0.748283
O O4 0.000000 0.731411 0.000000
O O5 0.500000 0.371729 0.500000
O O6 0.528597 0.407575 0.311304
O O7 0.016476 0.365334 0.140641
O O8 0.818982 0.065987 0.246478
O O9 0.258367 0.061700 0.526116
O O10 0.519289 0.105507 0.244501
O O11 0.545995 0.000000 0.267961
O O12 0.529587 0.590507 0.840571
O O13 0.500000 0.655535 0.000000
O O14 0.573532 0.500000 0.722679
O O15 0.000000 0.431836 0.500000
O O16 0.225297 0.103230 0.163245
O O17 0.110567 0.000000 0.206726
O O18 0.603778 0.168052 0.048032
O O19 0.000000 0.157386 0.000000
#
# Coordination Sequence:
#
# PCOD9150644 Si02
#       8
#     4   4   4   4   4   4   2   4
#     4   8  19  38  57  80 113 150 190 241 297 341
#     4  10  20  38  61  87 115 155 203 241 295 348
#     4   9  19  38  60  79 115 156 184 233 302 358
#     4  10  20  36  61  85 116 158 199 245 289 348
#     4  10  21  37  59  89 126 160 196 243 289 339
#     4   9  19  37  58  84 112 147 191 232 286 360
#     4  12  23  34  60  88 110 146 193 240 286 358
#     4  11  22  39  58  86 119 151 190 246 298 355
#
# _framework density 19.027511000000001
#
# number of rings (size 3 to 8) (size 9 to 14) (size 15 to 20)
#    0.000    2.267    1.333    3.000    0.933    3.467 
#    2.400    1.333   14.667    0.000    0.000    0.000 
#    0.000    0.000    0.000    0.000    0.000    0.000 
#
# Total GULP energy -167311.372746 kJ/mol
# GULP energy per Si atom -5577.045758 kJ/mol
# Density = 1.898420 g / cm^3
# Si number density = 19.027511 Si / 1000 Ang^3
#
#
#
# Elastic Constant Matrix: (Units=GPa)
#
#
# Indices 1 2 3 4 5 6 
#
# 1 64.8903 13.1635 -0.5403 0.0000 -0.2096 0.0000
# 2 13.1635 107.0682 10.9213 0.0000 -5.6996 0.0000
# 3 -0.5403 10.9213 28.7407 0.0000 -3.4007 0.0000
# 4 0.0000 0.0000 0.0000 18.1286 0.0000 2.3091
# 5 -0.2096 -5.6996 -3.4007 0.0000 24.1516 0.0000
# 6 0.0000 0.0000 0.0000 2.3091 0.0000 3.9776
#
#
#
# Elastic Compliance Matrix: (Units=1/GPa)
#
#
# Indices 1 2 3 4 5 6 
#
# 1 0.015838 -0.002066 0.001059 0.000000 -0.000201 0.000000
# 2 -0.002066 0.010064 -0.003645 0.000000 0.001844 0.000000
# 3 0.001059 -0.003645 0.036710 0.000000 0.004318 0.000000
# 4 0.000000 0.000000 0.000000 0.059566 0.000000 -0.034580
# 5 -0.000201 0.001844 0.004318 0.000000 0.042446 0.000000
# 6 0.000000 0.000000 0.000000 -0.034580 0.000000 0.271484
#
#
# Mechanical properties :
#
#
# Convention : Reuss Voigt Hill
#
# Bulk Modulus (GPa) = 18.75898 27.53204 23.14551
# Shear Modulus (GPa) = 10.79493 21.06187 15.92840
#
# Velocity S-wave (km/s) = 2.38446 3.33065 2.89645
# Velocity P-wave (km/s) = 4.17865 5.41220 4.83493
#
# Compressibility (1/GPa) = 0.05330780
#
# Stress axis : x y z
#
# Youngs Moduli (GPa) = 63.13974 99.36632 27.24078
#
# Poissons Ratio (x) = 0.20528 -0.02885
# Poissons Ratio (y) = 0.13044 0.09929
# Poissons Ratio (z) = -0.06687 0.36218
#
# Static dielectric constant tensor:
#      x y z
#    x 1.719260 0.000000 0.032650 
#    y 0.000000 1.662500 0.000000 
#    z 0.032650 0.000000 1.723380 
# 
# From -- ./inp_files/62659.got.cif
#   From: 2010.05.17/outbox.cif.g08.bks.cpg/sg10_32_cif.got.tgz:62659.got - 2010.06.03 11:33:40.
