data_PCOD9150192
_publ_section_title
;
Structure prediction by ZEFSAII (Michael W. Deem and Ramdas Pophale) SiO2 
 PCOD9150192
Probable space group: P 2/M
;
_chemical_formula_sum "Si O2"
_cell_formula_units_Z 32
_cell_length_a 26.888441
_cell_length_b 7.586003
_cell_length_c 21.305693
_cell_angle_alpha 90.000000
_cell_angle_beta 158.883095
_cell_angle_gamma 90.000000
_cell_volume 1565.686757
_symmetry_space_group_name_H-M "P 2/M"
_symmetry_group_IT_number 10
_symmetry_cell_setting 'monoclinic'
loop_
_space_group_symop_operation_xyz
x,y,z
-x,y,-z
-x,-y,-z
x,-y,z
loop_
_atom_site_type_symbol
_atom_site_label
_atom_site_fract_x
_atom_site_fract_y
_atom_site_fract_z
Si Si1 0.356487 0.288183 0.802559
Si Si2 0.652001 0.794727 0.849317
Si Si3 0.942467 0.790889 0.235264
Si Si4 0.932977 0.713286 0.485441
Si Si5 0.769235 0.211822 0.479021
Si Si6 0.844038 0.711430 0.819457
Si Si7 0.650033 0.713637 0.702471
Si Si8 0.651634 0.212609 0.473508
O O1 0.358586 0.500000 0.810747
O O2 0.222483 0.223665 0.683227
O O3 0.326633 0.249408 0.694264
O O4 0.500000 0.220686 0.000000
O O5 0.666099 0.783873 0.791106
O O6 0.503023 0.719608 0.693803
O O7 0.648452 0.000000 0.864506
O O8 0.792712 0.715316 0.042643
O O9 0.976916 0.765883 0.348608
O O10 0.076461 0.720042 0.355507
O O11 0.937467 0.000000 0.215557
O O12 0.928812 0.500000 0.478444
O O13 0.000000 0.776907 0.500000
O O14 0.709322 0.277225 0.474501
O O15 0.778695 0.000000 0.494641
O O16 0.851740 0.500000 0.834762
O O17 0.763088 0.776158 0.785627
O O18 0.754413 0.746361 0.651802
O O19 0.000000 0.780318 0.000000
O O20 0.500000 0.763618 0.500000
O O21 0.654829 0.500000 0.711440
O O22 0.644473 0.000000 0.461966
#
# Coordination Sequence:
#
# PCOD9150192 Si02
#       8
#     4   4   4   4   4   4   4   4
#     4   9  18  33  52  75 102 132 167 205 248 298
#     4  10  21  35  53  77 104 135 171 211 255 303
#     4   9  19  35  52  73 102 135 170 206 249 300
#     4   9  18  33  52  75 103 132 165 206 249 296
#     4   9  19  35  52  72 102 136 169 207 250 298
#     4  10  22  38  54  76 104 133 169 213 258 305
#     4  10  20  36  55  75 102 134 169 211 257 304
#     4  10  21  36  53  76 105 135 170 212 255 302
#
# _framework density 20.438314999999999
#
# number of rings (size 3 to 8) (size 9 to 14) (size 15 to 20)
#    0.000    2.500    1.250    0.000    1.750    3.500 
#    0.000    0.000    0.000    0.000    0.000    0.000 
#    0.000    0.000    0.000    0.000    0.000    0.000 
#
# Total GULP energy -178599.698953 kJ/mol
# GULP energy per Si atom -5581.240592 kJ/mol
# Density = 2.039180 g / cm^3
# Si number density = 20.438315 Si / 1000 Ang^3
#
#
#
# Elastic Constant Matrix: (Units=GPa)
#
#
# Indices 1 2 3 4 5 6 
#
# 1 171.8616 -5.5073 100.1909 0.0000 20.8079 0.0000
# 2 -5.5073 43.9356 1.9029 0.0000 7.7910 0.0000
# 3 100.1909 1.9029 208.5904 0.0000 18.0074 0.0000
# 4 0.0000 0.0000 0.0000 -8.2983 0.0000 -18.9452
# 5 20.8079 7.7910 18.0074 0.0000 20.1291 0.0000
# 6 0.0000 0.0000 0.0000 -18.9452 0.0000 13.8933
#
#
#
# Elastic Compliance Matrix: (Units=1/GPa)
#
#
# Indices 1 2 3 4 5 6 
#
# 1 0.008882 0.002486 -0.003699 0.000000 -0.006835 0.000000
# 2 0.002486 0.025213 -0.000390 0.000000 -0.011980 0.000000
# 3 -0.003699 -0.000390 0.006753 0.000000 -0.002066 0.000000
# 4 0.000000 0.000000 0.000000 -0.029298 0.000000 -0.039951
# 5 -0.006835 -0.011980 -0.002066 0.000000 0.063230 0.000000
# 6 0.000000 0.000000 0.000000 -0.039951 0.000000 0.017499
#
#
# Mechanical properties :
#
#
# Convention : Reuss Voigt Hill
#
# Bulk Modulus (GPa) = 26.56609 68.61786 47.59198
# Shear Modulus (GPa) = 46.28221 26.99823 36.64022
#
# Velocity S-wave (km/s) = 4.76382 3.63845 4.23865
# Velocity P-wave (km/s) = 6.57914 7.16220 6.87685
#
# Compressibility (1/GPa) = 0.03764197
#
# Stress axis : x y z
#
# Youngs Moduli (GPa) = 112.58490 39.66160 148.08813
#
# Poissons Ratio (x) = -0.09858 0.54777
# Poissons Ratio (y) = -0.27983 0.05771
# Poissons Ratio (z) = 0.41645 0.01546
#
# Static dielectric constant tensor:
#      x y z
#    x 1.708240 0.000000 0.033480 
#    y 0.000000 1.760140 0.000000 
#    z 0.033480 0.000000 1.720320 
# 
# From -- ./inp_files/80317.got.cif
#   From: 2010.05.17/outbox.cif.g08.bks.cpg/sg10_41_cif.got.tgz:80317.got - 2010.06.03 11:33:40.
