data_PCOD9150522
_publ_section_title
;
Structure prediction by ZEFSAII (Michael W. Deem and Ramdas Pophale) SiO2 
 PCOD9150522
Probable space group: P 2/M
;
_chemical_formula_sum "Si O2"
_cell_formula_units_Z 22
_cell_length_a 8.323462
_cell_length_b 25.254285
_cell_length_c 8.710562
_cell_angle_alpha 90.000000
_cell_angle_beta 33.878095
_cell_angle_gamma 90.000000
_cell_volume 1020.642936
_symmetry_space_group_name_H-M "P 2/M"
_symmetry_group_IT_number 10
_symmetry_cell_setting 'monoclinic'
loop_
_space_group_symop_operation_xyz
x,y,z
-x,y,-z
-x,-y,-z
x,-y,z
loop_
_atom_site_type_symbol
_atom_site_label
_atom_site_fract_x
_atom_site_fract_y
_atom_site_fract_z
Si Si1 0.881675 0.559463 0.917365
Si Si2 0.319143 0.000000 0.802212
Si Si3 0.613842 0.375338 0.584579
Si Si4 0.686467 0.270810 0.699544
Si Si5 0.264695 0.895583 0.051768
Si Si6 0.661172 0.834503 0.535849
O O1 0.913575 0.500000 0.831391
O O2 0.557610 0.578970 0.190787
O O3 0.000000 0.558521 0.000000
O O4 0.061116 0.604007 0.686191
O O5 0.500000 0.000000 0.500000
O O6 0.328190 0.947729 0.899685
O O7 0.000000 0.000000 0.000000
O O8 0.500000 0.371819 0.500000
O O9 0.552772 0.319546 0.713127
O O10 0.752573 0.221899 0.531106
O O11 0.000000 0.289864 0.500000
O O12 0.500000 0.256856 0.000000
O O13 0.391927 0.847716 0.856608
O O14 0.500000 0.901368 0.000000
O O15 0.926898 0.877939 0.343582
O O16 0.500000 0.834686 0.500000
#
# Coordination Sequence:
#
# PCOD9150522 Si02
#       6
#     4   2   4   4   4   4
#     4   9  17  31  56  88 118 151 198 255 308 362
#     4  12  25  44  69 100 137 178 223 266 313 370
#     4  10  20  36  59  87 118 155 203 254 306 370
#     4  12  25  42  63  89 124 164 206 257 318 379
#     4  12  25  44  69 100 135 172 214 264 323 380
#     4  12  25  44  69  97 128 167 216 267 319 380
#
# _framework density 21.555039000000001
#
# number of rings (size 3 to 8) (size 9 to 14) (size 15 to 20)
#    0.000    0.909    0.000    9.000    0.000    2.182 
#    0.000    8.182    0.000   10.909    0.000    0.000 
#    0.000    0.000    0.000    0.000    0.000    0.000 
#
# Total GULP energy -122578.596467 kJ/mol
# GULP energy per Si atom -5571.754385 kJ/mol
# Density = 2.150598 g / cm^3
# Si number density = 21.555039 Si / 1000 Ang^3
#
#
#
# Elastic Constant Matrix: (Units=GPa)
#
#
# Indices 1 2 3 4 5 6 
#
# 1 98.2279 20.8715 33.0841 0.0000 10.6661 0.0000
# 2 20.8715 101.3339 7.9873 0.0000 14.6327 0.0000
# 3 33.0841 7.9873 111.0303 0.0000 -7.9188 0.0000
# 4 0.0000 0.0000 0.0000 34.2218 0.0000 -0.7980
# 5 10.6661 14.6327 -7.9188 0.0000 21.8100 0.0000
# 6 0.0000 0.0000 0.0000 -0.7980 0.0000 22.4111
#
#
#
# Elastic Compliance Matrix: (Units=1/GPa)
#
#
# Indices 1 2 3 4 5 6 
#
# 1 0.012587 -0.001284 -0.004143 0.000000 -0.006798 0.000000
# 2 -0.001284 0.011257 -0.000945 0.000000 -0.007268 0.000000
# 3 -0.004143 -0.000945 0.010778 0.000000 0.006574 0.000000
# 4 0.000000 0.000000 0.000000 0.029245 0.000000 0.001041
# 5 -0.006798 -0.007268 0.006574 0.000000 0.056438 0.000000
# 6 0.000000 0.000000 0.000000 0.001041 0.000000 0.044658
#
#
# Mechanical properties :
#
#
# Convention : Reuss Voigt Hill
#
# Bulk Modulus (GPa) = 45.71185 48.27532 46.99359
# Shear Modulus (GPa) = 27.02698 32.26521 29.64609
#
# Velocity S-wave (km/s) = 3.54483 3.87314 3.71262
# Velocity P-wave (km/s) = 6.16502 6.51510 6.34248
#
# Compressibility (1/GPa) = 0.02187616
#
# Stress axis : x y z
#
# Youngs Moduli (GPa) = 79.44775 88.83481 92.78227
#
# Poissons Ratio (x) = 0.11409 0.38440
# Poissons Ratio (y) = 0.10203 0.08772
# Poissons Ratio (z) = 0.32915 0.08399
#
# Static dielectric constant tensor:
#      x y z
#    x 2.108540 0.000000 0.089200 
#    y 0.000000 1.883890 0.000000 
#    z 0.089200 0.000000 1.766080 
# 
# From -- ./inp_files/20733.got.cif
#   From: 2010.05.17/outbox.cif.g08.bks.cpg/sg10_11_cif.got.tgz:20733.got - 2010.06.03 11:33:40.
