data_PCOD9150715
_publ_section_title
;
Structure prediction by ZEFSAII (Michael W. Deem and Ramdas Pophale) SiO2 
 PCOD9150715
Probable space group: P 2/M
;
_chemical_formula_sum "Si O2"
_cell_formula_units_Z 25
_cell_length_a 10.821797
_cell_length_b 7.672844
_cell_length_c 20.976595
_cell_angle_alpha 90.000000
_cell_angle_beta 136.433855
_cell_angle_gamma 90.000000
_cell_volume 1200.412951
_symmetry_space_group_name_H-M "P 2/M"
_symmetry_group_IT_number 10
_symmetry_cell_setting 'monoclinic'
loop_
_space_group_symop_operation_xyz
x,y,z
-x,y,-z
-x,-y,-z
x,-y,z
loop_
_atom_site_type_symbol
_atom_site_label
_atom_site_fract_x
_atom_site_fract_y
_atom_site_fract_z
Si Si1 0.319540 0.795917 0.462932
Si Si2 0.703235 0.210058 0.062227
Si Si3 0.355599 0.293684 0.745761
Si Si4 0.949345 0.705067 0.273712
Si Si5 0.801934 0.210740 0.445033
Si Si6 0.000000 0.500000 0.000000
Si Si7 0.745000 0.201021 0.933285
O O1 0.500000 0.719378 0.500000
O O2 0.261070 0.722388 0.509793
O O3 0.146530 0.783979 0.352718
O O4 0.356666 0.000000 0.488483
O O5 0.841560 0.266595 0.168092
O O6 0.696264 0.000000 0.060097
O O7 0.500000 0.273523 0.000000
O O8 0.764138 0.261635 0.014227
O O9 0.368916 0.500000 0.763343
O O10 0.181059 0.226467 0.718849
O O11 0.328265 0.261265 0.661084
O O12 0.534627 0.207430 0.838897
O O13 0.973229 0.500000 0.292391
O O14 0.000000 0.275152 0.500000
O O15 0.810858 0.000000 0.451061
O O16 0.849844 0.343939 0.932058
O O17 0.803749 0.000000 0.948765
#
# Coordination Sequence:
#
# PCOD9150715 Si02
#       7
#     4   4   4   4   4   1   4
#     4  10  22  42  62  86 124 167 212 270 333 401
#     4  10  21  38  65  97 126 163 210 268 331 390
#     4  11  22  38  62  96 128 165 213 278 333 387
#     4  11  23  36  62  94 130 166 208 267 334 396
#     4  10  20  36  62  90 119 163 217 270 327 390
#     4  12  26  48  66  90 134 178 228 276 320 390
#     4  11  24  44  69  95 132 177 220 270 332 394
#
# _framework density 20.826166000000001
#
# number of rings (size 3 to 8) (size 9 to 14) (size 15 to 20)
#    0.000    1.440    4.000    1.200    1.120    2.880 
#    2.880    0.000    0.000    0.000    0.000    0.000 
#    0.000    0.000    0.000    0.000    0.000    0.000 
#
# Total GULP energy -139426.472897 kJ/mol
# GULP energy per Si atom -5577.058916 kJ/mol
# Density = 2.077876 g / cm^3
# Si number density = 20.826166 Si / 1000 Ang^3
#
#
#
# Elastic Constant Matrix: (Units=GPa)
#
#
# Indices 1 2 3 4 5 6 
#
# 1 93.2703 14.6158 65.9455 0.0000 16.6243 0.0000
# 2 14.6158 68.8376 -7.7051 0.0000 3.5976 0.0000
# 3 65.9455 -7.7051 124.6201 0.0000 -2.6076 0.0000
# 4 0.0000 0.0000 0.0000 44.0126 0.0000 7.1355
# 5 16.6243 3.5976 -2.6076 0.0000 37.2478 0.0000
# 6 0.0000 0.0000 0.0000 7.1355 0.0000 -14.3349
#
#
#
# Elastic Compliance Matrix: (Units=1/GPa)
#
#
# Indices 1 2 3 4 5 6 
#
# 1 0.022028 -0.005513 -0.012210 0.000000 -0.010154 0.000000
# 2 -0.005513 0.016076 0.003936 0.000000 0.001183 0.000000
# 3 -0.012210 0.003936 0.014857 0.000000 0.006109 0.000000
# 4 0.000000 0.000000 0.000000 0.021024 0.000000 0.010465
# 5 -0.010154 0.001183 0.006109 0.000000 0.031692 0.000000
# 6 0.000000 0.000000 0.000000 0.010465 0.000000 -0.064551
#
#
# Mechanical properties :
#
#
# Convention : Reuss Voigt Hill
#
# Bulk Modulus (GPa) = 39.38999 48.04894 43.71946
# Shear Modulus (GPa) = 64.79767 27.64324 46.22046
#
# Velocity S-wave (km/s) = 5.58401 3.64721 4.71610
# Velocity P-wave (km/s) = 7.78008 6.39200 7.11995
#
# Compressibility (1/GPa) = 0.02538716
#
# Stress axis : x y z
#
# Youngs Moduli (GPa) = 45.39646 62.20366 67.30933
#
# Poissons Ratio (x) = 0.34294 0.82185
# Poissons Ratio (y) = 0.25028 -0.26494
# Poissons Ratio (z) = 0.55429 -0.24484
#
# Static dielectric constant tensor:
#      x y z
#    x 1.791390 0.000000 0.003940 
#    y 0.000000 1.726690 0.000000 
#    z 0.003940 0.000000 1.721120 
# 
# From -- ./inp_files/82053.got.cif
#   From: 2010.05.17/outbox.cif.g08.bks.cpg/sg10_42_cif.got.tgz:82053.got - 2010.06.03 11:33:40.
