data_PCOD9150061
_publ_section_title
;
Structure prediction by ZEFSAII (Michael W. Deem and Ramdas Pophale) SiO2 
 PCOD9150061
Probable space group: P 2/M
;
_chemical_formula_sum "Si O2"
_cell_formula_units_Z 32
_cell_length_a 26.536368
_cell_length_b 9.004416
_cell_length_c 25.510546
_cell_angle_alpha 90.000000
_cell_angle_beta 15.982988
_cell_angle_gamma 90.000000
_cell_volume 1678.436485
_symmetry_space_group_name_H-M "P 2/M"
_symmetry_group_IT_number 10
_symmetry_cell_setting 'monoclinic'
loop_
_space_group_symop_operation_xyz
x,y,z
-x,y,-z
-x,-y,-z
x,-y,z
loop_
_atom_site_type_symbol
_atom_site_label
_atom_site_fract_x
_atom_site_fract_y
_atom_site_fract_z
Si Si1 0.000001 0.819449 0.921046
Si Si2 0.717598 0.321138 0.282402
Si Si3 0.723002 0.670817 0.883580
Si Si4 0.722995 0.670817 0.670421
Si Si5 0.723310 0.170674 0.776689
Si Si6 0.713636 0.821910 0.572029
Si Si7 0.000005 0.819774 0.799971
Si Si8 0.286352 0.178090 0.999313
O O1 0.176568 0.752066 0.774169
O O2 0.000002 0.773758 0.860186
O O3 0.999999 0.000000 0.925443
O O4 0.823434 0.752065 0.127303
O O5 0.500000 0.291621 0.500000
O O6 0.744242 0.500000 0.255759
O O7 0.778073 0.500000 0.828380
O O8 0.783243 0.750078 0.770073
O O9 0.500003 0.676242 0.106354
O O10 0.780134 0.749905 0.880075
O O11 0.778067 0.500000 0.615479
O O12 0.783240 0.750079 0.663442
O O13 0.780125 0.749905 0.559664
O O14 0.778597 0.000000 0.721402
O O15 0.500000 0.174755 0.000000
O O16 0.826669 0.773253 0.408261
O O17 0.499994 0.786621 0.779112
O O18 0.731468 0.000000 0.559307
O O19 0.000004 0.000000 0.801312
O O20 0.826681 0.773253 0.938388
O O21 0.268520 0.000000 0.022256
#
# Coordination Sequence:
#
# PCOD9150061 Si02
#       8
#     4   4   4   4   4   4   4   4
#     4  10  20  35  58  88 117 145 185 234 275 316
#     4  10  21  38  59  83 116 156 189 221 268 323
#     4   9  16  26  41  64  94 125 161 208 258 307
#     4   9  16  26  41  64  94 125 161 208 258 307
#     4   9  15  23  39  64  91 122 162 205 255 316
#     4   9  17  31  50  70  96 132 170 207 251 307
#     4   9  19  34  53  79 107 136 173 216 260 305
#     4   9  17  31  50  70  96 132 170 207 251 307
#
# _framework density 19.065363000000001
#
# number of rings (size 3 to 8) (size 9 to 14) (size 15 to 20)
#    0.000    2.750    0.000    2.625    0.000    6.500 
#    0.000    5.625    0.000    3.750    0.000    5.250 
#    0.000    0.000    0.000    0.000    0.000    0.000 
#
# Total GULP energy -178584.289262 kJ/mol
# GULP energy per Si atom -5580.759039 kJ/mol
# Density = 1.902197 g / cm^3
# Si number density = 19.065363 Si / 1000 Ang^3
#
#
#
# Elastic Constant Matrix: (Units=GPa)
#
#
# Indices 1 2 3 4 5 6 
#
# 1 222.6822 73.0091 86.6304 0.0000 27.4406 0.0000
# 2 73.0091 75.8275 51.9786 0.0000 5.8382 0.0000
# 3 86.6304 51.9786 120.1787 0.0000 1.0143 0.0000
# 4 0.0000 0.0000 0.0000 7.6158 0.0000 -5.6264
# 5 27.4406 5.8382 1.0143 0.0000 25.9355 0.0000
# 6 0.0000 0.0000 0.0000 -5.6264 0.0000 -12.6546
#
#
#
# Elastic Compliance Matrix: (Units=1/GPa)
#
#
# Indices 1 2 3 4 5 6 
#
# 1 0.008657 -0.004970 -0.004025 0.000000 -0.007884 0.000000
# 2 -0.004970 0.022002 -0.005938 0.000000 0.000538 0.000000
# 3 -0.004025 -0.005938 0.013748 0.000000 0.005057 0.000000
# 4 0.000000 0.000000 0.000000 0.098839 0.000000 -0.043946
# 5 -0.007884 0.000538 0.005057 0.000000 0.046579 0.000000
# 6 0.000000 0.000000 0.000000 -0.043946 0.000000 -0.059484
#
#
# Mechanical properties :
#
#
# Convention : Reuss Voigt Hill
#
# Bulk Modulus (GPa) = 68.76670 93.54720 81.15695
# Shear Modulus (GPa) = 30.29308 17.98404 24.13856
#
# Velocity S-wave (km/s) = 3.99043 3.07462 3.56208
# Velocity P-wave (km/s) = 7.57487 7.85987 7.71868
#
# Compressibility (1/GPa) = 0.01454192
#
# Stress axis : x y z
#
# Youngs Moduli (GPa) = 115.51043 45.45039 72.73949
#
# Poissons Ratio (x) = 0.22588 0.29274
# Poissons Ratio (y) = 0.57405 0.43195
# Poissons Ratio (z) = 0.46488 0.26990
#
# Static dielectric constant tensor:
#      x y z
#    x 1.635950 0.000000 -0.020870 
#    y 0.000000 1.635270 0.000000 
#    z -0.020870 0.000000 1.711130 
# 
# From -- ./inp_files/90609.got.cif
#   From: 2010.05.17/outbox.cif.g08.bks.cpg/sg10_46_cif.got.tgz:90609.got - 2010.06.03 11:33:40.
