data_PCOD9150445
_publ_section_title
;
Structure prediction by ZEFSAII (Michael W. Deem and Ramdas Pophale) SiO2 
 PCOD9150445
Probable space group: P 2/M
;
_chemical_formula_sum "Si O2"
_cell_formula_units_Z 24
_cell_length_a 20.023254
_cell_length_b 10.822228
_cell_length_c 15.659792
_cell_angle_alpha 90.000000
_cell_angle_beta 161.011885
_cell_angle_gamma 90.000000
_cell_volume 1104.123170
_symmetry_space_group_name_H-M "P 2/M"
_symmetry_group_IT_number 10
_symmetry_cell_setting 'monoclinic'
loop_
_space_group_symop_operation_xyz
x,y,z
-x,y,-z
-x,-y,-z
x,-y,z
loop_
_atom_site_type_symbol
_atom_site_label
_atom_site_fract_x
_atom_site_fract_y
_atom_site_fract_z
Si Si1 0.147159 0.361520 0.565710
Si Si2 0.133239 0.140423 0.241708
Si Si3 0.707997 0.635114 0.949408
Si Si4 0.353027 0.282118 0.638786
Si Si5 0.573591 0.864193 0.686108
Si Si6 0.652670 0.865567 0.104238
O O1 0.186949 0.500000 0.648012
O O2 0.279423 0.343925 0.638047
O O3 0.208550 0.251577 0.703530
O O4 0.910112 0.351970 0.251891
O O5 0.156541 0.230405 0.350150
O O6 0.364773 0.133360 0.487522
O O7 0.065243 0.000000 0.180063
O O8 0.000000 0.184714 0.000000
O O9 0.720363 0.500000 0.922229
O O10 0.501888 0.639250 0.758057
O O11 0.697992 0.748761 0.872027
O O12 0.503307 0.168640 0.846010
O O13 0.500000 0.848485 0.500000
O O14 0.672599 0.000000 0.814485
O O15 0.751828 0.000000 0.211898
O O16 0.500000 0.875115 0.000000
#
# Coordination Sequence:
#
# PCOD9150445 Si02
#       6
#     4   4   4   4   4   4
#     4  10  22  38  58  84 112 148 190 228 275 335
#     4   9  18  32  53  82 111 143 183 226 277 331
#     4  10  22  38  56  82 113 146 187 228 277 332
#     4  10  20  36  59  80 113 149 183 231 279 327
#     4   9  19  35  55  80 110 143 185 231 278 330
#     4   9  19  36  58  86 115 147 187 230 280 331
#
# _framework density 21.736704
#
# number of rings (size 3 to 8) (size 9 to 14) (size 15 to 20)
#    0.000    2.500    0.000    1.000    2.333    6.667 
#    0.000    2.500    0.000    2.500    0.000    0.000 
#    0.000    0.000    0.000    0.000    0.000    0.000 
#
# Total GULP energy -133964.723705 kJ/mol
# GULP energy per Si atom -5581.863488 kJ/mol
# Density = 2.168723 g / cm^3
# Si number density = 21.736704 Si / 1000 Ang^3
#
#
#
# Elastic Constant Matrix: (Units=GPa)
#
#
# Indices 1 2 3 4 5 6 
#
# 1 65.7382 25.0707 15.2967 0.0000 4.2197 0.0000
# 2 25.0707 197.6491 80.6559 0.0000 -22.9992 0.0000
# 3 15.2967 80.6559 105.4269 0.0000 -10.0587 0.0000
# 4 0.0000 0.0000 0.0000 29.3759 0.0000 -3.5284
# 5 4.2197 -22.9992 -10.0587 0.0000 35.4203 0.0000
# 6 0.0000 0.0000 0.0000 -3.5284 0.0000 -14.6750
#
#
#
# Elastic Compliance Matrix: (Units=1/GPa)
#
#
# Indices 1 2 3 4 5 6 
#
# 1 0.016494 -0.002029 -0.001186 0.000000 -0.003620 0.000000
# 2 -0.002029 0.007993 -0.005450 0.000000 0.003884 0.000000
# 3 -0.001186 -0.005450 0.013879 0.000000 0.000544 0.000000
# 4 0.000000 0.000000 0.000000 0.033086 0.000000 -0.007955
# 5 -0.003620 0.003884 0.000544 0.000000 0.031340 0.000000
# 6 0.000000 0.000000 0.000000 -0.007955 0.000000 -0.066231
#
#
# Mechanical properties :
#
#
# Convention : Reuss Voigt Hill
#
# Bulk Modulus (GPa) = 47.53950 67.87343 57.70646
# Shear Modulus (GPa) = 82.09799 26.54364 54.32081
#
# Velocity S-wave (km/s) = 6.15234 3.49828 5.00446
# Velocity P-wave (km/s) = 8.50802 6.90002 7.74586
#
# Compressibility (1/GPa) = 0.02103514
#
# Stress axis : x y z
#
# Youngs Moduli (GPa) = 60.62772 125.11296 72.05382
#
# Poissons Ratio (x) = 0.25391 0.08545
# Poissons Ratio (y) = 0.12304 0.39268
# Poissons Ratio (z) = 0.07190 0.68184
#
# Static dielectric constant tensor:
#      x y z
#    x 1.828760 0.000000 -0.000660 
#    y 0.000000 1.821780 0.000000 
#    z -0.000660 0.000000 1.784230 
# 
# From -- ./inp_files/70580.got.cif
#   From: 2010.05.17/outbox.cif.g08.bks.cpg/sg10_36_cif.got.tgz:70580.got - 2010.06.03 11:33:40.
