data_PCOD9150814
_publ_section_title
;
Structure prediction by ZEFSAII (Michael W. Deem and Ramdas Pophale) SiO2 
 PCOD9150814
Probable space group: P 2/M
;
_chemical_formula_sum "Si O2"
_cell_formula_units_Z 28
_cell_length_a 9.943736
_cell_length_b 8.936583
_cell_length_c 27.633807
_cell_angle_alpha 90.000000
_cell_angle_beta 37.747045
_cell_angle_gamma 90.000000
_cell_volume 1503.275062
_symmetry_space_group_name_H-M "P 2/M"
_symmetry_group_IT_number 10
_symmetry_cell_setting 'monoclinic'
loop_
_space_group_symop_operation_xyz
x,y,z
-x,y,-z
-x,-y,-z
x,-y,z
loop_
_atom_site_type_symbol
_atom_site_label
_atom_site_fract_x
_atom_site_fract_y
_atom_site_fract_z
Si Si1 0.832740 0.818754 0.814903
Si Si2 0.026022 0.322363 0.857302
Si Si3 0.737441 0.678379 0.576934
Si Si4 0.504854 0.178450 0.263255
Si Si5 0.692212 0.319752 0.481342
Si Si6 0.622954 0.170769 0.017134
Si Si7 0.102967 0.179615 0.312052
O O1 0.958618 0.745237 0.823991
O O2 0.921103 0.775747 0.737124
O O3 0.844255 0.000000 0.816972
O O4 0.573197 0.778932 0.891973
O O5 0.032143 0.500000 0.852152
O O6 0.836319 0.270325 0.948520
O O7 0.260871 0.257692 0.805403
O O8 0.702909 0.500000 0.594419
O O9 0.621394 0.767847 0.652533
O O10 0.648170 0.721924 0.549428
O O11 0.000000 0.703169 0.500000
O O12 0.342698 0.216382 0.265045
O O13 0.535618 0.000000 0.255787
O O14 0.500000 0.271040 0.500000
O O15 0.707510 0.500000 0.475786
O O16 0.919852 0.253962 0.397534
O O17 0.687378 0.000000 0.010525
O O18 0.500000 0.167589 0.000000
O O19 0.079433 0.000000 0.321362
#
# Coordination Sequence:
#
# PCOD9150814 Si02
#       7
#     4   4   4   4   4   4   4
#     4   9  19  37  59  84 113 145 182 228 278 327
#     4  11  22  35  56  85 114 145 185 228 273 328
#     4  10  20  37  58  79 108 146 185 224 271 326
#     4  11  23  38  57  81 112 148 188 230 274 325
#     4  10  22  38  56  80 112 146 181 223 274 330
#     4   8  15  32  57  81 110 145 181 224 274 324
#     4  10  22  39  58  82 111 145 186 229 275 325
#
# _framework density 18.626000999999999
#
# number of rings (size 3 to 8) (size 9 to 14) (size 15 to 20)
#    0.000    2.143    1.429    2.571    2.000    4.857 
#    0.000    0.714    0.000    4.286    0.000    0.000 
#    0.000    0.000    0.000    0.000    0.000    0.000 
#
# Total GULP energy -156283.587779 kJ/mol
# GULP energy per Si atom -5581.556706 kJ/mol
# Density = 1.858361 g / cm^3
# Si number density = 18.626001 Si / 1000 Ang^3
#
#
#
# Elastic Constant Matrix: (Units=GPa)
#
#
# Indices 1 2 3 4 5 6 
#
# 1 59.9390 16.3811 -8.9479 0.0000 -14.9209 0.0000
# 2 16.3811 39.8776 10.3002 0.0000 -14.9234 0.0000
# 3 -8.9479 10.3002 28.6918 0.0000 -14.5779 0.0000
# 4 0.0000 0.0000 0.0000 38.8853 0.0000 -15.3340
# 5 -14.9209 -14.9234 -14.5779 0.0000 31.9260 0.0000
# 6 0.0000 0.0000 0.0000 -15.3340 0.0000 22.4501
#
#
#
# Elastic Compliance Matrix: (Units=1/GPa)
#
#
# Indices 1 2 3 4 5 6 
#
# 1 0.026799 -0.009858 0.020728 0.000000 0.017381 0.000000
# 2 -0.009858 0.034538 -0.012515 0.000000 0.005823 0.000000
# 3 0.020728 -0.012515 0.062187 0.000000 0.032233 0.000000
# 4 0.000000 0.000000 0.000000 0.035197 0.000000 0.024040
# 5 0.017381 0.005823 0.032233 0.000000 0.056885 0.000000
# 6 0.000000 0.000000 0.000000 0.024040 0.000000 0.060963
#
#
# Mechanical properties :
#
#
# Convention : Reuss Voigt Hill
#
# Bulk Modulus (GPa) = 8.31712 18.21947 13.26830
# Shear Modulus (GPa) = 15.62808 26.03729 20.83268
#
# Velocity S-wave (km/s) = 2.89977 3.74291 3.34799
# Velocity P-wave (km/s) = 3.96063 5.33686 4.69940
#
# Compressibility (1/GPa) = 0.12023387
#
# Stress axis : x y z
#
# Youngs Moduli (GPa) = 37.31507 28.95388 16.08047
#
# Poissons Ratio (x) = 0.28542 -0.33331
# Poissons Ratio (y) = 0.36784 0.20124
# Poissons Ratio (z) = -0.77345 0.36235
#
# Static dielectric constant tensor:
#      x y z
#    x 1.642490 0.000000 -0.001370 
#    y 0.000000 1.620640 0.000000 
#    z -0.001370 0.000000 1.634930 
# 
# From -- ./inp_files/91940.got.cif
#   From: 2010.05.17/outbox.cif.g08.bks.cpg/sg10_46_cif.got.tgz:91940.got - 2010.06.03 11:33:40.
