data_PCOD9150586
_publ_section_title
;
Structure prediction by ZEFSAII (Michael W. Deem and Ramdas Pophale) SiO2 
 PCOD9150586
Probable space group: P 2/M
;
_chemical_formula_sum "Si O2"
_cell_formula_units_Z 28
_cell_length_a 14.918947
_cell_length_b 8.789886
_cell_length_c 12.956997
_cell_angle_alpha 90.000000
_cell_angle_beta 58.373907
_cell_angle_gamma 90.000000
_cell_volume 1446.786391
_symmetry_space_group_name_H-M "P 2/M"
_symmetry_group_IT_number 10
_symmetry_cell_setting 'monoclinic'
loop_
_space_group_symop_operation_xyz
x,y,z
-x,y,-z
-x,-y,-z
x,-y,z
loop_
_atom_site_type_symbol
_atom_site_label
_atom_site_fract_x
_atom_site_fract_y
_atom_site_fract_z
Si Si1 0.120769 0.185560 0.913289
Si Si2 0.893497 0.316880 0.505761
Si Si3 0.728035 0.182132 0.991505
Si Si4 0.501286 0.683010 0.179746
Si Si5 0.192961 0.181492 0.643394
Si Si6 0.418395 0.681202 0.457736
Si Si7 0.279503 0.683336 0.222010
O O1 0.195035 0.234926 0.962833
O O2 0.163973 0.235648 0.775931
O O3 0.122018 0.000000 0.912950
O O4 0.000000 0.233697 0.000000
O O5 0.892043 0.500000 0.497461
O O6 0.882325 0.247073 0.399641
O O7 0.794164 0.272328 0.637326
O O8 0.000000 0.272376 0.500000
O O9 0.609778 0.238501 0.084984
O O10 0.730287 0.000000 0.987234
O O11 0.759536 0.246778 0.861107
O O12 0.514332 0.500000 0.162889
O O13 0.469309 0.719153 0.316824
O O14 0.400555 0.727193 0.171376
O O15 0.310209 0.233313 0.543591
O O16 0.186218 0.000000 0.646488
O O17 0.500000 0.712578 0.500000
O O18 0.395926 0.500000 0.469610
O O19 0.276357 0.500000 0.216855
#
# Coordination Sequence:
#
# PCOD9150586 Si02
#       7
#     4   4   4   4   4   4   4
#     4   9  21  41  59  80 117 160 192 231 293 349
#     4  10  22  41  64  88 119 156 194 243 297 350
#     4  11  23  37  59  87 116 152 198 246 285 337
#     4  10  20  37  58  82 117 157 190 231 292 354
#     4  11  22  37  62  90 118 153 195 245 294 348
#     4  10  20  36  60  86 117 159 199 238 290 352
#     4  10  21  39  60  84 118 157 191 231 295 356
#
# _framework density 19.353235000000002
#
# number of rings (size 3 to 8) (size 9 to 14) (size 15 to 20)
#    0.000    1.857    1.429    2.143    2.000    4.000 
#    0.000    2.143    0.000    3.429    0.000    0.000 
#    0.000    0.000    0.000    0.000    0.000    0.000 
#
# Total GULP energy -156462.333401 kJ/mol
# GULP energy per Si atom -5587.940479 kJ/mol
# Density = 1.930919 g / cm^3
# Si number density = 19.353235 Si / 1000 Ang^3
#
#
#
# Elastic Constant Matrix: (Units=GPa)
#
#
# Indices 1 2 3 4 5 6 
#
# 1 109.9441 27.5590 39.9096 0.0000 23.8498 0.0000
# 2 27.5590 9.8602 15.3418 0.0000 8.7805 0.0000
# 3 39.9096 15.3418 84.3637 0.0000 29.8711 0.0000
# 4 0.0000 0.0000 0.0000 21.6116 0.0000 7.5628
# 5 23.8498 8.7805 29.8711 0.0000 40.0093 0.0000
# 6 0.0000 0.0000 0.0000 7.5628 0.0000 25.2532
#
#
#
# Elastic Compliance Matrix: (Units=1/GPa)
#
#
# Indices 1 2 3 4 5 6 
#
# 1 0.030514 -0.087564 0.001529 0.000000 -0.000115 0.000000
# 2 -0.087564 0.400766 -0.025552 0.000000 -0.016677 0.000000
# 3 0.001529 -0.025552 0.019186 0.000000 -0.009628 0.000000
# 4 0.000000 0.000000 0.000000 0.051688 0.000000 -0.015479
# 5 -0.000115 -0.016677 -0.009628 0.000000 0.035911 0.000000
# 6 0.000000 0.000000 0.000000 -0.015479 0.000000 0.044235
#
#
# Mechanical properties :
#
#
# Convention : Reuss Voigt Hill
#
# Bulk Modulus (GPa) = 4.39962 41.08764 22.74363
# Shear Modulus (GPa) = 5.67383 25.46534 15.56958
#
# Velocity S-wave (km/s) = 1.71408 3.63136 2.83944
# Velocity P-wave (km/s) = 2.48912 6.23368 4.74629
#
# Compressibility (1/GPa) = 0.22729232
#
# Stress axis : x y z
#
# Youngs Moduli (GPa) = 32.77132 2.49522 52.12165
#
# Poissons Ratio (x) = 0.21849 -0.07970
# Poissons Ratio (y) = 2.86960 1.33181
# Poissons Ratio (z) = -0.05011 0.06376
#
# Static dielectric constant tensor:
#      x y z
#    x 1.662590 0.000000 0.009850 
#    y 0.000000 1.659130 0.000000 
#    z 0.009850 0.000000 1.660330 
# 
# From -- ./inp_files/49346.got.cif
#   From: 2010.05.17/outbox.cif.g08.bks.cpg/sg10_25_cif.got.tgz:49346.got - 2010.06.03 11:33:40.
