data_PCOD9150394
_publ_section_title
;
Structure prediction by ZEFSAII (Michael W. Deem and Ramdas Pophale) SiO2 
 PCOD9150394
Probable space group: P 2/M
;
_chemical_formula_sum "Si O2"
_cell_formula_units_Z 32
_cell_length_a 24.216490
_cell_length_b 8.781820
_cell_length_c 15.165703
_cell_angle_alpha 90.000000
_cell_angle_beta 150.483568
_cell_angle_gamma 90.000000
_cell_volume 1588.975383
_symmetry_space_group_name_H-M "P 2/M"
_symmetry_group_IT_number 10
_symmetry_cell_setting 'monoclinic'
loop_
_space_group_symop_operation_xyz
x,y,z
-x,y,-z
-x,-y,-z
x,-y,z
loop_
_atom_site_type_symbol
_atom_site_label
_atom_site_fract_x
_atom_site_fract_y
_atom_site_fract_z
Si Si1 0.418316 0.671703 0.968926
Si Si2 0.864473 0.816060 0.008110
Si Si3 0.113469 0.181641 0.289183
Si Si4 0.251101 0.682687 0.321523
Si Si5 0.501880 0.682259 0.724466
Si Si6 0.119994 0.678900 0.641860
Si Si7 0.734428 0.182309 0.003715
Si Si8 0.791108 0.174512 0.395101
O O1 0.367248 0.500000 0.909782
O O2 0.478623 0.710592 0.144073
O O3 0.500000 0.660390 0.000000
O O4 0.329018 0.795493 0.814227
O O5 0.784357 0.752423 0.820836
O O6 0.814990 0.768328 0.034516
O O7 0.863595 0.000000 0.006224
O O8 0.991528 0.770395 0.157385
O O9 0.160666 0.263015 0.268593
O O10 0.200064 0.208673 0.489690
O O11 0.107956 0.000000 0.263662
O O12 0.249576 0.500000 0.315552
O O13 0.377385 0.732082 0.523451
O O14 0.508460 0.500000 0.720618
O O15 0.606937 0.757706 0.820403
O O16 0.122234 0.500000 0.662457
O O17 0.133776 0.714481 0.558455
O O18 0.000000 0.744716 0.500000
O O19 0.213947 0.754651 0.833543
O O20 0.733206 0.000000 0.004588
O O21 0.827501 0.000000 0.433692
#
# Coordination Sequence:
#
# PCOD9150394 Si02
#       8
#     4   4   4   4   4   4   4   4
#     4  10  20  36  58  83 118 163 201 240 297 361
#     4  10  23  43  64  88 121 162 204 254 318 372
#     4  10  22  41  63  89 125 163 200 252 314 371
#     4  11  24  41  64  93 121 158 207 259 312 366
#     4  10  22  40  60  86 126 166 202 251 310 366
#     4  11  23  38  58  86 122 162 200 243 300 362
#     4  11  23  40  64  91 122 162 209 256 303 364
#     4  11  22  36  58  89 120 155 200 245 292 353
#
# _framework density 20.138764999999999
#
# number of rings (size 3 to 8) (size 9 to 14) (size 15 to 20)
#    0.000    1.500    1.250    3.375    0.000    8.750 
#    0.000    2.500    0.000    0.000    0.000    0.000 
#    0.000    0.000    0.000    0.000    0.000    0.000 
#
# Total GULP energy -178677.909318 kJ/mol
# GULP energy per Si atom -5583.684666 kJ/mol
# Density = 2.009293 g / cm^3
# Si number density = 20.138765 Si / 1000 Ang^3
#
#
#
# Elastic Constant Matrix: (Units=GPa)
#
#
# Indices 1 2 3 4 5 6 
#
# 1 85.5123 13.5378 10.5187 0.0000 3.8050 0.0000
# 2 13.5378 19.2317 14.0978 0.0000 -1.3967 0.0000
# 3 10.5187 14.0978 70.8059 0.0000 -0.2478 0.0000
# 4 0.0000 0.0000 0.0000 31.6628 0.0000 2.0312
# 5 3.8050 -1.3967 -0.2478 0.0000 34.3376 0.0000
# 6 0.0000 0.0000 0.0000 2.0312 0.0000 30.2657
#
#
#
# Elastic Compliance Matrix: (Units=1/GPa)
#
#
# Indices 1 2 3 4 5 6 
#
# 1 0.013279 -0.009404 -0.000107 0.000000 -0.001855 0.000000
# 2 -0.009404 0.067740 -0.012077 0.000000 0.003710 0.000000
# 3 -0.000107 -0.012077 0.016542 0.000000 -0.000360 0.000000
# 4 0.000000 0.000000 0.000000 0.031719 0.000000 -0.002129
# 5 -0.001855 0.003710 -0.000360 0.000000 0.029476 0.000000
# 6 0.000000 0.000000 0.000000 -0.002129 0.000000 0.033184
#
#
# Mechanical properties :
#
#
# Convention : Reuss Voigt Hill
#
# Bulk Modulus (GPa) = 18.38737 27.98429 23.18583
# Shear Modulus (GPa) = 19.74376 28.41293 24.07835
#
# Velocity S-wave (km/s) = 3.13451 3.76021 3.46153
# Velocity P-wave (km/s) = 4.71703 5.72522 5.24540
#
# Compressibility (1/GPa) = 0.05438516
#
# Stress axis : x y z
#
# Youngs Moduli (GPa) = 75.30896 14.76234 60.45071
#
# Poissons Ratio (x) = 0.13882 0.00646
# Poissons Ratio (y) = 0.70818 0.73009
# Poissons Ratio (z) = 0.00804 0.17829
#
# Static dielectric constant tensor:
#      x y z
#    x 1.724820 0.000000 0.041380 
#    y 0.000000 1.695420 0.000000 
#    z 0.041380 0.000000 1.726620 
# 
# From -- ./inp_files/71675.got.cif
#   From: 2010.05.17/outbox.cif.g08.bks.cpg/sg10_36_cif.got.tgz:71675.got - 2010.06.03 11:33:40.
