data_PCOD9150008
_publ_section_title
;
Structure prediction by ZEFSAII (Michael W. Deem and Ramdas Pophale) SiO2 
 PCOD9150008
Probable space group: P 2/M
;
_chemical_formula_sum "Si O2"
_cell_formula_units_Z 28
_cell_length_a 17.055513
_cell_length_b 14.039047
_cell_length_c 10.656750
_cell_angle_alpha 90.000000
_cell_angle_beta 34.346499
_cell_angle_gamma 90.000000
_cell_volume 1439.651652
_symmetry_space_group_name_H-M "P 2/M"
_symmetry_group_IT_number 10
_symmetry_cell_setting 'monoclinic'
loop_
_space_group_symop_operation_xyz
x,y,z
-x,y,-z
-x,-y,-z
x,-y,z
loop_
_atom_site_type_symbol
_atom_site_label
_atom_site_fract_x
_atom_site_fract_y
_atom_site_fract_z
Si Si1 0.168521 0.802036 0.978296
Si Si2 0.868810 0.397204 0.083580
Si Si3 0.601464 0.108757 0.488666
Si Si4 0.656951 0.765883 0.782506
Si Si5 0.931937 0.112286 0.454107
Si Si6 0.597857 0.256494 0.135787
Si Si7 0.377642 0.609189 0.391585
O O1 0.113347 0.697315 0.019872
O O2 0.251426 0.849196 0.752331
O O3 0.285774 0.781976 0.926686
O O4 0.048964 0.866439 0.195196
O O5 0.855374 0.500000 0.034602
O O6 0.738447 0.384586 0.348215
O O7 0.000000 0.402581 0.000000
O O8 0.500000 0.108422 0.500000
O O9 0.524887 0.176710 0.689167
O O10 0.615001 0.000000 0.513936
O O11 0.789914 0.834625 0.600494
O O12 0.652930 0.682265 0.683206
O O13 0.500000 0.810280 0.000000
O O14 0.665352 0.725503 0.912260
O O15 0.000000 0.142023 0.500000
O O16 0.903526 0.000000 0.501818
O O17 0.518547 0.353808 0.271293
O O18 0.386574 0.500000 0.336359
#
# Coordination Sequence:
#
# PCOD9150008 Si02
#       7
#     4   4   4   4   4   4   4
#     4  11  20  37  63  87 124 153 196 259 305 355
#     4  10  21  37  60  85 116 161 204 245 305 370
#     4   9  18  32  54  84 115 153 193 234 294 357
#     4  10  22  40  63  87 124 164 204 252 303 360
#     4  11  23  40  64  92 122 162 205 250 308 368
#     4  10  20  35  57  92 119 155 200 254 300 356
#     4  10  21  39  62  87 120 164 208 248 305 371
#
# _framework density 19.449148999999998
#
# number of rings (size 3 to 8) (size 9 to 14) (size 15 to 20)
#    0.000    1.857    2.857    1.286    0.000    4.571 
#    0.000    3.571    0.000    2.571    0.000    0.000 
#    0.000    0.000    0.000    0.000    0.000    0.000 
#
# Total GULP energy -155957.363915 kJ/mol
# GULP energy per Si atom -5569.905854 kJ/mol
# Density = 1.940488 g / cm^3
# Si number density = 19.449149 Si / 1000 Ang^3
#
#
#
# Elastic Constant Matrix: (Units=GPa)
#
#
# Indices 1 2 3 4 5 6 
#
# 1 10.4736 7.1904 1.5247 0.0000 -19.4327 0.0000
# 2 7.1904 87.9818 -0.1977 0.0000 -9.5341 0.0000
# 3 1.5247 -0.1977 34.2944 0.0000 -20.1178 0.0000
# 4 0.0000 0.0000 0.0000 116.0879 0.0000 -22.3026
# 5 -19.4327 -9.5341 -20.1178 0.0000 33.3289 0.0000
# 6 0.0000 0.0000 0.0000 -22.3026 0.0000 38.8634
#
#
#
# Elastic Compliance Matrix: (Units=1/GPa)
#
#
# Indices 1 2 3 4 5 6 
#
# 1 -0.179433 -0.002383 -0.083306 0.000000 -0.155586 0.000000
# 2 -0.002383 0.011922 0.002106 0.000000 0.003292 0.000000
# 3 -0.083306 0.002106 0.007331 0.000000 -0.043545 0.000000
# 4 0.000000 0.000000 0.000000 0.009682 0.000000 0.005556
# 5 -0.155586 0.003292 -0.043545 0.000000 -0.086055 0.000000
# 6 0.000000 0.000000 0.000000 0.005556 0.000000 0.028920
#
#
# Mechanical properties :
#
#
# Convention : Reuss Voigt Hill
#
# Bulk Modulus (GPa) = -3.05487 16.64275 6.79394
# Shear Modulus (GPa) = -33.42634 45.93818 6.25592
#
# Velocity S-wave (km/s) = -4.15016 4.86528 1.79542
# Velocity P-wave (km/s) = 4.95371 6.33536 2.79264
#
# Compressibility (1/GPa) = -0.32734623
#
# Stress axis : x y z
#
# Youngs Moduli (GPa) = -5.57312 83.87688 136.41446
#
# Poissons Ratio (x) = 0.19986 11.36421
# Poissons Ratio (y) = -0.01328 -0.28730
# Poissons Ratio (z) = -0.46428 -0.17665
#
# Static dielectric constant tensor:
#      x y z
#    x 1.732100 0.000000 -0.021520 
#    y 0.000000 1.700830 0.000000 
#    z -0.021520 0.000000 1.695340 
# 
# From -- ./inp_files/55799.got.cif
#   From: 2010.05.17/outbox.cif.g08.bks.cpg/sg10_28_cif.got.tgz:55799.got - 2010.06.03 11:33:40.
