data_PCOD9150520
_publ_section_title
;
Structure prediction by ZEFSAII (Michael W. Deem and Ramdas Pophale) SiO2 
 PCOD9150520
Probable space group: P 2/M
;
_chemical_formula_sum "Si O2"
_cell_formula_units_Z 24
_cell_length_a 15.134273
_cell_length_b 8.820974
_cell_length_c 15.456572
_cell_angle_alpha 90.000000
_cell_angle_beta 140.011822
_cell_angle_gamma 90.000000
_cell_volume 1326.025785
_symmetry_space_group_name_H-M "P 2/M"
_symmetry_group_IT_number 10
_symmetry_cell_setting 'monoclinic'
loop_
_space_group_symop_operation_xyz
x,y,z
-x,y,-z
-x,-y,-z
x,-y,z
loop_
_atom_site_type_symbol
_atom_site_label
_atom_site_fract_x
_atom_site_fract_y
_atom_site_fract_z
Si Si1 0.844167 0.818289 0.105393
Si Si2 0.154387 0.817368 0.392638
Si Si3 0.847145 0.317546 0.919220
Si Si4 0.341513 0.682955 0.383628
Si Si5 0.842433 0.817327 0.406246
Si Si6 0.340003 0.681632 0.882070
O O1 0.736839 0.749489 0.092373
O O2 0.998889 0.772588 0.250075
O O3 0.836649 0.000000 0.103091
O O4 0.820473 0.760029 0.990740
O O5 0.260619 0.748011 0.404825
O O6 0.182179 0.773094 0.512689
O O7 0.160884 0.000000 0.392853
O O8 0.841762 0.500000 0.926069
O O9 0.738995 0.272825 0.764107
O O10 0.000000 0.278698 0.000000
O O11 0.500000 0.731513 0.500000
O O12 0.337631 0.500000 0.385684
O O13 0.739277 0.741140 0.261936
O O14 0.000000 0.779434 0.500000
O O15 0.829662 0.000000 0.389426
O O16 0.332170 0.500000 0.879376
O O17 0.500000 0.726482 0.000000
#
# Coordination Sequence:
#
# PCOD9150520 Si02
#       6
#     4   4   4   4   4   4
#     4  11  22  38  62  89 117 154 198 244 295 351
#     4  10  21  37  60  88 117 150 192 242 289 345
#     4  10  20  36  59  87 117 152 195 241 288 343
#     4  10  22  39  58  83 118 155 190 237 294 345
#     4  10  20  39  63  89 121 154 195 245 295 351
#     4  11  25  42  60  88 124 158 197 246 297 354
#
# _framework density 18.099195999999999
#
# number of rings (size 3 to 8) (size 9 to 14) (size 15 to 20)
#    0.000    1.667    3.333    1.000    0.000    5.667 
#    0.000    5.000    0.000    0.000    0.000    0.000 
#    0.000    0.000    0.000    0.000    0.000    0.000 
#
# Total GULP energy -134099.436714 kJ/mol
# GULP energy per Si atom -5587.476530 kJ/mol
# Density = 1.805800 g / cm^3
# Si number density = 18.099196 Si / 1000 Ang^3
#
#
#
# Elastic Constant Matrix: (Units=GPa)
#
#
# Indices 1 2 3 4 5 6 
#
# 1 203.8507 55.7757 128.0110 0.0000 -7.2524 0.0000
# 2 55.7757 27.7809 52.3368 0.0000 -0.5381 0.0000
# 3 128.0110 52.3368 185.0560 0.0000 -3.4129 0.0000
# 4 0.0000 0.0000 0.0000 29.9688 0.0000 -5.8576
# 5 -7.2524 -0.5381 -3.4129 0.0000 39.8677 0.0000
# 6 0.0000 0.0000 0.0000 -5.8576 0.0000 36.3533
#
#
#
# Elastic Compliance Matrix: (Units=1/GPa)
#
#
# Indices 1 2 3 4 5 6 
#
# 1 0.011763 -0.017791 -0.003075 0.000000 0.001636 0.000000
# 2 -0.017791 0.103983 -0.017162 0.000000 -0.003302 0.000000
# 3 -0.003075 -0.017162 0.012389 0.000000 0.000270 0.000000
# 4 0.000000 0.000000 0.000000 0.034453 0.000000 0.005551
# 5 0.001636 -0.003302 0.000270 0.000000 0.025359 0.000000
# 6 0.000000 0.000000 0.000000 0.005551 0.000000 0.028402
#
#
# Mechanical properties :
#
#
# Convention : Reuss Voigt Hill
#
# Bulk Modulus (GPa) = 19.20162 98.77052 58.98607
# Shear Modulus (GPa) = 16.14124 33.27557 24.70840
#
# Velocity S-wave (km/s) = 2.98958 4.29244 3.69882
# Velocity P-wave (km/s) = 4.74857 8.90264 7.13463
#
# Compressibility (1/GPa) = 0.05207895
#
# Stress axis : x y z
#
# Youngs Moduli (GPa) = 85.01592 9.61694 80.71413
#
# Poissons Ratio (x) = 0.17110 0.24818
# Poissons Ratio (y) = 1.51254 1.38522
# Poissons Ratio (z) = 0.26141 0.16505
#
# Static dielectric constant tensor:
#      x y z
#    x 1.583240 0.000000 0.003360 
#    y 0.000000 1.608980 0.000000 
#    z 0.003360 0.000000 1.604920 
# 
# From -- ./inp_files/66297.got.cif
#   From: 2010.05.17/outbox.cif.g08.bks.cpg/sg10_34_cif.got.tgz:66297.got - 2010.06.03 11:33:40.
