data_PCOD9150350
_publ_section_title
;
Structure prediction by ZEFSAII (Michael W. Deem and Ramdas Pophale) SiO2 
 PCOD9150350
Probable space group: P 2/M
;
_chemical_formula_sum "Si O2"
_cell_formula_units_Z 28
_cell_length_a 13.686398
_cell_length_b 8.878736
_cell_length_c 13.686391
_cell_angle_alpha 90.000000
_cell_angle_beta 115.484188
_cell_angle_gamma 90.000000
_cell_volume 1501.324757
_symmetry_space_group_name_H-M "P 2/M"
_symmetry_group_IT_number 10
_symmetry_cell_setting 'monoclinic'
loop_
_space_group_symop_operation_xyz
x,y,z
-x,y,-z
-x,-y,-z
x,-y,z
loop_
_atom_site_type_symbol
_atom_site_label
_atom_site_fract_x
_atom_site_fract_y
_atom_site_fract_z
Si Si1 0.053002 0.318964 0.250285
Si Si2 0.608007 0.180494 0.108007
Si Si3 0.125593 0.170718 0.085647
Si Si4 0.187223 0.681115 0.913981
Si Si5 0.586019 0.681115 0.312777
Si Si6 0.750285 0.681036 0.553002
Si Si7 0.414353 0.170718 0.374407
O O1 0.052433 0.500000 0.244172
O O2 0.117038 0.255249 0.184369
O O3 0.124336 0.275272 0.375664
O O4 0.927597 0.271972 0.185825
O O5 0.712238 0.248810 0.099215
O O6 0.599215 0.248810 0.212238
O O7 0.617314 0.000000 0.117315
O O8 0.500000 0.217262 0.000000
O O9 0.166692 0.000000 0.112252
O O10 0.184522 0.259297 0.024243
O O11 0.000000 0.162545 0.000000
O O12 0.192895 0.500000 0.915900
O O13 0.584100 0.500000 0.307105
O O14 0.685825 0.728029 0.427597
O O15 0.475757 0.740703 0.315478
O O16 0.744172 0.500000 0.552433
O O17 0.684369 0.744752 0.617038
O O18 0.500000 0.162546 0.500000
O O19 0.387748 0.000000 0.333308
#
# Coordination Sequence:
#
# PCOD9150350 Si02
#       7
#     4   4   4   4   4   4   4
#     4   9  18  33  54  82 114 145 177 214 259 314
#     4  11  25  43  60  77 100 134 177 225 274 321
#     4   9  17  30  50  77 109 143 177 215 259 305
#     4  10  20  36  58  81 107 141 180 222 266 313
#     4  10  20  36  58  81 107 141 180 222 266 313
#     4   9  18  33  54  82 114 145 177 214 259 314
#     4   9  17  30  50  77 109 143 177 215 259 305
#
# _framework density 18.650196999999999
#
# number of rings (size 3 to 8) (size 9 to 14) (size 15 to 20)
#    0.000    2.429    0.000    2.143    0.000    7.429 
#    0.000    0.714    0.000    4.286    0.000    0.000 
#    0.000    0.000    0.000    0.000    0.000    0.000 
#
# Total GULP energy -156123.275834 kJ/mol
# GULP energy per Si atom -5575.831280 kJ/mol
# Density = 1.860775 g / cm^3
# Si number density = 18.650197 Si / 1000 Ang^3
#
#
#
# Elastic Constant Matrix: (Units=GPa)
#
#
# Indices 1 2 3 4 5 6 
#
# 1 126.4097 48.2099 82.4935 0.0000 -11.8542 0.0000
# 2 48.2099 45.9154 41.1764 0.0000 -4.7199 0.0000
# 3 82.4935 41.1764 122.2289 0.0000 9.0479 0.0000
# 4 0.0000 0.0000 0.0000 4.4223 0.0000 14.0220
# 5 -11.8542 -4.7199 9.0479 0.0000 27.1530 0.0000
# 6 0.0000 0.0000 0.0000 14.0220 0.0000 -16.4712
#
#
#
# Elastic Compliance Matrix: (Units=1/GPa)
#
#
# Indices 1 2 3 4 5 6 
#
# 1 0.019669 -0.010012 -0.010672 0.000000 0.010403 0.000000
# 2 -0.010012 0.038692 -0.006615 0.000000 0.004559 0.000000
# 3 -0.010672 -0.006615 0.018499 0.000000 -0.011973 0.000000
# 4 0.000000 0.000000 0.000000 0.061128 0.000000 0.052038
# 5 0.010403 0.004559 -0.011973 0.000000 0.046152 0.000000
# 6 0.000000 0.000000 0.000000 0.052038 0.000000 -0.016412
#
#
# Mechanical properties :
#
#
# Convention : Reuss Voigt Hill
#
# Bulk Modulus (GPa) = 44.91917 70.92370 57.92143
# Shear Modulus (GPa) = 21.76304 11.19908 16.48106
#
# Velocity S-wave (km/s) = 3.41971 2.45313 2.97592
# Velocity P-wave (km/s) = 6.30317 6.79226 6.55228
#
# Compressibility (1/GPa) = 0.02226221
#
# Stress axis : x y z
#
# Youngs Moduli (GPa) = 50.84083 25.84485 54.05751
#
# Poissons Ratio (x) = 0.25876 0.57691
# Poissons Ratio (y) = 0.50903 0.35758
# Poissons Ratio (z) = 0.54258 0.17096
#
# Static dielectric constant tensor:
#      x y z
#    x 1.616990 0.000000 0.047050 
#    y 0.000000 1.631950 0.000000 
#    z 0.047050 0.000000 1.687090 
# 
# From -- ./inp_files/63924.got.cif
#   From: 2010.05.17/outbox.cif.g08.bks.cpg/sg10_32_cif.got.tgz:63924.got - 2010.06.03 11:33:40.
