data_PCOD9150148
_publ_section_title
;
Structure prediction by ZEFSAII (Michael W. Deem and Ramdas Pophale) SiO2 
 PCOD9150148
Probable space group: P 2/M
;
_chemical_formula_sum "Si O2"
_cell_formula_units_Z 28
_cell_length_a 12.073894
_cell_length_b 13.723836
_cell_length_c 9.598816
_cell_angle_alpha 90.000000
_cell_angle_beta 67.049649
_cell_angle_gamma 90.000000
_cell_volume 1464.624111
_symmetry_space_group_name_H-M "P 2/M"
_symmetry_group_IT_number 10
_symmetry_cell_setting 'monoclinic'
loop_
_space_group_symop_operation_xyz
x,y,z
-x,y,-z
-x,-y,-z
x,-y,z
loop_
_atom_site_type_symbol
_atom_site_label
_atom_site_fract_x
_atom_site_fract_y
_atom_site_fract_z
Si Si1 0.707369 0.250960 0.622562
Si Si2 0.042223 0.109741 0.820972
Si Si3 0.791249 0.614037 0.100177
Si Si4 0.681157 0.886802 0.386067
Si Si5 0.112769 0.386992 0.640570
Si Si6 0.546876 0.701856 0.328888
Si Si7 0.884624 0.278265 0.781911
O O1 0.692268 0.152412 0.539222
O O2 0.788750 0.321338 0.485228
O O3 0.572183 0.290575 0.705426
O O4 0.778772 0.247300 0.730857
O O5 0.184990 0.122349 0.741739
O O6 0.971449 0.187153 0.765360
O O7 0.014601 0.000000 0.787412
O O8 0.000000 0.120219 0.000000
O O9 0.800457 0.500000 0.058320
O O10 0.870076 0.629800 0.201211
O O11 0.655581 0.641892 0.210449
O O12 0.834008 0.679760 0.951305
O O13 0.598298 0.809482 0.344450
O O14 0.644309 0.000000 0.396031
O O15 0.135778 0.500000 0.601550
O O16 0.975908 0.358146 0.673514
O O17 0.500000 0.659918 0.500000
#
# Coordination Sequence:
#
# PCOD9150148 Si02
#       7
#     4   4   4   4   4   4   4
#     4  11  24  38  57  90 123 160 197 245 306 356
#     4  10  20  35  61  90 119 158 199 245 300 359
#     4  11  23  40  65  90 115 159 211 253 297 356
#     4  10  20  38  64  92 119 157 208 251 297 361
#     4  11  22  39  62  86 116 160 206 246 295 359
#     4  10  20  40  62  87 119 156 204 252 295 353
#     4  12  23  38  58  87 130 155 191 252 305 362
#
# _framework density 19.117533000000002
#
# number of rings (size 3 to 8) (size 9 to 14) (size 15 to 20)
#    0.000    1.286    4.286    3.000    0.000    7.429 
#    0.000    2.143    0.000    0.000    0.000    9.000 
#    0.000    0.000    0.000    0.000    0.000    0.000 
#
# Total GULP energy -156430.502262 kJ/mol
# GULP energy per Si atom -5586.803652 kJ/mol
# Density = 1.907402 g / cm^3
# Si number density = 19.117533 Si / 1000 Ang^3
#
#
#
# Elastic Constant Matrix: (Units=GPa)
#
#
# Indices 1 2 3 4 5 6 
#
# 1 115.0417 12.0447 16.4087 0.0000 -5.3117 0.0000
# 2 12.0447 64.6759 12.6558 0.0000 9.5715 0.0000
# 3 16.4087 12.6558 49.9159 0.0000 -12.1135 0.0000
# 4 0.0000 0.0000 0.0000 15.2774 0.0000 -3.1497
# 5 -5.3117 9.5715 -12.1135 0.0000 22.1565 0.0000
# 6 0.0000 0.0000 0.0000 -3.1497 0.0000 10.1569
#
#
#
# Elastic Compliance Matrix: (Units=1/GPa)
#
#
# Indices 1 2 3 4 5 6 
#
# 1 0.009250 -0.001524 -0.002255 0.000000 0.001643 0.000000
# 2 -0.001524 0.019066 -0.007403 0.000000 -0.012649 0.000000
# 3 -0.002255 -0.007403 0.026861 0.000000 0.017343 0.000000
# 4 0.000000 0.000000 0.000000 0.069927 0.000000 0.021684
# 5 0.001643 -0.012649 0.017343 0.000000 0.060473 0.000000
# 6 0.000000 0.000000 0.000000 0.021684 0.000000 0.105180
#
#
# Mechanical properties :
#
#
# Convention : Reuss Voigt Hill
#
# Bulk Modulus (GPa) = 30.47706 34.65023 32.56364
# Shear Modulus (GPa) = 15.42934 22.08644 18.75789
#
# Velocity S-wave (km/s) = 2.84399 3.40265 3.13579
# Velocity P-wave (km/s) = 5.17310 5.79669 5.49375
#
# Compressibility (1/GPa) = 0.03281157
#
# Stress axis : x y z
#
# Youngs Moduli (GPa) = 108.11219 52.44905 37.22916
#
# Poissons Ratio (x) = 0.07995 0.08397
# Poissons Ratio (y) = 0.16480 0.27559
# Poissons Ratio (z) = 0.24384 0.38826
#
# Static dielectric constant tensor:
#      x y z
#    x 1.670860 0.000000 0.001380 
#    y 0.000000 1.683100 0.000000 
#    z 0.001380 0.000000 1.661660 
# 
# From -- ./inp_files/24910.got.cif
#   From: 2010.05.17/outbox.cif.g08.bks.cpg/sg10_13_cif.got.tgz:24910.got - 2010.06.03 11:33:40.
