data_PCOD9150904
_publ_section_title
;
Structure prediction by ZEFSAII (Michael W. Deem and Ramdas Pophale) SiO2 
 PCOD9150904
Probable space group: P 2/M
;
_chemical_formula_sum "Si O2"
_cell_formula_units_Z 24
_cell_length_a 17.169103
_cell_length_b 9.774366
_cell_length_c 12.558809
_cell_angle_alpha 90.000000
_cell_angle_beta 32.506795
_cell_angle_gamma 90.000000
_cell_volume 1132.614244
_symmetry_space_group_name_H-M "P 2/M"
_symmetry_group_IT_number 10
_symmetry_cell_setting 'monoclinic'
loop_
_space_group_symop_operation_xyz
x,y,z
-x,y,-z
-x,-y,-z
x,-y,z
loop_
_atom_site_type_symbol
_atom_site_label
_atom_site_fract_x
_atom_site_fract_y
_atom_site_fract_z
Si Si1 0.172163 0.154604 0.312685
Si Si2 0.208959 0.660065 0.076808
Si Si3 0.605089 0.841620 0.776024
Si Si4 0.242687 0.844796 0.699410
Si Si5 0.978879 0.844854 0.847012
Si Si6 0.530887 0.338433 0.656708
O O1 0.235294 0.177675 0.357360
O O2 0.000000 0.159510 0.500000
O O3 0.219782 0.000000 0.227592
O O4 0.232399 0.265756 0.162180
O O5 0.182208 0.500000 0.121089
O O6 0.075909 0.735053 0.173503
O O7 0.358669 0.678433 0.839596
O O8 0.569401 0.738356 0.723032
O O9 0.591660 0.000000 0.755412
O O10 0.500000 0.824633 0.000000
O O11 0.139946 0.838024 0.920739
O O12 0.369761 0.735654 0.544834
O O13 0.300201 0.000000 0.626772
O O14 0.132891 0.823388 0.726281
O O15 0.975465 0.000000 0.806593
O O16 0.561302 0.500000 0.627851
#
# Coordination Sequence:
#
# PCOD9150904 Si02
#       6
#     4   4   4   4   4   4
#     4  10  22  39  59  84 113 148 192 240 286 332
#     4  11  24  39  56  84 121 157 190 230 283 342
#     4  10  20  37  60  83 110 149 194 237 280 331
#     4   9  20  40  64  88 112 145 191 239 288 340
#     4   9  20  40  64  87 113 146 189 241 288 336
#     4  11  24  38  56  85 121 157 190 230 283 341
#
# _framework density 21.189916
#
# number of rings (size 3 to 8) (size 9 to 14) (size 15 to 20)
#    0.000    2.000    1.667    2.000    2.333    5.333 
#    0.000    5.000    0.000    0.000    0.000    0.000 
#    0.000    0.000    0.000    0.000    0.000    0.000 
#
# Total GULP energy -134168.825556 kJ/mol
# GULP energy per Si atom -5590.367731 kJ/mol
# Density = 2.114169 g / cm^3
# Si number density = 21.189916 Si / 1000 Ang^3
#
#
#
# Elastic Constant Matrix: (Units=GPa)
#
#
# Indices 1 2 3 4 5 6 
#
# 1 51.8479 29.1887 -7.1023 0.0000 -9.3035 0.0000
# 2 29.1887 120.5318 39.2515 0.0000 -12.2567 0.0000
# 3 -7.1023 39.2515 68.8166 0.0000 -6.6614 0.0000
# 4 0.0000 0.0000 0.0000 8.8679 0.0000 15.7921
# 5 -9.3035 -12.2567 -6.6614 0.0000 28.5651 0.0000
# 6 0.0000 0.0000 0.0000 15.7921 0.0000 -28.7312
#
#
#
# Elastic Compliance Matrix: (Units=1/GPa)
#
#
# Indices 1 2 3 4 5 6 
#
# 1 0.026323 -0.008321 0.008130 0.000000 0.006899 0.000000
# 2 -0.008321 0.013092 -0.008231 0.000000 0.000988 0.000000
# 3 0.008130 -0.008231 0.020441 0.000000 0.003883 0.000000
# 4 0.000000 0.000000 0.000000 0.056986 0.000000 0.031323
# 5 0.006899 0.000988 0.003883 0.000000 0.038584 0.000000
# 6 0.000000 0.000000 0.000000 0.031323 0.000000 -0.017589
#
#
# Mechanical properties :
#
#
# Convention : Reuss Voigt Hill
#
# Bulk Modulus (GPa) = 23.24787 40.43024 31.83905
# Shear Modulus (GPa) = 29.58254 13.73092 21.65673
#
# Velocity S-wave (km/s) = 3.74045 2.54833 3.20039
# Velocity P-wave (km/s) = 5.44515 5.27068 5.35862
#
# Compressibility (1/GPa) = 0.04301469
#
# Stress axis : x y z
#
# Youngs Moduli (GPa) = 37.98933 76.38023 48.92133
#
# Poissons Ratio (x) = 0.63554 -0.39775
# Poissons Ratio (y) = 0.31610 0.40266
# Poissons Ratio (z) = -0.30887 0.62866
#
# Static dielectric constant tensor:
#      x y z
#    x 1.767590 0.000000 0.015560 
#    y 0.000000 1.699490 0.000000 
#    z 0.015560 0.000000 1.834890 
# 
# From -- ./inp_files/66699.got.cif
#   From: 2010.05.17/outbox.cif.g08.bks.cpg/sg10_34_cif.got.tgz:66699.got - 2010.06.03 11:33:40.
