data_PCOD9150512
_publ_section_title
;
Structure prediction by ZEFSAII (Michael W. Deem and Ramdas Pophale) SiO2 
 PCOD9150512
Probable space group: P 2/M
;
_chemical_formula_sum "Si O2"
_cell_formula_units_Z 26
_cell_length_a 7.465231
_cell_length_b 10.796430
_cell_length_c 20.499063
_cell_angle_alpha 90.000000
_cell_angle_beta 135.047897
_cell_angle_gamma 90.000000
_cell_volume 1167.290846
_symmetry_space_group_name_H-M "P 2/M"
_symmetry_group_IT_number 10
_symmetry_cell_setting 'monoclinic'
loop_
_space_group_symop_operation_xyz
x,y,z
-x,y,-z
-x,-y,-z
x,-y,z
loop_
_atom_site_type_symbol
_atom_site_label
_atom_site_fract_x
_atom_site_fract_y
_atom_site_fract_z
Si Si1 0.929100 0.351593 0.882898
Si Si2 0.441281 0.000000 0.832848
Si Si3 0.708758 0.362769 0.399483
Si Si4 0.653542 0.134855 0.472290
Si Si5 0.400951 0.740748 0.081988
Si Si6 0.030579 0.644902 0.765508
Si Si7 0.131506 0.207038 0.671637
O O1 0.921619 0.500000 0.886729
O O2 0.893175 0.319770 0.797601
O O3 0.735635 0.294522 0.884865
O O4 0.205284 0.304225 0.976665
O O5 0.558797 0.111979 0.908352
O O6 0.308708 0.107770 0.751863
O O7 0.595686 0.500000 0.376688
O O8 0.593771 0.252321 0.412442
O O9 0.723367 0.315824 0.329222
O O10 0.000000 0.372398 0.500000
O O11 0.500000 0.138098 0.500000
O O12 0.945722 0.146325 0.570736
O O13 0.607964 0.000000 0.429181
O O14 0.669354 0.671435 0.146300
O O15 0.993738 0.500000 0.742804
O O16 0.969673 0.728363 0.687299
#
# Coordination Sequence:
#
# PCOD9150512 Si02
#       7
#     4   2   4   4   4   4   4
#     4  10  20  36  61  89 115 153 202 248 300 354
#     4  10  22  37  57  84 114 159 199 234 301 361
#     4   9  19  35  60  86 109 147 195 239 291 348
#     4  10  21  38  61  89 115 154 199 241 294 358
#     4  10  20  37  57  84 118 152 200 250 286 355
#     4  10  20  36  59  86 118 156 193 243 307 355
#     4  10  20  38  58  80 119 152 195 244 295 360
#
# _framework density 22.273796999999998
#
# number of rings (size 3 to 8) (size 9 to 14) (size 15 to 20)
#    0.000    2.154    0.769    2.769    1.077    4.308 
#    5.538    9.231    0.000    0.000    0.000    0.000 
#    0.000    0.000    0.000    0.000    0.000    0.000 
#
# Total GULP energy -144800.985702 kJ/mol
# GULP energy per Si atom -5569.268681 kJ/mol
# Density = 2.222310 g / cm^3
# Si number density = 22.273797 Si / 1000 Ang^3
#
#
#
# Elastic Constant Matrix: (Units=GPa)
#
#
# Indices 1 2 3 4 5 6 
#
# 1 74.8434 37.7460 13.4435 0.0000 -12.8166 0.0000
# 2 37.7460 191.5184 32.7063 0.0000 -24.4626 0.0000
# 3 13.4435 32.7063 60.9599 0.0000 -8.7740 0.0000
# 4 0.0000 0.0000 0.0000 27.6162 0.0000 -5.4584
# 5 -12.8166 -24.4626 -8.7740 0.0000 41.2870 0.0000
# 6 0.0000 0.0000 0.0000 -5.4584 0.0000 10.0657
#
#
#
# Elastic Compliance Matrix: (Units=1/GPa)
#
#
# Indices 1 2 3 4 5 6 
#
# 1 0.015369 -0.002355 -0.001692 0.000000 0.003016 0.000000
# 2 -0.002355 0.006450 -0.002575 0.000000 0.002543 0.000000
# 3 -0.001692 -0.002575 0.018427 0.000000 0.001865 0.000000
# 4 0.000000 0.000000 0.000000 0.040558 0.000000 0.021994
# 5 0.003016 0.002543 0.001865 0.000000 0.027060 0.000000
# 6 0.000000 0.000000 0.000000 0.021994 0.000000 0.111274
#
#
# Mechanical properties :
#
#
# Convention : Reuss Voigt Hill
#
# Bulk Modulus (GPa) = 37.03296 55.01258 46.02277
# Shear Modulus (GPa) = 20.71391 32.02218 26.36804
#
# Velocity S-wave (km/s) = 3.05285 3.79576 3.44439
# Velocity P-wave (km/s) = 5.39341 6.63041 6.04364
#
# Compressibility (1/GPa) = 0.02700297
#
# Stress axis : x y z
#
# Youngs Moduli (GPa) = 65.06475 155.03342 54.26692
#
# Poissons Ratio (x) = 0.36509 0.09181
# Poissons Ratio (y) = 0.15322 0.13975
# Poissons Ratio (z) = 0.11008 0.39925
#
# Static dielectric constant tensor:
#      x y z
#    x 1.860270 0.000000 0.030400 
#    y 0.000000 1.781220 0.000000 
#    z 0.030400 0.000000 1.842750 
# 
# From -- ./inp_files/82225.got.cif
#   From: 2010.05.17/outbox.cif.g08.bks.cpg/sg10_42_cif.got.tgz:82225.got - 2010.06.03 11:33:40.
