data_PCOD9150519
_publ_section_title
;
Structure prediction by ZEFSAII (Michael W. Deem and Ramdas Pophale) SiO2 
 PCOD9150519
Probable space group: P 2/M
;
_chemical_formula_sum "Si O2"
_cell_formula_units_Z 32
_cell_length_a 20.513894
_cell_length_b 8.811526
_cell_length_c 26.519837
_cell_angle_alpha 90.000000
_cell_angle_beta 159.170084
_cell_angle_gamma 90.000000
_cell_volume 1704.612823
_symmetry_space_group_name_H-M "P 2/M"
_symmetry_group_IT_number 10
_symmetry_cell_setting 'monoclinic'
loop_
_space_group_symop_operation_xyz
x,y,z
-x,y,-z
-x,-y,-z
x,-y,z
loop_
_atom_site_type_symbol
_atom_site_label
_atom_site_fract_x
_atom_site_fract_y
_atom_site_fract_z
Si Si1 0.716844 0.182526 0.657349
Si Si2 0.092191 0.681793 0.661770
Si Si3 0.809355 0.816930 0.837531
Si Si4 0.600694 0.818509 0.185613
Si Si5 0.664636 0.316992 0.338384
Si Si6 0.883725 0.318319 0.677550
Si Si7 0.539170 0.317425 0.357720
Si Si8 0.784582 0.818188 0.142449
O O1 0.500000 0.219080 0.500000
O O2 0.793804 0.226900 0.767658
O O3 0.819861 0.263071 0.686122
O O4 0.733619 0.000000 0.663461
O O5 0.103017 0.500000 0.671087
O O6 0.221590 0.744825 0.711490
O O7 0.162289 0.747347 0.765482
O O8 0.879832 0.722790 0.499430
O O9 0.637088 0.753306 0.743452
O O10 0.801219 0.000000 0.833486
O O11 0.000000 0.766881 0.000000
O O12 0.584711 0.760308 0.231068
O O13 0.617973 0.000000 0.197300
O O14 0.420076 0.776352 0.023071
O O15 0.652875 0.500000 0.324971
O O16 0.565682 0.271849 0.318788
O O17 0.904612 0.500000 0.691597
O O18 0.721063 0.276246 0.520864
O O19 0.069027 0.241030 0.792381
O O20 0.524955 0.500000 0.349041
O O21 0.794147 0.000000 0.152997
#
# Coordination Sequence:
#
# PCOD9150519 Si02
#       8
#     4   4   4   4   4   4   4   4
#     4  10  20  36  59  87 117 152 194 238 288 346
#     4  11  22  40  65  91 120 158 202 247 299 358
#     4  10  22  39  59  86 120 155 192 236 290 351
#     4  11  25  41  58  89 125 158 201 249 298 356
#     4  10  22  41  62  88 121 157 199 248 300 355
#     4  11  22  38  62  90 118 152 200 250 296 352
#     4  10  21  39  61  86 118 151 193 245 292 350
#     4  11  24  41  61  87 123 160 199 250 301 354
#
# _framework density 18.772592
#
# number of rings (size 3 to 8) (size 9 to 14) (size 15 to 20)
#    0.000    1.500    2.500    2.250    0.000    9.000 
#    0.000    3.750    0.000    0.000    0.000    0.000 
#    0.000    0.000    0.000    0.000    0.000    0.000 
#
# Total GULP energy -178895.559173 kJ/mol
# GULP energy per Si atom -5590.486224 kJ/mol
# Density = 1.872986 g / cm^3
# Si number density = 18.772592 Si / 1000 Ang^3
#
#
#
# Elastic Constant Matrix: (Units=GPa)
#
#
# Indices 1 2 3 4 5 6 
#
# 1 78.6958 4.5042 -12.5916 0.0000 -6.6688 0.0000
# 2 4.5042 16.8884 9.0572 0.0000 -3.7989 0.0000
# 3 -12.5916 9.0572 33.3379 0.0000 -16.9793 0.0000
# 4 0.0000 0.0000 0.0000 29.2656 0.0000 2.3590
# 5 -6.6688 -3.7989 -16.9793 0.0000 31.9974 0.0000
# 6 0.0000 0.0000 0.0000 2.3590 0.0000 70.0641
#
#
#
# Elastic Compliance Matrix: (Units=1/GPa)
#
#
# Indices 1 2 3 4 5 6 
#
# 1 0.016199 -0.009429 0.013469 0.000000 0.009404 0.000000
# 2 -0.009429 0.074935 -0.027940 0.000000 -0.007895 0.000000
# 3 0.013469 -0.027940 0.058123 0.000000 0.030333 0.000000
# 4 0.000000 0.000000 0.000000 0.034263 0.000000 -0.001154
# 5 0.009404 -0.007895 0.030333 0.000000 0.048371 0.000000
# 6 0.000000 0.000000 0.000000 -0.001154 0.000000 0.014311
#
#
# Mechanical properties :
#
#
# Convention : Reuss Voigt Hill
#
# Bulk Modulus (GPa) = 9.85628 14.54018 12.19823
# Shear Modulus (GPa) = 15.25224 34.79557 25.02390
#
# Velocity S-wave (km/s) = 2.85348 4.30994 3.65499
# Velocity P-wave (km/s) = 4.01475 5.70348 4.93193
#
# Compressibility (1/GPa) = 0.10145815
#
# Stress axis : x y z
#
# Youngs Moduli (GPa) = 61.73256 13.34485 17.20494
#
# Poissons Ratio (x) = 0.12582 -0.23174
# Poissons Ratio (y) = 0.58205 0.48071
# Poissons Ratio (z) = -0.83151 0.37286
#
# Static dielectric constant tensor:
#      x y z
#    x 1.622330 0.000000 -0.010510 
#    y 0.000000 1.628810 0.000000 
#    z -0.010510 0.000000 1.631060 
# 
# From -- ./inp_files/93699.got.cif
#   From: 2010.05.17/outbox.cif.g08.bks.cpg/sg10_47_cif.got.tgz:93699.got - 2010.06.03 11:33:40.
