data_PCOD9150962
_publ_section_title
;
Structure prediction by ZEFSAII (Michael W. Deem and Ramdas Pophale) SiO2 
 PCOD9150962
Probable space group: P 2/M
;
_chemical_formula_sum "Si O2"
_cell_formula_units_Z 28
_cell_length_a 9.580060
_cell_length_b 12.678640
_cell_length_c 14.170954
_cell_angle_alpha 90.000000
_cell_angle_beta 122.631826
_cell_angle_gamma 90.000000
_cell_volume 1449.542611
_symmetry_space_group_name_H-M "P 2/M"
_symmetry_group_IT_number 10
_symmetry_cell_setting 'monoclinic'
loop_
_space_group_symop_operation_xyz
x,y,z
-x,y,-z
-x,-y,-z
x,-y,z
loop_
_atom_site_type_symbol
_atom_site_label
_atom_site_fract_x
_atom_site_fract_y
_atom_site_fract_z
Si Si1 0.438115 0.736653 0.868828
Si Si2 0.249404 0.382351 0.067638
Si Si3 0.961327 0.683864 0.841767
Si Si4 0.130026 0.197510 0.477192
Si Si5 0.784294 0.120532 0.700485
Si Si6 0.912151 0.378393 0.303983
Si Si7 0.443866 0.125359 0.692054
O O1 0.562895 0.647816 0.875880
O O2 0.254457 0.687918 0.785188
O O3 0.466989 0.835377 0.808426
O O4 0.500000 0.755736 0.000000
O O5 0.217603 0.500000 0.022130
O O6 0.180072 0.368659 0.146618
O O7 0.130911 0.310588 0.961533
O O8 0.906235 0.800226 0.796061
O O9 0.989570 0.618639 0.758291
O O10 0.188759 0.143444 0.400920
O O11 0.298458 0.199618 0.598329
O O12 0.000000 0.139729 0.500000
O O13 0.030424 0.304391 0.412070
O O14 0.603096 0.138879 0.681235
O O15 0.825600 0.000000 0.733287
O O16 0.881323 0.500000 0.324786
O O17 0.401482 0.000000 0.673935
#
# Coordination Sequence:
#
# PCOD9150962 Si02
#       7
#     4   4   4   4   4   4   4
#     4  12  24  41  63  96 130 166 215 260 311 379
#     4  11  21  36  61  87 123 170 215 257 307 371
#     4  10  20  37  60  91 126 159 214 258 305 376
#     4  11  23  42  66  99 125 161 210 265 307 382
#     4  10  22  41  67  93 123 165 207 261 320 376
#     4  11  23  41  64  92 132 170 205 259 320 371
#     4  11  24  46  67  89 126 170 213 262 322 372
#
# _framework density 19.316437000000001
#
# number of rings (size 3 to 8) (size 9 to 14) (size 15 to 20)
#    0.000    1.143    4.286    3.000    0.000    3.429 
#    0.000    2.143    0.000    1.714    0.000    0.000 
#    0.000    0.000    0.000    0.000    0.000    0.000 
#
# Total GULP energy -155984.769070 kJ/mol
# GULP energy per Si atom -5570.884610 kJ/mol
# Density = 1.927247 g / cm^3
# Si number density = 19.316437 Si / 1000 Ang^3
#
#
#
# Elastic Constant Matrix: (Units=GPa)
#
#
# Indices 1 2 3 4 5 6 
#
# 1 113.3469 42.0624 51.4082 0.0000 -9.2756 0.0000
# 2 42.0624 92.8482 55.1274 0.0000 10.2986 0.0000
# 3 51.4082 55.1274 100.7678 0.0000 -3.4556 0.0000
# 4 0.0000 0.0000 0.0000 -182.1635 0.0000 -260.7051
# 5 -9.2756 10.2986 -3.4556 0.0000 13.0717 0.0000
# 6 0.0000 0.0000 0.0000 -260.7051 0.0000 -382.9436
#
#
#
# Elastic Compliance Matrix: (Units=1/GPa)
#
#
# Indices 1 2 3 4 5 6 
#
# 1 0.013487 -0.005532 -0.003408 0.000000 0.013028 0.000000
# 2 -0.005532 0.021793 -0.009913 0.000000 -0.023716 0.000000
# 3 -0.003408 -0.009913 0.017428 0.000000 0.010000 0.000000
# 4 0.000000 0.000000 0.000000 -0.213787 0.000000 0.145545
# 5 0.013028 -0.023716 0.010000 0.000000 0.107074 0.000000
# 6 0.000000 0.000000 0.000000 0.145545 0.000000 -0.101697
#
#
# Mechanical properties :
#
#
# Convention : Reuss Voigt Hill
#
# Bulk Modulus (GPa) = 66.65427 67.12877 66.89152
# Shear Modulus (GPa) = -44.24903 -99.84944 -72.04924
#
# Velocity S-wave (km/s) = -4.79136 -7.19748 -6.11395
# Velocity P-wave (km/s) = 1.99295 5.85183 3.89051
#
# Compressibility (1/GPa) = 0.01500279
#
# Stress axis : x y z
#
# Youngs Moduli (GPa) = 74.14642 45.88691 57.37730
#
# Poissons Ratio (x) = 0.25383 0.19551
# Poissons Ratio (y) = 0.41015 0.56880
# Poissons Ratio (z) = 0.25266 0.45490
#
# Static dielectric constant tensor:
#      x y z
#    x 1.711120 0.000000 -0.036080 
#    y 0.000000 1.661490 0.000000 
#    z -0.036080 0.000000 1.700270 
# 
# From -- ./inp_files/61270.got.cif
#   From: 2010.05.17/outbox.cif.g08.bks.cpg/sg10_31_cif.got.tgz:61270.got - 2010.06.03 11:33:40.
