data_PCOD9150941
_publ_section_title
;
Structure prediction by ZEFSAII (Michael W. Deem and Ramdas Pophale) SiO2 
 PCOD9150941
Probable space group: P 2/M
;
_chemical_formula_sum "Si O2"
_cell_formula_units_Z 28
_cell_length_a 28.299301
_cell_length_b 9.121539
_cell_length_c 8.113911
_cell_angle_alpha 90.000000
_cell_angle_beta 43.579773
_cell_angle_gamma 90.000000
_cell_volume 1443.851644
_symmetry_space_group_name_H-M "P 2/M"
_symmetry_group_IT_number 10
_symmetry_cell_setting 'monoclinic'
loop_
_space_group_symop_operation_xyz
x,y,z
-x,y,-z
-x,-y,-z
x,-y,z
loop_
_atom_site_type_symbol
_atom_site_label
_atom_site_fract_x
_atom_site_fract_y
_atom_site_fract_z
Si Si1 0.918275 0.826758 0.713667
Si Si2 0.849970 0.324267 0.201703
Si Si3 0.425917 0.825128 0.120523
Si Si4 0.847199 0.825262 0.547456
Si Si5 0.280919 0.329672 0.995943
Si Si6 0.428462 0.326046 0.765875
Si Si7 0.293613 0.328285 0.582987
O O1 0.886995 0.782211 0.615131
O O2 0.000000 0.810523 0.500000
O O3 0.902003 0.000000 0.777361
O O4 0.888697 0.739133 0.944158
O O5 0.856618 0.500000 0.189985
O O6 0.872694 0.252793 0.316571
O O7 0.769250 0.288713 0.376951
O O8 0.362020 0.762695 0.382764
O O9 0.424353 0.000000 0.127582
O O10 0.500000 0.775308 0.000000
O O11 0.418761 0.764409 0.955311
O O12 0.852124 0.000000 0.515964
O O13 0.769156 0.774087 0.776419
O O14 0.266689 0.500000 0.076720
O O15 0.361204 0.303161 0.825114
O O16 0.267997 0.310952 0.834692
O O17 0.500000 0.284878 0.500000
O O18 0.432029 0.500000 0.794813
O O19 0.309930 0.500000 0.516466
#
# Coordination Sequence:
#
# PCOD9150941 Si02
#       7
#     4   4   4   4   4   4   4
#     4  10  23  44  67  92 126 168 211 254 305 370
#     4  11  23  40  65  95 127 163 206 257 310 367
#     4  11  24  38  53  79 115 153 195 247 304 362
#     4  11  23  39  63  93 126 164 205 254 310 370
#     4  10  20  37  60  87 118 152 200 254 303 360
#     4  10  21  37  58  81 108 149 198 247 299 361
#     4  10  21  38  61  86 115 156 200 248 301 360
#
# _framework density 19.392572999999999
#
# number of rings (size 3 to 8) (size 9 to 14) (size 15 to 20)
#    0.000    1.571    1.429    3.000    0.000    9.714 
#    0.000    2.857    0.000    0.000    0.000    0.000 
#    0.000    0.000    0.000    0.000    0.000    0.000 
#
# Total GULP energy -156449.004181 kJ/mol
# GULP energy per Si atom -5587.464435 kJ/mol
# Density = 1.934843 g / cm^3
# Si number density = 19.392573 Si / 1000 Ang^3
#
#
#
# Elastic Constant Matrix: (Units=GPa)
#
#
# Indices 1 2 3 4 5 6 
#
# 1 101.7545 45.0281 50.3386 0.0000 14.6194 0.0000
# 2 45.0281 47.6752 48.0223 0.0000 9.3553 0.0000
# 3 50.3386 48.0223 80.5155 0.0000 8.1910 0.0000
# 4 0.0000 0.0000 0.0000 33.5658 0.0000 1.7089
# 5 14.6194 9.3553 8.1910 0.0000 24.4779 0.0000
# 6 0.0000 0.0000 0.0000 1.7089 0.0000 24.9947
#
#
#
# Elastic Compliance Matrix: (Units=1/GPa)
#
#
# Indices 1 2 3 4 5 6 
#
# 1 0.017583 -0.012769 -0.002904 0.000000 -0.004649 0.000000
# 2 -0.012769 0.064254 -0.029626 0.000000 -0.007018 0.000000
# 3 -0.002904 -0.029626 0.031655 0.000000 0.002465 0.000000
# 4 0.000000 0.000000 0.000000 0.029896 0.000000 -0.002044
# 5 -0.004649 -0.007018 0.002465 0.000000 0.045487 0.000000
# 6 0.000000 0.000000 0.000000 -0.002044 0.000000 0.040148
#
#
# Mechanical properties :
#
#
# Convention : Reuss Voigt Hill
#
# Bulk Modulus (GPa) = 43.68074 57.41368 50.54721
# Shear Modulus (GPa) = 15.27867 22.37810 18.82838
#
# Velocity S-wave (km/s) = 2.80993 3.40067 3.11932
# Velocity P-wave (km/s) = 5.75335 6.71489 6.25263
#
# Compressibility (1/GPa) = 0.02289338
#
# Stress axis : x y z
#
# Youngs Moduli (GPa) = 56.87438 15.56313 31.59061
#
# Poissons Ratio (x) = 0.19873 0.09173
# Poissons Ratio (y) = 0.72623 0.93592
# Poissons Ratio (z) = 0.16515 0.46108
#
# Static dielectric constant tensor:
#      x y z
#    x 1.701660 0.000000 -0.015020 
#    y 0.000000 1.653830 0.000000 
#    z -0.015020 0.000000 1.671040 
# 
# From -- ./inp_files/37975.got.cif
#   From: 2010.05.17/outbox.cif.g08.bks.cpg/sg10_19_cif.got.tgz:37975.got - 2010.06.03 11:33:40.
