data_PCOD9150991
_publ_section_title
;
Structure prediction by ZEFSAII (Michael W. Deem and Ramdas Pophale) SiO2 
 PCOD9150991
Probable space group: P 2/M
;
_chemical_formula_sum "Si O2"
_cell_formula_units_Z 24
_cell_length_a 13.374033
_cell_length_b 10.649444
_cell_length_c 8.862361
_cell_angle_alpha 90.000000
_cell_angle_beta 86.934153
_cell_angle_gamma 90.000000
_cell_volume 1260.424170
_symmetry_space_group_name_H-M "P 2/M"
_symmetry_group_IT_number 10
_symmetry_cell_setting 'monoclinic'
loop_
_space_group_symop_operation_xyz
x,y,z
-x,y,-z
-x,-y,-z
x,-y,z
loop_
_atom_site_type_symbol
_atom_site_label
_atom_site_fract_x
_atom_site_fract_y
_atom_site_fract_z
Si Si1 0.570111 0.641374 0.134611
Si Si2 0.175008 0.861349 0.547010
Si Si3 0.111283 0.351832 0.320898
Si Si4 0.943449 0.797954 0.150720
Si Si5 0.789508 0.637337 0.980987
Si Si6 0.592455 0.141870 0.375131
O O1 0.544336 0.500000 0.192848
O O2 0.570825 0.747789 0.259760
O O3 0.500000 0.672569 0.000000
O O4 0.679791 0.635804 0.054513
O O5 0.131089 0.745068 0.454639
O O6 0.110367 0.866988 0.706356
O O7 0.294141 0.841208 0.568303
O O8 0.164345 0.000000 0.473079
O O9 0.099586 0.500000 0.362980
O O10 0.204532 0.338375 0.197668
O O11 0.019317 0.299877 0.226634
O O12 0.853102 0.730318 0.074297
O O13 0.000000 0.858201 0.000000
O O14 0.837077 0.500000 0.995932
O O15 0.500000 0.145095 0.500000
O O16 0.592853 0.000000 0.308612
#
# Coordination Sequence:
#
# PCOD9150991 Si02
#       6
#     4   4   4   4   4   4
#     4  10  21  37  62  92 120 147 190 248 304 351
#     4  11  24  41  59  86 122 157 196 244 296 348
#     4  10  22  37  60  90 120 157 201 239 287 354
#     4  10  20  37  61  86 116 156 199 243 291 344
#     4   9  18  36  58  86 120 153 190 243 294 345
#     4  10  23  43  63  85 118 159 200 240 290 354
#
# _framework density 19.041208000000001
#
# number of rings (size 3 to 8) (size 9 to 14) (size 15 to 20)
#    0.000    2.000    1.667    1.000    2.333    7.000 
#    0.000    3.333    0.000    0.000    0.000    0.000 
#    0.000    0.000    0.000    0.000    0.000    0.000 
#
# Total GULP energy -133628.791648 kJ/mol
# GULP energy per Si atom -5567.866319 kJ/mol
# Density = 1.899787 g / cm^3
# Si number density = 19.041208 Si / 1000 Ang^3
#
#
#
# Elastic Constant Matrix: (Units=GPa)
#
#
# Indices 1 2 3 4 5 6 
#
# 1 76.7619 38.4570 29.0974 0.0000 0.8762 0.0000
# 2 38.4570 129.1610 75.4317 0.0000 10.5142 0.0000
# 3 29.0974 75.4317 94.6235 0.0000 -5.3762 0.0000
# 4 0.0000 0.0000 0.0000 30.2449 0.0000 6.0849
# 5 0.8762 10.5142 -5.3762 0.0000 30.4768 0.0000
# 6 0.0000 0.0000 0.0000 6.0849 0.0000 77.6640
#
#
#
# Elastic Compliance Matrix: (Units=1/GPa)
#
#
# Indices 1 2 3 4 5 6 
#
# 1 0.015523 -0.003524 -0.001940 0.000000 0.000427 0.000000
# 2 -0.003524 0.016989 -0.012917 0.000000 -0.008038 0.000000
# 3 -0.001940 -0.012917 0.021938 0.000000 0.008382 0.000000
# 4 0.000000 0.000000 0.000000 0.033593 0.000000 -0.002632
# 5 0.000427 -0.008038 0.008382 0.000000 0.037051 0.000000
# 6 0.000000 0.000000 0.000000 -0.002632 0.000000 0.013082
#
#
# Mechanical properties :
#
#
# Convention : Reuss Voigt Hill
#
# Bulk Modulus (GPa) = 56.53120 65.16872 60.84996
# Shear Modulus (GPa) = 27.64962 38.18116 32.91539
#
# Velocity S-wave (km/s) = 3.81477 4.48279 4.16220
# Velocity P-wave (km/s) = 7.01118 7.81622 7.42462
#
# Compressibility (1/GPa) = 0.01768935
#
# Stress axis : x y z
#
# Youngs Moduli (GPa) = 64.41977 58.86088 45.58312
#
# Poissons Ratio (x) = 0.20740 0.08845
# Poissons Ratio (y) = 0.22698 0.58878
# Poissons Ratio (z) = 0.12500 0.76028
#
# Static dielectric constant tensor:
#      x y z
#    x 1.667690 0.000000 -0.030010 
#    y 0.000000 1.680930 0.000000 
#    z -0.030010 0.000000 1.697390 
# 
# From -- ./inp_files/24005.got.cif
#   From: 2010.05.17/outbox.cif.g08.bks.cpg/sg10_13_cif.got.tgz:24005.got - 2010.06.03 11:33:40.
