data_PCOD9150640
_publ_section_title
;
Structure prediction by ZEFSAII (Michael W. Deem and Ramdas Pophale) SiO2 
 PCOD9150640
Probable space group: P 2/M
;
_chemical_formula_sum "Si O2"
_cell_formula_units_Z 22
_cell_length_a 5.510528
_cell_length_b 25.266094
_cell_length_c 7.242870
_cell_angle_alpha 90.000000
_cell_angle_beta 105.410274
_cell_angle_gamma 90.000000
_cell_volume 972.166308
_symmetry_space_group_name_H-M "P 2/M"
_symmetry_group_IT_number 10
_symmetry_cell_setting 'monoclinic'
loop_
_space_group_symop_operation_xyz
x,y,z
-x,y,-z
-x,-y,-z
x,-y,z
loop_
_atom_site_type_symbol
_atom_site_label
_atom_site_fract_x
_atom_site_fract_y
_atom_site_fract_z
Si Si1 0.795502 0.223879 0.119764
Si Si2 0.915430 0.888570 0.276886
Si Si3 0.044376 0.441699 0.286812
Si Si4 0.726588 0.340913 0.192529
Si Si5 0.412061 0.060852 0.265785
Si Si6 0.500000 0.388212 0.500000
O O1 0.848348 0.173374 0.256825
O O2 0.844380 0.282748 0.207272
O O3 0.500000 0.221771 0.000000
O O4 0.000000 0.217925 0.000000
O O5 0.653352 0.919590 0.198341
O O6 0.000000 0.902788 0.500000
O O7 0.158400 0.904045 0.203124
O O8 0.982109 0.500000 0.203930
O O9 0.336031 0.426363 0.336465
O O10 0.000000 0.442736 0.500000
O O11 0.895826 0.391772 0.179235
O O12 0.646878 0.351511 0.387332
O O13 0.500000 0.340647 0.000000
O O14 0.500000 0.063332 0.500000
O O15 0.351191 0.000000 0.211893
#
# Coordination Sequence:
#
# PCOD9150640 Si02
#       6
#     4   4   4   4   4   2
#     4  11  25  44  64  86 127 169 206 263 321 377
#     4  10  20  36  60  93 118 159 212 258 305 373
#     4   9  19  37  62  93 127 162 208 263 324 387
#     4  10  24  41  63  91 125 168 216 264 324 387
#     4   9  17  32  57  91 127 158 199 258 313 363
#     4  10  21  40  64  92 124 168 205 266 324 392
#
# _framework density 22.629874999999998
#
# number of rings (size 3 to 8) (size 9 to 14) (size 15 to 20)
#    0.000    2.182    0.000    1.909    5.091    5.455 
#    4.909    0.909    0.000   10.909    0.000    0.000 
#    0.000    0.000    0.000    0.000    0.000    0.000 
#
# Total GULP energy -122828.948518 kJ/mol
# GULP energy per Si atom -5583.134024 kJ/mol
# Density = 2.257837 g / cm^3
# Si number density = 22.629875 Si / 1000 Ang^3
#
#
#
# Elastic Constant Matrix: (Units=GPa)
#
#
# Indices 1 2 3 4 5 6 
#
# 1 127.2286 44.8731 19.5520 0.0000 12.0954 0.0000
# 2 44.8731 162.3984 17.5402 0.0000 34.4409 0.0000
# 3 19.5520 17.5402 54.9206 0.0000 9.1216 0.0000
# 4 0.0000 0.0000 0.0000 68.5193 0.0000 -41.5639
# 5 12.0954 34.4409 9.1216 0.0000 30.0192 0.0000
# 6 0.0000 0.0000 0.0000 -41.5639 0.0000 32.8925
#
#
#
# Elastic Compliance Matrix: (Units=1/GPa)
#
#
# Indices 1 2 3 4 5 6 
#
# 1 0.009034 -0.002137 -0.002460 0.000000 -0.000441 0.000000
# 2 -0.002137 0.008707 -0.000531 0.000000 -0.008968 0.000000
# 3 -0.002460 -0.000531 0.019997 0.000000 -0.004476 0.000000
# 4 0.000000 0.000000 0.000000 0.062507 0.000000 0.078986
# 5 -0.000441 -0.008968 -0.004476 0.000000 0.045138 0.000000
# 6 0.000000 0.000000 0.000000 0.078986 0.000000 0.130211
#
#
# Mechanical properties :
#
#
# Convention : Reuss Voigt Hill
#
# Bulk Modulus (GPa) = 36.38784 56.49759 46.44272
# Shear Modulus (GPa) = 16.94856 43.79170 30.37013
#
# Velocity S-wave (km/s) = 2.73966 4.40378 3.66736
# Velocity P-wave (km/s) = 5.11098 7.13287 6.20483
#
# Compressibility (1/GPa) = 0.02748171
#
# Stress axis : x y z
#
# Youngs Moduli (GPa) = 110.69865 114.84622 50.00777
#
# Poissons Ratio (x) = 0.24542 0.12304
# Poissons Ratio (y) = 0.23656 0.02654
# Poissons Ratio (z) = 0.27236 0.06095
#
# Static dielectric constant tensor:
#      x y z
#    x 1.882260 0.000000 0.000860 
#    y 0.000000 1.808480 0.000000 
#    z 0.000860 0.000000 1.866710 
# 
# From -- ./inp_files/15591.got.cif
#   From: 2010.05.17/outbox.cif.g08.bks.cpg/sg10_8_cif.got.tgz:15591.got - 2010.06.03 11:33:40.
