data_PCOD9150537
_publ_section_title
;
Structure prediction by ZEFSAII (Michael W. Deem and Ramdas Pophale) SiO2 
 PCOD9150537
Probable space group: P 2/M
;
_chemical_formula_sum "Si O2"
_cell_formula_units_Z 19
_cell_length_a 8.507042
_cell_length_b 23.739320
_cell_length_c 7.550068
_cell_angle_alpha 90.000000
_cell_angle_beta 36.131179
_cell_angle_gamma 90.000000
_cell_volume 899.045509
_symmetry_space_group_name_H-M "P 2/M"
_symmetry_group_IT_number 10
_symmetry_cell_setting 'monoclinic'
loop_
_space_group_symop_operation_xyz
x,y,z
-x,y,-z
-x,-y,-z
x,-y,z
loop_
_atom_site_type_symbol
_atom_site_label
_atom_site_fract_x
_atom_site_fract_y
_atom_site_fract_z
Si Si1 0.000000 0.000000 0.500000
Si Si2 0.485323 0.158799 0.800154
Si Si3 0.223647 0.500000 0.645348
Si Si4 0.223132 0.377397 0.646141
Si Si5 0.023424 0.092190 0.783539
Si Si6 0.728027 0.727622 0.649795
O O1 0.945251 0.049058 0.700920
O O2 0.681995 0.114178 0.530407
O O3 0.598149 0.220841 0.658660
O O4 0.500000 0.153462 0.000000
O O5 0.183676 0.144360 0.026192
O O6 0.500000 0.500000 0.500000
O O7 0.204110 0.439175 0.570922
O O8 0.000000 0.500000 0.000000
O O9 0.500000 0.374149 0.500000
O O10 0.203614 0.326184 0.529235
O O11 0.000000 0.373503 0.000000
O O12 0.000000 0.066769 0.000000
O O13 0.000000 0.747076 0.500000
O O14 0.500000 0.712489 0.000000
#
# Coordination Sequence:
#
# PCOD9150537 Si02
#       6
#     1   4   2   4   4   4
#     4  12  26  50  72 100 140 170 206 264 332 364
#     4  11  22  45  65  90 130 174 203 260 327 378
#     4   8  16  32  54  80 118 164 210 260 322 372
#     4  10  20  36  59  88 121 165 217 268 313 375
#     4  12  26  44  72 101 128 168 218 259 311 387
#     4  11  23  39  62  91 127 167 206 256 326 385
#
# _framework density 21.133524000000001
#
# number of rings (size 3 to 8) (size 9 to 14) (size 15 to 20)
#    0.000    1.263    2.105    4.737    0.000    4.211 
#    0.000    3.158    0.000    0.000    0.000    0.000 
#    0.000    0.000    0.000    0.000    0.000    0.000 
#
# Total GULP energy -105864.302779 kJ/mol
# GULP energy per Si atom -5571.805409 kJ/mol
# Density = 2.108542 g / cm^3
# Si number density = 21.133524 Si / 1000 Ang^3
#
#
#
# Elastic Constant Matrix: (Units=GPa)
#
#
# Indices 1 2 3 4 5 6 
#
# 1 58.7246 26.4743 22.8910 0.0000 8.2482 0.0000
# 2 26.4743 138.3051 21.2645 0.0000 18.6687 0.0000
# 3 22.8910 21.2645 126.7004 0.0000 -5.1983 0.0000
# 4 0.0000 0.0000 0.0000 217.9570 0.0000 -59.2275
# 5 8.2482 18.6687 -5.1983 0.0000 38.1468 0.0000
# 6 0.0000 0.0000 0.0000 -59.2275 0.0000 51.5255
#
#
#
# Elastic Compliance Matrix: (Units=1/GPa)
#
#
# Indices 1 2 3 4 5 6 
#
# 1 0.020083 -0.002883 -0.003283 0.000000 -0.003379 0.000000
# 2 -0.002883 0.008435 -0.001044 0.000000 -0.003647 0.000000
# 3 -0.003283 -0.001044 0.008760 0.000000 0.002415 0.000000
# 4 0.000000 0.000000 0.000000 0.006672 0.000000 0.007670
# 5 -0.003379 -0.003647 0.002415 0.000000 0.029059 0.000000
# 6 0.000000 0.000000 0.000000 0.007670 0.000000 0.028224
#
#
# Mechanical properties :
#
#
# Convention : Reuss Voigt Hill
#
# Bulk Modulus (GPa) = 43.75137 51.66553 47.70845
# Shear Modulus (GPa) = 40.56019 78.39923 59.47971
#
# Velocity S-wave (km/s) = 4.38566 6.09735 5.31092
# Velocity P-wave (km/s) = 6.81121 8.60642 7.76090
#
# Compressibility (1/GPa) = 0.02285643
#
# Stress axis : x y z
#
# Youngs Moduli (GPa) = 49.79374 118.55111 114.15343
#
# Poissons Ratio (x) = 0.34183 0.37477
# Poissons Ratio (y) = 0.14358 0.11922
# Poissons Ratio (z) = 0.16348 0.12381
#
# Static dielectric constant tensor:
#      x y z
#    x 1.766590 0.000000 -0.002490 
#    y 0.000000 1.796080 0.000000 
#    z -0.002490 0.000000 1.717050 
# 
# From -- ./inp_files/4647.got.cif
#   From: 2010.05.17/outbox.cif.g08.bks.cpg/sg10_3_cif.got.tgz:4647.got - 2010.06.03 11:33:40.
