data_PCOD9150282
_publ_section_title
;
Structure prediction by ZEFSAII (Michael W. Deem and Ramdas Pophale) SiO2 
 PCOD9150282
Probable space group: P 2/M
;
_chemical_formula_sum "Si O2"
_cell_formula_units_Z 32
_cell_length_a 15.080426
_cell_length_b 7.879958
_cell_length_c 26.190827
_cell_angle_alpha 90.000000
_cell_angle_beta 29.261499
_cell_angle_gamma 90.000000
_cell_volume 1521.299308
_symmetry_space_group_name_H-M "P 2/M"
_symmetry_group_IT_number 10
_symmetry_cell_setting 'monoclinic'
loop_
_space_group_symop_operation_xyz
x,y,z
-x,y,-z
-x,-y,-z
x,-y,z
loop_
_atom_site_type_symbol
_atom_site_label
_atom_site_fract_x
_atom_site_fract_y
_atom_site_fract_z
Si Si1 0.524038 0.707217 0.714971
Si Si2 0.136916 0.294035 0.512575
Si Si3 0.310533 0.301152 0.720514
Si Si4 0.213119 0.295078 0.258379
Si Si5 0.916866 0.804209 0.888216
Si Si6 0.999486 0.204014 0.263769
Si Si7 0.578996 0.298229 0.122305
Si Si8 0.649900 0.198113 0.492131
O O1 0.519093 0.500000 0.717217
O O2 0.734555 0.755290 0.599031
O O3 0.406864 0.760303 0.724442
O O4 0.445045 0.769286 0.808120
O O5 0.143890 0.500000 0.512015
O O6 0.238634 0.220932 0.511105
O O7 0.928231 0.245463 0.625492
O O8 0.271493 0.500000 0.745919
O O9 0.456586 0.279123 0.601617
O O10 0.122482 0.209936 0.804371
O O11 0.215299 0.500000 0.255433
O O12 0.128030 0.238154 0.247496
O O13 0.413741 0.231912 0.170377
O O14 0.920659 0.727849 0.829196
O O15 0.864405 0.000000 0.910045
O O16 0.772397 0.727368 0.999394
O O17 0.795147 0.268501 0.378490
O O18 0.981492 0.000000 0.268124
O O19 0.550763 0.500000 0.140467
O O20 0.618059 0.000000 0.497786
#
# Coordination Sequence:
#
# PCOD9150282 Si02
#       8
#     4   4   4   4   4   4   4   4
#     4   8  16  32  55  79 107 139 170 205 257 317
#     4   8  14  28  50  79 109 137 169 207 253 311
#     4  10  20  36  57  81 107 137 169 211 263 314
#     4   9  18  32  55  83 109 135 171 217 261 303
#     4  11  24  40  54  73 101 139 184 224 258 306
#     4   9  20  37  56  76 105 142 175 209 260 315
#     4  10  21  37  54  77 106 139 178 220 260 304
#     4   9  16  30  53  80 106 134 168 209 256 314
#
# _framework density 21.034652000000001
#
# number of rings (size 3 to 8) (size 9 to 14) (size 15 to 20)
#    0.000    2.750    0.000    1.875    0.000    4.000 
#    0.000   13.125    0.000    0.000    0.000   12.250 
#    0.000    0.000    0.000    0.000    0.000    0.000 
#
# Total GULP energy -178427.344879 kJ/mol
# GULP energy per Si atom -5575.854527 kJ/mol
# Density = 2.098678 g / cm^3
# Si number density = 21.034652 Si / 1000 Ang^3
#
#
#
# Elastic Constant Matrix: (Units=GPa)
#
#
# Indices 1 2 3 4 5 6 
#
# 1 -1882.4470 359.5170-2328.9104 0.0000 -162.8028 0.0000
# 2 359.5170 -51.1645 445.5032 0.0000 35.7866 0.0000
# 3 -2328.9104 445.5032-2763.4024 0.0000 -192.9142 0.0000
# 4 0.0000 0.0000 0.0000 11.9000 0.0000 2.5921
# 5 -162.8028 35.7866 -192.9142 0.0000 19.1888 0.0000
# 6 0.0000 0.0000 0.0000 2.5921 0.0000 13.8128
#
#
#
# Elastic Compliance Matrix: (Units=1/GPa)
#
#
# Indices 1 2 3 4 5 6 
#
# 1 0.014788 0.011771 -0.010454 0.000000 -0.001589 0.000000
# 2 0.011771 0.059406 0.000247 0.000000 -0.008445 0.000000
# 3 -0.010454 0.000247 0.008645 0.000000 -0.002244 0.000000
# 4 0.000000 0.000000 0.000000 0.087615 0.000000 -0.016442
# 5 -0.001589 -0.008445 -0.002244 0.000000 0.031823 0.000000
# 6 0.000000 0.000000 0.000000 -0.016442 0.000000 0.075482
#
#
# Mechanical properties :
#
#
# Convention : Reuss Voigt Hill
#
# Bulk Modulus (GPa) = 11.63251 -860.53269 -424.45009
# Shear Modulus (GPa) = 16.48595 -202.56127 -93.03766
#
# Velocity S-wave (km/s) = 2.80259 -9.82384 -6.65783
# Velocity P-wave (km/s) = 4.00186 23.20922 16.16559
#
# Compressibility (1/GPa) = 0.08596595
#
# Stress axis : x y z
#
# Youngs Moduli (GPa) = 67.62323 16.83319 115.67412
#
# Poissons Ratio (x) = -0.19814 1.20927
# Poissons Ratio (y) = -0.79598 -0.02854
# Poissons Ratio (z) = 0.70694 -0.00415
#
# Static dielectric constant tensor:
#      x y z
#    x 1.794620 0.000000 0.031520 
#    y 0.000000 1.760630 0.000000 
#    z 0.031520 0.000000 1.773490 
# 
# From -- ./inp_files/89479.got.cif
#   From: 2010.05.17/outbox.cif.g08.bks.cpg/sg10_45_cif.got.tgz:89479.got - 2010.06.03 11:33:40.
