data_PCOD9150375
_publ_section_title
;
Structure prediction by ZEFSAII (Michael W. Deem and Ramdas Pophale) SiO2 
 PCOD9150375
Probable space group: P 2/M
;
_chemical_formula_sum "Si O2"
_cell_formula_units_Z 24
_cell_length_a 22.059732
_cell_length_b 7.494207
_cell_length_c 10.532637
_cell_angle_alpha 90.000000
_cell_angle_beta 46.717578
_cell_angle_gamma 90.000000
_cell_volume 1267.606180
_symmetry_space_group_name_H-M "P 2/M"
_symmetry_group_IT_number 10
_symmetry_cell_setting 'monoclinic'
loop_
_space_group_symop_operation_xyz
x,y,z
-x,y,-z
-x,-y,-z
x,-y,z
loop_
_atom_site_type_symbol
_atom_site_label
_atom_site_fract_x
_atom_site_fract_y
_atom_site_fract_z
Si Si1 0.912501 0.500000 0.791405
Si Si2 0.347198 0.786046 0.967439
Si Si3 0.104981 0.500000 0.488208
Si Si4 0.299610 0.206022 0.554825
Si Si5 0.760087 0.783097 0.634032
Si Si6 0.784129 0.783441 0.065450
Si Si7 0.478054 0.705022 0.393113
O O1 0.898881 0.500000 0.659165
O O2 0.010902 0.500000 0.673702
O O3 0.866482 0.674110 0.913217
O O4 0.285268 0.737418 0.941283
O O5 0.438887 0.713769 0.809484
O O6 0.354697 0.000000 0.955253
O O7 0.304673 0.735222 0.160889
O O8 0.156034 0.674440 0.458626
O O9 0.275327 0.276129 0.451722
O O10 0.251540 0.277003 0.747085
O O11 0.397775 0.213176 0.442152
O O12 0.274806 0.000000 0.585590
O O13 0.771169 0.000000 0.622441
O O14 0.795022 0.000000 0.046943
O O15 0.500000 0.785152 0.500000
O O16 0.454364 0.500000 0.449610
#
# Coordination Sequence:
#
# PCOD9150375 Si02
#       7
#     2   4   2   4   4   4   4
#     4  11  24  39  67  96 120 149 202 251 302 370
#     4  10  20  36  58  82 118 162 198 245 293 342
#     4  11  24  41  65  94 121 158 190 253 313 357
#     4  10  22  40  61  86 122 165 203 246 297 354
#     4  10  23  42  63  89 123 162 201 243 303 366
#     4  10  21  38  63  91 120 159 200 247 300 352
#     4  11  23  33  53  89 123 157 204 255 292 338
#
# _framework density 18.933326000000001
#
# number of rings (size 3 to 8) (size 9 to 14) (size 15 to 20)
#    0.000    1.667    3.333    0.500    4.667    2.000 
#    0.000    6.667    0.000    3.000    0.000    0.000 
#    0.000    0.000    0.000    0.000    0.000    0.000 
#
# Total GULP energy -133981.902311 kJ/mol
# GULP energy per Si atom -5582.579263 kJ/mol
# Density = 1.889023 g / cm^3
# Si number density = 18.933326 Si / 1000 Ang^3
#
#
#
# Elastic Constant Matrix: (Units=GPa)
#
#
# Indices 1 2 3 4 5 6 
#
# 1 125.9810 26.0501 94.5102 0.0000 3.5302 0.0000
# 2 26.0501 65.7304 35.3087 0.0000 -1.3889 0.0000
# 3 94.5102 35.3087 162.1568 0.0000 -2.2258 0.0000
# 4 0.0000 0.0000 0.0000 6.9430 0.0000 -14.4526
# 5 3.5302 -1.3889 -2.2258 0.0000 41.1915 0.0000
# 6 0.0000 0.0000 0.0000 -14.4526 0.0000 20.7807
#
#
#
# Elastic Compliance Matrix: (Units=1/GPa)
#
#
# Indices 1 2 3 4 5 6 
#
# 1 0.014328 -0.001377 -0.008074 0.000000 -0.001711 0.000000
# 2 -0.001377 0.017367 -0.002971 0.000000 0.000543 0.000000
# 3 -0.008074 -0.002971 0.011536 0.000000 0.001215 0.000000
# 4 0.000000 0.000000 0.000000 -0.321706 0.000000 -0.223740
# 5 -0.001711 0.000543 0.001215 0.000000 0.024507 0.000000
# 6 0.000000 0.000000 0.000000 -0.223740 0.000000 -0.107485
#
#
# Mechanical properties :
#
#
# Convention : Reuss Voigt Hill
#
# Bulk Modulus (GPa) = 54.39062 73.95626 64.17344
# Shear Modulus (GPa) = -15.12962 26.98299 5.92668
#
# Velocity S-wave (km/s) = -2.82990 3.77922 1.77118
# Velocity P-wave (km/s) = 4.25582 7.62821 6.17663
#
# Compressibility (1/GPa) = 0.01838552
#
# Stress axis : x y z
#
# Youngs Moduli (GPa) = 69.79511 57.58003 86.68144
#
# Poissons Ratio (x) = 0.07930 0.69989
# Poissons Ratio (y) = 0.09612 0.25757
# Poissons Ratio (z) = 0.56354 0.17110
#
# Static dielectric constant tensor:
#      x y z
#    x 1.632210 0.000000 0.032030 
#    y 0.000000 1.692580 0.000000 
#    z 0.032030 0.000000 1.650800 
# 
# From -- ./inp_files/33821.got.cif
#   From: 2010.05.17/outbox.cif.g08.bks.cpg/sg10_17_cif.got.tgz:33821.got - 2010.06.03 11:33:40.
