data_PCOD9150436
_publ_section_title
;
Structure prediction by ZEFSAII (Michael W. Deem and Ramdas Pophale) SiO2 
 PCOD9150436
Probable space group: P 2/M
;
_chemical_formula_sum "Si O2"
_cell_formula_units_Z 32
_cell_length_a 8.974373
_cell_length_b 13.970602
_cell_length_c 26.105177
_cell_angle_alpha 90.000000
_cell_angle_beta 30.463124
_cell_angle_gamma 90.000000
_cell_volume 1659.357189
_symmetry_space_group_name_H-M "P 2/M"
_symmetry_group_IT_number 10
_symmetry_cell_setting 'monoclinic'
loop_
_space_group_symop_operation_xyz
x,y,z
-x,y,-z
-x,-y,-z
x,-y,z
loop_
_atom_site_type_symbol
_atom_site_label
_atom_site_fract_x
_atom_site_fract_y
_atom_site_fract_z
Si Si1 0.153212 0.386739 0.594374
Si Si2 0.222251 0.888364 0.051440
Si Si3 0.804302 0.722681 0.009626
Si Si4 0.631990 0.885998 0.292041
Si Si5 0.564020 0.885937 0.539372
Si Si6 0.193739 0.614139 0.198371
Si Si7 0.905414 0.242003 0.584078
Si Si8 0.141441 0.391609 0.103771
O O1 0.500000 0.364773 0.500000
O O2 0.133537 0.500000 0.587118
O O3 0.001407 0.371451 0.694281
O O4 0.976354 0.323457 0.605146
O O5 0.205671 0.832911 0.003189
O O6 0.938818 0.878344 0.171451
O O7 0.272687 0.000000 0.027364
O O8 0.500000 0.846742 0.000000
O O9 0.941805 0.673860 0.918449
O O10 0.487002 0.676624 0.113294
O O11 0.000000 0.704018 0.000000
O O12 0.646621 0.864003 0.349096
O O13 0.405216 0.811824 0.332624
O O14 0.540242 0.000000 0.315177
O O15 0.500000 0.852485 0.500000
O O16 0.870827 0.842068 0.466292
O O17 0.579796 0.000000 0.531913
O O18 0.269590 0.500000 0.172420
O O19 0.036352 0.637797 0.191151
O O20 0.000000 0.279371 0.500000
O O21 0.048566 0.500000 0.121053
O O22 0.500000 0.390687 0.000000
#
# Coordination Sequence:
#
# PCOD9150436 Si02
#       8
#     4   4   4   4   4   4   4   4
#     4  10  22  41  62  87 122 162 201 240 286 349
#     4  10  22  42  61  81 115 163 207 240 287 356
#     4  11  22  35  57  90 119 150 187 249 301 352
#     4   9  19  37  63  88 119 158 195 242 301 354
#     4   9  17  33  57  91 124 153 197 247 292 342
#     4   9  19  38  62  85 114 154 199 244 290 343
#     4  10  20  36  58  89 123 158 194 241 295 351
#     4   8  15  32  56  82 111 145 188 235 288 339
#
# _framework density 19.284576999999999
#
# number of rings (size 3 to 8) (size 9 to 14) (size 15 to 20)
#    0.000    2.500    0.000    3.000    1.750    3.000 
#   13.500    0.000    0.000    0.000    0.000    0.000 
#    0.000    0.000    0.000    0.000    0.000    0.000 
#
# Total GULP energy -178383.527758 kJ/mol
# GULP energy per Si atom -5574.485242 kJ/mol
# Density = 1.924068 g / cm^3
# Si number density = 19.284577 Si / 1000 Ang^3
#
#
#
# Elastic Constant Matrix: (Units=GPa)
#
#
# Indices 1 2 3 4 5 6 
#
# 1 123.1510 49.7485 49.6016 0.0000 24.8606 0.0000
# 2 49.7485 81.9244 48.7698 0.0000 10.8342 0.0000
# 3 49.6016 48.7698 93.4355 0.0000 15.2632 0.0000
# 4 0.0000 0.0000 0.0000 28.8430 0.0000 21.9505
# 5 24.8606 10.8342 15.2632 0.0000 20.9304 0.0000
# 6 0.0000 0.0000 0.0000 21.9505 0.0000 49.9755
#
#
#
# Elastic Compliance Matrix: (Units=1/GPa)
#
#
# Indices 1 2 3 4 5 6 
#
# 1 0.013601 -0.005159 -0.002639 0.000000 -0.011560 0.000000
# 2 -0.005159 0.019807 -0.007862 0.000000 0.001609 0.000000
# 3 -0.002639 -0.007862 0.017063 0.000000 -0.005239 0.000000
# 4 0.000000 0.000000 0.000000 0.052079 0.000000 -0.022874
# 5 -0.011560 0.001609 -0.005239 0.000000 0.064495 0.000000
# 6 0.000000 0.000000 0.000000 -0.022874 0.000000 0.030057
#
#
# Mechanical properties :
#
#
# Convention : Reuss Voigt Hill
#
# Bulk Modulus (GPa) = 52.22037 66.08341 59.15189
# Shear Modulus (GPa) = 21.29418 29.97584 25.63501
#
# Velocity S-wave (km/s) = 3.32657 3.94686 3.64991
# Velocity P-wave (km/s) = 6.47243 7.42376 6.96436
#
# Compressibility (1/GPa) = 0.01914961
#
# Stress axis : x y z
#
# Youngs Moduli (GPa) = 73.52563 50.48669 58.60588
#
# Poissons Ratio (x) = 0.26048 0.15465
# Poissons Ratio (y) = 0.37935 0.46079
# Poissons Ratio (z) = 0.19402 0.39695
#
# Static dielectric constant tensor:
#      x y z
#    x 1.660530 0.000000 0.019200 
#    y 0.000000 1.707760 0.000000 
#    z 0.019200 0.000000 1.678560 
# 
# From -- ./inp_files/88230.got.cif
#   From: 2010.05.17/outbox.cif.g08.bks.cpg/sg10_45_cif.got.tgz:88230.got - 2010.06.03 11:33:40.
