data_PCOD9150724
_publ_section_title
;
Structure prediction by ZEFSAII (Michael W. Deem and Ramdas Pophale) SiO2 
 PCOD9150724
Probable space group: P 2/M
;
_chemical_formula_sum "Si O2"
_cell_formula_units_Z 24
_cell_length_a 16.775051
_cell_length_b 7.658053
_cell_length_c 18.217946
_cell_angle_alpha 90.000000
_cell_angle_beta 147.158236
_cell_angle_gamma 90.000000
_cell_volume 1269.222803
_symmetry_space_group_name_H-M "P 2/M"
_symmetry_group_IT_number 10
_symmetry_cell_setting 'monoclinic'
loop_
_space_group_symop_operation_xyz
x,y,z
-x,y,-z
-x,-y,-z
x,-y,z
loop_
_atom_site_type_symbol
_atom_site_label
_atom_site_fract_x
_atom_site_fract_y
_atom_site_fract_z
Si Si1 0.917578 0.000000 0.858884
Si Si2 0.578802 0.000000 0.638073
Si Si3 0.763009 0.788330 0.117763
Si Si4 0.455432 0.211595 0.811177
Si Si5 0.094601 0.299593 0.924416
Si Si6 0.411700 0.299162 0.240673
Si Si7 0.154285 0.213575 0.654691
O O1 0.970154 0.168054 0.853942
O O2 0.749078 0.000000 0.748737
O O3 0.000000 0.000000 0.000000
O O4 0.500000 0.000000 0.500000
O O5 0.544640 0.832548 0.661948
O O6 0.862033 0.722855 0.127144
O O7 0.820586 0.731762 0.241594
O O8 0.765797 0.000000 0.118131
O O9 0.594342 0.735311 0.969576
O O10 0.490075 0.275962 0.756195
O O11 0.298480 0.268632 0.720772
O O12 0.455952 0.000000 0.809831
O O13 0.056827 0.500000 0.910284
O O14 0.245351 0.255996 0.085059
O O15 0.414795 0.500000 0.266499
O O16 0.000000 0.270707 0.500000
O O17 0.153246 0.000000 0.653599
#
# Coordination Sequence:
#
# PCOD9150724 Si02
#       7
#     2   2   4   4   4   4   4
#     4  12  22  40  68  89 116 149 193 240 295 354
#     4  12  26  44  62  89 118 155 191 238 297 354
#     4   9  16  30  53  79 114 150 191 236 280 336
#     4   9  16  30  55  80 109 150 194 235 283 334
#     4  10  20  36  62  94 119 148 193 246 294 341
#     4  10  20  38  63  89 119 153 194 241 290 350
#     4   9  17  29  48  81 114 150 194 236 280 334
#
# _framework density 18.909209000000001
#
# number of rings (size 3 to 8) (size 9 to 14) (size 15 to 20)
#    0.000    2.167    3.333    0.500    0.000    3.333 
#    3.000    0.833    0.000    5.000    0.000    0.000 
#    0.000    0.000    0.000    0.000    0.000    0.000 
#
# Total GULP energy -134021.277593 kJ/mol
# GULP energy per Si atom -5584.219900 kJ/mol
# Density = 1.886617 g / cm^3
# Si number density = 18.909209 Si / 1000 Ang^3
#
#
#
# Elastic Constant Matrix: (Units=GPa)
#
#
# Indices 1 2 3 4 5 6 
#
# 1 101.2571 33.5830 71.2913 0.0000 -10.2522 0.0000
# 2 33.5830 60.2920 34.0083 0.0000 -14.1051 0.0000
# 3 71.2913 34.0083 130.1938 0.0000 -20.8869 0.0000
# 4 0.0000 0.0000 0.0000 1.3579 0.0000 5.5208
# 5 -10.2522 -14.1051 -20.8869 0.0000 28.1978 0.0000
# 6 0.0000 0.0000 0.0000 5.5208 0.0000 -19.9340
#
#
#
# Elastic Compliance Matrix: (Units=1/GPa)
#
#
# Indices 1 2 3 4 5 6 
#
# 1 0.017458 -0.005545 -0.008554 0.000000 -0.002763 0.000000
# 2 -0.005545 0.022424 -0.001526 0.000000 0.008070 0.000000
# 3 -0.008554 -0.001526 0.013780 0.000000 0.006333 0.000000
# 4 0.000000 0.000000 0.000000 0.346388 0.000000 0.095934
# 5 -0.002763 0.008070 0.006333 0.000000 0.043187 0.000000
# 6 0.000000 0.000000 0.000000 0.095934 0.000000 -0.023596
#
#
# Mechanical properties :
#
#
# Convention : Reuss Voigt Hill
#
# Bulk Modulus (GPa) = 44.62380 63.27867 53.95124
# Shear Modulus (GPa) = 10.90841 12.11504 11.51172
#
# Velocity S-wave (km/s) = 2.40445 2.53394 2.47004
# Velocity P-wave (km/s) = 5.59988 6.48832 6.06040
#
# Compressibility (1/GPa) = 0.02240956
#
# Stress axis : x y z
#
# Youngs Moduli (GPa) = 57.27989 44.59595 72.57020
#
# Poissons Ratio (x) = 0.24731 0.62079
# Poissons Ratio (y) = 0.31764 0.11075
# Poissons Ratio (z) = 0.49000 0.06806
#
# Static dielectric constant tensor:
#      x y z
#    x 1.627180 0.000000 0.000860 
#    y 0.000000 1.696730 0.000000 
#    z 0.000860 0.000000 1.623770 
# 
# From -- ./inp_files/66729.got.cif
#   From: 2010.05.17/outbox.cif.g08.bks.cpg/sg10_34_cif.got.tgz:66729.got - 2010.06.03 11:33:40.
