data_PCOD9150446
_publ_section_title
;
Structure prediction by ZEFSAII (Michael W. Deem and Ramdas Pophale) SiO2 
 PCOD9150446
Probable space group: P 2/M
;
_chemical_formula_sum "Si O2"
_cell_formula_units_Z 20
_cell_length_a 9.653121
_cell_length_b 8.715362
_cell_length_c 27.462660
_cell_angle_alpha 90.000000
_cell_angle_beta 28.547231
_cell_angle_gamma 90.000000
_cell_volume 1104.122850
_symmetry_space_group_name_H-M "P 2/M"
_symmetry_group_IT_number 10
_symmetry_cell_setting 'monoclinic'
loop_
_space_group_symop_operation_xyz
x,y,z
-x,y,-z
-x,-y,-z
x,-y,z
loop_
_atom_site_type_symbol
_atom_site_label
_atom_site_fract_x
_atom_site_fract_y
_atom_site_fract_z
Si Si1 0.165930 0.183887 0.595661
Si Si2 0.620827 0.317167 0.813597
Si Si3 0.680700 0.815937 0.189087
Si Si4 0.353416 0.185023 0.994177
Si Si5 0.864657 0.316137 0.593882
O O1 0.500000 0.225913 0.500000
O O2 0.944966 0.257611 0.702479
O O3 0.056817 0.242849 0.577196
O O4 0.138381 0.000000 0.606581
O O5 0.612450 0.500000 0.812830
O O6 0.421967 0.247769 0.831654
O O7 0.508542 0.260649 0.900180
O O8 0.457744 0.747408 0.297244
O O9 0.652655 0.000000 0.196997
O O10 0.012556 0.775788 0.097685
O O11 0.377133 0.000000 0.982199
O O12 0.500000 0.229616 0.000000
O O13 0.861343 0.500000 0.600395
O O14 0.000000 0.277430 0.500000
#
# Coordination Sequence:
#
# PCOD9150446 Si02
#       5
#     4   4   4   4   4
#     4  10  21  37  58  82 108 142 184 225 265 316
#     4  11  22  36  57  82 110 144 180 221 269 324
#     4  10  20  36  59  81 105 143 186 225 265 316
#     4  10  22  39  57  80 110 142 180 226 272 318
#     4  10  21  36  55  81 113 145 178 221 271 322
#
# _framework density 18.113924999999998
#
# number of rings (size 3 to 8) (size 9 to 14) (size 15 to 20)
#    0.000    1.800    0.000    6.600    0.000    9.200 
#    0.000    6.000    0.000    0.000    0.000    0.000 
#    0.000    0.000    0.000    0.000    0.000    0.000 
#
# Total GULP energy -111738.712201 kJ/mol
# GULP energy per Si atom -5586.935610 kJ/mol
# Density = 1.807270 g / cm^3
# Si number density = 18.113925 Si / 1000 Ang^3
#
#
#
# Elastic Constant Matrix: (Units=GPa)
#
#
# Indices 1 2 3 4 5 6 
#
# 1 94.7592 43.7254 109.9851 0.0000 0.4456 0.0000
# 2 43.7254 61.4379 61.8397 0.0000 -2.5253 0.0000
# 3 109.9851 61.8397 180.5889 0.0000 -4.0346 0.0000
# 4 0.0000 0.0000 0.0000 18.5320 0.0000 28.6685
# 5 0.4456 -2.5253 -4.0346 0.0000 36.4726 0.0000
# 6 0.0000 0.0000 0.0000 28.6685 0.0000 -3.6595
#
#
#
# Elastic Compliance Matrix: (Units=1/GPa)
#
#
# Indices 1 2 3 4 5 6 
#
# 1 0.037592 -0.005751 -0.020997 0.000000 -0.003180 0.000000
# 2 -0.005751 0.025739 -0.005283 0.000000 0.001268 0.000000
# 3 -0.020997 -0.005283 0.020182 0.000000 0.002123 0.000000
# 4 0.000000 0.000000 0.000000 0.004113 0.000000 0.032223
# 5 -0.003180 0.001268 0.002123 0.000000 0.027779 0.000000
# 6 0.000000 0.000000 0.000000 0.032223 0.000000 -0.020829
#
#
# Mechanical properties :
#
#
# Convention : Reuss Voigt Hill
#
# Bulk Modulus (GPa) = 51.40969 85.32071 68.36520
# Shear Modulus (GPa) = 30.28060 18.35140 24.31600
#
# Velocity S-wave (km/s) = 4.09305 3.18639 3.66784
# Velocity P-wave (km/s) = 7.12603 7.79372 7.46734
#
# Compressibility (1/GPa) = 0.01945158
#
# Stress axis : x y z
#
# Youngs Moduli (GPa) = 26.60118 38.85096 49.54980
#
# Poissons Ratio (x) = 0.22344 1.04038
# Poissons Ratio (y) = 0.15299 0.26177
# Poissons Ratio (z) = 0.55854 0.20525
#
# Static dielectric constant tensor:
#      x y z
#    x 1.592370 0.000000 -0.008180 
#    y 0.000000 1.606910 0.000000 
#    z -0.008180 0.000000 1.612970 
# 
# From -- ./inp_files/36619.got.cif
#   From: 2010.05.17/outbox.cif.g08.bks.cpg/sg10_19_cif.got.tgz:36619.got - 2010.06.03 11:33:40.
