data_PCOD9150736
_publ_section_title
;
Structure prediction by ZEFSAII (Michael W. Deem and Ramdas Pophale) SiO2 
 PCOD9150736
Probable space group: P 2/M
;
_chemical_formula_sum "Si O2"
_cell_formula_units_Z 20
_cell_length_a 8.485389
_cell_length_b 14.856080
_cell_length_c 9.278842
_cell_angle_alpha 90.000000
_cell_angle_beta 49.101883
_cell_angle_gamma 90.000000
_cell_volume 884.137354
_symmetry_space_group_name_H-M "P 2/M"
_symmetry_group_IT_number 10
_symmetry_cell_setting 'monoclinic'
loop_
_space_group_symop_operation_xyz
x,y,z
-x,y,-z
-x,-y,-z
x,-y,z
loop_
_atom_site_type_symbol
_atom_site_label
_atom_site_fract_x
_atom_site_fract_y
_atom_site_fract_z
Si Si1 0.802193 0.200574 0.530643
Si Si2 0.000734 0.899197 0.827019
Si Si3 0.706955 0.400424 0.549092
Si Si4 0.765071 0.365408 0.173226
Si Si5 0.391498 0.795740 0.922743
O O1 0.788369 0.308055 0.569299
O O2 0.578096 0.166269 0.714343
O O3 0.000000 0.164683 0.500000
O O4 0.847935 0.172457 0.339537
O O5 0.053914 0.000000 0.747177
O O6 0.766706 0.870570 0.926655
O O7 0.000000 0.897601 0.000000
O O8 0.796583 0.500000 0.523523
O O9 0.741958 0.376257 0.359440
O O10 0.460970 0.406221 0.734394
O O11 0.742331 0.272613 0.095922
O O12 0.000000 0.398675 0.000000
O O13 0.500000 0.753380 0.000000
#
# Coordination Sequence:
#
# PCOD9150736 Si02
#       5
#     4   4   4   4   4
#     4  11  23  42  66  94 132 175 214 263 331 385
#     4  11  25  45  69  99 131 166 214 268 323 390
#     4  10  22  38  61  94 126 167 224 271 314 377
#     4  10  20  36  63  88 125 166 215 259 320 376
#     4  11  22  39  64  96 130 172 217 263 320 385
#
# _framework density 22.620920000000002
#
# number of rings (size 3 to 8) (size 9 to 14) (size 15 to 20)
#    0.000    1.400    2.000    4.200    0.000    6.000 
#    0.000    2.000    0.000    4.200    0.000    0.000 
#    0.000    0.000    0.000    0.000    0.000    0.000 
#
# Total GULP energy -111362.983572 kJ/mol
# GULP energy per Si atom -5568.149179 kJ/mol
# Density = 2.256943 g / cm^3
# Si number density = 22.620920 Si / 1000 Ang^3
#
#
#
# Elastic Constant Matrix: (Units=GPa)
#
#
# Indices 1 2 3 4 5 6 
#
# 1 71.7693 12.3808 41.2638 0.0000 -16.1545 0.0000
# 2 12.3808 99.7501 29.5110 0.0000 -14.9878 0.0000
# 3 41.2638 29.5110 154.8355 0.0000 -34.4835 0.0000
# 4 0.0000 0.0000 0.0000 6.5621 0.0000 3.3137
# 5 -16.1545 -14.9878 -34.4835 0.0000 35.2448 0.0000
# 6 0.0000 0.0000 0.0000 3.3137 0.0000 21.9003
#
#
#
# Elastic Compliance Matrix: (Units=1/GPa)
#
#
# Indices 1 2 3 4 5 6 
#
# 1 0.016963 -0.000443 -0.003512 0.000000 0.004151 0.000000
# 2 -0.000443 0.010934 -0.001247 0.000000 0.003226 0.000000
# 3 -0.003512 -0.001247 0.009149 0.000000 0.006811 0.000000
# 4 0.000000 0.000000 0.000000 0.164997 0.000000 -0.024966
# 5 0.004151 0.003226 0.006811 0.000000 0.038312 0.000000
# 6 0.000000 0.000000 0.000000 -0.024966 0.000000 0.049439
#
#
# Mechanical properties :
#
#
# Convention : Reuss Voigt Hill
#
# Bulk Modulus (GPa) = 37.53473 54.74068 46.13770
# Shear Modulus (GPa) = 16.17709 28.95474 22.56591
#
# Velocity S-wave (km/s) = 2.67711 3.58159 3.16186
# Velocity P-wave (km/s) = 5.11711 6.43081 5.81120
#
# Compressibility (1/GPa) = 0.02664200
#
# Stress axis : x y z
#
# Youngs Moduli (GPa) = 58.95036 91.45954 109.30023
#
# Poissons Ratio (x) = 0.04050 0.38386
# Poissons Ratio (y) = 0.02610 0.13635
# Poissons Ratio (z) = 0.20703 0.11409
#
# Static dielectric constant tensor:
#      x y z
#    x 1.871270 0.000000 0.025410 
#    y 0.000000 1.875380 0.000000 
#    z 0.025410 0.000000 1.842500 
# 
# From -- ./inp_files/19523.got.cif
#   From: 2010.05.17/outbox.cif.g08.bks.cpg/sg10_10_cif.got.tgz:19523.got - 2010.06.03 11:33:40.
