data_PCOD9150492
_publ_section_title
;
Structure prediction by ZEFSAII (Michael W. Deem and Ramdas Pophale) SiO2 
 PCOD9150492
Probable space group: P 2/M
;
_chemical_formula_sum "Si O2"
_cell_formula_units_Z 32
_cell_length_a 20.568146
_cell_length_b 8.808545
_cell_length_c 26.524803
_cell_angle_alpha 90.000000
_cell_angle_beta 158.917035
_cell_angle_gamma 90.000000
_cell_volume 1728.683006
_symmetry_space_group_name_H-M "P 2/M"
_symmetry_group_IT_number 10
_symmetry_cell_setting 'monoclinic'
loop_
_space_group_symop_operation_xyz
x,y,z
-x,y,-z
-x,-y,-z
x,-y,z
loop_
_atom_site_type_symbol
_atom_site_label
_atom_site_fract_x
_atom_site_fract_y
_atom_site_fract_z
Si Si1 0.306055 0.183193 0.338748
Si Si2 0.957805 0.682695 0.140288
Si Si3 0.400484 0.181900 0.833671
Si Si4 0.799172 0.683012 0.132508
Si Si5 0.627465 0.681806 0.827170
Si Si6 0.084194 0.318185 0.671924
Si Si7 0.713019 0.181716 0.362875
Si Si8 0.212656 0.817365 0.157543
O O1 0.500000 0.232483 0.500000
O O2 0.280879 0.227799 0.262201
O O3 0.141237 0.247251 0.252011
O O4 0.297854 0.000000 0.334801
O O5 0.972213 0.500000 0.149292
O O6 0.908445 0.728763 0.161518
O O7 0.791171 0.726593 0.983280
O O8 0.260153 0.255097 0.770910
O O9 0.338145 0.221870 0.731739
O O10 0.397118 0.000000 0.836243
O O11 0.601743 0.242776 0.988247
O O12 0.776514 0.500000 0.114467
O O13 0.898972 0.721472 0.256744
O O14 0.612126 0.500000 0.816870
O O15 0.443659 0.753885 0.714683
O O16 0.680108 0.738876 0.809926
O O17 0.079269 0.500000 0.663912
O O18 0.905497 0.248828 0.517870
O O19 0.718900 0.000000 0.370698
O O20 0.229214 0.000000 0.164318
O O21 0.000000 0.779336 0.000000
#
# Coordination Sequence:
#
# PCOD9150492 Si02
#       8
#     4   4   4   4   4   4   4   4
#     4  10  22  39  59  86 119 154 192 234 288 350
#     4  10  21  38  61  86 116 152 192 242 291 345
#     4  11  23  39  62  90 119 157 203 247 296 355
#     4  10  22  41  62  88 121 157 200 245 298 357
#     4  11  22  37  62  90 116 151 199 247 293 349
#     4  11  24  40  61  88 122 160 198 247 302 354
#     4  11  24  41  61  87 121 158 199 247 300 356
#     4  10  20  36  59  85 116 152 190 237 287 340
#
# _framework density 18.511202999999998
#
# number of rings (size 3 to 8) (size 9 to 14) (size 15 to 20)
#    0.000    1.500    2.500    2.250    0.000    8.500 
#    0.000    2.500    0.000    0.000    0.000    0.000 
#    0.000    0.000    0.000    0.000    0.000    0.000 
#
# Total GULP energy -178887.025964 kJ/mol
# GULP energy per Si atom -5590.219561 kJ/mol
# Density = 1.846907 g / cm^3
# Si number density = 18.511203 Si / 1000 Ang^3
#
#
#
# Elastic Constant Matrix: (Units=GPa)
#
#
# Indices 1 2 3 4 5 6 
#
# 1 94.0022 20.1925 -0.4800 0.0000 2.5736 0.0000
# 2 20.1925 20.9151 11.5335 0.0000 -5.2198 0.0000
# 3 -0.4800 11.5335 41.4562 0.0000 -14.6296 0.0000
# 4 0.0000 0.0000 0.0000 28.6695 0.0000 9.6907
# 5 2.5736 -5.2198 -14.6296 0.0000 28.5564 0.0000
# 6 0.0000 0.0000 0.0000 9.6907 0.0000 31.4749
#
#
#
# Elastic Compliance Matrix: (Units=1/GPa)
#
#
# Indices 1 2 3 4 5 6 
#
# 1 0.014272 -0.016531 0.003960 0.000000 -0.002279 0.000000
# 2 -0.016531 0.075806 -0.019367 0.000000 0.005424 0.000000
# 3 0.003960 -0.019367 0.034400 0.000000 0.013726 0.000000
# 4 0.000000 0.000000 0.000000 0.038932 0.000000 -0.011987
# 5 -0.002279 0.005424 0.013726 0.000000 0.043247 0.000000
# 6 0.000000 0.000000 0.000000 -0.011987 0.000000 0.035462
#
#
# Mechanical properties :
#
#
# Convention : Reuss Voigt Hill
#
# Bulk Modulus (GPa) = 16.50140 24.31840 20.40990
# Shear Modulus (GPa) = 15.32824 26.08200 20.70512
#
# Velocity S-wave (km/s) = 2.88071 3.75772 3.34805
# Velocity P-wave (km/s) = 4.47194 5.65623 5.09859
#
# Compressibility (1/GPa) = 0.06060093
#
# Stress axis : x y z
#
# Youngs Moduli (GPa) = 70.06864 13.19156 29.07002
#
# Poissons Ratio (x) = 0.21807 -0.11512
# Poissons Ratio (y) = 1.15832 0.56300
# Poissons Ratio (z) = -0.27748 0.25548
#
# Static dielectric constant tensor:
#      x y z
#    x 1.615460 0.000000 -0.021120 
#    y 0.000000 1.621600 0.000000 
#    z -0.021120 0.000000 1.604480 
# 
# From -- ./inp_files/93800.got.cif
#   From: 2010.05.17/outbox.cif.g08.bks.cpg/sg10_47_cif.got.tgz:93800.got - 2010.06.03 11:33:40.
