data_PCOD9150867
_publ_section_title
;
Structure prediction by ZEFSAII (Michael W. Deem and Ramdas Pophale) SiO2 
 PCOD9150867
Probable space group: P 2/M
;
_chemical_formula_sum "Si O2"
_cell_formula_units_Z 28
_cell_length_a 7.948297
_cell_length_b 8.724683
_cell_length_c 25.888447
_cell_angle_alpha 90.000000
_cell_angle_beta 47.969360
_cell_angle_gamma 90.000000
_cell_volume 1333.502921
_symmetry_space_group_name_H-M "P 2/M"
_symmetry_group_IT_number 10
_symmetry_cell_setting 'monoclinic'
loop_
_space_group_symop_operation_xyz
x,y,z
-x,y,-z
-x,-y,-z
x,-y,z
loop_
_atom_site_type_symbol
_atom_site_label
_atom_site_fract_x
_atom_site_fract_y
_atom_site_fract_z
Si Si1 0.021354 0.317825 0.675078
Si Si2 0.634266 0.815747 0.824215
Si Si3 0.362761 0.182752 0.689200
Si Si4 0.869758 0.317058 0.079567
Si Si5 0.734728 0.331574 0.561967
Si Si6 0.962500 0.183551 0.850066
Si Si7 0.740062 0.824904 0.462395
O O1 0.030308 0.500000 0.678263
O O2 0.221903 0.239026 0.667693
O O3 0.067731 0.267570 0.606722
O O4 0.790678 0.254269 0.746985
O O5 0.378131 0.759625 0.871301
O O6 0.757347 0.771313 0.853423
O O7 0.644575 0.000000 0.818741
O O8 0.596585 0.276460 0.640226
O O9 0.195119 0.217100 0.771087
O O10 0.396347 0.000000 0.680954
O O11 0.841717 0.500000 0.087981
O O12 0.013701 0.261881 0.099495
O O13 0.000000 0.277953 0.000000
O O14 0.636338 0.500000 0.567689
O O15 0.722112 0.185058 0.527120
O O16 0.000000 0.354640 0.500000
O O17 0.947933 0.000000 0.859993
O O18 0.500000 0.748054 0.500000
O O19 0.749253 0.000000 0.442707
#
# Coordination Sequence:
#
# PCOD9150867 Si02
#       7
#     4   4   4   4   4   4   4
#     4  11  21  35  60  89 120 157 200 254 310 364
#     4  10  22  42  67  95 128 166 215 263 309 375
#     4  10  20  37  59  84 115 154 201 249 303 365
#     4  11  25  43  65  97 135 170 206 254 313 376
#     4  11  24  38  53  79 114 153 199 251 307 363
#     4   9  21  41  66  94 124 164 210 259 313 371
#     4  11  22  36  57  82 112 154 200 247 297 353
#
# _framework density 20.997326999999999
#
# number of rings (size 3 to 8) (size 9 to 14) (size 15 to 20)
#    0.000    1.571    1.429    4.286    0.000    8.000 
#    0.000    5.714    0.000    0.000    0.000    0.000 
#    0.000    0.000    0.000    0.000    0.000    0.000 
#
# Total GULP energy -156101.355954 kJ/mol
# GULP energy per Si atom -5575.048427 kJ/mol
# Density = 2.094954 g / cm^3
# Si number density = 20.997327 Si / 1000 Ang^3
#
#
#
# Elastic Constant Matrix: (Units=GPa)
#
#
# Indices 1 2 3 4 5 6 
#
# 1 28.7665 9.0432 8.6775 0.0000 -6.5190 0.0000
# 2 9.0432 75.9577 33.2682 0.0000 -0.4041 0.0000
# 3 8.6775 33.2682 68.1548 0.0000 -0.9067 0.0000
# 4 0.0000 0.0000 0.0000 31.4627 0.0000 3.6053
# 5 -6.5190 -0.4041 -0.9067 0.0000 33.8489 0.0000
# 6 0.0000 0.0000 0.0000 3.6053 0.0000 105.0893
#
#
#
# Elastic Compliance Matrix: (Units=1/GPa)
#
#
# Indices 1 2 3 4 5 6 
#
# 1 0.038371 -0.003094 -0.003279 0.000000 0.007265 0.000000
# 2 -0.003094 0.016995 -0.007910 0.000000 -0.000605 0.000000
# 3 -0.003279 -0.007910 0.018948 0.000000 -0.000218 0.000000
# 4 0.000000 0.000000 0.000000 0.031909 0.000000 -0.001095
# 5 0.007265 -0.000605 -0.000218 0.000000 0.030929 0.000000
# 6 0.000000 0.000000 0.000000 -0.001095 0.000000 0.009553
#
#
# Mechanical properties :
#
#
# Convention : Reuss Voigt Hill
#
# Bulk Modulus (GPa) = 21.85828 30.53966 26.19897
# Shear Modulus (GPa) = 26.24419 42.20618 34.22519
#
# Velocity S-wave (km/s) = 3.53920 4.48825 4.04168
# Velocity P-wave (km/s) = 5.20902 6.43703 5.85531
#
# Compressibility (1/GPa) = 0.04574925
#
# Stress axis : x y z
#
# Youngs Moduli (GPa) = 26.06164 58.84214 52.77612
#
# Poissons Ratio (x) = 0.18203 0.17303
# Poissons Ratio (y) = 0.08062 0.41744
# Poissons Ratio (z) = 0.08545 0.46542
#
# Static dielectric constant tensor:
#      x y z
#    x 1.911130 0.000000 -0.008000 
#    y 0.000000 1.724230 0.000000 
#    z -0.008000 0.000000 1.745270 
# 
# From -- ./inp_files/91974.got.cif
#   From: 2010.05.17/outbox.cif.g08.bks.cpg/sg10_46_cif.got.tgz:91974.got - 2010.06.03 11:33:40.
