data_PCOD9150997
_publ_section_title
;
Structure prediction by ZEFSAII (Michael W. Deem and Ramdas Pophale) SiO2 
 PCOD9150997
Probable space group: P 2/M
;
_chemical_formula_sum "Si O2"
_cell_formula_units_Z 26
_cell_length_a 21.656917
_cell_length_b 13.801037
_cell_length_c 19.667130
_cell_angle_alpha 90.000000
_cell_angle_beta 12.879069
_cell_angle_gamma 90.000000
_cell_volume 1310.230580
_symmetry_space_group_name_H-M "P 2/M"
_symmetry_group_IT_number 10
_symmetry_cell_setting 'monoclinic'
loop_
_space_group_symop_operation_xyz
x,y,z
-x,y,-z
-x,-y,-z
x,-y,z
loop_
_atom_site_type_symbol
_atom_site_label
_atom_site_fract_x
_atom_site_fract_y
_atom_site_fract_z
Si Si1 0.103988 0.107393 0.144668
Si Si2 0.705909 0.387776 0.342575
Si Si3 0.299744 0.500000 0.148910
Si Si4 0.819610 0.614625 0.460839
Si Si5 0.526354 0.304379 0.890633
Si Si6 0.602757 0.694756 0.197791
Si Si7 0.508604 0.892972 0.145562
O O1 0.269237 0.197101 0.935346
O O2 0.230898 0.105267 0.084097
O O3 0.153552 0.000000 0.061115
O O4 0.774045 0.120988 0.506986
O O5 0.500000 0.387010 0.500000
O O6 0.745199 0.500000 0.322917
O O7 0.575028 0.330322 0.545329
O O8 0.000000 0.350623 0.000000
O O9 0.000000 0.500000 0.500000
O O10 0.500000 0.500000 0.000000
O O11 0.345969 0.398196 0.061937
O O12 0.763335 0.500000 0.525851
O O13 0.806051 0.665482 0.549886
O O14 0.593754 0.669057 0.655696
O O15 0.122863 0.629130 0.103842
O O16 0.454573 0.197907 0.942578
O O17 0.500000 0.302272 0.000000
O O18 0.483149 0.000000 0.140403
#
# Coordination Sequence:
#
# PCOD9150997 Si02
#       7
#     4   4   2   4   4   4   4
#     4  10  20  37  61  87 115 150 197 249 301 351
#     4  10  21  37  58  87 123 158 189 229 287 355
#     4  10  24  40  56  78 110 156 192 234 302 370
#     4  12  24  38  58  90 119 156 205 253 293 350
#     4  11  23  40  58  83 117 158 198 249 307 361
#     4  12  22  40  64  89 120 159 199 244 295 349
#     4  10  21  39  59  83 114 151 201 257 309 354
#
# _framework density 19.843834999999999
#
# number of rings (size 3 to 8) (size 9 to 14) (size 15 to 20)
#    0.000    1.231    3.846    2.308    0.000    6.462 
#    0.000    0.000    0.000    4.154    0.000    0.000 
#    0.000    0.000    0.000    0.000    0.000    0.000 
#
# Total GULP energy -145069.515919 kJ/mol
# GULP energy per Si atom -5579.596766 kJ/mol
# Density = 1.979867 g / cm^3
# Si number density = 19.843835 Si / 1000 Ang^3
#
#
#
# Elastic Constant Matrix: (Units=GPa)
#
#
# Indices 1 2 3 4 5 6 
#
# 1 49.2163 18.8706 14.0361 0.0000 11.4264 0.0000
# 2 18.8706 164.2355 14.4181 0.0000 21.3420 0.0000
# 3 14.0361 14.4181 73.2261 0.0000 -0.4988 0.0000
# 4 0.0000 0.0000 0.0000 28.5538 0.0000 11.0424
# 5 11.4264 21.3420 -0.4988 0.0000 40.0799 0.0000
# 6 0.0000 0.0000 0.0000 11.0424 0.0000 36.8454
#
#
#
# Elastic Compliance Matrix: (Units=1/GPa)
#
#
# Indices 1 2 3 4 5 6 
#
# 1 0.023500 -0.001558 -0.004238 0.000000 -0.005922 0.000000
# 2 -0.001558 0.006773 -0.001057 0.000000 -0.003176 0.000000
# 3 -0.004238 -0.001057 0.014690 0.000000 0.001954 0.000000
# 4 0.000000 0.000000 0.000000 0.039613 0.000000 -0.011872
# 5 -0.005922 -0.003176 0.001954 0.000000 0.028354 0.000000
# 6 0.000000 0.000000 0.000000 -0.011872 0.000000 0.030698
#
#
# Mechanical properties :
#
#
# Convention : Reuss Voigt Hill
#
# Bulk Modulus (GPa) = 31.99274 42.36970 37.18122
# Shear Modulus (GPa) = 29.80578 37.05268 33.42923
#
# Velocity S-wave (km/s) = 3.87979 4.32581 4.10886
# Velocity P-wave (km/s) = 6.01894 6.80795 6.42557
#
# Compressibility (1/GPa) = 0.03125709
#
# Stress axis : x y z
#
# Youngs Moduli (GPa) = 42.55383 147.63869 68.07353
#
# Poissons Ratio (x) = 0.23009 0.28849
# Poissons Ratio (y) = 0.06632 0.07192
# Poissons Ratio (z) = 0.18034 0.15599
#
# Static dielectric constant tensor:
#      x y z
#    x 1.706670 0.000000 -0.007620 
#    y 0.000000 1.764370 0.000000 
#    z -0.007620 0.000000 1.721490 
# 
# From -- ./inp_files/86619.got.cif
#   From: 2010.05.17/outbox.cif.g08.bks.cpg/sg10_44_cif.got.tgz:86619.got - 2010.06.03 11:33:40.
