data_PCOD9150271
_publ_section_title
;
Structure prediction by ZEFSAII (Michael W. Deem and Ramdas Pophale) SiO2 
 PCOD9150271
Probable space group: P 2/M
;
_chemical_formula_sum "Si O2"
_cell_formula_units_Z 28
_cell_length_a 8.198866
_cell_length_b 14.938298
_cell_length_c 13.425418
_cell_angle_alpha 90.000000
_cell_angle_beta 75.577372
_cell_angle_gamma 90.000000
_cell_volume 1592.485783
_symmetry_space_group_name_H-M "P 2/M"
_symmetry_group_IT_number 10
_symmetry_cell_setting 'monoclinic'
loop_
_space_group_symop_operation_xyz
x,y,z
-x,y,-z
-x,-y,-z
x,-y,z
loop_
_atom_site_type_symbol
_atom_site_label
_atom_site_fract_x
_atom_site_fract_y
_atom_site_fract_z
Si Si1 0.542186 0.395064 0.661913
Si Si2 0.999645 0.227533 0.387193
Si Si3 0.225729 0.604220 0.566650
Si Si4 0.862443 0.796260 0.942015
Si Si5 0.399818 0.103501 0.875740
Si Si6 0.113994 0.101402 0.758465
Si Si7 0.674466 0.252188 0.790349
O O1 0.552928 0.500000 0.687096
O O2 0.680541 0.378982 0.553296
O O3 0.364202 0.380919 0.632553
O O4 0.572809 0.331497 0.751608
O O5 0.182770 0.225251 0.310492
O O6 0.000000 0.195823 0.500000
O O7 0.926494 0.327939 0.397163
O O8 0.883550 0.166268 0.335641
O O9 0.175704 0.500000 0.576404
O O10 0.772303 0.728006 0.879393
O O11 0.970439 0.863053 0.855874
O O12 0.720676 0.851724 0.022788
O O13 0.000000 0.758948 0.000000
O O14 0.286655 0.103602 0.793344
O O15 0.556540 0.168104 0.833594
O O16 0.441259 0.000000 0.892821
O O17 0.075956 0.000000 0.734894
#
# Coordination Sequence:
#
# PCOD9150271 Si02
#       7
#     4   4   4   4   4   4   4
#     4   9  18  34  56  81 105 135 174 219 265 308
#     4  11  21  33  49  76 113 147 176 212 258 312
#     4   9  18  34  56  78 105 138 176 220 262 304
#     4   9  19  35  56  79 105 137 175 224 273 309
#     4  10  20  36  57  80 103 133 180 233 271 304
#     4   9  19  35  54  76 106 144 180 214 262 319
#     4  11  21  32  53  82 109 138 176 218 265 316
#
# _framework density 17.582574000000001
#
# number of rings (size 3 to 8) (size 9 to 14) (size 15 to 20)
#    0.000    2.286    1.429    2.571    0.000    6.286 
#    0.000    0.000    0.000    3.857    0.000    2.000 
#    0.000    0.000    0.000    0.000    0.000    0.000 
#
# Total GULP energy -156138.864170 kJ/mol
# GULP energy per Si atom -5576.388006 kJ/mol
# Density = 1.754256 g / cm^3
# Si number density = 17.582574 Si / 1000 Ang^3
#
#
#
# Elastic Constant Matrix: (Units=GPa)
#
#
# Indices 1 2 3 4 5 6 
#
# 1 79.2730 43.2196 50.8347 0.0000 4.5955 0.0000
# 2 43.2196 59.5208 44.7061 0.0000 23.2433 0.0000
# 3 50.8347 44.7061 102.7358 0.0000 20.9281 0.0000
# 4 0.0000 0.0000 0.0000 9.1947 0.0000 -1.0028
# 5 4.5955 23.2433 20.9281 0.0000 32.6819 0.0000
# 6 0.0000 0.0000 0.0000 -1.0028 0.0000 18.5854
#
#
#
# Elastic Compliance Matrix: (Units=1/GPa)
#
#
# Indices 1 2 3 4 5 6 
#
# 1 0.028115 -0.020395 -0.008264 0.000000 0.015843 0.000000
# 2 -0.020395 0.045065 -0.004111 0.000000 -0.026551 0.000000
# 3 -0.008264 -0.004111 0.016996 0.000000 -0.006798 0.000000
# 4 0.000000 0.000000 0.000000 0.109402 0.000000 0.005903
# 5 0.015843 -0.026551 -0.006798 0.000000 0.051606 0.000000
# 6 0.000000 0.000000 0.000000 0.005903 0.000000 0.054124
#
#
# Mechanical properties :
#
#
# Convention : Reuss Voigt Hill
#
# Bulk Modulus (GPa) = 40.58705 57.67227 49.12966
# Shear Modulus (GPa) = 13.19052 18.94368 16.06710
#
# Velocity S-wave (km/s) = 2.74196 3.28596 3.02621
# Velocity P-wave (km/s) = 5.75832 6.87522 6.34141
#
# Compressibility (1/GPa) = 0.02463840
#
# Stress axis : x y z
#
# Youngs Moduli (GPa) = 35.56862 22.18993 58.83596
#
# Poissons Ratio (x) = 0.45255 0.48622
# Poissons Ratio (y) = 0.72541 0.24185
# Poissons Ratio (z) = 0.29394 0.09121
#
# Static dielectric constant tensor:
#      x y z
#    x 1.642020 0.000000 0.028080 
#    y 0.000000 1.574320 0.000000 
#    z 0.028080 0.000000 1.587760 
# 
# From -- ./inp_files/42649.got.cif
#   From: 2010.05.17/outbox.cif.g08.bks.cpg/sg10_22_cif.got.tgz:42649.got - 2010.06.03 11:33:40.
