data_PCOD9150004
_publ_section_title
;
Structure prediction by ZEFSAII (Michael W. Deem and Ramdas Pophale) SiO2 
 PCOD9150004
Probable space group: P 2/M
;
_chemical_formula_sum "Si O2"
_cell_formula_units_Z 24
_cell_length_a 10.982367
_cell_length_b 14.099065
_cell_length_c 14.019324
_cell_angle_alpha 90.000000
_cell_angle_beta 146.902394
_cell_angle_gamma 90.000000
_cell_volume 1185.384480
_symmetry_space_group_name_H-M "P 2/M"
_symmetry_group_IT_number 10
_symmetry_cell_setting 'monoclinic'
loop_
_space_group_symop_operation_xyz
x,y,z
-x,y,-z
-x,-y,-z
x,-y,z
loop_
_atom_site_type_symbol
_atom_site_label
_atom_site_fract_x
_atom_site_fract_y
_atom_site_fract_z
Si Si1 0.241854 0.608394 0.707771
Si Si2 0.902898 0.887565 0.042349
Si Si3 0.957110 0.608133 0.220113
Si Si4 0.476243 0.234626 0.732195
Si Si5 0.728727 0.785762 0.589737
Si Si6 0.755399 0.602605 0.882012
O O1 0.338878 0.500000 0.763277
O O2 0.193903 0.628781 0.786936
O O3 0.360814 0.696276 0.733363
O O4 0.000000 0.602812 0.500000
O O5 0.084172 0.849309 0.235825
O O6 0.874028 0.000000 0.031880
O O7 0.666520 0.833979 0.897303
O O8 0.000000 0.866940 0.000000
O O9 0.040385 0.500000 0.284869
O O10 0.157802 0.681578 0.340275
O O11 0.803041 0.611586 0.025719
O O12 0.316137 0.185438 0.550185
O O13 0.606853 0.311486 0.752159
O O14 0.500000 0.792545 0.500000
O O15 0.658567 0.500000 0.794847
O O16 0.000000 0.608110 0.000000
#
# Coordination Sequence:
#
# PCOD9150004 Si02
#       6
#     4   4   4   4   4   4
#     4  10  21  38  61  94 134 177 224 264 300 365
#     4  11  25  46  68  95 128 158 208 279 340 397
#     4  10  21  38  59  92 135 178 219 255 301 370
#     4  12  22  38  66  92 127 170 212 262 321 379
#     4  12  23  38  66  97 129 166 212 262 326 392
#     4  10  20  35  57  89 133 172 207 255 312 377
#
# _framework density 20.246594999999999
#
# number of rings (size 3 to 8) (size 9 to 14) (size 15 to 20)
#    0.000    1.167    5.000    2.000    0.000    2.667 
#    0.000    2.500    0.000    2.500    0.000    0.000 
#    0.000    0.000    0.000    0.000    0.000    0.000 
#
# Total GULP energy -134053.022397 kJ/mol
# GULP energy per Si atom -5585.542600 kJ/mol
# Density = 2.020051 g / cm^3
# Si number density = 20.246595 Si / 1000 Ang^3
#
#
#
# Elastic Constant Matrix: (Units=GPa)
#
#
# Indices 1 2 3 4 5 6 
#
# 1 103.0599 43.4388 43.0641 0.0000 -12.7164 0.0000
# 2 43.4388 106.7471 51.0390 0.0000 9.3498 0.0000
# 3 43.0641 51.0390 113.8688 0.0000 -5.2789 0.0000
# 4 0.0000 0.0000 0.0000 3.2882 0.0000 6.3002
# 5 -12.7164 9.3498 -5.2789 0.0000 31.5610 0.0000
# 6 0.0000 0.0000 0.0000 6.3002 0.0000 25.0003
#
#
#
# Elastic Compliance Matrix: (Units=1/GPa)
#
#
# Indices 1 2 3 4 5 6 
#
# 1 0.013673 -0.004842 -0.002700 0.000000 0.006492 0.000000
# 2 -0.004842 0.014295 -0.004901 0.000000 -0.007005 0.000000
# 3 -0.002700 -0.004901 0.012111 0.000000 0.002390 0.000000
# 4 0.000000 0.000000 0.000000 0.588071 0.000000 -0.148197
# 5 0.006492 -0.007005 0.002390 0.000000 0.036775 0.000000
# 6 0.000000 0.000000 0.000000 -0.148197 0.000000 0.077346
#
#
# Mechanical properties :
#
#
# Convention : Reuss Voigt Hill
#
# Bulk Modulus (GPa) = 65.81787 66.52884 66.17335
# Shear Modulus (GPa) = 6.47483 24.37880 15.42682
#
# Velocity S-wave (km/s) = 1.79023 3.47377 2.76333
# Velocity P-wave (km/s) = 6.07058 7.00143 6.55256
#
# Compressibility (1/GPa) = 0.01519344
#
# Stress axis : x y z
#
# Youngs Moduli (GPa) = 73.13693 69.95378 82.57146
#
# Poissons Ratio (x) = 0.33869 0.22293
# Poissons Ratio (y) = 0.35411 0.40470
# Poissons Ratio (z) = 0.19746 0.34285
#
# Static dielectric constant tensor:
#      x y z
#    x 1.942970 0.000000 -0.207180 
#    y 0.000000 1.704060 0.000000 
#    z -0.207180 0.000000 2.012090 
# 
# From -- ./inp_files/65172.got.cif
#   From: 2010.05.17/outbox.cif.g08.bks.cpg/sg10_33_cif.got.tgz:65172.got - 2010.06.03 11:33:40.
