data_PCOD9150263
_publ_section_title
;
Structure prediction by ZEFSAII (Michael W. Deem and Ramdas Pophale) SiO2 
 PCOD9150263
Probable space group: P 2/M
;
_chemical_formula_sum "Si O2"
_cell_formula_units_Z 18
_cell_length_a 7.077403
_cell_length_b 22.197940
_cell_length_c 8.006062
_cell_angle_alpha 90.000000
_cell_angle_beta 140.592994
_cell_angle_gamma 90.000000
_cell_volume 798.471771
_symmetry_space_group_name_H-M "P 2/M"
_symmetry_group_IT_number 10
_symmetry_cell_setting 'monoclinic'
loop_
_space_group_symop_operation_xyz
x,y,z
-x,y,-z
-x,-y,-z
x,-y,z
loop_
_atom_site_type_symbol
_atom_site_label
_atom_site_fract_x
_atom_site_fract_y
_atom_site_fract_z
Si Si1 0.854839 0.500000 0.217148
Si Si2 0.149994 0.747410 0.274979
Si Si3 0.146460 0.630767 0.782903
Si Si4 0.801677 0.931829 0.034508
Si Si5 0.700986 0.864852 0.467640
O O1 0.068900 0.565027 0.808078
O O2 0.000000 0.500000 0.500000
O O3 0.500000 0.500000 0.000000
O O4 0.500000 0.731847 0.500000
O O5 0.150092 0.799137 0.417045
O O6 0.971471 0.687604 0.197219
O O7 0.000000 0.771479 0.000000
O O8 0.000000 0.633084 0.500000
O O9 0.500000 0.634659 0.000000
O O10 0.036424 0.912571 0.333795
O O11 0.692085 0.000000 0.976127
O O12 0.532747 0.884939 0.830452
O O13 0.000000 0.930208 0.000000
O O14 0.500000 0.866097 0.500000
#
# Coordination Sequence:
#
# PCOD9150263 Si02
#       5
#     2   4   4   4   4
#     4   8  16  32  54  76 100 132 168 210 256 296
#     4  11  21  34  51  75 108 141 169 205 260 312
#     4  10  20  36  57  79 103 135 176 214 250 299
#     4   9  15  23  37  58  86 123 163 199 240 294
#     4   9  16  26  39  59  92 129 158 194 250 303
#
# _framework density 22.543064000000001
#
# number of rings (size 3 to 8) (size 9 to 14) (size 15 to 20)
#    0.000    2.444    0.000    5.333    0.000    2.667 
#    0.000    1.111    0.000    0.000    0.000    0.000 
#    0.000   17.778    0.000    0.000    0.000    2.000 
#
# Total GULP energy -100490.311712 kJ/mol
# GULP energy per Si atom -5582.795095 kJ/mol
# Density = 2.249175 g / cm^3
# Si number density = 22.543064 Si / 1000 Ang^3
#
#
#
# Elastic Constant Matrix: (Units=GPa)
#
#
# Indices 1 2 3 4 5 6 
#
# 1 60.4486 20.9742 31.1977 0.0000 -0.5991 0.0000
# 2 20.9742 181.7985 42.9504 0.0000 9.2565 0.0000
# 3 31.1977 42.9504 157.6984 0.0000 22.1255 0.0000
# 4 0.0000 0.0000 0.0000 34.7598 0.0000 10.9902
# 5 -0.5991 9.2565 22.1255 0.0000 22.0765 0.0000
# 6 0.0000 0.0000 0.0000 10.9902 0.0000 31.8600
#
#
#
# Elastic Compliance Matrix: (Units=1/GPa)
#
#
# Indices 1 2 3 4 5 6 
#
# 1 0.019259 -0.001513 -0.004143 0.000000 0.005309 0.000000
# 2 -0.001513 0.006017 -0.001140 0.000000 -0.001422 0.000000
# 3 -0.004143 -0.001140 0.008634 0.000000 -0.008288 0.000000
# 4 0.000000 0.000000 0.000000 0.032291 0.000000 -0.011139
# 5 0.005309 -0.001422 -0.008288 0.000000 0.054343 0.000000
# 6 0.000000 0.000000 0.000000 -0.011139 0.000000 0.035230
#
#
# Mechanical properties :
#
#
# Convention : Reuss Voigt Hill
#
# Bulk Modulus (GPa) = 49.21848 65.57668 57.39758
# Shear Modulus (GPa) = 28.38686 38.06081 33.22384
#
# Velocity S-wave (km/s) = 3.55241 4.11342 3.84317
# Velocity P-wave (km/s) = 6.22147 7.19118 6.72383
#
# Compressibility (1/GPa) = 0.02031757
#
# Stress axis : x y z
#
# Youngs Moduli (GPa) = 51.92441 166.19892 115.82120
#
# Poissons Ratio (x) = 0.25154 0.47981
# Poissons Ratio (y) = 0.07859 0.13202
# Poissons Ratio (z) = 0.21510 0.18945
#
# Static dielectric constant tensor:
#      x y z
#    x 1.902280 0.000000 -0.024180 
#    y 0.000000 1.886490 0.000000 
#    z -0.024180 0.000000 1.778450 
# 
# From -- ./inp_files/20663.got.cif
#   From: 2010.05.17/outbox.cif.g08.bks.cpg/sg10_11_cif.got.tgz:20663.got - 2010.06.03 11:33:40.
