data_PCOD9150483
_publ_section_title
;
Structure prediction by ZEFSAII (Michael W. Deem and Ramdas Pophale) SiO2 
 PCOD9150483
Probable space group: P 2/M
;
_chemical_formula_sum "Si O2"
_cell_formula_units_Z 28
_cell_length_a 10.505841
_cell_length_b 7.567099
_cell_length_c 27.041397
_cell_angle_alpha 90.000000
_cell_angle_beta 36.753343
_cell_angle_gamma 90.000000
_cell_volume 1286.352974
_symmetry_space_group_name_H-M "P 2/M"
_symmetry_group_IT_number 10
_symmetry_cell_setting 'monoclinic'
loop_
_space_group_symop_operation_xyz
x,y,z
-x,y,-z
-x,-y,-z
x,-y,z
loop_
_atom_site_type_symbol
_atom_site_label
_atom_site_fract_x
_atom_site_fract_y
_atom_site_fract_z
Si Si1 0.775769 0.292863 0.053218
Si Si2 0.992211 0.789570 0.744462
Si Si3 0.658836 0.203912 0.288981
Si Si4 0.493709 0.214786 0.767062
Si Si5 0.467758 0.285909 0.066044
Si Si6 0.027005 0.786009 0.362139
Si Si7 0.201009 0.293510 0.469111
O O1 0.813561 0.500000 0.030656
O O2 0.617454 0.276495 0.148541
O O3 0.656146 0.218425 0.042772
O O4 0.000000 0.213161 0.000000
O O5 0.758578 0.763168 0.839890
O O6 0.004120 0.721936 0.684386
O O7 0.168976 0.716227 0.727223
O O8 0.029364 0.000000 0.728810
O O9 0.628750 0.280748 0.243483
O O10 0.424139 0.207419 0.385749
O O11 0.723717 0.000000 0.261331
O O12 0.739800 0.270742 0.691332
O O13 0.492477 0.000000 0.766926
O O14 0.474671 0.500000 0.063709
O O15 0.500000 0.224615 0.000000
O O16 0.856368 0.726685 0.455532
O O17 0.025829 0.000000 0.362003
O O18 0.222361 0.500000 0.450124
O O19 0.000000 0.222212 0.500000
#
# Coordination Sequence:
#
# PCOD9150483 Si02
#       7
#     4   4   4   4   4   4   4
#     4  10  22  38  57  84 116 150 188 231 280 333
#     4  10  22  40  60  85 114 147 189 233 281 335
#     4  10  22  39  59  84 115 149 187 232 283 335
#     4  10  20  36  59  85 111 147 192 233 277 331
#     4  10  22  39  58  82 115 153 188 227 281 339
#     4  10  20  37  61  83 111 150 188 230 281 335
#     4  11  23  37  57  87 117 147 189 235 279 329
#
# _framework density 21.766964000000002
#
# number of rings (size 3 to 8) (size 9 to 14) (size 15 to 20)
#    0.000    1.857    2.857    0.429    2.000    4.000 
#    0.000    2.857    0.000    0.000    0.000    0.000 
#    0.000    0.000    0.000    0.000    0.000    0.000 
#
# Total GULP energy -156459.936426 kJ/mol
# GULP energy per Si atom -5587.854872 kJ/mol
# Density = 2.171742 g / cm^3
# Si number density = 21.766964 Si / 1000 Ang^3
#
#
#
# Elastic Constant Matrix: (Units=GPa)
#
#
# Indices 1 2 3 4 5 6 
#
# 1 211.5956 6.6237 48.0550 0.0000 7.1901 0.0000
# 2 6.6237 51.5846 -21.4605 0.0000 -4.0707 0.0000
# 3 48.0550 -21.4605 54.7475 0.0000 10.3443 0.0000
# 4 0.0000 0.0000 0.0000 26.1662 0.0000 2.9078
# 5 7.1901 -4.0707 10.3443 0.0000 42.7006 0.0000
# 6 0.0000 0.0000 0.0000 2.9078 0.0000 -3.5288
#
#
#
# Elastic Compliance Matrix: (Units=1/GPa)
#
#
# Indices 1 2 3 4 5 6 
#
# 1 0.006480 -0.003822 -0.007243 0.000000 0.000299 0.000000
# 2 -0.003822 0.025417 0.013349 0.000000 -0.000167 0.000000
# 3 -0.007243 0.013349 0.030794 0.000000 -0.004968 0.000000
# 4 0.000000 0.000000 0.000000 0.035011 0.000000 0.028850
# 5 0.000299 -0.000167 -0.004968 0.000000 0.024556 0.000000
# 6 0.000000 0.000000 0.000000 0.028850 0.000000 -0.259607
#
#
# Mechanical properties :
#
#
# Convention : Reuss Voigt Hill
#
# Bulk Modulus (GPa) = 14.86736 42.70709 28.78722
# Shear Modulus (GPa) = -41.84197 32.04823 -4.89687
#
# Velocity S-wave (km/s) = -4.38913 3.84126 -1.50152
# Velocity P-wave (km/s) = 4.34060 6.27188 3.20122
#
# Compressibility (1/GPa) = 0.06726144
#
# Stress axis : x y z
#
# Youngs Moduli (GPa) = 154.31270 39.34402 32.47333
#
# Poissons Ratio (x) = 0.15036 0.23520
# Poissons Ratio (y) = 0.58973 -0.43350
# Poissons Ratio (z) = 1.11765 -0.52522
#
# Static dielectric constant tensor:
#      x y z
#    x 1.817830 0.000000 -0.005580 
#    y 0.000000 1.824660 0.000000 
#    z -0.005580 0.000000 1.730940 
# 
# From -- ./inp_files/91933.got.cif
#   From: 2010.05.17/outbox.cif.g08.bks.cpg/sg10_46_cif.got.tgz:91933.got - 2010.06.03 11:33:40.
