data_PCOD9150568
_publ_section_title
;
Structure prediction by ZEFSAII (Michael W. Deem and Ramdas Pophale) SiO2 
 PCOD9150568
Probable space group: P 2/M
;
_chemical_formula_sum "Si O2"
_cell_formula_units_Z 32
_cell_length_a 15.179946
_cell_length_b 15.650986
_cell_length_c 22.424762
_cell_angle_alpha 90.000000
_cell_angle_beta 161.787095
_cell_angle_gamma 90.000000
_cell_volume 1665.166692
_symmetry_space_group_name_H-M "P 2/M"
_symmetry_group_IT_number 10
_symmetry_cell_setting 'monoclinic'
loop_
_space_group_symop_operation_xyz
x,y,z
-x,y,-z
-x,-y,-z
x,-y,z
loop_
_atom_site_type_symbol
_atom_site_label
_atom_site_fract_x
_atom_site_fract_y
_atom_site_fract_z
Si Si1 0.725653 0.236929 0.699448
Si Si2 0.862470 0.596279 0.846589
Si Si3 0.786964 0.098880 0.008184
Si Si4 0.297894 0.407906 0.658202
Si Si5 0.766435 0.902603 0.135630
Si Si6 0.205868 0.590076 0.456711
Si Si7 0.228196 0.226682 0.468802
Si Si8 0.293229 0.219772 0.652171
O O1 0.500000 0.245159 0.500000
O O2 0.893343 0.325539 0.820473
O O3 0.535241 0.222265 0.636097
O O4 0.939642 0.158790 0.826622
O O5 0.957822 0.500000 0.890978
O O6 0.526304 0.590097 0.639483
O O7 0.000000 0.615450 0.000000
O O8 0.518384 0.145684 0.807229
O O9 0.827795 0.000000 0.015105
O O10 0.720733 0.097383 0.035936
O O11 0.436757 0.500000 0.762039
O O12 0.236829 0.409075 0.548202
O O13 0.419782 0.314018 0.750153
O O14 0.000000 0.408017 0.500000
O O15 0.041661 0.848942 0.324905
O O16 0.805500 0.000000 0.181517
O O17 0.500000 0.866273 0.000000
O O18 0.068513 0.500000 0.350492
O O19 0.089861 0.681491 0.362649
O O20 0.235805 0.222445 0.544790
O O21 0.000000 0.207981 0.500000
#
# Coordination Sequence:
#
# PCOD9150568 Si02
#       8
#     4   4   4   4   4   4   4   4
#     4  11  23  39  59  85 121 162 198 241 291 354
#     4   9  19  34  58  88 116 152 196 241 286 341
#     4  11  25  41  59  85 118 153 194 250 304 356
#     4   8  14  26  47  77 111 145 178 215 271 341
#     4  10  21  39  62  84 108 147 199 246 292 351
#     4   8  15  28  48  76 109 144 180 220 271 328
#     4  10  20  36  60  85 113 154 192 236 292 355
#     4  10  21  37  60  89 119 150 191 248 303 351
#
# _framework density 19.217295
#
# number of rings (size 3 to 8) (size 9 to 14) (size 15 to 20)
#    0.000    2.375    1.250    0.750    5.250    1.750 
#    0.000    0.625    0.000    1.125    0.000    0.000 
#    0.000    0.000    0.000    0.000    0.000    0.000 
#
# Total GULP energy -178193.860284 kJ/mol
# GULP energy per Si atom -5568.558134 kJ/mol
# Density = 1.917356 g / cm^3
# Si number density = 19.217295 Si / 1000 Ang^3
#
#
#
# Elastic Constant Matrix: (Units=GPa)
#
#
# Indices 1 2 3 4 5 6 
#
# 1 131.9946 83.3396 57.6508 0.0000 29.1544 0.0000
# 2 83.3396 232.7730 109.0453 0.0000 11.3653 0.0000
# 3 57.6508 109.0453 101.3432 0.0000 12.4970 0.0000
# 4 0.0000 0.0000 0.0000 36.8514 0.0000 0.5871
# 5 29.1544 11.3653 12.4970 0.0000 25.8596 0.0000
# 6 0.0000 0.0000 0.0000 0.5871 0.0000 27.5071
#
#
#
# Elastic Compliance Matrix: (Units=1/GPa)
#
#
# Indices 1 2 3 4 5 6 
#
# 1 0.013414 -0.002699 -0.003198 0.000000 -0.012391 0.000000
# 2 -0.002699 0.009219 -0.008783 0.000000 0.003236 0.000000
# 3 -0.003198 -0.008783 0.021498 0.000000 -0.002923 0.000000
# 4 0.000000 0.000000 0.000000 0.027145 0.000000 -0.000579
# 5 -0.012391 0.003236 -0.002923 0.000000 0.052631 0.000000
# 6 0.000000 0.000000 0.000000 -0.000579 0.000000 0.036367
#
#
# Mechanical properties :
#
#
# Convention : Reuss Voigt Hill
#
# Bulk Modulus (GPa) = 67.70692 107.35360 87.53026
# Shear Modulus (GPa) = 25.69910 32.44863 29.07387
#
# Velocity S-wave (km/s) = 3.66087 4.11361 3.89382
# Velocity P-wave (km/s) = 7.29233 8.86266 8.11556
#
# Compressibility (1/GPa) = 0.01476954
#
# Stress axis : x y z
#
# Youngs Moduli (GPa) = 74.54713 108.47071 46.51571
#
# Poissons Ratio (x) = 0.29280 0.14878
# Poissons Ratio (y) = 0.20123 0.40856
# Poissons Ratio (z) = 0.23843 0.95272
#
# Static dielectric constant tensor:
#      x y z
#    x 1.985130 0.000000 0.147240 
#    y 0.000000 1.750420 0.000000 
#    z 0.147240 0.000000 1.695610 
# 
# From -- ./inp_files/25330.got.cif
#   From: 2010.05.17/outbox.cif.g08.bks.cpg/sg10_13_cif.got.tgz:25330.got - 2010.06.03 11:33:40.
