data_PCOD9150342
_publ_section_title
;
Structure prediction by ZEFSAII (Michael W. Deem and Ramdas Pophale) SiO2 
 PCOD9150342
Probable space group: P 2/M
;
_chemical_formula_sum "Si O2"
_cell_formula_units_Z 24
_cell_length_a 8.660962
_cell_length_b 30.578745
_cell_length_c 7.660305
_cell_angle_alpha 90.000000
_cell_angle_beta 143.451282
_cell_angle_gamma 90.000000
_cell_volume 1208.142199
_symmetry_space_group_name_H-M "P 2/M"
_symmetry_group_IT_number 10
_symmetry_cell_setting 'monoclinic'
loop_
_space_group_symop_operation_xyz
x,y,z
-x,y,-z
-x,-y,-z
x,-y,z
loop_
_atom_site_type_symbol
_atom_site_label
_atom_site_fract_x
_atom_site_fract_y
_atom_site_fract_z
Si Si1 0.056665 0.138128 0.346320
Si Si2 0.773337 0.951724 0.651066
Si Si3 0.775197 0.453101 0.149933
Si Si4 0.727741 0.722397 0.843892
Si Si5 0.554957 0.813867 0.841782
Si Si6 0.225443 0.642632 0.849917
O O1 0.155554 0.089309 0.402742
O O2 0.290401 0.170702 0.510932
O O3 0.000000 0.142621 0.500000
O O4 0.789389 0.152616 0.013363
O O5 0.500000 0.945181 0.500000
O O6 0.764018 0.000000 0.556294
O O7 0.000000 0.952943 0.000000
O O8 0.793091 0.500000 0.069095
O O9 0.798495 0.405578 0.083206
O O10 0.000000 0.453358 0.500000
O O11 0.500000 0.453034 0.000000
O O12 0.500000 0.711466 0.500000
O O13 0.635417 0.765421 0.862457
O O14 0.777976 0.681806 0.017182
O O15 0.000000 0.732520 0.000000
O O16 0.500000 0.814971 0.000000
O O17 0.000000 0.647161 0.500000
O O18 0.500000 0.644084 0.000000
#
# Coordination Sequence:
#
# PCOD9150342 Si02
#       6
#     4   4   4   4   4   4
#     4  10  21  37  58  82 106 136 177 224 267 313
#     4  10  21  36  55  80 110 143 175 210 258 317
#     4   8  14  26  48  78 104 130 176 229 266 309
#     4  12  25  38  55  82 113 144 184 230 275 326
#     4  10  22  39  57  78 106 141 181 222 270 325
#     4  10  20  36  58  80 108 148 185 223 276 328
#
# _framework density 19.865210999999999
#
# number of rings (size 3 to 8) (size 9 to 14) (size 15 to 20)
#    0.000    2.000    0.000    3.500    0.000    6.333 
#    0.000    0.000    0.000    7.000    0.000    0.000 
#    0.000    0.000    0.000    0.000    0.000    0.000 
#
# Total GULP energy -133921.254380 kJ/mol
# GULP energy per Si atom -5580.052266 kJ/mol
# Density = 1.982000 g / cm^3
# Si number density = 19.865211 Si / 1000 Ang^3
#
#
#
# Elastic Constant Matrix: (Units=GPa)
#
#
# Indices 1 2 3 4 5 6 
#
# 1 40.0291 43.5359 39.0216 0.0000 23.2395 0.0000
# 2 43.5359 178.9388 29.2282 0.0000 17.9976 0.0000
# 3 39.0216 29.2282 130.7527 0.0000 32.8365 0.0000
# 4 0.0000 0.0000 0.0000 21.1108 0.0000 28.6496
# 5 23.2395 17.9976 32.8365 0.0000 25.3363 0.0000
# 6 0.0000 0.0000 0.0000 28.6496 0.0000 -50.5692
#
#
#
# Elastic Compliance Matrix: (Units=1/GPa)
#
#
# Indices 1 2 3 4 5 6 
#
# 1 0.073533 -0.011726 -0.006638 0.000000 -0.050515 0.000000
# 2 -0.011726 0.007903 0.000655 0.000000 0.004293 0.000000
# 3 -0.006638 0.000655 0.011965 0.000000 -0.009883 0.000000
# 4 0.000000 0.000000 0.000000 0.026779 0.000000 0.015172
# 5 -0.050515 0.004293 -0.009883 0.000000 0.095563 0.000000
# 6 0.000000 0.000000 0.000000 0.015172 0.000000 -0.011179
#
#
# Mechanical properties :
#
#
# Convention : Reuss Voigt Hill
#
# Bulk Modulus (GPa) = 17.24652 63.69913 40.47282
# Shear Modulus (GPa) = 19.28212 15.03790 17.16001
#
# Velocity S-wave (km/s) = 3.11890 2.75434 2.94227
# Velocity P-wave (km/s) = 4.65518 6.50004 5.65337
#
# Compressibility (1/GPa) = 0.05798271
#
# Stress axis : x y z
#
# Youngs Moduli (GPa) = 13.59940 126.54075 83.57965
#
# Poissons Ratio (x) = 1.48375 0.55478
# Poissons Ratio (y) = 0.15946 -0.05472
# Poissons Ratio (z) = 0.09027 -0.08284
#
# Static dielectric constant tensor:
#      x y z
#    x 1.852530 0.000000 0.133720 
#    y 0.000000 1.741680 0.000000 
#    z 0.133720 0.000000 1.793020 
# 
# From -- ./inp_files/20906.got.cif
#   From: 2010.05.17/outbox.cif.g08.bks.cpg/sg10_11_cif.got.tgz:20906.got - 2010.06.03 11:33:40.
