data_PCOD9150066
_publ_section_title
;
Structure prediction by ZEFSAII (Michael W. Deem and Ramdas Pophale) SiO2 
 PCOD9150066
Probable space group: P 2/M
;
_chemical_formula_sum "Si O2"
_cell_formula_units_Z 22
_cell_length_a 9.400651
_cell_length_b 11.327674
_cell_length_c 10.824722
_cell_angle_alpha 90.000000
_cell_angle_beta 115.563098
_cell_angle_gamma 90.000000
_cell_volume 1039.860839
_symmetry_space_group_name_H-M "P 2/M"
_symmetry_group_IT_number 10
_symmetry_cell_setting 'monoclinic'
loop_
_space_group_symop_operation_xyz
x,y,z
-x,y,-z
-x,-y,-z
x,-y,z
loop_
_atom_site_type_symbol
_atom_site_label
_atom_site_fract_x
_atom_site_fract_y
_atom_site_fract_z
Si Si1 0.241685 0.741577 0.424320
Si Si2 0.144813 0.000000 0.388321
Si Si3 0.638639 0.750969 0.251728
Si Si4 0.347743 0.370122 0.214351
Si Si5 0.215743 0.000000 0.709818
Si Si6 0.000000 0.321620 0.000000
Si Si7 0.073352 0.640038 0.768872
O O1 0.322964 0.740369 0.587471
O O2 0.329971 0.673019 0.348600
O O3 0.068772 0.682021 0.372583
O O4 0.220443 0.877513 0.373334
O O5 0.174796 0.000000 0.547666
O O6 0.957369 0.000000 0.294066
O O7 0.456773 0.715687 0.174825
O O8 0.757621 0.664626 0.225480
O O9 0.686155 0.882156 0.228450
O O10 0.420311 0.500000 0.238160
O O11 0.169963 0.376644 0.097126
O O12 0.045037 0.278117 0.879597
O O13 0.055750 0.500000 0.792054
#
# Coordination Sequence:
#
# PCOD9150066 Si02
#       7
#     4   2   4   4   2   2   4
#     4  10  20  35  58  88 120 155 186 228 289 344
#     4   9  16  33  59  82 115 160 196 224 265 343
#     4  11  22  35  59  90 118 151 187 234 295 341
#     4  11  23  39  59  84 119 154 190 242 288 340
#     4   9  18  35  55  84 122 150 190 236 270 338
#     4  10  23  44  60  77 108 155 206 238 279 340
#     4  11  21  35  59  85 114 152 192 238 286 343
#
# _framework density 21.156676999999998
#
# number of rings (size 3 to 8) (size 9 to 14) (size 15 to 20)
#    0.000    1.636    1.818    4.909    0.000    5.818 
#    0.000    4.545    0.000   20.727    0.000    0.000 
#    0.000    0.000    0.000    0.000    0.000    0.000 
#
# Total GULP energy -122604.184891 kJ/mol
# GULP energy per Si atom -5572.917495 kJ/mol
# Density = 2.110852 g / cm^3
# Si number density = 21.156677 Si / 1000 Ang^3
#
#
#
# Elastic Constant Matrix: (Units=GPa)
#
#
# Indices 1 2 3 4 5 6 
#
# 1 114.7450 23.0141 10.1795 0.0000 19.3571 0.0000
# 2 23.0141 87.4576 12.5126 0.0000 7.3564 0.0000
# 3 10.1795 12.5126 37.8913 0.0000 7.6774 0.0000
# 4 0.0000 0.0000 0.0000 -0.6942 0.0000 -8.1220
# 5 19.3571 7.3564 7.6774 0.0000 11.9950 0.0000
# 6 0.0000 0.0000 0.0000 -8.1220 0.0000 211.5604
#
#
#
# Elastic Compliance Matrix: (Units=1/GPa)
#
#
# Indices 1 2 3 4 5 6 
#
# 1 0.012243 -0.001761 0.001237 0.000000 -0.019469 0.000000
# 2 -0.001761 0.012584 -0.003096 0.000000 -0.002894 0.000000
# 3 0.001237 -0.003096 0.031139 0.000000 -0.020028 0.000000
# 4 0.000000 0.000000 0.000000 -0.994072 0.000000 -0.038163
# 5 -0.019469 -0.002894 -0.020028 0.000000 0.129380 0.000000
# 6 0.000000 0.000000 0.000000 -0.038163 0.000000 0.003262
#
#
# Mechanical properties :
#
#
# Convention : Reuss Voigt Hill
#
# Bulk Modulus (GPa) = 20.52279 36.83404 28.67841
# Shear Modulus (GPa) = -6.39400 57.53142 25.56871
#
# Velocity S-wave (km/s) = -1.74034 5.22035 3.48018
# Velocity P-wave (km/s) = 2.38392 7.33376 5.45285
#
# Compressibility (1/GPa) = 0.04872632
#
# Stress axis : x y z
#
# Youngs Moduli (GPa) = 81.68104 79.46656 32.11365
#
# Poissons Ratio (x) = 0.13994 -0.03973
# Poissons Ratio (y) = 0.14384 0.09942
# Poissons Ratio (z) = -0.10106 0.24603
#
# Static dielectric constant tensor:
#      x y z
#    x 1.734730 0.000000 0.010910 
#    y 0.000000 1.755360 0.000000 
#    z 0.010910 0.000000 1.784500 
# 
# From -- ./inp_files/42105.got.cif
#   From: 2010.05.17/outbox.cif.g08.bks.cpg/sg10_22_cif.got.tgz:42105.got - 2010.06.03 11:33:40.
