data_PCOD9150108
_publ_section_title
;
Structure prediction by ZEFSAII (Michael W. Deem and Ramdas Pophale) SiO2 
 PCOD9150108
Probable space group: P 2/M
;
_chemical_formula_sum "Si O2"
_cell_formula_units_Z 24
_cell_length_a 12.045981
_cell_length_b 10.595078
_cell_length_c 17.122947
_cell_angle_alpha 90.000000
_cell_angle_beta 147.138911
_cell_angle_gamma 90.000000
_cell_volume 1185.790400
_symmetry_space_group_name_H-M "P 2/M"
_symmetry_group_IT_number 10
_symmetry_cell_setting 'monoclinic'
loop_
_space_group_symop_operation_xyz
x,y,z
-x,y,-z
-x,-y,-z
x,-y,z
loop_
_atom_site_type_symbol
_atom_site_label
_atom_site_fract_x
_atom_site_fract_y
_atom_site_fract_z
Si Si1 0.350734 0.150450 0.690515
Si Si2 0.205697 0.856506 0.085219
Si Si3 0.266086 0.359875 0.383687
Si Si4 0.895633 0.638015 0.539319
Si Si5 0.302410 0.247455 0.834261
Si Si6 0.035801 0.136941 0.813878
O O1 0.562815 0.191841 0.773021
O O2 0.177556 0.242194 0.553626
O O3 0.365192 0.175246 0.792193
O O4 0.317183 0.000000 0.657877
O O5 0.212636 0.000000 0.122095
O O6 0.000000 0.795897 0.000000
O O7 0.167516 0.864194 0.970180
O O8 0.500000 0.341185 0.500000
O O9 0.201890 0.500000 0.317912
O O10 0.233217 0.358072 0.457053
O O11 0.125434 0.248060 0.270545
O O12 0.858269 0.500000 0.480990
O O13 0.132485 0.652170 0.705233
O O14 0.175841 0.162634 0.821236
O O15 0.500000 0.293855 0.000000
O O16 0.935087 0.000000 0.745677
#
# Coordination Sequence:
#
# PCOD9150108 Si02
#       6
#     4   4   4   4   4   4
#     4  11  23  39  63  91 122 162 201 244 300 361
#     4   9  19  35  56  86 122 154 192 245 299 349
#     4   9  20  39  60  81 115 159 198 241 296 356
#     4  10  24  43  61  88 124 159 200 251 303 358
#     4  11  22  39  63  90 121 158 203 251 300 356
#     4  10  20  35  59  89 117 149 196 250 297 348
#
# _framework density 20.239666
#
# number of rings (size 3 to 8) (size 9 to 14) (size 15 to 20)
#    0.000    2.000    1.667    1.000    2.333    6.667 
#    0.000    0.833    0.000    1.000    0.000    0.000 
#    0.000    0.000    0.000    0.000    0.000    0.000 
#
# Total GULP energy -133750.519441 kJ/mol
# GULP energy per Si atom -5572.938310 kJ/mol
# Density = 2.019360 g / cm^3
# Si number density = 20.239666 Si / 1000 Ang^3
#
#
#
# Elastic Constant Matrix: (Units=GPa)
#
#
# Indices 1 2 3 4 5 6 
#
# 1 72.7721 30.7243 34.9646 0.0000 27.3256 0.0000
# 2 30.7243 104.6760 67.7602 0.0000 16.0830 0.0000
# 3 34.9646 67.7602 114.0303 0.0000 18.5072 0.0000
# 4 0.0000 0.0000 0.0000 31.7004 0.0000 16.2793
# 5 27.3256 16.0830 18.5072 0.0000 36.2449 0.0000
# 6 0.0000 0.0000 0.0000 16.2793 0.0000 90.8934
#
#
#
# Elastic Compliance Matrix: (Units=1/GPa)
#
#
# Indices 1 2 3 4 5 6 
#
# 1 0.021161 -0.002206 -0.002995 0.000000 -0.013445 0.000000
# 2 -0.002206 0.015945 -0.008636 0.000000 -0.001002 0.000000
# 3 -0.002995 -0.008636 0.015081 0.000000 -0.001610 0.000000
# 4 0.000000 0.000000 0.000000 0.034741 0.000000 -0.006222
# 5 -0.013445 -0.001002 -0.001610 0.000000 0.038994 0.000000
# 6 0.000000 0.000000 0.000000 -0.006222 0.000000 0.012116
#
#
# Mechanical properties :
#
#
# Convention : Reuss Voigt Hill
#
# Bulk Modulus (GPa) = 40.79631 62.04184 51.41908
# Shear Modulus (GPa) = 28.75496 42.30303 35.52899
#
# Velocity S-wave (km/s) = 3.77334 4.57673 4.19431
# Velocity P-wave (km/s) = 6.25975 7.65824 6.99404
#
# Compressibility (1/GPa) = 0.02451202
#
# Stress axis : x y z
#
# Youngs Moduli (GPa) = 47.25745 62.71479 66.30826
#
# Poissons Ratio (x) = 0.13837 0.19860
# Poissons Ratio (y) = 0.10427 0.57263
# Poissons Ratio (z) = 0.14154 0.54160
#
# Static dielectric constant tensor:
#      x y z
#    x 1.739490 0.000000 0.010590 
#    y 0.000000 1.716380 0.000000 
#    z 0.010590 0.000000 1.731600 
# 
# From -- ./inp_files/76725.got.cif
#   From: 2010.05.17/outbox.cif.g08.bks.cpg/sg10_39_cif.got.tgz:76725.got - 2010.06.03 11:33:40.
