data_PCOD9150080
_publ_section_title
;
Structure prediction by ZEFSAII (Michael W. Deem and Ramdas Pophale) SiO2 
 PCOD9150080
Probable space group: P 2/M
;
_chemical_formula_sum "Si O2"
_cell_formula_units_Z 32
_cell_length_a 16.238951
_cell_length_b 24.241011
_cell_length_c 8.559568
_cell_angle_alpha 90.000000
_cell_angle_beta 148.229995
_cell_angle_gamma 90.000000
_cell_volume 1774.058048
_symmetry_space_group_name_H-M "P 2/M"
_symmetry_group_IT_number 10
_symmetry_cell_setting 'monoclinic'
loop_
_space_group_symop_operation_xyz
x,y,z
-x,y,-z
-x,-y,-z
x,-y,z
loop_
_atom_site_type_symbol
_atom_site_label
_atom_site_fract_x
_atom_site_fract_y
_atom_site_fract_z
Si Si1 0.562892 0.365596 0.274448
Si Si2 0.658137 0.142837 0.649554
Si Si3 0.348625 0.732314 0.363952
Si Si4 0.512309 0.938919 0.835106
Si Si5 0.172364 0.064288 0.846592
Si Si6 0.088873 0.655712 0.796889
Si Si7 0.268200 0.563201 0.898877
Si Si8 0.882204 0.587914 0.679500
O O1 0.597558 0.307513 0.410094
O O2 0.726188 0.397458 0.522382
O O3 0.500000 0.355964 0.000000
O O4 0.430914 0.403406 0.143187
O O5 0.500000 0.144138 0.500000
O O6 0.702505 0.205451 0.680724
O O7 0.603907 0.106991 0.416007
O O8 0.785256 0.108182 0.951378
O O9 0.500000 0.736839 0.500000
O O10 0.215962 0.698763 0.058729
O O11 0.467846 0.000000 0.701751
O O12 0.500000 0.939756 0.000000
O O13 0.689028 0.929331 0.058368
O O14 0.000000 0.073493 0.500000
O O15 0.179691 0.000000 0.911785
O O16 0.168211 0.598904 0.861032
O O17 0.000000 0.677279 0.500000
O O18 0.974470 0.640291 0.754869
O O19 0.290190 0.500000 0.983155
O O20 0.181404 0.562001 0.587741
O O21 0.000000 0.562767 0.000000
#
# Coordination Sequence:
#
# PCOD9150080 Si02
#       8
#     4   4   4   4   4   4   4   4
#     4  10  21  37  59  80 107 141 176 221 270 324
#     4   9  19  32  53  81 109 140 189 231 259 311
#     4  11  20  36  59  80 103 144 190 223 262 320
#     4   9  17  32  55  81 112 147 182 222 270 320
#     4   9  17  32  55  81 112 147 182 222 270 320
#     4  10  21  37  59  80 107 141 176 221 270 324
#     4  10  22  40  58  80 109 141 176 217 268 327
#     4  10  20  35  59  81 110 138 173 217 272 329
#
# _framework density 18.037741
#
# number of rings (size 3 to 8) (size 9 to 14) (size 15 to 20)
#    0.000    2.250    2.500    0.375    0.000    7.250 
#    0.000    1.875    5.500    3.000    0.000    0.000 
#    0.000    0.000    0.000    0.000    0.000    0.000 
#
# Total GULP energy -178267.639653 kJ/mol
# GULP energy per Si atom -5570.863739 kJ/mol
# Density = 1.799669 g / cm^3
# Si number density = 18.037741 Si / 1000 Ang^3
#
#
#
# Elastic Constant Matrix: (Units=GPa)
#
#
# Indices 1 2 3 4 5 6 
#
# 1 36.5369 15.3493 19.4989 0.0000 10.8609 0.0000
# 2 15.3493 137.7698 69.9540 0.0000 1.4516 0.0000
# 3 19.4989 69.9540 115.4344 0.0000 10.1446 0.0000
# 4 0.0000 0.0000 0.0000 -37.2050 0.0000 9.5954
# 5 10.8609 1.4516 10.1446 0.0000 21.6212 0.0000
# 6 0.0000 0.0000 0.0000 9.5954 0.0000 5.9319
#
#
#
# Elastic Compliance Matrix: (Units=1/GPa)
#
#
# Indices 1 2 3 4 5 6 
#
# 1 0.034634 -0.002058 -0.003219 0.000000 -0.015749 0.000000
# 2 -0.002058 0.010725 -0.006445 0.000000 0.003338 0.000000
# 3 -0.003219 -0.006445 0.013489 0.000000 -0.004279 0.000000
# 4 0.000000 0.000000 0.000000 -0.018966 0.000000 0.030679
# 5 -0.015749 0.003338 -0.004279 0.000000 0.055945 0.000000
# 6 0.000000 0.000000 0.000000 0.030679 0.000000 0.118955
#
#
# Mechanical properties :
#
#
# Convention : Reuss Voigt Hill
#
# Bulk Modulus (GPa) = 28.24649 55.48284 41.86467
# Shear Modulus (GPa) = 19.99780 10.39887 15.19834
#
# Velocity S-wave (km/s) = 3.33327 2.40366 2.90588
# Velocity P-wave (km/s) = 5.52340 6.20722 5.87526
#
# Compressibility (1/GPa) = 0.03540263
#
# Stress axis : x y z
#
# Youngs Moduli (GPa) = 28.87373 93.23766 74.13681
#
# Poissons Ratio (x) = 0.19191 0.23864
# Poissons Ratio (y) = 0.05943 0.47783
# Poissons Ratio (z) = 0.09294 0.60094
#
# Static dielectric constant tensor:
#      x y z
#    x 1.612290 0.000000 -0.000660 
#    y 0.000000 1.614690 0.000000 
#    z -0.000660 0.000000 1.635990 
# 
# From -- ./inp_files/33115.got.cif
#   From: 2010.05.17/outbox.cif.g08.bks.cpg/sg10_17_cif.got.tgz:33115.got - 2010.06.03 11:33:40.
