data_PCOD9150194
_publ_section_title
;
Structure prediction by ZEFSAII (Michael W. Deem and Ramdas Pophale) SiO2 
 PCOD9150194
Probable space group: P 2/M
;
_chemical_formula_sum "Si O2"
_cell_formula_units_Z 28
_cell_length_a 9.942378
_cell_length_b 14.329477
_cell_length_c 17.727233
_cell_angle_alpha 90.000000
_cell_angle_beta 43.282631
_cell_angle_gamma 90.000000
_cell_volume 1731.533567
_symmetry_space_group_name_H-M "P 2/M"
_symmetry_group_IT_number 10
_symmetry_cell_setting 'monoclinic'
loop_
_space_group_symop_operation_xyz
x,y,z
-x,y,-z
-x,-y,-z
x,-y,z
loop_
_atom_site_type_symbol
_atom_site_label
_atom_site_fract_x
_atom_site_fract_y
_atom_site_fract_z
Si Si1 0.170530 0.394213 0.993924
Si Si2 0.781198 0.609533 0.557920
Si Si3 0.734771 0.606118 0.404083
Si Si4 0.520762 0.889780 0.863604
Si Si5 0.895507 0.730629 0.204328
Si Si6 0.821851 0.109178 0.873171
Si Si7 0.552530 0.725533 0.220294
O O1 0.214565 0.500000 0.999909
O O2 0.073280 0.331198 0.097830
O O3 0.354799 0.343881 0.880203
O O4 0.000000 0.399059 0.000000
O O5 0.717752 0.500000 0.589177
O O6 0.792458 0.633323 0.464996
O O7 0.626659 0.674249 0.664583
O O8 0.000000 0.617228 0.500000
O O9 0.500000 0.604682 0.500000
O O10 0.804169 0.500000 0.360361
O O11 0.808998 0.674977 0.310080
O O12 0.702480 0.867716 0.845371
O O13 0.507260 0.819978 0.798844
O O14 0.531807 0.000000 0.838727
O O15 0.328663 0.878078 0.995255
O O16 0.726748 0.742136 0.209974
O O17 0.990440 0.827443 0.190609
O O18 0.870592 0.000000 0.850198
#
# Coordination Sequence:
#
# PCOD9150194 Si02
#       7
#     4   4   4   4   4   4   4
#     4   9  18  30  47  77 113 143 167 208 271 327
#     4  10  22  38  55  78 108 148 193 227 262 312
#     4  10  20  36  55  76 107 149 190 224 257 310
#     4   9  19  36  56  78 109 146 180 217 270 332
#     4  11  20  32  55  84 110 140 181 223 270 322
#     4   9  19  36  56  79 109 144 180 219 270 331
#     4  11  20  33  55  82 111 140 178 227 273 321
#
# _framework density 16.170635999999998
#
# number of rings (size 3 to 8) (size 9 to 14) (size 15 to 20)
#    0.000    2.143    2.857    1.714    2.000    1.714 
#    0.000    1.429    0.000    2.571    0.000    0.000 
#    0.000    0.000    0.000    0.000    0.000    0.000 
#
# Total GULP energy -156130.234217 kJ/mol
# GULP energy per Si atom -5576.079793 kJ/mol
# Density = 1.613383 g / cm^3
# Si number density = 16.170636 Si / 1000 Ang^3
#
#
#
# Elastic Constant Matrix: (Units=GPa)
#
#
# Indices 1 2 3 4 5 6 
#
# 1 86.3367 59.5926 51.3724 0.0000 15.0514 0.0000
# 2 59.5926 106.7367 60.4606 0.0000 9.9484 0.0000
# 3 51.3724 60.4606 83.9573 0.0000 10.4208 0.0000
# 4 0.0000 0.0000 0.0000 33.0042 0.0000 -0.1882
# 5 15.0514 9.9484 10.4208 0.0000 22.5568 0.0000
# 6 0.0000 0.0000 0.0000 -0.1882 0.0000 32.2904
#
#
#
# Elastic Compliance Matrix: (Units=1/GPa)
#
#
# Indices 1 2 3 4 5 6 
#
# 1 0.022754 -0.007812 -0.007257 0.000000 -0.008386 0.000000
# 2 -0.007812 0.018576 -0.008728 0.000000 0.001052 0.000000
# 3 -0.007257 -0.008728 0.022869 0.000000 -0.001873 0.000000
# 4 0.000000 0.000000 0.000000 0.030300 0.000000 0.000177
# 5 -0.008386 0.001052 -0.001873 0.000000 0.050329 0.000000
# 6 0.000000 0.000000 0.000000 0.000177 0.000000 0.030970
#
#
# Mechanical properties :
#
#
# Convention : Reuss Voigt Hill
#
# Bulk Modulus (GPa) = 60.21765 68.87576 64.54671
# Shear Modulus (GPa) = 21.84095 24.61063 23.22579
#
# Velocity S-wave (km/s) = 3.67911 3.90543 3.79396
# Velocity P-wave (km/s) = 7.44094 7.93864 7.69382
#
# Compressibility (1/GPa) = 0.01660643
#
# Stress axis : x y z
#
# Youngs Moduli (GPa) = 43.94739 53.83205 43.72768
#
# Poissons Ratio (x) = 0.42054 0.31731
# Poissons Ratio (y) = 0.34332 0.38165
# Poissons Ratio (z) = 0.31891 0.46984
#
# Static dielectric constant tensor:
#      x y z
#    x 2.064130 0.000000 0.016150 
#    y 0.000000 1.537990 0.000000 
#    z 0.016150 0.000000 1.518030 
# 
# From -- ./inp_files/25069.got.cif
#   From: 2010.05.17/outbox.cif.g08.bks.cpg/sg10_13_cif.got.tgz:25069.got - 2010.06.03 11:33:40.
