data_PCOD9150476
_publ_section_title
;
Structure prediction by ZEFSAII (Michael W. Deem and Ramdas Pophale) SiO2 
 PCOD9150476
Probable space group: P 2/M
;
_chemical_formula_sum "Si O2"
_cell_formula_units_Z 32
_cell_length_a 20.257784
_cell_length_b 7.591785
_cell_length_c 26.127317
_cell_angle_alpha 90.000000
_cell_angle_beta 21.239507
_cell_angle_gamma 90.000000
_cell_volume 1455.659642
_symmetry_space_group_name_H-M "P 2/M"
_symmetry_group_IT_number 10
_symmetry_cell_setting 'monoclinic'
loop_
_space_group_symop_operation_xyz
x,y,z
-x,y,-z
-x,-y,-z
x,-y,z
loop_
_atom_site_type_symbol
_atom_site_label
_atom_site_fract_x
_atom_site_fract_y
_atom_site_fract_z
Si Si1 0.789868 0.284418 0.645122
Si Si2 0.468873 0.299354 0.077639
Si Si3 0.219970 0.707118 0.554358
Si Si4 0.171898 0.796047 0.128269
Si Si5 0.898354 0.784281 0.124512
Si Si6 0.581955 0.287051 0.691879
Si Si7 0.501095 0.787037 0.558356
Si Si8 0.166632 0.791243 0.017658
O O1 0.784321 0.500000 0.648684
O O2 0.670485 0.223290 0.779966
O O3 0.695985 0.228139 0.659569
O O4 0.000000 0.232131 0.500000
O O5 0.402989 0.500000 0.115638
O O6 0.500000 0.212645 0.000000
O O7 0.666286 0.302176 0.960697
O O8 0.192344 0.500000 0.566581
O O9 0.330249 0.774759 0.425061
O O10 0.334588 0.732515 0.523610
O O11 0.021000 0.788282 0.704367
O O12 0.230278 0.000000 0.082316
O O13 0.150555 0.721032 0.086568
O O14 0.689489 0.729045 0.278991
O O15 0.898176 0.000000 0.124805
O O16 0.000000 0.727261 0.000000
O O17 0.015799 0.721504 0.087862
O O18 0.585022 0.500000 0.689523
O O19 0.371429 0.233618 0.849507
O O20 0.500000 0.727238 0.500000
O O21 0.505464 0.000000 0.553840
O O22 0.131267 0.000000 0.046756
#
# Coordination Sequence:
#
# PCOD9150476 Si02
#       8
#     4   4   4   4   4   4   4   4
#     4   9  18  34  58  85 114 149 188 233 283 339
#     4  10  21  37  62  90 116 150 195 242 291 347
#     4  11  24  38  57  86 120 156 199 245 292 348
#     4  11  23  39  59  84 118 158 199 241 291 346
#     4   9  17  30  52  80 106 139 183 231 280 337
#     4  10  21  37  58  85 117 151 193 242 291 345
#     4  10  20  37  59  81 111 151 197 243 293 350
#     4  10  20  36  59  84 112 148 193 240 289 348
#
# _framework density 21.983160000000002
#
# number of rings (size 3 to 8) (size 9 to 14) (size 15 to 20)
#    0.000    2.000    1.250    2.250    1.750    5.000 
#    0.000    0.625    0.000    3.000    0.000    0.000 
#    0.000    0.000    0.000    0.000    0.000    0.000 
#
# Total GULP energy -178833.708919 kJ/mol
# GULP energy per Si atom -5588.553404 kJ/mol
# Density = 2.193313 g / cm^3
# Si number density = 21.983160 Si / 1000 Ang^3
#
#
#
# Elastic Constant Matrix: (Units=GPa)
#
#
# Indices 1 2 3 4 5 6 
#
# 1 93.2628 0.4077 17.0950 0.0000 7.7110 0.0000
# 2 0.4077 50.7381 -11.2507 0.0000 3.3103 0.0000
# 3 17.0950 -11.2507 102.8967 0.0000 2.0688 0.0000
# 4 0.0000 0.0000 0.0000 16.7269 0.0000 -15.7161
# 5 7.7110 3.3103 2.0688 0.0000 45.1862 0.0000
# 6 0.0000 0.0000 0.0000 -15.7161 0.0000 -21.8217
#
#
#
# Elastic Compliance Matrix: (Units=1/GPa)
#
#
# Indices 1 2 3 4 5 6 
#
# 1 0.011216 -0.000387 -0.001869 0.000000 -0.001800 0.000000
# 2 -0.000387 0.020326 0.002318 0.000000 -0.001529 0.000000
# 3 -0.001869 0.002318 0.010289 0.000000 -0.000322 0.000000
# 4 0.000000 0.000000 0.000000 0.035656 0.000000 -0.025680
# 5 -0.001800 -0.001529 -0.000322 0.000000 0.022565 0.000000
# 6 0.000000 0.000000 0.000000 -0.025680 0.000000 -0.027331
#
#
# Mechanical properties :
#
#
# Convention : Reuss Voigt Hill
#
# Bulk Modulus (GPa) = 23.83681 28.82241 26.32961
# Shear Modulus (GPa) = 57.74871 24.06133 40.90502
#
# Velocity S-wave (km/s) = 5.13094 3.31196 4.31831
# Velocity P-wave (km/s) = 6.78003 5.26926 6.07182
#
# Compressibility (1/GPa) = 0.04195192
#
# Stress axis : x y z
#
# Youngs Moduli (GPa) = 89.16171 49.19848 97.19173
#
# Poissons Ratio (x) = 0.01905 0.18170
# Poissons Ratio (y) = 0.03453 -0.22524
# Poissons Ratio (z) = 0.16669 -0.11402
#
# Static dielectric constant tensor:
#      x y z
#    x 1.756670 0.000000 0.019900 
#    y 0.000000 2.129070 0.000000 
#    z 0.019900 0.000000 1.756400 
# 
# From -- ./inp_files/93683.got.cif
#   From: 2010.05.17/outbox.cif.g08.bks.cpg/sg10_47_cif.got.tgz:93683.got - 2010.06.03 11:33:40.
