data_PCOD9150366
_publ_section_title
;
Structure prediction by ZEFSAII (Michael W. Deem and Ramdas Pophale) SiO2 
 PCOD9150366
Probable space group: P 2/M
;
_chemical_formula_sum "Si O2"
_cell_formula_units_Z 32
_cell_length_a 26.327925
_cell_length_b 7.754341
_cell_length_c 11.003389
_cell_angle_alpha 90.000000
_cell_angle_beta 38.643293
_cell_angle_gamma 90.000000
_cell_volume 1402.812192
_symmetry_space_group_name_H-M "P 2/M"
_symmetry_group_IT_number 10
_symmetry_cell_setting 'monoclinic'
loop_
_space_group_symop_operation_xyz
x,y,z
-x,y,-z
-x,-y,-z
x,-y,z
loop_
_atom_site_type_symbol
_atom_site_label
_atom_site_fract_x
_atom_site_fract_y
_atom_site_fract_z
Si Si1 0.770471 0.794246 0.279380
Si Si2 0.035006 0.201487 0.561017
Si Si3 0.044204 0.211510 0.040601
Si Si4 0.365794 0.201098 0.064869
Si Si5 0.612201 0.794548 0.712052
Si Si6 0.218568 0.699066 0.196249
Si Si7 0.673906 0.298561 0.221925
Si Si8 0.480527 0.301100 0.355918
O O1 0.707856 0.768710 0.506628
O O2 0.729212 0.711157 0.238844
O O3 0.772476 0.000000 0.251918
O O4 0.861536 0.735824 0.133617
O O5 0.132389 0.214149 0.378975
O O6 0.000000 0.276705 0.500000
O O7 0.998544 0.272434 0.754959
O O8 0.011063 0.000000 0.605563
O O9 0.041868 0.000000 0.043771
O O10 0.000000 0.268824 0.000000
O O11 0.403602 0.264398 0.121582
O O12 0.281832 0.291272 0.188520
O O13 0.348000 0.000000 0.115577
O O14 0.432172 0.220597 0.834394
O O15 0.565611 0.709308 0.687671
O O16 0.593259 0.000000 0.738233
O O17 0.200404 0.500000 0.201072
O O18 0.271469 0.778760 0.987072
O O19 0.660456 0.500000 0.216048
O O20 0.585214 0.226260 0.425784
O O21 0.494278 0.500000 0.361058
#
# Coordination Sequence:
#
# PCOD9150366 Si02
#       8
#     4   4   4   4   4   4   4   4
#     4   9  17  32  57  84 106 139 185 229 273 329
#     4  10  21  38  61  88 115 148 193 242 287 341
#     4   9  18  31  54  84 115 147 183 230 286 342
#     4  11  23  37  55  82 116 149 184 233 284 332
#     4   9  19  34  55  82 113 147 186 230 277 331
#     4  11  24  40  58  81 111 150 191 232 282 339
#     4   9  20  38  57  78 107 145 186 229 278 333
#     4  10  20  36  58  82 110 147 188 230 279 337
#
# _framework density 22.811322000000001
#
# number of rings (size 3 to 8) (size 9 to 14) (size 15 to 20)
#    0.000    2.250    0.000    2.250    1.750    5.750 
#    0.000    3.125    0.000    0.750    0.000    0.000 
#    0.000    0.000    0.000    0.000    0.000    0.000 
#
# Total GULP energy -178761.370625 kJ/mol
# GULP energy per Si atom -5586.292832 kJ/mol
# Density = 2.275940 g / cm^3
# Si number density = 22.811322 Si / 1000 Ang^3
#
#
#
# Elastic Constant Matrix: (Units=GPa)
#
#
# Indices 1 2 3 4 5 6 
#
# 1 102.8952 1.5221 50.0570 0.0000 -3.9115 0.0000
# 2 1.5221 32.8859 7.2093 0.0000 4.9178 0.0000
# 3 50.0570 7.2093 133.4655 0.0000 -4.7082 0.0000
# 4 0.0000 0.0000 0.0000 -31.6747 0.0000 80.0427
# 5 -3.9115 4.9178 -4.7082 0.0000 42.9013 0.0000
# 6 0.0000 0.0000 0.0000 80.0427 0.0000 -130.6854
#
#
#
# Elastic Compliance Matrix: (Units=1/GPa)
#
#
# Indices 1 2 3 4 5 6 
#
# 1 0.011907 0.000344 -0.004465 0.000000 0.000556 0.000000
# 2 0.000344 0.031387 -0.001958 0.000000 -0.003781 0.000000
# 3 -0.004465 -0.001958 0.009302 0.000000 0.000838 0.000000
# 4 0.000000 0.000000 0.000000 0.057636 0.000000 0.035301
# 5 0.000556 -0.003781 0.000838 0.000000 0.023885 0.000000
# 6 0.000000 0.000000 0.000000 0.035301 0.000000 0.013970
#
#
# Mechanical properties :
#
#
# Convention : Reuss Voigt Hill
#
# Bulk Modulus (GPa) = 24.72821 42.98039 33.85430
# Shear Modulus (GPa) = 28.78136 -9.86121 9.46007
#
# Velocity S-wave (km/s) = 3.55591 -2.08143 2.03865
# Velocity P-wave (km/s) = 5.26529 3.62024 4.51826
#
# Compressibility (1/GPa) = 0.04043964
#
# Stress axis : x y z
#
# Youngs Moduli (GPa) = 83.98667 31.86040 107.49915
#
# Poissons Ratio (x) = -0.01098 0.47995
# Poissons Ratio (y) = -0.02893 0.21048
# Poissons Ratio (z) = 0.37497 0.06238
#
# Static dielectric constant tensor:
#      x y z
#    x 1.841940 0.000000 0.030600 
#    y 0.000000 1.834390 0.000000 
#    z 0.030600 0.000000 1.846600 
# 
# From -- ./inp_files/58200.got.cif
#   From: 2010.05.17/outbox.cif.g08.bks.cpg/sg10_30_cif.got.tgz:58200.got - 2010.06.03 11:33:40.
