data_PCOD9150470
_publ_section_title
;
Structure prediction by ZEFSAII (Michael W. Deem and Ramdas Pophale) SiO2 
 PCOD9150470
Probable space group: P 2/M
;
_chemical_formula_sum "Si O2"
_cell_formula_units_Z 16
_cell_length_a 9.908348
_cell_length_b 7.441839
_cell_length_c 16.972675
_cell_angle_alpha 90.000000
_cell_angle_beta 29.851737
_cell_angle_gamma 90.000000
_cell_volume 622.944685
_symmetry_space_group_name_H-M "P 2/M"
_symmetry_group_IT_number 10
_symmetry_cell_setting 'monoclinic'
loop_
_space_group_symop_operation_xyz
x,y,z
-x,y,-z
-x,-y,-z
x,-y,z
loop_
_atom_site_type_symbol
_atom_site_label
_atom_site_fract_x
_atom_site_fract_y
_atom_site_fract_z
Si Si1 0.344752 0.205520 0.005707
Si Si2 0.650272 0.216884 0.504218
Si Si3 0.841318 0.707629 0.656512
Si Si4 0.135719 0.780202 0.850979
O O1 0.560676 0.203534 0.824861
O O2 0.281938 0.000000 0.061238
O O3 0.500000 0.292833 0.000000
O O4 0.063186 0.281910 0.118064
O O5 0.500000 0.274019 0.500000
O O6 0.442198 0.272240 0.678775
O O7 0.946898 0.280903 0.377996
O O8 0.666451 0.000000 0.492728
O O9 0.780100 0.500000 0.671314
O O10 0.000000 0.783422 0.500000
O O11 0.130527 0.000000 0.853618
O O12 0.000000 0.719097 0.000000
#
# Coordination Sequence:
#
# PCOD9150470 Si02
#       4
#     4   4   4   4
#     4  10  20  36  59  84 109 141 185 236 286 334
#     4  10  20  36  59  84 109 141 185 236 286 334
#     4  11  24  39  55  81 118 157 194 229 272 334
#     4   9  17  30  51  79 106 133 172 224 278 327
#
# _framework density 25.684463999999998
#
# number of rings (size 3 to 8) (size 9 to 14) (size 15 to 20)
#    0.000    2.000    0.000    3.750    0.000    9.000 
#    0.000    1.250    0.000    4.500    0.000    0.000 
#    0.000    0.000    0.000    0.000    0.000    0.000 
#
# Total GULP energy -89547.224868 kJ/mol
# GULP energy per Si atom -5596.701554 kJ/mol
# Density = 2.562601 g / cm^3
# Si number density = 25.684464 Si / 1000 Ang^3
#
#
#
# Elastic Constant Matrix: (Units=GPa)
#
#
# Indices 1 2 3 4 5 6 
#
# 1 73.4611 -4.6750 -4.8724 0.0000 -8.7987 0.0000
# 2 -4.6750 87.6532 -9.2991 0.0000 0.9272 0.0000
# 3 -4.8724 -9.2991 112.9818 0.0000 -12.5617 0.0000
# 4 0.0000 0.0000 0.0000 -29.2637 0.0000 3.4831
# 5 -8.7987 0.9272 -12.5617 0.0000 49.6454 0.0000
# 6 0.0000 0.0000 0.0000 3.4831 0.0000 11.5927
#
#
#
# Elastic Compliance Matrix: (Units=1/GPa)
#
#
# Indices 1 2 3 4 5 6 
#
# 1 0.014056 0.000824 0.000977 0.000000 0.002723 0.000000
# 2 0.000824 0.011557 0.001007 0.000000 0.000185 0.000000
# 3 0.000977 0.001007 0.009253 0.000000 0.002496 0.000000
# 4 0.000000 0.000000 0.000000 -0.032992 0.000000 0.009913
# 5 0.002723 0.000185 0.002496 0.000000 0.021253 0.000000
# 6 0.000000 0.000000 0.000000 0.009913 0.000000 0.083283
#
#
# Mechanical properties :
#
#
# Convention : Reuss Voigt Hill
#
# Bulk Modulus (GPa) = 24.70089 26.26702 25.48395
# Shear Modulus (GPa) = 43.74877 25.92437 34.83657
#
# Velocity S-wave (km/s) = 4.13160 3.18046 3.68683
# Velocity P-wave (km/s) = 5.69193 4.87197 5.29784
#
# Compressibility (1/GPa) = 0.04048437
#
# Stress axis : x y z
#
# Youngs Moduli (GPa) = 71.14381 86.52402 108.06722
#
# Poissons Ratio (x) = -0.07134 -0.10556
# Poissons Ratio (y) = -0.05866 -0.10887
# Poissons Ratio (z) = -0.06949 -0.08716
#
# Static dielectric constant tensor:
#      x y z
#    x 2.062500 0.000000 0.064100 
#    y 0.000000 1.991090 0.000000 
#    z 0.064100 0.000000 1.946010 
# 
# From -- ./inp_files/21477.got.cif
#   From: 2010.05.17/outbox.cif.g08.bks.cpg/sg10_11_cif.got.tgz:21477.got - 2010.06.03 11:33:40.
