data_PCOD9150112
_publ_section_title
;
Structure prediction by ZEFSAII (Michael W. Deem and Ramdas Pophale) SiO2 
 PCOD9150112
Probable space group: P 2/M
;
_chemical_formula_sum "Si O2"
_cell_formula_units_Z 32
_cell_length_a 17.331308
_cell_length_b 14.409597
_cell_length_c 11.339206
_cell_angle_alpha 90.000000
_cell_angle_beta 147.668634
_cell_angle_gamma 90.000000
_cell_volume 1514.500424
_symmetry_space_group_name_H-M "P 2/M"
_symmetry_group_IT_number 10
_symmetry_cell_setting 'monoclinic'
loop_
_space_group_symop_operation_xyz
x,y,z
-x,y,-z
-x,-y,-z
x,-y,z
loop_
_atom_site_type_symbol
_atom_site_label
_atom_site_fract_x
_atom_site_fract_y
_atom_site_fract_z
Si Si1 0.259306 0.279213 0.643899
Si Si2 0.331662 0.104889 0.418778
Si Si3 0.716252 0.718124 0.057023
Si Si4 0.850569 0.609935 0.867019
Si Si5 0.416334 0.701162 0.609305
Si Si6 0.883544 0.105734 0.657089
Si Si7 0.963395 0.391508 0.274846
Si Si8 0.787037 0.892264 0.989216
O O1 0.322887 0.272858 0.856336
O O2 0.360218 0.315116 0.669340
O O3 0.206702 0.177916 0.535327
O O4 0.116944 0.342827 0.461608
O O5 0.421041 0.188513 0.588940
O O6 0.177039 0.112272 0.287454
O O7 0.385667 0.000000 0.510542
O O8 0.312940 0.117420 0.255333
O O9 0.859829 0.657048 0.234408
O O10 0.752407 0.816477 0.042833
O O11 0.581744 0.670356 0.815931
O O12 0.838260 0.500000 0.823376
O O13 0.706981 0.659585 0.634552
O O14 0.878457 0.621086 0.041252
O O15 0.000000 0.644579 0.000000
O O16 0.051395 0.124783 0.852284
O O17 0.857186 0.000000 0.585675
O O18 0.981324 0.500000 0.320161
O O19 0.779509 0.000000 0.019147
#
# Coordination Sequence:
#
# PCOD9150112 Si02
#       8
#     4   4   4   4   4   4   4   4
#     4  11  23  42  64  85 123 171 215 250 291 363
#     4   9  19  35  58  89 125 162 206 255 309 368
#     4  12  26  41  56  93 132 166 208 248 301 367
#     4  10  21  41  69  96 118 146 199 258 311 371
#     4  11  24  40  66  91 124 166 204 253 310 364
#     4   9  18  34  59  91 120 159 212 263 304 350
#     4  11  24  43  68  94 121 156 200 257 316 365
#     4  10  20  35  59  91 128 165 203 256 314 361
#
# _framework density 21.129078
#
# number of rings (size 3 to 8) (size 9 to 14) (size 15 to 20)
#    0.000    1.625    2.500    1.875    0.000    6.000 
#    0.000    3.750    0.000    6.000    0.000    0.000 
#    0.000    0.000    0.000    0.000    0.000    0.000 
#
# Total GULP energy -178825.228689 kJ/mol
# GULP energy per Si atom -5588.288397 kJ/mol
# Density = 2.108099 g / cm^3
# Si number density = 21.129078 Si / 1000 Ang^3
#
#
#
# Elastic Constant Matrix: (Units=GPa)
#
#
# Indices 1 2 3 4 5 6 
#
# 1 50.4625 24.7889 20.5020 0.0000 -3.8515 0.0000
# 2 24.7889 68.4441 30.9093 0.0000 -1.8604 0.0000
# 3 20.5020 30.9093 86.8553 0.0000 11.4764 0.0000
# 4 0.0000 0.0000 0.0000 -2.6315 0.0000 -7.9473
# 5 -3.8515 -1.8604 11.4764 0.0000 35.1312 0.0000
# 6 0.0000 0.0000 0.0000 -7.9473 0.0000 11.9488
#
#
#
# Elastic Compliance Matrix: (Units=1/GPa)
#
#
# Indices 1 2 3 4 5 6 
#
# 1 0.025245 -0.007311 -0.003837 0.000000 0.003634 0.000000
# 2 -0.007311 0.019850 -0.005614 0.000000 0.002083 0.000000
# 3 -0.003837 -0.005614 0.015166 0.000000 -0.005672 0.000000
# 4 0.000000 0.000000 0.000000 -0.126304 0.000000 -0.084007
# 5 0.003634 0.002083 -0.005672 0.000000 0.030826 0.000000
# 6 0.000000 0.000000 0.000000 -0.084007 0.000000 0.027816
#
#
# Mechanical properties :
#
#
# Convention : Reuss Voigt Hill
#
# Bulk Modulus (GPa) = 37.40146 39.79581 38.59864
# Shear Modulus (GPa) = 142.71025 17.52715 80.11870
#
# Velocity S-wave (km/s) = 8.22732 2.88328 6.16450
# Velocity P-wave (km/s) = 10.39190 5.47356 8.30516
#
# Compressibility (1/GPa) = 0.02673692
#
# Stress axis : x y z
#
# Youngs Moduli (GPa) = 39.61242 50.37737 65.93536
#
# Poissons Ratio (x) = 0.36833 0.25301
# Poissons Ratio (y) = 0.28962 0.37013
# Poissons Ratio (z) = 0.15200 0.28280
#
# Static dielectric constant tensor:
#      x y z
#    x 1.792300 0.000000 0.010890 
#    y 0.000000 1.739690 0.000000 
#    z 0.010890 0.000000 1.741130 
# 
# From -- ./inp_files/54064.got.cif
#   From: 2010.05.17/outbox.cif.g08.bks.cpg/sg10_28_cif.got.tgz:54064.got - 2010.06.03 11:33:40.
