data_PCOD9150862
_publ_section_title
;
Structure prediction by ZEFSAII (Michael W. Deem and Ramdas Pophale) SiO2 
 PCOD9150862
Probable space group: P 2/M
;
_chemical_formula_sum "Si O2"
_cell_formula_units_Z 32
_cell_length_a 21.745574
_cell_length_b 8.157375
_cell_length_c 27.760489
_cell_angle_alpha 90.000000
_cell_angle_beta 18.765438
_cell_angle_gamma 90.000000
_cell_volume 1584.134980
_symmetry_space_group_name_H-M "P 2/M"
_symmetry_group_IT_number 10
_symmetry_cell_setting 'monoclinic'
loop_
_space_group_symop_operation_xyz
x,y,z
-x,y,-z
-x,-y,-z
x,-y,z
loop_
_atom_site_type_symbol
_atom_site_label
_atom_site_fract_x
_atom_site_fract_y
_atom_site_fract_z
Si Si1 0.693549 0.306023 0.381172
Si Si2 0.200108 0.198316 0.871097
Si Si3 0.387016 0.197573 0.455485
Si Si4 0.190873 0.301816 0.229162
Si Si5 0.243151 0.197172 0.458051
Si Si6 0.498189 0.302320 0.923885
Si Si7 0.898168 0.803920 0.948650
Si Si8 0.543235 0.802184 0.154486
O O1 0.500000 0.236556 0.500000
O O2 0.672787 0.500000 0.398536
O O3 0.716607 0.244247 0.418685
O O4 0.888747 0.264469 0.209110
O O5 0.393943 0.259066 0.703296
O O6 0.196837 0.000000 0.866957
O O7 0.205895 0.229280 0.923642
O O8 0.000000 0.263866 0.000000
O O9 0.300034 0.257420 0.469433
O O10 0.390894 0.000000 0.450095
O O11 0.186650 0.500000 0.232160
O O12 0.319070 0.249502 0.179854
O O13 0.975927 0.239628 0.389785
O O14 0.309463 0.248792 0.093636
O O15 0.386495 0.256955 0.309775
O O16 0.262197 0.000000 0.444892
O O17 0.497588 0.500000 0.924495
O O18 0.502176 0.244705 0.866299
O O19 0.918104 0.000000 0.929581
O O20 0.754526 0.743635 0.013826
O O21 0.546144 0.000000 0.155414
#
# Coordination Sequence:
#
# PCOD9150862 Si02
#       8
#     4   4   4   4   4   4   4   4
#     4  11  25  41  55  79 116 151 186 233 285 334
#     4   9  16  30  57  85 106 137 184 232 273 319
#     4  10  20  37  59  84 112 145 187 231 277 333
#     4   9  20  39  60  83 113 150 192 232 271 325
#     4  10  21  37  57  85 119 148 181 231 284 333
#     4   9  20  39  60  83 113 150 192 232 271 325
#     4  10  20  37  59  84 112 145 187 231 277 333
#     4  10  21  37  57  85 119 148 181 231 284 333
#
# _framework density 20.200298
#
# number of rings (size 3 to 8) (size 9 to 14) (size 15 to 20)
#    0.000    2.250    1.250    1.875    1.750    5.000 
#    0.000    4.375    0.000    2.250    0.000    0.000 
#    0.000    0.000    0.000    0.000    0.000    0.000 
#
# Total GULP energy -178598.655081 kJ/mol
# GULP energy per Si atom -5581.207971 kJ/mol
# Density = 2.015432 g / cm^3
# Si number density = 20.200298 Si / 1000 Ang^3
#
#
#
# Elastic Constant Matrix: (Units=GPa)
#
#
# Indices 1 2 3 4 5 6 
#
# 1 61.7509 8.6028 -2.6088 0.0000 -29.5457 0.0000
# 2 8.6028 9.9981 3.4255 0.0000 -2.4200 0.0000
# 3 -2.6088 3.4255 68.0803 0.0000 -33.6496 0.0000
# 4 0.0000 0.0000 0.0000 7.8301 0.0000 -0.4188
# 5 -29.5457 -2.4200 -33.6496 0.0000 -4.0628 0.0000
# 6 0.0000 0.0000 0.0000 -0.4188 0.0000 39.3013
#
#
#
# Elastic Compliance Matrix: (Units=1/GPa)
#
#
# Indices 1 2 3 4 5 6 
#
# 1 0.010224 -0.010188 -0.006448 0.000000 -0.014875 0.000000
# 2 -0.010188 0.111662 -0.000444 0.000000 0.011258 0.000000
# 3 -0.006448 -0.000444 0.007415 0.000000 -0.014261 0.000000
# 4 0.000000 0.000000 0.000000 0.127785 0.000000 0.001362
# 5 -0.014875 0.011258 -0.014261 0.000000 -0.026553 0.000000
# 6 0.000000 0.000000 0.000000 0.001362 0.000000 0.025459
#
#
# Mechanical properties :
#
#
# Convention : Reuss Voigt Hill
#
# Bulk Modulus (GPa) = 10.51078 17.62984 14.07031
# Shear Modulus (GPa) = 15.53440 17.30771 16.42106
#
# Velocity S-wave (km/s) = 2.77613 2.93030 2.85425
# Velocity P-wave (km/s) = 3.93579 4.49392 4.22408
#
# Compressibility (1/GPa) = 0.09514042
#
# Stress axis : x y z
#
# Youngs Moduli (GPa) = 97.81271 8.95560 134.85543
#
# Poissons Ratio (x) = 0.09124 0.86955
# Poissons Ratio (y) = 0.99653 0.05990
# Poissons Ratio (z) = 0.63070 0.00398
#
# Static dielectric constant tensor:
#      x y z
#    x 1.713440 0.000000 -0.013890 
#    y 0.000000 1.722460 0.000000 
#    z -0.013890 0.000000 1.703980 
# 
# From -- ./inp_files/93563.got.cif
#   From: 2010.05.17/outbox.cif.g08.bks.cpg/sg10_47_cif.got.tgz:93563.got - 2010.06.03 11:33:40.
