data_PCOD9150775
_publ_section_title
;
Structure prediction by ZEFSAII (Michael W. Deem and Ramdas Pophale) SiO2 
 PCOD9150775
Probable space group: P 2/M
;
_chemical_formula_sum "Si O2"
_cell_formula_units_Z 28
_cell_length_a 9.588563
_cell_length_b 14.752665
_cell_length_c 12.474308
_cell_angle_alpha 90.000000
_cell_angle_beta 65.407342
_cell_angle_gamma 90.000000
_cell_volume 1604.510706
_symmetry_space_group_name_H-M "P 2/M"
_symmetry_group_IT_number 10
_symmetry_cell_setting 'monoclinic'
loop_
_space_group_symop_operation_xyz
x,y,z
-x,y,-z
-x,-y,-z
x,-y,z
loop_
_atom_site_type_symbol
_atom_site_label
_atom_site_fract_x
_atom_site_fract_y
_atom_site_fract_z
Si Si1 0.409825 0.395333 0.742798
Si Si2 0.756328 0.287864 0.384094
Si Si3 0.145874 0.899192 0.306929
Si Si4 0.779536 0.899197 0.473994
Si Si5 0.107379 0.710646 0.234420
Si Si6 0.332633 0.608646 0.006526
Si Si7 0.768918 0.605509 0.603672
O O1 0.369895 0.500000 0.729614
O O2 0.359874 0.332632 0.661331
O O3 0.592619 0.391917 0.699370
O O4 0.332487 0.370475 0.880232
O O5 0.712097 0.186327 0.433889
O O6 0.771001 0.347573 0.487219
O O7 0.925045 0.285997 0.276507
O O8 0.229321 0.887111 0.394803
O O9 0.172555 0.812554 0.224929
O O10 0.962858 0.897851 0.390535
O O11 0.182731 0.000000 0.253619
O O12 0.722558 0.000000 0.464083
O O13 0.199626 0.656825 0.115191
O O14 0.134564 0.661053 0.340193
O O15 0.317532 0.500000 0.023684
O O16 0.500000 0.633513 0.000000
O O17 0.815214 0.500000 0.583324
#
# Coordination Sequence:
#
# PCOD9150775 Si02
#       7
#     4   4   4   4   4   4   4
#     4  10  22  38  53  70 101 147 181 203 248 313
#     4  11  21  32  51  83 111 128 164 218 269 304
#     4   8  14  27  48  76 105 131 165 207 255 309
#     4   8  14  27  48  73 105 138 164 199 252 315
#     4  11  20  32  55  82 102 131 174 222 256 289
#     4  10  20  37  56  72  96 139 188 214 239 302
#     4  11  21  34  51  74 107 143 171 202 257 319
#
# _framework density 17.450803000000001
#
# number of rings (size 3 to 8) (size 9 to 14) (size 15 to 20)
#    0.000    2.143    2.857    2.571    0.000    4.571 
#    0.000    1.429    0.000    3.857    0.000    4.000 
#    0.000    0.000    0.000    0.000    0.000    0.000 
#
# Total GULP energy -156224.993735 kJ/mol
# GULP energy per Si atom -5579.464062 kJ/mol
# Density = 1.741108 g / cm^3
# Si number density = 17.450803 Si / 1000 Ang^3
#
#
#
# Elastic Constant Matrix: (Units=GPa)
#
#
# Indices 1 2 3 4 5 6 
#
# 1 29.6790 9.0333 -4.8054 0.0000 6.0979 0.0000
# 2 9.0333 83.0480 13.2416 0.0000 11.8637 0.0000
# 3 -4.8054 13.2416 52.9123 0.0000 -5.3956 0.0000
# 4 0.0000 0.0000 0.0000 335.3924 0.0000 -198.2444
# 5 6.0979 11.8637 -5.3956 0.0000 22.3748 0.0000
# 6 0.0000 0.0000 0.0000 -198.2444 0.0000 152.6057
#
#
#
# Elastic Compliance Matrix: (Units=1/GPa)
#
#
# Indices 1 2 3 4 5 6 
#
# 1 0.036833 -0.003512 0.003476 0.000000 -0.007338 0.000000
# 2 -0.003512 0.014275 -0.004681 0.000000 -0.007741 0.000000
# 3 0.003476 -0.004681 0.021061 0.000000 0.006613 0.000000
# 4 0.000000 0.000000 0.000000 0.012843 0.000000 0.016685
# 5 -0.007338 -0.007741 0.006613 0.000000 0.052392 0.000000
# 6 0.000000 0.000000 0.000000 0.016685 0.000000 0.028227
#
#
# Mechanical properties :
#
#
# Convention : Reuss Voigt Hill
#
# Bulk Modulus (GPa) = 15.94013 22.28646 19.11330
# Shear Modulus (GPa) = 25.51303 111.95255 68.73279
#
# Velocity S-wave (km/s) = 3.82776 8.01826 6.28268
# Velocity P-wave (km/s) = 5.35628 9.92583 7.97533
#
# Compressibility (1/GPa) = 0.06273474
#
# Stress axis : x y z
#
# Youngs Moduli (GPa) = 27.14928 70.05056 47.48192
#
# Poissons Ratio (x) = 0.24605 -0.16504
# Poissons Ratio (y) = 0.09536 0.22225
# Poissons Ratio (z) = -0.09437 0.32789
#
# Static dielectric constant tensor:
#      x y z
#    x 1.589400 0.000000 -0.013100 
#    y 0.000000 1.610970 0.000000 
#    z -0.013100 0.000000 1.573370 
# 
# From -- ./inp_files/25027.got.cif
#   From: 2010.05.17/outbox.cif.g08.bks.cpg/sg10_13_cif.got.tgz:25027.got - 2010.06.03 11:33:40.
