data_PCOD9150960
_publ_section_title
;
Structure prediction by ZEFSAII (Michael W. Deem and Ramdas Pophale) SiO2 
 PCOD9150960
Probable space group: P 2/M
;
_chemical_formula_sum "Si O2"
_cell_formula_units_Z 28
_cell_length_a 13.858618
_cell_length_b 14.441026
_cell_length_c 8.738523
_cell_angle_alpha 90.000000
_cell_angle_beta 135.880380
_cell_angle_gamma 90.000000
_cell_volume 1217.486745
_symmetry_space_group_name_H-M "P 2/M"
_symmetry_group_IT_number 10
_symmetry_cell_setting 'monoclinic'
loop_
_space_group_symop_operation_xyz
x,y,z
-x,y,-z
-x,-y,-z
x,-y,z
loop_
_atom_site_type_symbol
_atom_site_label
_atom_site_fract_x
_atom_site_fract_y
_atom_site_fract_z
Si Si1 0.627612 0.605305 0.532318
Si Si2 0.977567 0.648560 0.805295
Si Si3 0.146968 0.275410 0.755056
Si Si4 0.707518 0.398666 0.304942
Si Si5 0.554390 0.109564 0.231546
Si Si6 0.731520 0.107824 0.930862
Si Si7 0.782878 0.792800 0.677952
O O1 0.500000 0.612425 0.500000
O O2 0.683433 0.500000 0.614901
O O3 0.596171 0.614244 0.313618
O O4 0.720680 0.695276 0.667951
O O5 0.852587 0.603079 0.568134
O O6 0.927152 0.756093 0.773298
O O7 0.112525 0.654158 0.854694
O O8 0.000000 0.609724 0.000000
O O9 0.266732 0.319623 0.787897
O O10 0.000000 0.270415 0.500000
O O11 0.189731 0.176347 0.866013
O O12 0.689994 0.500000 0.215365
O O13 0.431464 0.122990 0.215980
O O14 0.686227 0.167652 0.434601
O O15 0.588731 0.000000 0.269309
O O16 0.500000 0.132935 0.000000
O O17 0.773822 0.136439 0.807356
O O18 0.760111 0.000000 0.990696
#
# Coordination Sequence:
#
# PCOD9150960 Si02
#       7
#     4   4   4   4   4   4   4
#     4   9  18  34  61  94 124 155 198 247 301 377
#     4  10  20  37  60  90 124 161 211 256 304 373
#     4  10  22  39  61  86 127 168 205 266 308 371
#     4   9  20  37  61  91 126 167 204 251 310 367
#     4  10  23  39  60  91 120 156 210 263 315 377
#     4  11  23  40  62  89 121 161 214 262 316 376
#     4  11  21  39  64  87 123 167 201 260 316 369
#
# _framework density 22.998196
#
# number of rings (size 3 to 8) (size 9 to 14) (size 15 to 20)
#    0.000    2.000    1.429    1.714    6.000    4.286 
#    0.000    2.857    0.000    1.286    0.000    0.000 
#    0.000    0.000    0.000    0.000    0.000    0.000 
#
# Total GULP energy -156387.178646 kJ/mol
# GULP energy per Si atom -5585.256380 kJ/mol
# Density = 2.294585 g / cm^3
# Si number density = 22.998196 Si / 1000 Ang^3
#
#
#
# Elastic Constant Matrix: (Units=GPa)
#
#
# Indices 1 2 3 4 5 6 
#
# 1 120.8294 33.8720 5.6087 0.0000 -21.8704 0.0000
# 2 33.8720 86.7092 23.2454 0.0000 -11.6435 0.0000
# 3 5.6087 23.2454 72.0693 0.0000 -15.2920 0.0000
# 4 0.0000 0.0000 0.0000 18.7206 0.0000 4.0025
# 5 -21.8704 -11.6435 -15.2920 0.0000 26.8204 0.0000
# 6 0.0000 0.0000 0.0000 4.0025 0.0000 21.5913
#
#
#
# Elastic Compliance Matrix: (Units=1/GPa)
#
#
# Indices 1 2 3 4 5 6 
#
# 1 0.010708 -0.003626 0.002110 0.000000 0.008361 0.000000
# 2 -0.003626 0.014164 -0.004106 0.000000 0.000851 0.000000
# 3 0.002110 -0.004106 0.017090 0.000000 0.009682 0.000000
# 4 0.000000 0.000000 0.000000 0.055622 0.000000 -0.010311
# 5 0.008361 0.000851 0.009682 0.000000 0.049993 0.000000
# 6 0.000000 0.000000 0.000000 -0.010311 0.000000 0.048226
#
#
# Mechanical properties :
#
#
# Convention : Reuss Voigt Hill
#
# Bulk Modulus (GPa) = 32.55281 45.00667 38.77974
# Shear Modulus (GPa) = 23.01116 27.88525 25.44820
#
# Velocity S-wave (km/s) = 3.16660 3.48587 3.33006
# Velocity P-wave (km/s) = 5.24929 5.98447 5.62889
#
# Compressibility (1/GPa) = 0.03071931
#
# Stress axis : x y z
#
# Youngs Moduli (GPa) = 93.38857 70.60030 58.51361
#
# Poissons Ratio (x) = 0.25599 -0.12348
# Poissons Ratio (y) = 0.33862 0.24024
# Poissons Ratio (z) = -0.19707 0.28986
#
# Static dielectric constant tensor:
#      x y z
#    x 1.935930 0.000000 -0.001270 
#    y 0.000000 1.822230 0.000000 
#    z -0.001270 0.000000 1.918170 
# 
# From -- ./inp_files/29601.got.cif
#   From: 2010.05.17/outbox.cif.g08.bks.cpg/sg10_15_cif.got.tgz:29601.got - 2010.06.03 11:33:40.
