data_PCOD9150417
_publ_section_title
;
Structure prediction by ZEFSAII (Michael W. Deem and Ramdas Pophale) SiO2 
 PCOD9150417
Probable space group: P 2/M
;
_chemical_formula_sum "Si O2"
_cell_formula_units_Z 28
_cell_length_a 20.727189
_cell_length_b 8.830262
_cell_length_c 14.635205
_cell_angle_alpha 90.000000
_cell_angle_beta 148.173993
_cell_angle_gamma 90.000000
_cell_volume 1412.553056
_symmetry_space_group_name_H-M "P 2/M"
_symmetry_group_IT_number 10
_symmetry_cell_setting 'monoclinic'
loop_
_space_group_symop_operation_xyz
x,y,z
-x,y,-z
-x,-y,-z
x,-y,z
loop_
_atom_site_type_symbol
_atom_site_label
_atom_site_fract_x
_atom_site_fract_y
_atom_site_fract_z
Si Si1 0.733432 0.319544 0.111432
Si Si2 0.551634 0.180650 0.744447
Si Si3 0.643254 0.820258 0.188402
Si Si4 0.933620 0.179761 0.225865
Si Si5 0.245104 0.821234 0.157826
Si Si6 0.816985 0.679976 0.535495
Si Si7 0.285356 0.679825 0.396948
O O1 0.730311 0.500000 0.116236
O O2 0.714650 0.241383 0.186206
O O3 0.858392 0.265249 0.213755
O O4 0.624400 0.262638 0.913515
O O5 0.628730 0.210979 0.744661
O O6 0.414238 0.236813 0.568154
O O7 0.556065 0.000000 0.766240
O O8 0.694029 0.734217 0.337562
O O9 0.661372 0.000000 0.220775
O O10 0.500000 0.791967 0.000000
O O11 0.070356 0.236753 0.376760
O O12 0.928624 0.000000 0.237005
O O13 0.860591 0.209284 0.043285
O O14 0.235420 0.728306 0.238574
O O15 0.243829 0.000000 0.178177
O O16 0.831566 0.500000 0.543660
O O17 0.804352 0.718541 0.627226
O O18 0.306393 0.500000 0.425035
#
# Coordination Sequence:
#
# PCOD9150417 Si02
#       7
#     4   4   4   4   4   4   4
#     4  11  22  38  63  91 121 155 190 238 297 350
#     4  10  20  36  58  86 120 156 198 244 289 346
#     4  11  24  42  65  92 120 154 195 237 285 345
#     4  10  22  42  64  87 116 153 200 245 287 343
#     4   9  20  37  58  84 115 153 196 244 293 346
#     4  11  25  42  59  85 120 155 195 244 295 346
#     4  11  23  36  55  85 120 157 196 244 299 350
#
# _framework density 19.822263
#
# number of rings (size 3 to 8) (size 9 to 14) (size 15 to 20)
#    0.000    1.571    0.000    5.571    0.000   12.000 
#    0.000    5.714    0.000    0.000    0.000    0.000 
#    0.000    0.000    0.000    0.000    0.000    0.000 
#
# Total GULP energy -156607.400446 kJ/mol
# GULP energy per Si atom -5593.121444 kJ/mol
# Density = 1.977715 g / cm^3
# Si number density = 19.822263 Si / 1000 Ang^3
#
#
#
# Elastic Constant Matrix: (Units=GPa)
#
#
# Indices 1 2 3 4 5 6 
#
# 1 65.0054 12.4454 6.7080 0.0000 -6.9454 0.0000
# 2 12.4454 22.4093 5.9580 0.0000 3.9688 0.0000
# 3 6.7080 5.9580 19.1509 0.0000 11.5895 0.0000
# 4 0.0000 0.0000 0.0000 64.1647 0.0000 15.1419
# 5 -6.9454 3.9688 11.5895 0.0000 25.4260 0.0000
# 6 0.0000 0.0000 0.0000 15.1419 0.0000 38.4081
#
#
#
# Elastic Compliance Matrix: (Units=1/GPa)
#
#
# Indices 1 2 3 4 5 6 
#
# 1 0.019749 -0.010164 -0.011020 0.000000 0.012004 0.000000
# 2 -0.010164 0.053896 -0.008888 0.000000 -0.007138 0.000000
# 3 -0.011020 -0.008888 0.082612 0.000000 -0.039279 0.000000
# 4 0.000000 0.000000 0.000000 0.017184 0.000000 -0.006774
# 5 0.012004 -0.007138 -0.039279 0.000000 0.061627 0.000000
# 6 0.000000 0.000000 0.000000 -0.006774 0.000000 0.028707
#
#
# Mechanical properties :
#
#
# Convention : Reuss Voigt Hill
#
# Bulk Modulus (GPa) = 10.40433 17.42094 13.91263
# Shear Modulus (GPa) = 14.04668 31.03004 22.53836
#
# Velocity S-wave (km/s) = 2.66490 3.96082 3.37563
# Velocity P-wave (km/s) = 3.83786 5.45208 4.71457
#
# Compressibility (1/GPa) = 0.09611381
#
# Stress axis : x y z
#
# Youngs Moduli (GPa) = 50.63545 18.55412 12.10478
#
# Poissons Ratio (x) = 0.18859 0.13339
# Poissons Ratio (y) = 0.51466 0.10758
# Poissons Ratio (z) = 0.55800 0.16490
#
# Static dielectric constant tensor:
#      x y z
#    x 1.690050 0.000000 -0.008180 
#    y 0.000000 1.654400 0.000000 
#    z -0.008180 0.000000 1.693930 
# 
# From -- ./inp_files/70215.got.cif
#   From: 2010.05.17/outbox.cif.g08.bks.cpg/sg10_36_cif.got.tgz:70215.got - 2010.06.03 11:33:40.
