data_PCOD9150010
_publ_section_title
;
Structure prediction by ZEFSAII (Michael W. Deem and Ramdas Pophale) SiO2 
 PCOD9150010
Probable space group: P 2/M
;
_chemical_formula_sum "Si O2"
_cell_formula_units_Z 28
_cell_length_a 31.246458
_cell_length_b 10.649333
_cell_length_c 25.501470
_cell_angle_alpha 90.000000
_cell_angle_beta 8.945101
_cell_angle_gamma 90.000000
_cell_volume 1319.426964
_symmetry_space_group_name_H-M "P 2/M"
_symmetry_group_IT_number 10
_symmetry_cell_setting 'monoclinic'
loop_
_space_group_symop_operation_xyz
x,y,z
-x,y,-z
-x,-y,-z
x,-y,z
loop_
_atom_site_type_symbol
_atom_site_label
_atom_site_fract_x
_atom_site_fract_y
_atom_site_fract_z
Si Si1 0.082188 0.139590 0.185383
Si Si2 0.796716 0.357886 0.391637
Si Si3 0.319603 0.355961 0.832254
Si Si4 0.531596 0.213802 0.797570
Si Si5 0.291656 0.637617 0.176940
Si Si6 0.058570 0.138824 0.521737
Si Si7 0.833895 0.357148 0.147219
O O1 0.803137 0.141536 0.487725
O O2 0.995053 0.154889 0.351418
O O3 0.209270 0.000000 0.026323
O O4 0.275039 0.253370 0.931445
O O5 0.698712 0.500000 0.498594
O O6 0.571857 0.272373 0.691203
O O7 0.029082 0.366878 0.155195
O O8 0.960104 0.300159 0.144634
O O9 0.402077 0.500000 0.747813
O O10 0.537189 0.309383 0.524702
O O11 0.502926 0.322553 0.876025
O O12 0.237160 0.145699 0.150414
O O13 0.353695 0.500000 0.123506
O O14 0.246314 0.749961 0.272422
O O15 0.000000 0.629263 0.500000
O O16 0.176817 0.000000 0.369251
O O17 0.788065 0.500000 0.182763
O O18 0.000000 0.361896 0.000000
#
# Coordination Sequence:
#
# PCOD9150010 Si02
#       7
#     4   4   4   4   4   4   4
#     4  10  22  38  56  81 111 144 184 226 269 319
#     4   9  17  30  50  77 108 141 175 220 272 320
#     4   9  18  33  53  77 107 141 180 222 268 319
#     4  10  20  35  58  80 107 144 183 223 269 323
#     4   9  19  36  57  84 114 144 180 225 274 321
#     4  10  22  38  57  80 108 146 185 223 270 323
#     4   9  17  28  47  78 109 138 175 217 266 322
#
# _framework density 21.221335
#
# number of rings (size 3 to 8) (size 9 to 14) (size 15 to 20)
#    0.000    2.571    0.000    1.286    2.000    7.143 
#    0.000    2.143    0.000    8.143    0.000    0.000 
#    0.000    0.000    0.000    0.000    0.000    0.000 
#
# Total GULP energy -156127.582880 kJ/mol
# GULP energy per Si atom -5575.985103 kJ/mol
# Density = 2.117303 g / cm^3
# Si number density = 21.221335 Si / 1000 Ang^3
#
#
#
# Elastic Constant Matrix: (Units=GPa)
#
#
# Indices 1 2 3 4 5 6 
#
# 1 79.7216 54.4076 14.1322 0.0000 21.6776 0.0000
# 2 54.4076 137.8526 37.1369 0.0000 38.4633 0.0000
# 3 14.1322 37.1369 66.3530 0.0000 19.5154 0.0000
# 4 0.0000 0.0000 0.0000 -45.5148 0.0000 4.9974
# 5 21.6776 38.4633 19.5154 0.0000 45.0732 0.0000
# 6 0.0000 0.0000 0.0000 4.9974 0.0000 18.7333
#
#
#
# Elastic Compliance Matrix: (Units=1/GPa)
#
#
# Indices 1 2 3 4 5 6 
#
# 1 0.017567 -0.006150 0.000735 0.000000 -0.003519 0.000000
# 2 -0.006150 0.012379 -0.003875 0.000000 -0.005929 0.000000
# 3 0.000735 -0.003875 0.018581 0.000000 -0.005092 0.000000
# 4 0.000000 0.000000 0.000000 -0.021346 0.000000 0.005694
# 5 -0.003519 -0.005929 -0.005092 0.000000 0.031143 0.000000
# 6 0.000000 0.000000 0.000000 0.005694 0.000000 0.051862
#
#
# Mechanical properties :
#
#
# Convention : Reuss Voigt Hill
#
# Bulk Modulus (GPa) = 33.39045 55.03118 44.21081
# Shear Modulus (GPa) = 36.03675 15.54170 25.78923
#
# Velocity S-wave (km/s) = 4.12532 2.70915 3.48983
# Velocity P-wave (km/s) = 6.20157 5.98116 6.09237
#
# Compressibility (1/GPa) = 0.02994869
#
# Stress axis : x y z
#
# Youngs Moduli (GPa) = 56.92438 80.77985 53.81937
#
# Poissons Ratio (x) = 0.49676 -0.03958
# Poissons Ratio (y) = 0.35006 0.20856
# Poissons Ratio (z) = -0.04186 0.31303
#
# Static dielectric constant tensor:
#      x y z
#    x 1.786950 0.000000 -0.000850 
#    y 0.000000 1.783170 0.000000 
#    z -0.000850 0.000000 1.808080 
# 
# From -- ./inp_files/91438.got.cif
#   From: 2010.05.17/outbox.cif.g08.bks.cpg/sg10_46_cif.got.tgz:91438.got - 2010.06.03 11:33:40.
