data_PCOD9150210
_publ_section_title
;
Structure prediction by ZEFSAII (Michael W. Deem and Ramdas Pophale) SiO2 
 PCOD9150210
Probable space group: P 2/M
;
_chemical_formula_sum "Si O2"
_cell_formula_units_Z 20
_cell_length_a 20.669196
_cell_length_b 9.116434
_cell_length_c 10.202571
_cell_angle_alpha 90.000000
_cell_angle_beta 140.885126
_cell_angle_gamma 90.000000
_cell_volume 1212.838757
_symmetry_space_group_name_H-M "P 2/M"
_symmetry_group_IT_number 10
_symmetry_cell_setting 'monoclinic'
loop_
_space_group_symop_operation_xyz
x,y,z
-x,y,-z
-x,-y,-z
x,-y,z
loop_
_atom_site_type_symbol
_atom_site_label
_atom_site_fract_x
_atom_site_fract_y
_atom_site_fract_z
Si Si1 0.597181 0.500000 0.471803
Si Si2 0.829758 0.667093 0.209206
Si Si3 0.139962 0.826508 0.468261
Si Si4 0.363465 0.500000 0.154720
Si Si5 0.097317 0.173931 0.938433
Si Si6 0.227556 0.666896 0.367180
O O1 0.475451 0.500000 0.267903
O O2 0.623780 0.500000 0.668167
O O3 0.656351 0.637755 0.499728
O O4 0.872304 0.500000 0.277037
O O5 0.851739 0.748604 0.378544
O O6 0.873320 0.755717 0.154956
O O7 0.707920 0.637526 0.997722
O O8 0.215872 0.753755 0.483122
O O9 0.024225 0.805320 0.232824
O O10 0.157468 0.000000 0.508993
O O11 0.117698 0.000000 0.970104
O O12 0.163013 0.252282 0.153783
O O13 0.186726 0.500000 0.320297
#
# Coordination Sequence:
#
# PCOD9150210 Si02
#       6
#     2   4   4   2   4   4
#     4   9  18  37  62  84 103 130 179 235 284 310
#     4  10  20  36  55  85 101 145 186 225 261 313
#     4  11  23  35  51  78 120 154 171 213 273 323
#     4   9  18  37  62  84 103 130 179 235 284 310
#     4  11  21  35  53  78 116 152 179 213 267 321
#     4  10  20  36  55  85 101 145 186 225 261 313
#
# _framework density 16.490238000000002
#
# number of rings (size 3 to 8) (size 9 to 14) (size 15 to 20)
#    1.200    0.600    2.000    3.600    0.000    8.000 
#    0.000    2.000    0.000    7.200    0.000    0.000 
#    0.000    0.000    0.000    0.000    0.000    0.000 
#
# Total GULP energy -111444.115208 kJ/mol
# GULP energy per Si atom -5572.205760 kJ/mol
# Density = 1.645271 g / cm^3
# Si number density = 16.490238 Si / 1000 Ang^3
#
#
#
# Elastic Constant Matrix: (Units=GPa)
#
#
# Indices 1 2 3 4 5 6 
#
# 1 32.5419 10.8341 5.6273 0.0000 7.9457 0.0000
# 2 10.8341 70.5045 6.5667 0.0000 7.6745 0.0000
# 3 5.6273 6.5667 22.6093 0.0000 7.2394 0.0000
# 4 0.0000 0.0000 0.0000 -130.8618 0.0000 -58.8049
# 5 7.9457 7.6745 7.2394 0.0000 34.1075 0.0000
# 6 0.0000 0.0000 0.0000 -58.8049 0.0000 -3.4521
#
#
#
# Elastic Compliance Matrix: (Units=1/GPa)
#
#
# Indices 1 2 3 4 5 6 
#
# 1 0.034509 -0.004145 -0.005482 0.000000 -0.005943 0.000000
# 2 -0.004145 0.015286 -0.002807 0.000000 -0.001878 0.000000
# 3 -0.005482 -0.002807 0.049138 0.000000 -0.008521 0.000000
# 4 0.000000 0.000000 0.000000 0.001148 0.000000 -0.019561
# 5 -0.005943 -0.001878 -0.008521 0.000000 0.032935 0.000000
# 6 0.000000 0.000000 0.000000 -0.019561 0.000000 0.043530
#
#
# Mechanical properties :
#
#
# Convention : Reuss Voigt Hill
#
# Bulk Modulus (GPa) = 13.50178 19.07910 16.29044
# Shear Modulus (GPa) = 22.11393 -13.19945 4.45724
#
# Velocity S-wave (km/s) = 3.66598 -2.83228 1.64585
# Velocity P-wave (km/s) = 5.11124 0.94834 3.67587
#
# Compressibility (1/GPa) = 0.07406430
#
# Stress axis : x y z
#
# Youngs Moduli (GPa) = 28.97814 65.41799 20.35103
#
# Poissons Ratio (x) = 0.27118 0.11157
# Poissons Ratio (y) = 0.12012 0.05712
# Poissons Ratio (z) = 0.15886 0.18361
#
# Static dielectric constant tensor:
#      x y z
#    x 1.550720 0.000000 0.006950 
#    y 0.000000 1.541340 0.000000 
#    z 0.006950 0.000000 1.538320 
# 
# From -- ./inp_files/34076.got.cif
#   From: 2010.05.17/outbox.cif.g08.bks.cpg/sg10_18_cif.got.tgz:34076.got - 2010.06.03 11:33:40.
