data_PCOD9150879
_publ_section_title
;
Structure prediction by ZEFSAII (Michael W. Deem and Ramdas Pophale) SiO2 
 PCOD9150879
Probable space group: P 2/M
;
_chemical_formula_sum "Si O2"
_cell_formula_units_Z 24
_cell_length_a 9.650112
_cell_length_b 8.630973
_cell_length_c 15.138561
_cell_angle_alpha 90.000000
_cell_angle_beta 80.193347
_cell_angle_gamma 90.000000
_cell_volume 1242.464625
_symmetry_space_group_name_H-M "P 2/M"
_symmetry_group_IT_number 10
_symmetry_cell_setting 'monoclinic'
loop_
_space_group_symop_operation_xyz
x,y,z
-x,y,-z
-x,-y,-z
x,-y,z
loop_
_atom_site_type_symbol
_atom_site_label
_atom_site_fract_x
_atom_site_fract_y
_atom_site_fract_z
Si Si1 0.068501 0.812658 0.586152
Si Si2 0.381501 0.684911 0.582315
Si Si3 0.525011 0.183303 0.739389
Si Si4 0.114009 0.320061 0.053201
Si Si5 0.411026 0.320175 0.926796
Si Si6 0.159652 0.186904 0.243404
O O1 0.227328 0.753958 0.581028
O O2 0.000000 0.764054 0.500000
O O3 0.965148 0.762449 0.677147
O O4 0.072288 0.000000 0.586180
O O5 0.500000 0.739653 0.500000
O O6 0.370133 0.500000 0.577082
O O7 0.443273 0.731897 0.670276
O O8 0.443142 0.219736 0.838389
O O9 0.686884 0.236414 0.736610
O O10 0.527027 0.000000 0.721025
O O11 0.074569 0.500000 0.074770
O O12 0.136654 0.243956 0.145978
O O13 0.254197 0.319139 0.979716
O O14 0.000000 0.246772 0.000000
O O15 0.452251 0.500000 0.903912
O O16 0.500000 0.262226 0.000000
O O17 0.160745 0.000000 0.242310
#
# Coordination Sequence:
#
# PCOD9150879 Si02
#       6
#     4   4   4   4   4   4
#     4  10  22  42  66  91 123 159 197 243 300 361
#     4  11  25  43  64  92 123 156 199 248 299 359
#     4  11  23  39  63  91 122 160 202 249 302 357
#     4  10  22  38  57  83 118 162 203 244 297 354
#     4  10  20  37  59  85 120 161 204 248 296 351
#     4  10  22  39  60  89 120 157 201 247 298 354
#
# _framework density 19.316445000000002
#
# number of rings (size 3 to 8) (size 9 to 14) (size 15 to 20)
#    0.000    1.667    1.667    2.000    2.333    5.667 
#    0.000    0.000    0.000    0.000    0.000    0.000 
#    0.000    0.000    0.000    0.000    0.000    0.000 
#
# Total GULP energy -134016.954673 kJ/mol
# GULP energy per Si atom -5584.039778 kJ/mol
# Density = 1.927248 g / cm^3
# Si number density = 19.316445 Si / 1000 Ang^3
#
#
#
# Elastic Constant Matrix: (Units=GPa)
#
#
# Indices 1 2 3 4 5 6 
#
# 1 151.0162 22.9913 89.0879 0.0000 15.9116 0.0000
# 2 22.9913 15.5925 15.7062 0.0000 -2.8911 0.0000
# 3 89.0879 15.7062 108.4903 0.0000 -4.5013 0.0000
# 4 0.0000 0.0000 0.0000 125.1976 0.0000 99.9187
# 5 15.9116 -2.8911 -4.5013 0.0000 33.8053 0.0000
# 6 0.0000 0.0000 0.0000 99.9187 0.0000 159.3873
#
#
#
# Elastic Compliance Matrix: (Units=1/GPa)
#
#
# Indices 1 2 3 4 5 6 
#
# 1 0.017682 -0.015306 -0.012774 0.000000 -0.011332 0.000000
# 2 -0.015306 0.089182 0.000275 0.000000 0.014868 0.000000
# 3 -0.012774 0.000275 0.020028 0.000000 0.008703 0.000000
# 4 0.000000 0.000000 0.000000 0.015985 0.000000 -0.010021
# 5 -0.011332 0.014868 0.008703 0.000000 0.037345 0.000000
# 6 0.000000 0.000000 0.000000 -0.010021 0.000000 0.012556
#
#
# Mechanical properties :
#
#
# Convention : Reuss Voigt Hill
#
# Bulk Modulus (GPa) = 14.02884 58.96330 36.49607
# Shear Modulus (GPa) = 18.37228 73.49895 45.93562
#
# Velocity S-wave (km/s) = 3.08737 6.17516 4.88182
# Velocity P-wave (km/s) = 4.47074 9.02411 7.12117
#
# Compressibility (1/GPa) = 0.07128173
#
# Stress axis : x y z
#
# Youngs Moduli (GPa) = 56.55615 11.21297 49.93013
#
# Poissons Ratio (x) = 0.17163 0.63779
# Poissons Ratio (y) = 0.86565 -0.01371
# Poissons Ratio (z) = 0.72243 -0.00308
#
# Static dielectric constant tensor:
#      x y z
#    x 1.711480 0.000000 0.032000 
#    y 0.000000 1.671930 0.000000 
#    z 0.032000 0.000000 1.645680 
# 
# From -- ./inp_files/27076.got.cif
#   From: 2010.05.17/outbox.cif.g08.bks.cpg/sg10_14_cif.got.tgz:27076.got - 2010.06.03 11:33:40.
