data_PCOD9150094
_publ_section_title
;
Structure prediction by ZEFSAII (Michael W. Deem and Ramdas Pophale) SiO2 
 PCOD9150094
Probable space group: P 2/M
;
_chemical_formula_sum "Si O2"
_cell_formula_units_Z 32
_cell_length_a 29.205204
_cell_length_b 8.571417
_cell_length_c 12.684350
_cell_angle_alpha 90.000000
_cell_angle_beta 149.921087
_cell_angle_gamma 90.000000
_cell_volume 1591.422416
_symmetry_space_group_name_H-M "P 2/M"
_symmetry_group_IT_number 10
_symmetry_cell_setting 'monoclinic'
loop_
_space_group_symop_operation_xyz
x,y,z
-x,y,-z
-x,-y,-z
x,-y,z
loop_
_atom_site_type_symbol
_atom_site_label
_atom_site_fract_x
_atom_site_fract_y
_atom_site_fract_z
Si Si1 0.970922 0.817990 0.559301
Si Si2 0.641026 0.680423 0.996294
Si Si3 0.270476 0.312196 0.217284
Si Si4 0.015545 0.683101 0.197300
Si Si5 0.205426 0.682718 0.864441
Si Si6 0.818099 0.689166 0.738719
Si Si7 0.468137 0.184763 0.553146
Si Si8 0.215987 0.184275 0.551323
O O1 0.009141 0.714357 0.729500
O O2 0.862720 0.788164 0.338253
O O3 0.000000 0.769971 0.500000
O O4 0.992249 0.000000 0.618391
O O5 0.617408 0.500000 0.967613
O O6 0.697386 0.690229 0.999063
O O7 0.710954 0.735941 0.225656
O O8 0.549515 0.777646 0.796534
O O9 0.267115 0.500000 0.209355
O O10 0.228588 0.259724 0.244853
O O11 0.374127 0.260692 0.404145
O O12 0.213521 0.261080 0.000591
O O13 0.030522 0.500000 0.208446
O O14 0.111080 0.768111 0.367895
O O15 0.925764 0.733575 0.954597
O O16 0.175766 0.500000 0.801355
O O17 0.815162 0.500000 0.728014
O O18 0.770554 0.759716 0.541887
O O19 0.500000 0.241278 0.500000
O O20 0.453679 0.000000 0.516588
O O21 0.225078 0.000000 0.579001
#
# Coordination Sequence:
#
# PCOD9150094 Si02
#       8
#     4   4   4   4   4   4   4   4
#     4  11  23  35  51  82 124 164 200 246 306 365
#     4  11  22  39  65  92 120 156 203 251 295 354
#     4  10  21  40  64  91 122 158 204 254 302 360
#     4  11  22  39  63  88 118 160 210 257 299 356
#     4  10  20  35  59  87 117 157 201 246 299 357
#     4  10  23  42  64  89 120 160 208 257 303 355
#     4  11  23  38  61  94 130 163 196 242 304 370
#     4  12  25  41  63  90 125 162 204 255 306 362
#
# _framework density 20.107800000000001
#
# number of rings (size 3 to 8) (size 9 to 14) (size 15 to 20)
#    0.000    1.250    2.500    3.750    0.000    6.500 
#    0.000    0.625    0.000    3.750    0.000    0.000 
#    0.000    0.000    0.000    0.000    0.000    0.000 
#
# Total GULP energy -178854.431494 kJ/mol
# GULP energy per Si atom -5589.200984 kJ/mol
# Density = 2.006203 g / cm^3
# Si number density = 20.107800 Si / 1000 Ang^3
#
#
#
# Elastic Constant Matrix: (Units=GPa)
#
#
# Indices 1 2 3 4 5 6 
#
# 1 78.9614 7.5320 29.2743 0.0000 -17.5452 0.0000
# 2 7.5320 14.0333 -5.0269 0.0000 -5.7383 0.0000
# 3 29.2743 -5.0269 87.2086 0.0000 -13.8257 0.0000
# 4 0.0000 0.0000 0.0000 48.1330 0.0000 10.9900
# 5 -17.5452 -5.7383 -13.8257 0.0000 33.0532 0.0000
# 6 0.0000 0.0000 0.0000 10.9900 0.0000 28.9566
#
#
#
# Elastic Compliance Matrix: (Units=1/GPa)
#
#
# Indices 1 2 3 4 5 6 
#
# 1 0.016574 -0.008699 -0.005258 0.000000 0.005088 0.000000
# 2 -0.008699 0.085474 0.010140 0.000000 0.014463 0.000000
# 3 -0.005258 0.010140 0.014623 0.000000 0.005086 0.000000
# 4 0.000000 0.000000 0.000000 0.022747 0.000000 -0.008633
# 5 0.005088 0.014463 0.005086 0.000000 0.037593 0.000000
# 6 0.000000 0.000000 0.000000 -0.008633 0.000000 0.037811
#
#
# Mechanical properties :
#
#
# Convention : Reuss Voigt Hill
#
# Bulk Modulus (GPa) = 9.17125 27.08468 18.12796
# Shear Modulus (GPa) = 19.31972 31.92347 25.62160
#
# Velocity S-wave (km/s) = 3.10305 3.98881 3.57348
# Velocity P-wave (km/s) = 4.17247 5.89179 5.10503
#
# Compressibility (1/GPa) = 0.10903642
#
# Stress axis : x y z
#
# Youngs Moduli (GPa) = 60.33430 11.69942 68.38712
#
# Poissons Ratio (x) = 0.10177 0.35961
# Poissons Ratio (y) = 0.52484 -0.69344
# Poissons Ratio (z) = 0.31726 -0.11863
#
# Static dielectric constant tensor:
#      x y z
#    x 1.756130 0.000000 -0.005030 
#    y 0.000000 1.677140 0.000000 
#    z -0.005030 0.000000 1.703510 
# 
# From -- ./inp_files/58238.got.cif
#   From: 2010.05.17/outbox.cif.g08.bks.cpg/sg10_30_cif.got.tgz:58238.got - 2010.06.03 11:33:40.
