data_PCOD9150175
_publ_section_title
;
Structure prediction by ZEFSAII (Michael W. Deem and Ramdas Pophale) SiO2 
 PCOD9150175
Probable space group: P 2/M
;
_chemical_formula_sum "Si O2"
_cell_formula_units_Z 21
_cell_length_a 11.541420
_cell_length_b 14.768951
_cell_length_c 11.623283
_cell_angle_alpha 90.000000
_cell_angle_beta 147.421964
_cell_angle_gamma 90.000000
_cell_volume 1066.795834
_symmetry_space_group_name_H-M "P 2/M"
_symmetry_group_IT_number 10
_symmetry_cell_setting 'monoclinic'
loop_
_space_group_symop_operation_xyz
x,y,z
-x,y,-z
-x,-y,-z
x,-y,z
loop_
_atom_site_type_symbol
_atom_site_label
_atom_site_fract_x
_atom_site_fract_y
_atom_site_fract_z
Si Si1 0.500000 0.675834 0.000000
Si Si2 0.500000 0.817369 0.500000
Si Si3 0.347795 0.350419 0.230335
Si Si4 0.062218 0.102828 0.186790
Si Si5 0.238594 0.601459 0.574813
Si Si6 0.116144 0.274660 0.832353
Si Si7 0.500000 0.500000 0.500000
O O1 0.343762 0.617832 0.787404
O O2 0.338800 0.730692 0.947754
O O3 0.604208 0.748826 0.679577
O O4 0.683499 0.877474 0.596920
O O5 0.559082 0.389473 0.342219
O O6 0.326789 0.420347 0.315665
O O7 0.163855 0.339342 0.981945
O O8 0.953934 0.178570 0.175473
O O9 0.010706 0.000000 0.177219
O O10 0.000000 0.113697 0.000000
O O11 0.148481 0.500000 0.490814
O O12 0.066734 0.677584 0.397094
#
# Coordination Sequence:
#
# PCOD9150175 Si02
#       7
#     2   2   4   4   4   4   1
#     4  10  25  42  63  86 124 166 211 258 305 360
#     4  11  19  39  59  90 126 162 192 250 306 368
#     4  10  21  35  57  85 130 164 204 248 299 362
#     4  11  23  40  65  96 125 158 202 253 314 378
#     4  11  22  39  62  90 122 167 211 255 304 357
#     4  11  23  41  62  90 123 164 210 259 307 361
#     4  10  20  36  52  86 130 170 202 244 298 364
#
# _framework density 19.685117000000002
#
# number of rings (size 3 to 8) (size 9 to 14) (size 15 to 20)
#    0.000    1.333    4.762    1.143    1.333    2.286 
#    0.000    1.429    0.000    2.286    0.000    0.000 
#    0.000    0.000    0.000    0.000    0.000    0.000 
#
# Total GULP energy -117018.245678 kJ/mol
# GULP energy per Si atom -5572.297413 kJ/mol
# Density = 1.964031 g / cm^3
# Si number density = 19.685117 Si / 1000 Ang^3
#
#
#
# Elastic Constant Matrix: (Units=GPa)
#
#
# Indices 1 2 3 4 5 6 
#
# 1 59.0899 51.6576 14.2528 0.0000 -0.1225 0.0000
# 2 51.6576 154.6614 50.3689 0.0000 4.5418 0.0000
# 3 14.2528 50.3689 100.8711 0.0000 -18.4673 0.0000
# 4 0.0000 0.0000 0.0000 22.1323 0.0000 -8.7221
# 5 -0.1225 4.5418 -18.4673 0.0000 34.6257 0.0000
# 6 0.0000 0.0000 0.0000 -8.7221 0.0000 13.9291
#
#
#
# Elastic Compliance Matrix: (Units=1/GPa)
#
#
# Indices 1 2 3 4 5 6 
#
# 1 0.024045 -0.008462 0.001160 0.000000 0.001814 0.000000
# 2 -0.008462 0.011079 -0.005107 0.000000 -0.004207 0.000000
# 3 0.001160 -0.005107 0.013767 0.000000 0.008017 0.000000
# 4 0.000000 0.000000 0.000000 0.059986 0.000000 0.037562
# 5 0.001814 -0.004207 0.008017 0.000000 0.033714 0.000000
# 6 0.000000 0.000000 0.000000 0.037562 0.000000 0.095313
#
#
# Mechanical properties :
#
#
# Convention : Reuss Voigt Hill
#
# Bulk Modulus (GPa) = 41.53884 60.79790 51.16837
# Shear Modulus (GPa) = 18.46752 27.36029 22.91390
#
# Velocity S-wave (km/s) = 3.06624 3.73218 3.41548
# Velocity P-wave (km/s) = 5.80373 7.03736 6.45010
#
# Compressibility (1/GPa) = 0.02407386
#
# Stress axis : x y z
#
# Youngs Moduli (GPa) = 41.58830 90.26273 72.63604
#
# Poissons Ratio (x) = 0.76383 -0.08427
# Poissons Ratio (y) = 0.35193 0.37092
# Poissons Ratio (z) = -0.04825 0.46093
#
# Static dielectric constant tensor:
#      x y z
#    x 1.790270 0.000000 -0.035440 
#    y 0.000000 1.656690 0.000000 
#    z -0.035440 0.000000 1.749650 
# 
# From -- ./inp_files/6843.got.cif
#   From: 2010.05.17/outbox.cif.g08.bks.cpg/sg10_4_cif.got.tgz:6843.got - 2010.06.03 11:33:40.
