data_PCOD9150390
_publ_section_title
;
Structure prediction by ZEFSAII (Michael W. Deem and Ramdas Pophale) SiO2 
 PCOD9150390
Probable space group: P 2/M
;
_chemical_formula_sum "Si O2"
_cell_formula_units_Z 24
_cell_length_a 14.364279
_cell_length_b 7.682870
_cell_length_c 21.075743
_cell_angle_alpha 90.000000
_cell_angle_beta 23.388312
_cell_angle_gamma 90.000000
_cell_volume 923.289052
_symmetry_space_group_name_H-M "P 2/M"
_symmetry_group_IT_number 10
_symmetry_cell_setting 'monoclinic'
loop_
_space_group_symop_operation_xyz
x,y,z
-x,y,-z
-x,-y,-z
x,-y,z
loop_
_atom_site_type_symbol
_atom_site_label
_atom_site_fract_x
_atom_site_fract_y
_atom_site_fract_z
Si Si1 0.342612 0.700142 0.188427
Si Si2 0.339477 0.295709 0.328214
Si Si3 0.822925 0.804117 0.844089
Si Si4 0.686147 0.799624 0.336053
Si Si5 0.881991 0.788298 0.007155
Si Si6 0.297152 0.293587 0.491715
O O1 0.259822 0.500000 0.233599
O O2 0.276286 0.775489 0.298407
O O3 0.259381 0.798072 0.178028
O O4 0.626406 0.700137 0.005166
O O5 0.282149 0.500000 0.359463
O O6 0.232822 0.230156 0.461043
O O7 0.619302 0.276654 0.162593
O O8 0.088643 0.740670 0.671743
O O9 0.815822 0.000000 0.872736
O O10 0.500000 0.712068 0.500000
O O11 0.939559 0.727922 0.159863
O O12 0.533457 0.797601 0.366915
O O13 0.718631 0.000000 0.336260
O O14 0.877590 0.000000 0.008584
O O15 0.000000 0.734844 0.000000
O O16 0.338942 0.500000 0.461984
#
# Coordination Sequence:
#
# PCOD9150390 Si02
#       6
#     4   4   4   4   4   4
#     4  10  21  41  64  89 118 152 193 239 292 351
#     4  10  23  39  60  88 118 154 196 240 289 346
#     4  11  23  40  62  89 119 153 193 241 292 347
#     4  10  22  39  57  84 119 155 196 241 290 343
#     4  10  20  36  58  83 116 156 193 236 288 341
#     4  11  23  40  60  86 119 157 196 241 292 344
#
# _framework density 25.994026999999999
#
# number of rings (size 3 to 8) (size 9 to 14) (size 15 to 20)
#    0.000    1.667    1.667    3.500    2.333    4.000 
#    0.000    3.333    0.000    0.000    0.000    0.000 
#    0.000    0.000    0.000    0.000    0.000    0.000 
#
# Total GULP energy -134317.433670 kJ/mol
# GULP energy per Si atom -5596.559736 kJ/mol
# Density = 2.593486 g / cm^3
# Si number density = 25.994027 Si / 1000 Ang^3
#
#
#
# Elastic Constant Matrix: (Units=GPa)
#
#
# Indices 1 2 3 4 5 6 
#
# 1 85.8424 -1.1416 -4.3806 0.0000 9.3266 0.0000
# 2 -1.1416 76.2038 -2.8846 0.0000 0.7679 0.0000
# 3 -4.3806 -2.8846 145.9258 0.0000 6.1888 0.0000
# 4 0.0000 0.0000 0.0000 -312.7733 0.0000 10.8447
# 5 9.3266 0.7679 6.1888 0.0000 52.6642 0.0000
# 6 0.0000 0.0000 0.0000 10.8447 0.0000 19.6277
#
#
#
# Elastic Compliance Matrix: (Units=1/GPa)
#
#
# Indices 1 2 3 4 5 6 
#
# 1 0.011911 0.000217 0.000454 0.000000 -0.002166 0.000000
# 2 0.000217 0.013139 0.000277 0.000000 -0.000263 0.000000
# 3 0.000454 0.000277 0.006910 0.000000 -0.000896 0.000000
# 4 0.000000 0.000000 0.000000 -0.003137 0.000000 0.001733
# 5 -0.002166 -0.000263 -0.000896 0.000000 0.019481 0.000000
# 6 0.000000 0.000000 0.000000 0.001733 0.000000 0.049991
#
#
# Mechanical properties :
#
#
# Convention : Reuss Voigt Hill
#
# Bulk Modulus (GPa) = 29.53626 32.35094 30.94360
# Shear Modulus (GPa) = 46.43272 -27.00436 9.71418
#
# Velocity S-wave (km/s) = 4.23103 -3.22664 1.93525
# Velocity P-wave (km/s) = 5.93769 1.18705 4.11382
#
# Compressibility (1/GPa) = 0.03385669
#
# Stress axis : x y z
#
# Youngs Moduli (GPa) = 83.95881 76.10861 144.71953
#
# Poissons Ratio (x) = -0.01655 -0.06566
# Poissons Ratio (y) = -0.01826 -0.04014
# Poissons Ratio (z) = -0.03809 -0.02111
#
# Static dielectric constant tensor:
#      x y z
#    x 2.134080 0.000000 0.022880 
#    y 0.000000 1.906200 0.000000 
#    z 0.022880 0.000000 2.032930 
# 
# From -- ./inp_files/90011.got.cif
#   From: 2010.05.17/outbox.cif.g08.bks.cpg/sg10_46_cif.got.tgz:90011.got - 2010.06.03 11:33:40.
