data_PCOD9150022
_publ_section_title
;
Structure prediction by ZEFSAII (Michael W. Deem and Ramdas Pophale) SiO2 
 PCOD9150022
Probable space group: P 2/M
;
_chemical_formula_sum "Si O2"
_cell_formula_units_Z 32
_cell_length_a 20.386042
_cell_length_b 7.487108
_cell_length_c 26.183478
_cell_angle_alpha 90.000000
_cell_angle_beta 21.050562
_cell_angle_gamma 90.000000
_cell_volume 1435.491426
_symmetry_space_group_name_H-M "P 2/M"
_symmetry_group_IT_number 10
_symmetry_cell_setting 'monoclinic'
loop_
_space_group_symop_operation_xyz
x,y,z
-x,y,-z
-x,-y,-z
x,-y,z
loop_
_atom_site_type_symbol
_atom_site_label
_atom_site_fract_x
_atom_site_fract_y
_atom_site_fract_z
Si Si1 0.796986 0.206615 0.649838
Si Si2 0.515287 0.218514 0.047662
Si Si3 0.297362 0.707970 0.491839
Si Si4 0.095383 0.783848 0.190747
Si Si5 0.906189 0.783092 0.121063
Si Si6 0.581787 0.290501 0.705228
Si Si7 0.503181 0.705569 0.554680
Si Si8 0.157954 0.784338 0.031652
O O1 0.652370 0.283037 0.795564
O O2 0.700257 0.210302 0.664988
O O3 0.000000 0.286658 0.500000
O O4 0.821712 0.000000 0.647667
O O5 0.514443 0.000000 0.050164
O O6 0.500000 0.271563 0.000000
O O7 0.709897 0.274810 0.928922
O O8 0.355143 0.500000 0.450522
O O9 0.374260 0.784350 0.383047
O O10 0.373126 0.786888 0.490070
O O11 0.079466 0.719674 0.651284
O O12 0.092155 0.000000 0.194171
O O13 0.084127 0.724399 0.140106
O O14 0.702824 0.711726 0.275109
O O15 0.895242 0.000000 0.129729
O O16 0.000000 0.730010 0.000000
O O17 0.031498 0.723920 0.077189
O O18 0.627627 0.500000 0.671531
O O19 0.367840 0.269411 0.872173
O O20 0.500000 0.787075 0.500000
O O21 0.566023 0.500000 0.502123
O O22 0.155543 0.000000 0.033393
#
# Coordination Sequence:
#
# PCOD9150022 Si02
#       8
#     4   4   4   4   4   4   4   4
#     4  10  21  38  62  87 113 148 186 229 281 333
#     4   9  18  34  56  85 115 139 177 230 274 325
#     4  10  23  39  54  80 117 152 190 235 281 335
#     4  10  20  35  58  84 109 143 186 234 281 327
#     4  10  21  35  55  84 114 144 182 234 288 335
#     4  11  23  38  57  82 117 155 189 231 280 334
#     4  10  21  38  58  80 110 150 194 238 282 335
#     4  10  20  37  58  82 113 145 186 236 281 335
#
# _framework density 22.292017999999999
#
# number of rings (size 3 to 8) (size 9 to 14) (size 15 to 20)
#    0.000    2.000    1.250    1.875    1.750    3.250 
#    0.000    0.000    0.000    0.750    0.000    0.000 
#    0.000    0.000    0.000    0.000    0.000    0.000 
#
# Total GULP energy -178870.268653 kJ/mol
# GULP energy per Si atom -5589.695895 kJ/mol
# Density = 2.224128 g / cm^3
# Si number density = 22.292018 Si / 1000 Ang^3
#
#
#
# Elastic Constant Matrix: (Units=GPa)
#
#
# Indices 1 2 3 4 5 6 
#
# 1 107.4398 1.3130 22.4419 0.0000 5.7415 0.0000
# 2 1.3130 60.4360 -11.3319 0.0000 2.7622 0.0000
# 3 22.4419 -11.3319 106.2215 0.0000 0.5550 0.0000
# 4 0.0000 0.0000 0.0000 28.2808 0.0000 -5.8098
# 5 5.7415 2.7622 0.5550 0.0000 46.7174 0.0000
# 6 0.0000 0.0000 0.0000 -5.8098 0.0000 -4.5047
#
#
#
# Elastic Compliance Matrix: (Units=1/GPa)
#
#
# Indices 1 2 3 4 5 6 
#
# 1 0.009820 -0.000560 -0.002129 0.000000 -0.001149 0.000000
# 2 -0.000560 0.016965 0.001933 0.000000 -0.000957 0.000000
# 3 -0.002129 0.001933 0.010070 0.000000 0.000028 0.000000
# 4 0.000000 0.000000 0.000000 0.027953 0.000000 -0.036052
# 5 -0.001149 -0.000957 0.000028 0.000000 0.021603 0.000000
# 6 0.000000 0.000000 0.000000 -0.036052 0.000000 -0.175492
#
#
# Mechanical properties :
#
#
# Convention : Reuss Voigt Hill
#
# Bulk Modulus (GPa) = 28.29294 33.21595 30.75444
# Shear Modulus (GPa) = -65.97333 31.54362 -17.21485
#
# Velocity S-wave (km/s) = -5.44603 3.76575 -2.78194
# Velocity P-wave (km/s) = 5.17940 5.81727 1.87275
#
# Compressibility (1/GPa) = 0.03534451
#
# Stress axis : x y z
#
# Youngs Moduli (GPa) = 101.82920 58.94558 99.30412
#
# Poissons Ratio (x) = 0.03301 0.21137
# Poissons Ratio (y) = 0.05702 -0.19197
# Poissons Ratio (z) = 0.21675 -0.11395
#
# Static dielectric constant tensor:
#      x y z
#    x 1.803730 0.000000 0.013780 
#    y 0.000000 1.520370 0.000000 
#    z 0.013780 0.000000 1.756770 
# 
# From -- ./inp_files/93684.got.cif
#   From: 2010.05.17/outbox.cif.g08.bks.cpg/sg10_47_cif.got.tgz:93684.got - 2010.06.03 11:33:40.
