data_PCOD9150073
_publ_section_title
;
Structure prediction by ZEFSAII (Michael W. Deem and Ramdas Pophale) SiO2 
 PCOD9150073
Probable space group: P 2/M
;
_chemical_formula_sum "Si O2"
_cell_formula_units_Z 26
_cell_length_a 9.471691
_cell_length_b 11.474295
_cell_length_c 13.807710
_cell_angle_alpha 90.000000
_cell_angle_beta 64.801103
_cell_angle_gamma 90.000000
_cell_volume 1357.827814
_symmetry_space_group_name_H-M "P 2/M"
_symmetry_group_IT_number 10
_symmetry_cell_setting 'monoclinic'
loop_
_space_group_symop_operation_xyz
x,y,z
-x,y,-z
-x,-y,-z
x,-y,z
loop_
_atom_site_type_symbol
_atom_site_label
_atom_site_fract_x
_atom_site_fract_y
_atom_site_fract_z
Si Si1 0.500000 0.272173 0.500000
Si Si2 0.895640 0.641269 0.717718
Si Si3 0.235098 0.000000 0.015886
Si Si4 0.316396 0.361464 0.844932
Si Si5 0.630190 0.637510 0.660206
Si Si6 0.131127 0.000000 0.834413
Si Si7 0.194956 0.766909 0.698769
Si Si8 0.683343 0.742762 0.953648
O O1 0.418477 0.340982 0.435737
O O2 0.646005 0.210503 0.406608
O O3 0.917801 0.500000 0.715144
O O4 0.797654 0.675237 0.650256
O O5 0.786806 0.684215 0.839318
O O6 0.056937 0.711122 0.676348
O O7 0.245106 0.000000 0.895206
O O8 0.301327 0.882676 0.044842
O O9 0.049619 0.000000 0.084409
O O10 0.317831 0.500000 0.857425
O O11 0.491236 0.315618 0.769266
O O12 0.223446 0.327011 0.776063
O O13 0.256624 0.302906 0.959848
O O14 0.627993 0.500000 0.676146
O O15 0.154161 0.114719 0.764438
O O16 0.500000 0.709818 0.000000
#
# Coordination Sequence:
#
# PCOD9150073 Si02
#       8
#     2   4   2   4   4   2   4   4
#     4  10  23  41  66  88 114 158 209 261 306 362
#     4  11  23  37  60  95 130 161 197 248 309 367
#     4  11  23  40  60  91 120 169 211 242 298 358
#     4  10  20  35  58  89 127 164 197 242 300 367
#     4   9  19  37  60  88 123 162 199 245 302 362
#     4  11  22  41  66  82 122 162 204 257 300 356
#     4  11  23  42  62  88 121 157 211 258 304 360
#     4  12  22  37  60  91 128 166 204 244 296 369
#
# _framework density 19.148230000000002
#
# number of rings (size 3 to 8) (size 9 to 14) (size 15 to 20)
#    0.000    1.385    4.615    1.385    0.000    4.000 
#    0.000    3.077    0.000    2.769    0.000    0.000 
#    0.000    0.000    0.000    0.000    0.000    0.000 
#
# Total GULP energy -144993.663346 kJ/mol
# GULP energy per Si atom -5576.679359 kJ/mol
# Density = 1.910465 g / cm^3
# Si number density = 19.148230 Si / 1000 Ang^3
#
#
#
# Elastic Constant Matrix: (Units=GPa)
#
#
# Indices 1 2 3 4 5 6 
#
# 1 110.3103 6.7928 29.2043 0.0000 0.6682 0.0000
# 2 6.7928 66.6510 11.3349 0.0000 -8.7894 0.0000
# 3 29.2043 11.3349 68.3948 0.0000 1.1013 0.0000
# 4 0.0000 0.0000 0.0000 94.3806 0.0000 43.3850
# 5 0.6682 -8.7894 1.1013 0.0000 28.7011 0.0000
# 6 0.0000 0.0000 0.0000 43.3850 0.0000 44.9559
#
#
#
# Elastic Compliance Matrix: (Units=1/GPa)
#
#
# Indices 1 2 3 4 5 6 
#
# 1 0.010228 -0.000333 -0.004309 0.000000 -0.000175 0.000000
# 2 -0.000333 0.016149 -0.002616 0.000000 0.005053 0.000000
# 3 -0.004309 -0.002616 0.016916 0.000000 -0.001350 0.000000
# 4 0.000000 0.000000 0.000000 0.019043 0.000000 -0.018378
# 5 -0.000175 0.005053 -0.001350 0.000000 0.036445 0.000000
# 6 0.000000 0.000000 0.000000 -0.018378 0.000000 0.039980
#
#
# Mechanical properties :
#
#
# Convention : Reuss Voigt Hill
#
# Bulk Modulus (GPa) = 34.74914 37.78002 36.26458
# Shear Modulus (GPa) = 30.69956 46.80912 38.75434
#
# Velocity S-wave (km/s) = 4.00841 4.94962 4.50367
# Velocity P-wave (km/s) = 6.29365 7.24142 6.78410
#
# Compressibility (1/GPa) = 0.02877769
#
# Stress axis : x y z
#
# Youngs Moduli (GPa) = 97.77331 61.92469 59.11468
#
# Poissons Ratio (x) = 0.02059 0.25474
# Poissons Ratio (y) = 0.03251 0.15462
# Poissons Ratio (z) = 0.42133 0.16197
#
# Static dielectric constant tensor:
#      x y z
#    x 1.716470 0.000000 -0.001110 
#    y 0.000000 1.635070 0.000000 
#    z -0.001110 0.000000 1.693460 
# 
# From -- ./inp_files/34952.got.cif
#   From: 2010.05.17/outbox.cif.g08.bks.cpg/sg10_18_cif.got.tgz:34952.got - 2010.06.03 11:33:40.
