data_PCOD9150231
_publ_section_title
;
Structure prediction by ZEFSAII (Michael W. Deem and Ramdas Pophale) SiO2 
 PCOD9150231
Probable space group: P 2/M
;
_chemical_formula_sum "Si O2"
_cell_formula_units_Z 28
_cell_length_a 12.279192
_cell_length_b 7.557177
_cell_length_c 15.898374
_cell_angle_alpha 90.000000
_cell_angle_beta 60.802451
_cell_angle_gamma 90.000000
_cell_volume 1287.857921
_symmetry_space_group_name_H-M "P 2/M"
_symmetry_group_IT_number 10
_symmetry_cell_setting 'monoclinic'
loop_
_space_group_symop_operation_xyz
x,y,z
-x,y,-z
-x,-y,-z
x,-y,z
loop_
_atom_site_type_symbol
_atom_site_label
_atom_site_fract_x
_atom_site_fract_y
_atom_site_fract_z
Si Si1 0.678933 0.215639 0.486576
Si Si2 0.419866 0.213919 0.656751
Si Si3 0.371463 0.295624 0.861184
Si Si4 0.868887 0.787162 0.792651
Si Si5 0.412777 0.794104 0.105867
Si Si6 0.893711 0.712163 0.975410
Si Si7 0.045109 0.783146 0.574742
O O1 0.563227 0.270711 0.588310
O O2 0.651150 0.268934 0.401129
O O3 0.813391 0.275256 0.464712
O O4 0.677464 0.000000 0.487653
O O5 0.363491 0.281872 0.764089
O O6 0.417127 0.000000 0.661412
O O7 0.379001 0.500000 0.883073
O O8 0.500912 0.213022 0.844287
O O9 0.245315 0.218744 0.949670
O O10 0.726408 0.718975 0.836847
O O11 0.957114 0.722778 0.684265
O O12 0.866160 0.000000 0.785496
O O13 0.917579 0.747563 0.868179
O O14 0.393992 0.000000 0.090736
O O15 0.500000 0.714723 0.000000
O O16 0.888667 0.500000 0.988597
O O17 0.000000 0.778297 0.000000
O O18 0.000000 0.727882 0.500000
O O19 0.044663 0.000000 0.575989
#
# Coordination Sequence:
#
# PCOD9150231 Si02
#       7
#     4   4   4   4   4   4   4
#     4   8  16  32  52  78 109 142 179 220 275 328
#     4   9  18  33  56  81 107 140 179 226 274 321
#     4  11  23  36  55  82 109 143 185 223 271 330
#     4  10  21  36  58  87 111 142 186 232 276 318
#     4  10  20  36  56  80 110 139 177 227 275 320
#     4  10  23  41  57  77 112 154 187 219 273 336
#     4   9  18  31  51  81 114 142 175 222 274 327
#
# _framework density 21.741530999999998
#
# number of rings (size 3 to 8) (size 9 to 14) (size 15 to 20)
#    0.000    2.429    1.429    1.286    4.000    1.714 
#    0.000    1.429    0.000    1.286    0.000    0.000 
#    0.000    0.000    0.000    0.000    0.000    0.000 
#
# Total GULP energy -156354.907753 kJ/mol
# GULP energy per Si atom -5584.103848 kJ/mol
# Density = 2.169205 g / cm^3
# Si number density = 21.741531 Si / 1000 Ang^3
#
#
#
# Elastic Constant Matrix: (Units=GPa)
#
#
# Indices 1 2 3 4 5 6 
#
# 1 165.6036 5.6150 74.3526 0.0000 -7.8331 0.0000
# 2 5.6150 50.6333 -1.6434 0.0000 -5.2287 0.0000
# 3 74.3526 -1.6434 144.5973 0.0000 11.8337 0.0000
# 4 0.0000 0.0000 0.0000 32.9797 0.0000 12.3497
# 5 -7.8331 -5.2287 11.8337 0.0000 21.3421 0.0000
# 6 0.0000 0.0000 0.0000 12.3497 0.0000 -1.4816
#
#
#
# Elastic Compliance Matrix: (Units=1/GPa)
#
#
# Indices 1 2 3 4 5 6 
#
# 1 0.008497 -0.000513 -0.004840 0.000000 0.005677 0.000000
# 2 -0.000513 0.020298 0.000108 0.000000 0.004725 0.000000
# 3 -0.004840 0.000108 0.010003 0.000000 -0.007296 0.000000
# 4 0.000000 0.000000 0.000000 0.007357 0.000000 0.061326
# 5 0.005677 0.004725 -0.007296 0.000000 0.054142 0.000000
# 6 0.000000 0.000000 0.000000 0.061326 0.000000 -0.163771
#
#
# Mechanical properties :
#
#
# Convention : Reuss Voigt Hill
#
# Bulk Modulus (GPa) = 35.32551 57.49805 46.41178
# Shear Modulus (GPa) = -114.81883 29.40203 -42.70840
#
# Velocity S-wave (km/s) = -7.27499 3.68141 -4.43693
# Velocity P-wave (km/s) = 7.36777 6.67638 2.20342
#
# Compressibility (1/GPa) = 0.02830816
#
# Stress axis : x y z
#
# Youngs Moduli (GPa) = 117.68312 49.26548 99.97245
#
# Poissons Ratio (x) = 0.02528 0.48385
# Poissons Ratio (y) = 0.06039 -0.01079
# Poissons Ratio (z) = 0.56956 -0.00532
#
# Static dielectric constant tensor:
#      x y z
#    x 1.788060 0.000000 -0.011130 
#    y 0.000000 1.818030 0.000000 
#    z -0.011130 0.000000 1.759500 
# 
# From -- ./inp_files/63636.got.cif
#   From: 2010.05.17/outbox.cif.g08.bks.cpg/sg10_32_cif.got.tgz:63636.got - 2010.06.03 11:33:40.
