data_PCOD9150747
_publ_section_title
;
Structure prediction by ZEFSAII (Michael W. Deem and Ramdas Pophale) SiO2 
 PCOD9150747
Probable space group: P 2/M
;
_chemical_formula_sum "Si O2"
_cell_formula_units_Z 32
_cell_length_a 23.012399
_cell_length_b 14.252963
_cell_length_c 9.167899
_cell_angle_alpha 90.000000
_cell_angle_beta 148.222128
_cell_angle_gamma 90.000000
_cell_volume 1583.581521
_symmetry_space_group_name_H-M "P 2/M"
_symmetry_group_IT_number 10
_symmetry_cell_setting 'monoclinic'
loop_
_space_group_symop_operation_xyz
x,y,z
-x,y,-z
-x,-y,-z
x,-y,z
loop_
_atom_site_type_symbol
_atom_site_label
_atom_site_fract_x
_atom_site_fract_y
_atom_site_fract_z
Si Si1 0.606251 0.392498 0.987491
Si Si2 0.237683 0.329890 0.928594
Si Si3 0.882205 0.608520 0.048795
Si Si4 0.924233 0.739485 0.636265
Si Si5 0.945229 0.109436 0.229446
Si Si6 0.297986 0.110233 0.407945
Si Si7 0.439361 0.233873 0.516306
Si Si8 0.758926 0.713740 0.538210
O O1 0.568691 0.500000 0.931262
O O2 0.694211 0.392830 0.041006
O O3 0.669864 0.347837 0.260873
O O4 0.512474 0.317212 0.743133
O O5 0.174993 0.256286 0.691964
O O6 0.151973 0.377709 0.855951
O O7 0.328203 0.281242 0.221357
O O8 0.883727 0.500000 0.015820
O O9 0.792837 0.661351 0.757923
O O10 0.997657 0.655692 0.252095
O O11 0.867621 0.721069 0.669251
O O12 0.997517 0.831556 0.775727
O O13 0.000000 0.141408 0.500000
O O14 0.970037 0.000000 0.268161
O O15 0.813554 0.120879 0.929765
O O16 0.403140 0.151336 0.546630
O O17 0.280770 0.181768 0.505801
O O18 0.307483 0.000000 0.464151
O O19 0.500000 0.198523 0.500000
#
# Coordination Sequence:
#
# PCOD9150747 Si02
#       8
#     4   4   4   4   4   4   4   4
#     4  10  23  42  65  90 122 166 212 259 309 369
#     4  10  21  39  63  90 129 159 204 259 307 360
#     4  12  23  36  59  88 124 167 206 245 300 368
#     4  11  22  37  60  87 128 165 202 249 296 366
#     4  10  20  36  63  94 123 160 205 254 304 360
#     4  11  23  42  65  90 125 163 206 258 318 376
#     4  10  21  41  66  94 121 155 204 263 320 368
#     4  11  24  42  58  87 128 165 204 254 306 357
#
# _framework density 20.207359
#
# number of rings (size 3 to 8) (size 9 to 14) (size 15 to 20)
#    0.000    1.375    2.500    3.000    0.000    8.000 
#    0.000    3.125    0.000    4.500    0.000    0.000 
#    0.000    0.000    0.000    0.000    0.000    0.000 
#
# Total GULP energy -178689.580186 kJ/mol
# GULP energy per Si atom -5584.049381 kJ/mol
# Density = 2.016137 g / cm^3
# Si number density = 20.207359 Si / 1000 Ang^3
#
#
#
# Elastic Constant Matrix: (Units=GPa)
#
#
# Indices 1 2 3 4 5 6 
#
# 1 77.5144 38.7449 28.6189 0.0000 4.5649 0.0000
# 2 38.7449 112.9946 24.6590 0.0000 3.9844 0.0000
# 3 28.6189 24.6590 57.5540 0.0000 -7.8557 0.0000
# 4 0.0000 0.0000 0.0000 11.2467 0.0000 2.2725
# 5 4.5649 3.9844 -7.8557 0.0000 29.9983 0.0000
# 6 0.0000 0.0000 0.0000 2.2725 0.0000 15.0222
#
#
#
# Elastic Compliance Matrix: (Units=1/GPa)
#
#
# Indices 1 2 3 4 5 6 
#
# 1 0.018210 -0.004406 -0.007742 0.000000 -0.004213 0.000000
# 2 -0.004406 0.011010 -0.002732 0.000000 -0.001507 0.000000
# 3 -0.007742 -0.002732 0.023444 0.000000 0.007680 0.000000
# 4 0.000000 0.000000 0.000000 0.091718 0.000000 -0.013875
# 5 -0.004213 -0.001507 0.007680 0.000000 0.036188 0.000000
# 6 0.000000 0.000000 0.000000 -0.013875 0.000000 0.068667
#
#
# Mechanical properties :
#
#
# Convention : Reuss Voigt Hill
#
# Bulk Modulus (GPa) = 43.66236 48.01206 45.83721
# Shear Modulus (GPa) = 17.44397 21.65611 19.55004
#
# Velocity S-wave (km/s) = 2.94130 3.27723 3.11379
# Velocity P-wave (km/s) = 5.76099 6.17507 5.97162
#
# Compressibility (1/GPa) = 0.02290302
#
# Stress axis : x y z
#
# Youngs Moduli (GPa) = 54.91596 90.82572 42.65523
#
# Poissons Ratio (x) = 0.40016 0.33025
# Poissons Ratio (y) = 0.24195 0.11654
# Poissons Ratio (z) = 0.42517 0.24816
#
# Static dielectric constant tensor:
#      x y z
#    x 1.749490 0.000000 0.001730 
#    y 0.000000 1.684110 0.000000 
#    z 0.001730 0.000000 1.747050 
# 
# From -- ./inp_files/36376.got.cif
#   From: 2010.05.17/outbox.cif.g08.bks.cpg/sg10_19_cif.got.tgz:36376.got - 2010.06.03 11:33:40.
