data_PCOD9150783
_publ_section_title
;
Structure prediction by ZEFSAII (Michael W. Deem and Ramdas Pophale) SiO2 
 PCOD9150783
Probable space group: P 2/M
;
_chemical_formula_sum "Si O2"
_cell_formula_units_Z 28
_cell_length_a 9.634047
_cell_length_b 11.362596
_cell_length_c 15.444975
_cell_angle_alpha 90.000000
_cell_angle_beta 60.148334
_cell_angle_gamma 90.000000
_cell_volume 1466.396360
_symmetry_space_group_name_H-M "P 2/M"
_symmetry_group_IT_number 10
_symmetry_cell_setting 'monoclinic'
loop_
_space_group_symop_operation_xyz
x,y,z
-x,y,-z
-x,-y,-z
x,-y,z
loop_
_atom_site_type_symbol
_atom_site_label
_atom_site_fract_x
_atom_site_fract_y
_atom_site_fract_z
Si Si1 0.507900 0.629422 0.634230
Si Si2 0.158517 0.130632 0.482743
Si Si3 0.254237 0.694828 0.587185
Si Si4 0.349934 0.783749 0.265595
Si Si5 0.391820 0.863280 0.947097
Si Si6 0.904059 0.367942 0.759167
Si Si7 0.148927 0.638100 0.020235
O O1 0.439341 0.500000 0.665077
O O2 0.368991 0.705198 0.633610
O O3 0.650012 0.626365 0.518570
O O4 0.570212 0.678278 0.704588
O O5 0.228865 0.183587 0.546900
O O6 0.274607 0.138016 0.365178
O O7 0.000000 0.198991 0.500000
O O8 0.112278 0.000000 0.520006
O O9 0.083054 0.644787 0.666579
O O10 0.482212 0.850730 0.169952
O O11 0.212810 0.728500 0.247050
O O12 0.327123 0.000000 0.969083
O O13 0.500000 0.847450 0.000000
O O14 0.270350 0.750880 0.974830
O O15 0.844554 0.500000 0.756919
O O16 0.907012 0.356406 0.862156
O O17 0.210141 0.500000 0.988752
O O18 0.000000 0.651764 0.000000
#
# Coordination Sequence:
#
# PCOD9150783 Si02
#       7
#     4   4   4   4   4   4   4
#     4  10  21  36  58  86 124 162 195 245 307 367
#     4  10  20  37  59  83 116 157 201 248 296 353
#     4  10  20  37  56  86 119 159 201 243 300 363
#     4  11  22  38  59  91 119 157 205 250 305 366
#     4  11  24  44  67  91 124 165 209 264 318 373
#     4  11  21  36  60  90 123 157 201 252 305 373
#     4  10  24  44  67  96 129 165 207 261 321 379
#
# _framework density 19.094428000000001
#
# number of rings (size 3 to 8) (size 9 to 14) (size 15 to 20)
#    0.000    1.571    2.857    2.571    2.000    1.714 
#    0.000    9.286    0.000    0.000    0.000    0.000 
#    0.000    0.000    0.000    0.000    0.000    0.000 
#
# Total GULP energy -155938.509009 kJ/mol
# GULP energy per Si atom -5569.232465 kJ/mol
# Density = 1.905097 g / cm^3
# Si number density = 19.094428 Si / 1000 Ang^3
#
#
#
# Elastic Constant Matrix: (Units=GPa)
#
#
# Indices 1 2 3 4 5 6 
#
# 1 109.6923 55.8122 24.9962 0.0000 16.6364 0.0000
# 2 55.8122 96.0876 14.7145 0.0000 -6.7289 0.0000
# 3 24.9962 14.7145 66.0735 0.0000 2.6590 0.0000
# 4 0.0000 0.0000 0.0000 -835.0636 0.0000 -75.1736
# 5 16.6364 -6.7289 2.6590 0.0000 27.2783 0.0000
# 6 0.0000 0.0000 0.0000 -75.1736 0.0000 27.0885
#
#
#
# Elastic Compliance Matrix: (Units=1/GPa)
#
#
# Indices 1 2 3 4 5 6 
#
# 1 0.017066 -0.010231 -0.003672 0.000000 -0.012574 0.000000
# 2 -0.010231 0.017142 -0.000370 0.000000 0.010504 0.000000
# 3 -0.003672 -0.000370 0.016585 0.000000 0.000531 0.000000
# 4 0.000000 0.000000 0.000000 -0.000958 0.000000 -0.002659
# 5 -0.012574 0.010504 0.000531 0.000000 0.046867 0.000000
# 6 0.000000 0.000000 0.000000 -0.002659 0.000000 0.029537
#
#
# Mechanical properties :
#
#
# Convention : Reuss Voigt Hill
#
# Bulk Modulus (GPa) = 44.94861 51.43328 48.19094
# Shear Modulus (GPa) = 30.82648 -144.38399 -56.77875
#
# Velocity S-wave (km/s) = 4.02235 -8.70517 -5.45897
# Velocity P-wave (km/s) = 6.72039 8.60495 3.80010
#
# Compressibility (1/GPa) = 0.02224763
#
# Stress axis : x y z
#
# Youngs Moduli (GPa) = 58.59766 58.33669 60.29673
#
# Poissons Ratio (x) = 0.59683 0.22139
# Poissons Ratio (y) = 0.59950 0.02230
# Poissons Ratio (z) = 0.21515 0.02157
#
# Static dielectric constant tensor:
#      x y z
#    x 1.674730 0.000000 -0.017030 
#    y 0.000000 1.702810 0.000000 
#    z -0.017030 0.000000 1.658310 
# 
# From -- ./inp_files/61127.got.cif
#   From: 2010.05.17/outbox.cif.g08.bks.cpg/sg10_31_cif.got.tgz:61127.got - 2010.06.03 11:33:40.
