data_PCOD9150186
_publ_section_title
;
Structure prediction by ZEFSAII (Michael W. Deem and Ramdas Pophale) SiO2 
 PCOD9150186
Probable space group: P 2/M
;
_chemical_formula_sum "Si O2"
_cell_formula_units_Z 28
_cell_length_a 9.992422
_cell_length_b 9.248536
_cell_length_c 27.890124
_cell_angle_alpha 90.000000
_cell_angle_beta 38.084072
_cell_angle_gamma 90.000000
_cell_volume 1589.829675
_symmetry_space_group_name_H-M "P 2/M"
_symmetry_group_IT_number 10
_symmetry_cell_setting 'monoclinic'
loop_
_space_group_symop_operation_xyz
x,y,z
-x,y,-z
-x,-y,-z
x,-y,z
loop_
_atom_site_type_symbol
_atom_site_label
_atom_site_fract_x
_atom_site_fract_y
_atom_site_fract_z
Si Si1 0.990716 0.173604 0.136351
Si Si2 0.742749 0.672483 0.571881
Si Si3 0.618247 0.665790 0.018705
Si Si4 0.292350 0.673366 0.526645
Si Si5 0.509158 0.173558 0.725750
Si Si6 0.888592 0.173412 0.690139
Si Si7 0.780842 0.826619 0.827448
O O1 0.068326 0.207463 0.169050
O O2 0.741767 0.217109 0.198827
O O3 0.009842 0.000000 0.125108
O O4 0.156699 0.252138 0.053842
O O5 0.716207 0.500000 0.586118
O O6 0.665630 0.713084 0.540409
O O7 0.617869 0.754655 0.648738
O O8 0.000000 0.703512 0.500000
O O9 0.649815 0.500000 0.024584
O O10 0.449857 0.749447 0.099929
O O11 0.500000 0.665637 0.000000
O O12 0.500000 0.709294 0.500000
O O13 0.257718 0.500000 0.537690
O O14 0.080621 0.749913 0.607293
O O15 0.660698 0.208612 0.728495
O O16 0.511989 0.000000 0.718979
O O17 0.882467 0.215163 0.747785
O O18 0.918066 0.000000 0.679110
O O19 0.748317 0.000000 0.836484
#
# Coordination Sequence:
#
# PCOD9150186 Si02
#       7
#     4   4   4   4   4   4   4
#     4   9  18  33  53  76 102 134 171 209 252 305
#     4  10  20  36  55  74 100 138 177 210 254 309
#     4   9  17  31  52  79 105 130 167 212 255 300
#     4  10  22  38  54  75 104 137 173 214 260 309
#     4  10  21  35  53  78 106 136 173 215 257 303
#     4  10  21  36  53  77 107 137 171 213 260 306
#     4   9  18  33  53  75 102 136 170 207 255 307
#
# _framework density 17.61195
#
# number of rings (size 3 to 8) (size 9 to 14) (size 15 to 20)
#    0.000    2.429    1.429    0.429    2.000    4.000 
#    0.000    0.714    0.000    4.286    0.000    0.000 
#    0.000    0.000    0.000    0.000    0.000    0.000 
#
# Total GULP energy -156181.889726 kJ/mol
# GULP energy per Si atom -5577.924633 kJ/mol
# Density = 1.757186 g / cm^3
# Si number density = 17.611950 Si / 1000 Ang^3
#
#
#
# Elastic Constant Matrix: (Units=GPa)
#
#
# Indices 1 2 3 4 5 6 
#
# 1 60.8526 13.0847 2.6518 0.0000 -12.6224 0.0000
# 2 13.0847 13.8478 14.9416 0.0000 -9.2028 0.0000
# 3 2.6518 14.9416 48.0244 0.0000 -19.1606 0.0000
# 4 0.0000 0.0000 0.0000 -130.4688 0.0000 49.3360
# 5 -12.6224 -9.2028 -19.1606 0.0000 28.7595 0.0000
# 6 0.0000 0.0000 0.0000 49.3360 0.0000 -0.2527
#
#
#
# Elastic Compliance Matrix: (Units=1/GPa)
#
#
# Indices 1 2 3 4 5 6 
#
# 1 0.023958 -0.028867 0.011125 0.000000 0.008690 0.000000
# 2 -0.028867 0.149704 -0.042121 0.000000 0.007172 0.000000
# 3 0.011125 -0.042121 0.040704 0.000000 0.018523 0.000000
# 4 0.000000 0.000000 0.000000 0.000105 0.000000 0.020548
# 5 0.008690 0.007172 0.018523 0.000000 0.053220 0.000000
# 6 0.000000 0.000000 0.000000 0.020548 0.000000 0.054338
#
#
# Mechanical properties :
#
#
# Convention : Reuss Voigt Hill
#
# Bulk Modulus (GPa) = 10.56635 20.45344 15.50989
# Shear Modulus (GPa) = 10.56409 -14.25597 -1.84594
#
# Velocity S-wave (km/s) = 2.45179 -2.84817 -1.02489
# Velocity P-wave (km/s) = 3.74534 0.90693 2.72489
#
# Compressibility (1/GPa) = 0.09464010
#
# Stress axis : x y z
#
# Youngs Moduli (GPa) = 41.73994 6.67983 24.56787
#
# Poissons Ratio (x) = 0.19282 -0.27333
# Poissons Ratio (y) = 1.20490 1.03484
# Poissons Ratio (z) = -0.46437 0.28136
#
# Static dielectric constant tensor:
#      x y z
#    x 1.612600 0.000000 -0.001580 
#    y 0.000000 1.587840 0.000000 
#    z -0.001580 0.000000 1.558940 
# 
# From -- ./inp_files/37356.got.cif
#   From: 2010.05.17/outbox.cif.g08.bks.cpg/sg10_19_cif.got.tgz:37356.got - 2010.06.03 11:33:40.
