data_PCOD9150638
_publ_section_title
;
Structure prediction by ZEFSAII (Michael W. Deem and Ramdas Pophale) SiO2 
 PCOD9150638
Probable space group: P 2/M
;
_chemical_formula_sum "Si O2"
_cell_formula_units_Z 22
_cell_length_a 14.828239
_cell_length_b 13.332663
_cell_length_c 5.190310
_cell_angle_alpha 90.000000
_cell_angle_beta 103.850676
_cell_angle_gamma 90.000000
_cell_volume 996.287159
_symmetry_space_group_name_H-M "P 2/M"
_symmetry_group_IT_number 10
_symmetry_cell_setting 'monoclinic'
loop_
_space_group_symop_operation_xyz
x,y,z
-x,y,-z
-x,-y,-z
x,-y,z
loop_
_atom_site_type_symbol
_atom_site_label
_atom_site_fract_x
_atom_site_fract_y
_atom_site_fract_z
Si Si1 0.603634 0.221608 0.018117
Si Si2 0.128694 0.114501 0.485891
Si Si3 0.000000 0.203158 0.000000
Si Si4 0.790876 0.317892 0.274437
Si Si5 0.129931 0.391290 0.175226
Si Si6 0.664657 0.112705 0.559305
O O1 0.619066 0.183135 0.740126
O O2 0.500000 0.256875 0.000000
O O3 0.685756 0.298548 0.127803
O O4 0.627016 0.136422 0.248352
O O5 0.035244 0.127467 0.251816
O O6 0.150439 0.210516 0.689041
O O7 0.222813 0.122818 0.372474
O O8 0.133321 0.000000 0.596356
O O9 0.070203 0.290996 0.148596
O O10 0.794767 0.368081 0.555368
O O11 0.835467 0.388063 0.091757
O O12 0.087592 0.500000 0.206478
O O13 0.641887 0.000000 0.616046
#
# Coordination Sequence:
#
# PCOD9150638 Si02
#       6
#     4   4   2   4   4   4
#     4  11  21  35  57  83 113 150 191 241 292 336
#     4   9  19  36  57  84 123 164 195 230 277 336
#     4  10  20  36  60  92 118 148 198 242 282 344
#     4  10  22  41  60  86 117 153 194 234 290 354
#     4  11  23  41  64  86 114 149 191 246 300 345
#     4  10  21  35  52  79 117 160 201 235 275 330
#
# _framework density 22.081987999999999
#
# number of rings (size 3 to 8) (size 9 to 14) (size 15 to 20)
#    0.000    1.818    0.000    5.455    0.000    5.818 
#    0.000   10.000    0.000    3.273    0.000    0.000 
#    0.000    0.000    0.000    0.000    0.000    0.000 
#
# Total GULP energy -122484.594343 kJ/mol
# GULP energy per Si atom -5567.481561 kJ/mol
# Density = 2.203173 g / cm^3
# Si number density = 22.081988 Si / 1000 Ang^3
#
#
#
# Elastic Constant Matrix: (Units=GPa)
#
#
# Indices 1 2 3 4 5 6 
#
# 1 158.7571 29.7361 53.7084 0.0000 -15.4197 0.0000
# 2 29.7361 110.1052 28.3327 0.0000 -9.4757 0.0000
# 3 53.7084 28.3327 89.0685 0.0000 -13.8673 0.0000
# 4 0.0000 0.0000 0.0000 35.8977 0.0000 -40.8361
# 5 -15.4197 -9.4757 -13.8673 0.0000 41.9370 0.0000
# 6 0.0000 0.0000 0.0000 -40.8361 0.0000 48.8922
#
#
#
# Elastic Compliance Matrix: (Units=1/GPa)
#
#
# Indices 1 2 3 4 5 6 
#
# 1 0.008081 -0.000946 -0.004368 0.000000 0.001313 0.000000
# 2 -0.000946 0.010066 -0.002458 0.000000 0.001114 0.000000
# 3 -0.004368 -0.002458 0.015083 0.000000 0.002826 0.000000
# 4 0.000000 0.000000 0.000000 0.558555 0.000000 0.466520
# 5 0.001313 0.001114 0.002826 0.000000 0.025514 0.000000
# 6 0.000000 0.000000 0.000000 0.466520 0.000000 0.410103
#
#
# Mechanical properties :
#
#
# Convention : Reuss Voigt Hill
#
# Bulk Modulus (GPa) = 56.53880 64.60948 60.57414
# Shear Modulus (GPa) = 4.76716 41.75561 23.26139
#
# Velocity S-wave (km/s) = 1.47090 4.35321 3.24915
# Velocity P-wave (km/s) = 5.34269 7.38848 6.44725
#
# Compressibility (1/GPa) = 0.01768697
#
# Stress axis : x y z
#
# Youngs Moduli (GPa) = 123.74343 99.34373 66.29939
#
# Poissons Ratio (x) = 0.09393 0.28958
# Poissons Ratio (y) = 0.11700 0.16299
# Poissons Ratio (z) = 0.54048 0.24423
#
# Static dielectric constant tensor:
#      x y z
#    x 1.908510 0.000000 -0.018240 
#    y 0.000000 1.785800 0.000000 
#    z -0.018240 0.000000 1.889160 
# 
# From -- ./inp_files/9336.got.cif
#   From: 2010.05.17/outbox.cif.g08.bks.cpg/sg10_5_cif.got.tgz:9336.got - 2010.06.03 11:33:40.
