data_PCOD9150790
_publ_section_title
;
Structure prediction by ZEFSAII (Michael W. Deem and Ramdas Pophale) SiO2 
 PCOD9150790
Probable space group: P 2/M
;
_chemical_formula_sum "Si O2"
_cell_formula_units_Z 32
_cell_length_a 26.451527
_cell_length_b 13.797123
_cell_length_c 10.005084
_cell_angle_alpha 90.000000
_cell_angle_beta 151.790698
_cell_angle_gamma 90.000000
_cell_volume 1725.996715
_symmetry_space_group_name_H-M "P 2/M"
_symmetry_group_IT_number 10
_symmetry_cell_setting 'monoclinic'
loop_
_space_group_symop_operation_xyz
x,y,z
-x,y,-z
-x,-y,-z
x,-y,z
loop_
_atom_site_type_symbol
_atom_site_label
_atom_site_fract_x
_atom_site_fract_y
_atom_site_fract_z
Si Si1 0.716849 0.387760 0.770116
Si Si2 0.118313 0.772326 0.838194
Si Si3 0.432040 0.227636 0.710103
Si Si4 0.421627 0.808821 0.189963
Si Si5 0.887099 0.117644 0.680895
Si Si6 0.221809 0.884244 0.307152
Si Si7 0.378513 0.395909 0.161300
Si Si8 0.787809 0.888053 0.183161
O O1 0.715701 0.500000 0.724140
O O2 0.623840 0.322649 0.485261
O O3 0.693527 0.387059 0.874602
O O4 0.828226 0.331610 0.006896
O O5 0.196077 0.823915 0.910051
O O6 0.000000 0.769222 0.500000
O O7 0.131443 0.837089 0.001590
O O8 0.508235 0.176442 0.778129
O O9 0.334698 0.157271 0.522435
O O10 0.500000 0.251236 0.000000
O O11 0.500000 0.806522 0.500000
O O12 0.370235 0.701243 0.057128
O O13 0.327672 0.880106 0.015357
O O14 0.799462 0.143195 0.588123
O O15 0.864917 0.150237 0.479715
O O16 0.888489 0.000000 0.677181
O O17 0.000000 0.150802 0.000000
O O18 0.217208 0.000000 0.284824
O O19 0.500000 0.399109 0.500000
O O20 0.357666 0.500000 0.046018
O O21 0.810741 0.000000 0.203277
#
# Coordination Sequence:
#
# PCOD9150790 Si02
#       8
#     4   4   4   4   4   4   4   4
#     4  10  20  37  57  78 108 140 174 221 274 331
#     4  11  22  36  56  83 108 135 177 231 282 320
#     4  11  22  34  53  82 114 144 181 221 265 313
#     4  11  19  34  51  75 107 141 178 209 256 318
#     4   9  18  34  54  72  95 135 183 223 259 303
#     4  10  21  37  53  76 112 151 183 215 265 322
#     4   9  15  29  55  76  94 129 172 211 254 310
#     4  11  22  34  51  79 108 137 180 225 259 306
#
# _framework density 18.540011
#
# number of rings (size 3 to 8) (size 9 to 14) (size 15 to 20)
#    0.000    1.750    3.750    2.625    0.000    3.500 
#    0.000    0.000    0.000    0.000    0.000    0.000 
#    0.000    7.750    0.000    0.000    0.000    0.000 
#
# Total GULP energy -178460.448870 kJ/mol
# GULP energy per Si atom -5576.889027 kJ/mol
# Density = 1.849781 g / cm^3
# Si number density = 18.540011 Si / 1000 Ang^3
#
#
#
# Elastic Constant Matrix: (Units=GPa)
#
#
# Indices 1 2 3 4 5 6 
#
# 1 66.1803 4.5349 -2.2295 0.0000 -0.1607 0.0000
# 2 4.5349 51.1685 0.6748 0.0000 7.2002 0.0000
# 3 -2.2295 0.6748 60.7260 0.0000 0.0055 0.0000
# 4 0.0000 0.0000 0.0000 9.8016 0.0000 1.3541
# 5 -0.1607 7.2002 0.0055 0.0000 26.1815 0.0000
# 6 0.0000 0.0000 0.0000 1.3541 0.0000 16.2114
#
#
#
# Elastic Compliance Matrix: (Units=1/GPa)
#
#
# Indices 1 2 3 4 5 6 
#
# 1 0.015228 -0.001426 0.000575 0.000000 0.000485 0.000000
# 2 -0.001426 0.020467 -0.000279 0.000000 -0.005637 0.000000
# 3 0.000575 -0.000279 0.016492 0.000000 0.000077 0.000000
# 4 0.000000 0.000000 0.000000 0.103215 0.000000 -0.008621
# 5 0.000485 -0.005637 0.000077 0.000000 0.039748 0.000000
# 6 0.000000 0.000000 0.000000 -0.008621 0.000000 0.062405
#
#
# Mechanical properties :
#
#
# Convention : Reuss Voigt Hill
#
# Bulk Modulus (GPa) = 20.02931 20.44836 20.23884
# Shear Modulus (GPa) = 18.08601 22.11187 20.09894
#
# Velocity S-wave (km/s) = 3.12671 3.45723 3.29612
# Velocity P-wave (km/s) = 4.88486 5.19518 5.04240
#
# Compressibility (1/GPa) = 0.04992683
#
# Stress axis : x y z
#
# Youngs Moduli (GPa) = 65.66647 48.86019 60.63686
#
# Poissons Ratio (x) = 0.06965 -0.03486
# Poissons Ratio (y) = 0.09361 0.01693
# Poissons Ratio (z) = -0.03775 0.01364
#
# Static dielectric constant tensor:
#      x y z
#    x 1.648450 0.000000 0.016420 
#    y 0.000000 1.648750 0.000000 
#    z 0.016420 0.000000 1.673280 
# 
# From -- ./inp_files/36415.got.cif
#   From: 2010.05.17/outbox.cif.g08.bks.cpg/sg10_19_cif.got.tgz:36415.got - 2010.06.03 11:33:40.
