data_PCOD9150046
_publ_section_title
;
Structure prediction by ZEFSAII (Michael W. Deem and Ramdas Pophale) SiO2 
 PCOD9150046
Probable space group: P 2/M
;
_chemical_formula_sum "Si O2"
_cell_formula_units_Z 22
_cell_length_a 10.057757
_cell_length_b 7.409047
_cell_length_c 12.435003
_cell_angle_alpha 90.000000
_cell_angle_beta 95.295473
_cell_angle_gamma 90.000000
_cell_volume 922.681566
_symmetry_space_group_name_H-M "P 2/M"
_symmetry_group_IT_number 10
_symmetry_cell_setting 'monoclinic'
loop_
_space_group_symop_operation_xyz
x,y,z
-x,y,-z
-x,-y,-z
x,-y,z
loop_
_atom_site_type_symbol
_atom_site_label
_atom_site_fract_x
_atom_site_fract_y
_atom_site_fract_z
Si Si1 0.534735 0.705627 0.118181
Si Si2 0.228871 0.784477 0.398598
Si Si3 0.182631 0.218241 0.929643
Si Si4 0.885722 0.218818 0.840800
Si Si5 0.524361 0.202220 0.349543
Si Si6 0.739104 0.500000 0.433891
O O1 0.486361 0.500000 0.116161
O O2 0.695208 0.709085 0.129124
O O3 0.483978 0.799933 0.220764
O O4 0.500000 0.788446 0.000000
O O5 0.169013 0.726088 0.278746
O O6 0.389188 0.747772 0.402222
O O7 0.182336 0.660074 0.491934
O O8 0.208258 0.000000 0.409152
O O9 0.039487 0.272496 0.871630
O O10 0.187992 0.000000 0.927281
O O11 0.189907 0.275929 0.055570
O O12 0.881817 0.000000 0.841409
O O13 0.641153 0.343903 0.372771
O O14 0.565657 0.000000 0.383046
#
# Coordination Sequence:
#
# PCOD9150046 Si02
#       6
#     4   4   4   4   4   2
#     4  11  23  37  54  82 120 152 184 228 275 335
#     4  10  20  35  58  86 114 147 188 234 284 334
#     4   9  17  34  58  82 114 151 185 228 277 333
#     4   8  16  33  57  85 114 145 187 232 276 332
#     4  11  22  37  59  84 114 152 188 227 282 340
#     4  12  23  38  57  84 117 147 187 241 287 330
#
# _framework density 23.843544999999999
#
# number of rings (size 3 to 8) (size 9 to 14) (size 15 to 20)
#    0.000    2.000    0.909    4.909    0.000    4.364 
#    3.273    0.909    0.000    2.182    0.000    5.091 
#    0.000    0.000    0.000    0.000    0.000    0.000 
#
# Total GULP energy -122538.633813 kJ/mol
# GULP energy per Si atom -5569.937901 kJ/mol
# Density = 2.378928 g / cm^3
# Si number density = 23.843545 Si / 1000 Ang^3
#
#
#
# Elastic Constant Matrix: (Units=GPa)
#
#
# Indices 1 2 3 4 5 6 
#
# 1 39.5497 3.6225 -3.4004 0.0000 1.1959 0.0000
# 2 3.6225 105.7376 28.2849 0.0000 11.2369 0.0000
# 3 -3.4004 28.2849 105.9861 0.0000 27.1957 0.0000
# 4 0.0000 0.0000 0.0000 -135.2858 0.0000 29.0032
# 5 1.1959 11.2369 27.1957 0.0000 30.1992 0.0000
# 6 0.0000 0.0000 0.0000 29.0032 0.0000 6.6047
#
#
#
# Elastic Compliance Matrix: (Units=1/GPa)
#
#
# Indices 1 2 3 4 5 6 
#
# 1 0.025590 -0.001096 0.001650 0.000000 -0.002092 0.000000
# 2 -0.001096 0.010303 -0.002357 0.000000 -0.001668 0.000000
# 3 0.001650 -0.002357 0.012887 0.000000 -0.010793 0.000000
# 4 0.000000 0.000000 0.000000 -0.003807 0.000000 0.016719
# 5 -0.002092 -0.001668 -0.010793 0.000000 0.043537 0.000000
# 6 0.000000 0.000000 0.000000 0.016719 0.000000 0.077988
#
#
# Mechanical properties :
#
#
# Convention : Reuss Voigt Hill
#
# Bulk Modulus (GPa) = 22.13631 34.25416 28.19523
# Shear Modulus (GPa) = 27.00378 -4.84529 11.07924
#
# Velocity S-wave (km/s) = 3.36897 -1.42707 2.15795
# Velocity P-wave (km/s) = 4.94343 3.41790 4.24968
#
# Compressibility (1/GPa) = 0.04517465
#
# Stress axis : x y z
#
# Youngs Moduli (GPa) = 39.07754 97.06311 77.59988
#
# Poissons Ratio (x) = 0.10637 -0.12805
# Poissons Ratio (y) = 0.04282 0.18288
# Poissons Ratio (z) = -0.06449 0.22875
#
# Static dielectric constant tensor:
#      x y z
#    x 1.917950 0.000000 0.016410 
#    y 0.000000 1.857540 0.000000 
#    z 0.016410 0.000000 1.972690 
# 
# From -- ./inp_files/45275.got.cif
#   From: 2010.05.17/outbox.cif.g08.bks.cpg/sg10_23_cif.got.tgz:45275.got - 2010.06.03 11:33:40.
