data_PCOD9150570
_publ_section_title
;
Structure prediction by ZEFSAII (Michael W. Deem and Ramdas Pophale) SiO2 
 PCOD9150570
Probable space group: P 2/M
;
_chemical_formula_sum "Si O2"
_cell_formula_units_Z 32
_cell_length_a 20.106527
_cell_length_b 7.536686
_cell_length_c 25.841562
_cell_angle_alpha 90.000000
_cell_angle_beta 158.478650
_cell_angle_gamma 90.000000
_cell_volume 1436.555081
_symmetry_space_group_name_H-M "P 2/M"
_symmetry_group_IT_number 10
_symmetry_cell_setting 'monoclinic'
loop_
_space_group_symop_operation_xyz
x,y,z
-x,y,-z
-x,-y,-z
x,-y,z
loop_
_atom_site_type_symbol
_atom_site_label
_atom_site_fract_x
_atom_site_fract_y
_atom_site_fract_z
Si Si1 0.292275 0.782340 0.355778
Si Si2 0.935776 0.212769 0.710262
Si Si3 0.656886 0.784614 0.969675
Si Si4 0.645565 0.294267 0.842560
Si Si5 0.741959 0.287295 0.462310
Si Si6 0.973806 0.203092 0.924723
Si Si7 0.008982 0.707690 0.448626
Si Si8 0.395306 0.785040 0.872570
O O1 0.500000 0.728041 0.500000
O O2 0.195554 0.723527 0.338781
O O3 0.171839 0.719362 0.220228
O O4 0.288550 0.000000 0.353488
O O5 0.855340 0.253998 0.596015
O O6 0.141759 0.275530 0.867780
O O7 0.943353 0.000000 0.719965
O O8 0.656483 0.000000 0.968197
O O9 0.616311 0.719465 0.882833
O O10 0.508345 0.728008 0.904028
O O11 0.669544 0.500000 0.845553
O O12 0.464471 0.221003 0.684590
O O13 0.832047 0.201577 0.962656
O O14 0.728167 0.500000 0.446420
O O15 0.846402 0.216278 0.487278
O O16 0.912512 0.000000 0.889453
O O17 0.000000 0.286843 0.000000
O O18 0.055657 0.500000 0.488586
O O19 0.810321 0.721774 0.279879
O O20 0.000000 0.785901 0.500000
O O21 0.390753 0.000000 0.869800
O O22 0.500000 0.727470 0.000000
#
# Coordination Sequence:
#
# PCOD9150570 Si02
#       8
#     4   4   4   4   4   4   4   4
#     4   9  18  34  57  87 116 143 182 229 276 330
#     4  10  20  36  60  85 114 149 188 236 284 337
#     4  10  20  37  59  84 114 148 189 237 285 343
#     4  11  23  39  59  83 116 155 194 235 282 334
#     4  10  23  39  55  81 116 152 191 237 283 338
#     4  10  21  38  62  88 116 149 189 235 282 335
#     4  10  21  39  59  79 110 151 195 238 284 339
#     4  10  21  36  57  85 116 146 183 236 294 343
#
# _framework density 22.275514000000001
#
# number of rings (size 3 to 8) (size 9 to 14) (size 15 to 20)
#    0.000    2.000    1.250    1.875    1.750    5.250 
#    0.000    0.000    0.000    0.750    0.000    0.000 
#    0.000    0.000    0.000    0.000    0.000    0.000 
#
# Total GULP energy -178887.176094 kJ/mol
# GULP energy per Si atom -5590.224253 kJ/mol
# Density = 2.222481 g / cm^3
# Si number density = 22.275514 Si / 1000 Ang^3
#
#
#
# Elastic Constant Matrix: (Units=GPa)
#
#
# Indices 1 2 3 4 5 6 
#
# 1 93.9209 -2.2556 14.2418 0.0000 -5.0342 0.0000
# 2 -2.2556 57.2505 -6.4701 0.0000 2.6593 0.0000
# 3 14.2418 -6.4701 108.6730 0.0000 1.5901 0.0000
# 4 0.0000 0.0000 0.0000 -50.7916 0.0000 -43.8298
# 5 -5.0342 2.6593 1.5901 0.0000 42.4601 0.0000
# 6 0.0000 0.0000 0.0000 -43.8298 0.0000 -11.4041
#
#
#
# Elastic Compliance Matrix: (Units=1/GPa)
#
#
# Indices 1 2 3 4 5 6 
#
# 1 0.010943 0.000206 -0.001441 0.000000 0.001338 0.000000
# 2 0.000206 0.017645 0.001040 0.000000 -0.001120 0.000000
# 3 -0.001441 0.001040 0.009461 0.000000 -0.000590 0.000000
# 4 0.000000 0.000000 0.000000 0.008499 0.000000 -0.032664
# 5 0.001338 -0.001120 -0.000590 0.000000 0.023802 0.000000
# 6 0.000000 0.000000 0.000000 -0.032664 0.000000 0.037853
#
#
# Mechanical properties :
#
#
# Convention : Reuss Voigt Hill
#
# Bulk Modulus (GPa) = 26.55490 30.09739 28.32614
# Shear Modulus (GPa) = 41.27246 13.00810 27.14028
#
# Velocity S-wave (km/s) = 4.30911 2.41916 3.49433
# Velocity P-wave (km/s) = 6.05845 4.61994 5.38743
#
# Compressibility (1/GPa) = 0.03765784
#
# Stress axis : x y z
#
# Youngs Moduli (GPa) = 91.38669 56.67411 105.69299
#
# Poissons Ratio (x) = -0.01168 0.15234
# Poissons Ratio (y) = -0.01883 -0.10991
# Poissons Ratio (z) = 0.13172 -0.05894
#
# Static dielectric constant tensor:
#      x y z
#    x 1.787170 0.000000 0.006430 
#    y 0.000000 1.890330 0.000000 
#    z 0.006430 0.000000 1.776090 
# 
# From -- ./inp_files/93760.got.cif
#   From: 2010.05.17/outbox.cif.g08.bks.cpg/sg10_47_cif.got.tgz:93760.got - 2010.06.03 11:33:40.
