data_PCOD9150216
_publ_section_title
;
Structure prediction by ZEFSAII (Michael W. Deem and Ramdas Pophale) SiO2 
 PCOD9150216
Probable space group: P 2/M
;
_chemical_formula_sum "Si O2"
_cell_formula_units_Z 32
_cell_length_a 16.960485
_cell_length_b 16.613243
_cell_length_c 12.015846
_cell_angle_alpha 90.000000
_cell_angle_beta 149.993781
_cell_angle_gamma 90.000000
_cell_volume 1693.162651
_symmetry_space_group_name_H-M "P 2/M"
_symmetry_group_IT_number 10
_symmetry_cell_setting 'monoclinic'
loop_
_space_group_symop_operation_xyz
x,y,z
-x,y,-z
-x,-y,-z
x,-y,z
loop_
_atom_site_type_symbol
_atom_site_label
_atom_site_fract_x
_atom_site_fract_y
_atom_site_fract_z
Si Si1 0.833818 0.407206 0.427043
Si Si2 0.321691 0.317217 0.577449
Si Si3 0.992744 0.229188 0.857572
Si Si4 0.748569 0.090338 0.220690
Si Si5 0.046658 0.910890 0.750566
Si Si6 0.658814 0.734072 0.074849
Si Si7 0.164608 0.660660 0.902877
Si Si8 0.507183 0.587534 0.640096
O O1 0.814851 0.500000 0.367600
O O2 0.756509 0.391948 0.453332
O O3 0.744174 0.337863 0.247419
O O4 0.017621 0.382984 0.663310
O O5 0.186005 0.251628 0.396472
O O6 0.390168 0.346368 0.544575
O O7 0.477966 0.288605 0.832465
O O8 0.045540 0.153220 0.848007
O O9 0.099497 0.301647 0.937839
O O10 0.000000 0.220817 0.000000
O O11 0.888063 0.095293 0.482238
O O12 0.662751 0.175883 0.127168
O O13 0.820876 0.092954 0.183995
O O14 0.675939 0.000000 0.144257
O O15 0.053501 0.000000 0.808731
O O16 0.762894 0.729627 0.088471
O O17 0.313697 0.603926 0.104385
O O18 0.500000 0.588213 0.500000
O O19 0.459636 0.500000 0.624736
#
# Coordination Sequence:
#
# PCOD9150216 Si02
#       8
#     4   4   4   4   4   4   4   4
#     4  11  23  36  54  82 117 152 184 229 289 343
#     4  10  23  37  52  79 113 147 184 226 285 345
#     4  11  21  37  58  80 111 147 187 235 284 331
#     4   9  17  33  59  86 113 144 184 232 279 335
#     4   9  18  32  56  86 111 141 185 228 277 335
#     4  11  21  35  57  81 114 149 184 228 277 346
#     4  10  21  35  54  79 108 142 192 235 274 330
#     4  10  20  36  56  75 100 141 193 241 279 322
#
# _framework density 18.899542
#
# number of rings (size 3 to 8) (size 9 to 14) (size 15 to 20)
#    0.000    1.875    1.250    4.500    1.750    4.250 
#    0.000    0.625    0.000    9.000    0.000    1.750 
#    0.000    0.000    0.000    0.000    0.000    0.000 
#
# Total GULP energy -178337.943274 kJ/mol
# GULP energy per Si atom -5573.060727 kJ/mol
# Density = 1.885653 g / cm^3
# Si number density = 18.899542 Si / 1000 Ang^3
#
#
#
# Elastic Constant Matrix: (Units=GPa)
#
#
# Indices 1 2 3 4 5 6 
#
# 1 85.4977 19.7150 16.5393 0.0000 -1.9358 0.0000
# 2 19.7150 117.3735 20.1882 0.0000 -3.1453 0.0000
# 3 16.5393 20.1882 53.3789 0.0000 5.0682 0.0000
# 4 0.0000 0.0000 0.0000 11.3034 0.0000 -2.6649
# 5 -1.9358 -3.1453 5.0682 0.0000 32.1469 0.0000
# 6 0.0000 0.0000 0.0000 -2.6649 0.0000 22.0381
#
#
#
# Elastic Compliance Matrix: (Units=1/GPa)
#
#
# Indices 1 2 3 4 5 6 
#
# 1 0.012746 -0.001509 -0.003489 0.000000 0.001170 0.000000
# 2 -0.001509 0.009359 -0.003198 0.000000 0.001329 0.000000
# 3 -0.003489 -0.003198 0.021395 0.000000 -0.003896 0.000000
# 4 0.000000 0.000000 0.000000 0.091065 0.000000 0.011012
# 5 0.001170 0.001329 -0.003896 0.000000 0.031922 0.000000
# 6 0.000000 0.000000 0.000000 0.011012 0.000000 0.046708
#
#
# Mechanical properties :
#
#
# Convention : Reuss Voigt Hill
#
# Bulk Modulus (GPa) = 36.89288 41.01502 38.95395
# Shear Modulus (GPa) = 20.95353 26.41819 23.68586
#
# Velocity S-wave (km/s) = 3.33330 3.74280 3.54397
# Velocity P-wave (km/s) = 5.86322 6.35821 6.11572
#
# Compressibility (1/GPa) = 0.02710550
#
# Stress axis : x y z
#
# Youngs Moduli (GPa) = 78.45730 106.84873 46.74060
#
# Poissons Ratio (x) = 0.16127 0.16310
# Poissons Ratio (y) = 0.11842 0.14948
# Poissons Ratio (z) = 0.27378 0.34172
#
# Static dielectric constant tensor:
#      x y z
#    x 1.706710 0.000000 -0.011040 
#    y 0.000000 1.689780 0.000000 
#    z -0.011040 0.000000 1.636370 
# 
# From -- ./inp_files/54152.got.cif
#   From: 2010.05.17/outbox.cif.g08.bks.cpg/sg10_28_cif.got.tgz:54152.got - 2010.06.03 11:33:40.
