data_PCOD9150884
_publ_section_title
;
Structure prediction by ZEFSAII (Michael W. Deem and Ramdas Pophale) SiO2 
 PCOD9150884
Probable space group: P 2/M
;
_chemical_formula_sum "Si O2"
_cell_formula_units_Z 28
_cell_length_a 14.843686
_cell_length_b 8.938799
_cell_length_c 12.884161
_cell_angle_alpha 90.000000
_cell_angle_beta 121.672158
_cell_angle_gamma 90.000000
_cell_volume 1454.924627
_symmetry_space_group_name_H-M "P 2/M"
_symmetry_group_IT_number 10
_symmetry_cell_setting 'monoclinic'
loop_
_space_group_symop_operation_xyz
x,y,z
-x,y,-z
-x,-y,-z
x,-y,z
loop_
_atom_site_type_symbol
_atom_site_label
_atom_site_fract_x
_atom_site_fract_y
_atom_site_fract_z
Si Si1 0.405958 0.833156 0.024181
Si Si2 0.813069 0.679420 0.665289
Si Si3 0.798511 0.820636 0.867961
Si Si4 0.836783 0.825780 0.128820
Si Si5 0.573844 0.671872 0.763147
Si Si6 0.996793 0.320161 0.617776
Si Si7 0.407717 0.827225 0.530750
O O1 0.286372 0.817767 0.911770
O O2 0.407326 0.000000 0.077904
O O3 0.500000 0.834189 0.000000
O O4 0.424417 0.698631 0.113615
O O5 0.807471 0.500000 0.670548
O O6 0.851463 0.746776 0.799033
O O7 0.890944 0.720087 0.617816
O O8 0.698208 0.747179 0.570763
O O9 0.676315 0.765929 0.788887
O O10 0.803403 0.000000 0.863173
O O11 0.839369 0.777171 0.008252
O O12 0.908466 0.737615 0.252480
O O13 0.868621 0.000000 0.149222
O O14 0.586001 0.500000 0.739393
O O15 0.464098 0.738624 0.656979
O O16 0.001776 0.500000 0.617197
O O17 0.000000 0.265748 0.500000
O O18 0.500000 0.824312 0.500000
O O19 0.385681 0.000000 0.542798
#
# Coordination Sequence:
#
# PCOD9150884 Si02
#       7
#     4   4   4   4   4   4   4
#     4   9  19  37  59  85 119 156 198 245 293 349
#     4  11  23  38  60  89 118 155 203 250 299 355
#     4  10  20  37  59  87 121 152 190 240 299 359
#     4   9  20  38  62  88 115 153 197 244 295 348
#     4  11  21  33  54  84 120 157 193 239 291 350
#     4  10  24  45  63  83 118 159 198 246 300 354
#     4  11  22  36  57  84 119 160 194 234 295 357
#
# _framework density 19.244982
#
# number of rings (size 3 to 8) (size 9 to 14) (size 15 to 20)
#    0.000    1.857    1.429    3.429    0.000    6.857 
#    0.000    5.714    0.000    0.000    0.000    0.000 
#    0.000    0.000    0.000    0.000    0.000    0.000 
#
# Total GULP energy -156183.059280 kJ/mol
# GULP energy per Si atom -5577.966403 kJ/mol
# Density = 1.920118 g / cm^3
# Si number density = 19.244982 Si / 1000 Ang^3
#
#
#
# Elastic Constant Matrix: (Units=GPa)
#
#
# Indices 1 2 3 4 5 6 
#
# 1 96.8846 37.8060 64.3894 0.0000 -17.7376 0.0000
# 2 37.8060 59.7069 37.4823 0.0000 -3.6931 0.0000
# 3 64.3894 37.4823 129.7335 0.0000 -1.4374 0.0000
# 4 0.0000 0.0000 0.0000 34.0999 0.0000 -2.7595
# 5 -17.7376 -3.6931 -1.4374 0.0000 22.5125 0.0000
# 6 0.0000 0.0000 0.0000 -2.7595 0.0000 23.4833
#
#
#
# Elastic Compliance Matrix: (Units=1/GPa)
#
#
# Indices 1 2 3 4 5 6 
#
# 1 0.021614 -0.007468 -0.008401 0.000000 0.015268 0.000000
# 2 -0.007468 0.023241 -0.003034 0.000000 -0.002265 0.000000
# 3 -0.008401 -0.003034 0.012684 0.000000 -0.006307 0.000000
# 4 0.000000 0.000000 0.000000 0.029607 0.000000 0.003479
# 5 0.015268 -0.002265 -0.006307 0.000000 0.055675 0.000000
# 6 0.000000 0.000000 0.000000 0.003479 0.000000 0.042992
#
#
# Mechanical properties :
#
#
# Convention : Reuss Voigt Hill
#
# Bulk Modulus (GPa) = 50.67027 62.85337 56.76182
# Shear Modulus (GPa) = 21.72054 25.79561 23.75807
#
# Velocity S-wave (km/s) = 3.36316 3.66509 3.51737
# Velocity P-wave (km/s) = 6.43952 7.11625 6.78633
#
# Compressibility (1/GPa) = 0.01973544
#
# Stress axis : x y z
#
# Youngs Moduli (GPa) = 46.26624 43.02691 78.83856
#
# Poissons Ratio (x) = 0.32131 0.66230
# Poissons Ratio (y) = 0.34550 0.23916
# Poissons Ratio (z) = 0.38867 0.13052
#
# Static dielectric constant tensor:
#      x y z
#    x 1.689810 0.000000 -0.028440 
#    y 0.000000 1.668730 0.000000 
#    z -0.028440 0.000000 1.702560 
# 
# From -- ./inp_files/50029.got.cif
#   From: 2010.05.17/outbox.cif.g08.bks.cpg/sg10_26_cif.got.tgz:50029.got - 2010.06.03 11:33:40.
