data_PCOD9150174
_publ_section_title
;
Structure prediction by ZEFSAII (Michael W. Deem and Ramdas Pophale) SiO2 
 PCOD9150174
Probable space group: P 2/M
;
_chemical_formula_sum "Si O2"
_cell_formula_units_Z 32
_cell_length_a 14.960780
_cell_length_b 13.459791
_cell_length_c 9.397617
_cell_angle_alpha 90.000000
_cell_angle_beta 115.767655
_cell_angle_gamma 90.000000
_cell_volume 1704.217554
_symmetry_space_group_name_H-M "P 2/M"
_symmetry_group_IT_number 10
_symmetry_cell_setting 'monoclinic'
loop_
_space_group_symop_operation_xyz
x,y,z
-x,y,-z
-x,-y,-z
x,-y,z
loop_
_atom_site_type_symbol
_atom_site_label
_atom_site_fract_x
_atom_site_fract_y
_atom_site_fract_z
Si Si1 0.573706 0.116485 0.858933
Si Si2 0.972155 0.114603 0.645077
Si Si3 0.632479 0.795699 0.176495
Si Si4 0.888810 0.617676 0.394910
Si Si5 0.779957 0.247021 0.524365
Si Si6 0.282356 0.618977 0.934252
Si Si7 0.897017 0.885466 0.015576
Si Si8 0.715542 0.752472 0.792288
O O1 0.473199 0.174584 0.830196
O O2 0.626430 0.171887 0.766104
O O3 0.555940 0.000000 0.825065
O O4 0.643867 0.132758 0.046972
O O5 0.876623 0.179219 0.616133
O O6 0.000000 0.119665 0.500000
O O7 0.069133 0.141817 0.802243
O O8 0.949535 0.000000 0.666891
O O9 0.711818 0.804589 0.357253
O O10 0.644852 0.685672 0.115342
O O11 0.896088 0.500000 0.400933
O O12 0.821439 0.654806 0.477569
O O13 0.827181 0.641913 0.208742
O O14 0.000000 0.657931 0.500000
O O15 0.723528 0.269983 0.631154
O O16 0.298539 0.500000 0.937949
O O17 0.291625 0.661504 0.100686
O O18 0.861755 0.000000 0.985655
O O19 0.815242 0.812015 0.901227
O O20 0.000000 0.879451 0.000000
#
# Coordination Sequence:
#
# PCOD9150174 Si02
#       8
#     4   4   4   4   4   4   4   4
#     4  10  21  40  61  85 113 144 188 230 277 332
#     4  10  22  34  50  77 107 143 188 229 268 321
#     4   9  20  38  60  83 106 144 183 233 279 328
#     4   9  19  36  58  82 109 146 190 235 283 327
#     4  11  22  35  55  81 115 145 184 229 278 330
#     4   9  20  38  59  84 112 144 186 232 277 337
#     4  10  20  36  52  73 111 152 185 222 271 330
#     4  11  23  35  55  83 113 152 184 225 280 337
#
# _framework density 18.776944
#
# number of rings (size 3 to 8) (size 9 to 14) (size 15 to 20)
#    0.000    2.125    1.250    1.500    7.000    2.500 
#    0.000    5.625    0.000    2.625    0.000   11.375 
#    0.000    0.000    0.000    0.000    0.000    0.000 
#
# Total GULP energy -178418.438380 kJ/mol
# GULP energy per Si atom -5575.576199 kJ/mol
# Density = 1.873421 g / cm^3
# Si number density = 18.776944 Si / 1000 Ang^3
#
#
#
# Elastic Constant Matrix: (Units=GPa)
#
#
# Indices 1 2 3 4 5 6 
#
# 1 71.0807 21.3149 12.7444 0.0000 -14.6028 0.0000
# 2 21.3149 87.5687 3.5273 0.0000 2.7482 0.0000
# 3 12.7444 3.5273 54.0325 0.0000 -11.5904 0.0000
# 4 0.0000 0.0000 0.0000 16.9071 0.0000 4.4011
# 5 -14.6028 2.7482 -11.5904 0.0000 29.9341 0.0000
# 6 0.0000 0.0000 0.0000 4.4011 0.0000 19.5263
#
#
#
# Elastic Compliance Matrix: (Units=1/GPa)
#
#
# Indices 1 2 3 4 5 6 
#
# 1 0.017430 -0.004413 -0.002085 0.000000 0.008100 0.000000
# 2 -0.004413 0.012626 -0.000539 0.000000 -0.003520 0.000000
# 3 -0.002085 -0.000539 0.020532 0.000000 0.006982 0.000000
# 4 0.000000 0.000000 0.000000 0.062833 0.000000 -0.014162
# 5 0.008100 -0.003520 0.006982 0.000000 0.040385 0.000000
# 6 0.000000 0.000000 0.000000 -0.014162 0.000000 0.054405
#
#
# Mechanical properties :
#
#
# Convention : Reuss Voigt Hill
#
# Bulk Modulus (GPa) = 27.38647 31.98389 29.68518
# Shear Modulus (GPa) = 21.32593 24.94652 23.13622
#
# Velocity S-wave (km/s) = 3.37375 3.64891 3.51402
# Velocity P-wave (km/s) = 5.45830 5.90113 5.68403
#
# Compressibility (1/GPa) = 0.03651439
#
# Stress axis : x y z
#
# Youngs Moduli (GPa) = 57.37287 79.20236 48.70412
#
# Poissons Ratio (x) = 0.34950 0.10157
# Poissons Ratio (y) = 0.25317 0.02623
# Poissons Ratio (z) = 0.11965 0.04265
#
# Static dielectric constant tensor:
#      x y z
#    x 1.663010 0.000000 0.009330 
#    y 0.000000 1.640620 0.000000 
#    z 0.009330 0.000000 1.705530 
# 
# From -- ./inp_files/29563.got.cif
#   From: 2010.05.17/outbox.cif.g08.bks.cpg/sg10_15_cif.got.tgz:29563.got - 2010.06.03 11:33:40.
