data_PCOD9150020
_publ_section_title
;
Structure prediction by ZEFSAII (Michael W. Deem and Ramdas Pophale) SiO2 
 PCOD9150020
Probable space group: P 2/M
;
_chemical_formula_sum "Si O2"
_cell_formula_units_Z 30
_cell_length_a 21.395096
_cell_length_b 7.890098
_cell_length_c 16.199536
_cell_angle_alpha 90.000000
_cell_angle_beta 26.158408
_cell_angle_gamma 90.000000
_cell_volume 1205.575443
_symmetry_space_group_name_H-M "P 2/M"
_symmetry_group_IT_number 10
_symmetry_cell_setting 'monoclinic'
loop_
_space_group_symop_operation_xyz
x,y,z
-x,y,-z
-x,-y,-z
x,-y,z
loop_
_atom_site_type_symbol
_atom_site_label
_atom_site_fract_x
_atom_site_fract_y
_atom_site_fract_z
Si Si1 0.869745 0.500000 0.263475
Si Si2 0.821170 0.694431 0.882363
Si Si3 0.661356 0.701357 0.244693
Si Si4 0.585739 0.311653 0.565745
Si Si5 0.706165 0.803278 0.847926
Si Si6 0.417492 0.803105 0.251237
Si Si7 0.056266 0.182654 0.026898
Si Si8 0.139176 0.205787 0.498549
O O1 0.752093 0.354436 0.371295
O O2 0.984866 0.350156 0.147904
O O3 0.794536 0.500000 0.892169
O O4 0.775820 0.796706 0.855217
O O5 0.987046 0.722243 0.698787
O O6 0.735749 0.732175 0.066731
O O7 0.664814 0.500000 0.262917
O O8 0.497770 0.748788 0.416321
O O9 0.773571 0.795204 0.170016
O O10 0.521429 0.500000 0.656989
O O11 0.554860 0.207907 0.684487
O O12 0.806367 0.737459 0.656744
O O13 0.684807 0.000000 0.850891
O O14 0.549265 0.725936 0.045221
O O15 0.263583 0.730530 0.412175
O O16 0.409213 0.000000 0.238118
O O17 0.017880 0.000000 0.111137
O O18 0.000000 0.179975 0.000000
O O19 0.126669 0.000000 0.515734
#
# Coordination Sequence:
#
# PCOD9150020 Si02
#       8
#     2   4   4   4   4   4   4   4
#     4  10  23  42  73 100 141 176 208 275 322 374
#     4  11  23  36  57  82 115 151 203 262 310 380
#     4  10  21  41  65  91 128 173 215 255 325 392
#     4   9  21  39  60  93 125 168 209 258 321 378
#     4  10  20  37  56  77 112 158 205 259 324 384
#     4  10  20  35  58  83 115 157 210 267 320 381
#     4  11  25  45  72 106 140 175 216 260 315 388
#     4  10  22  36  52  79 114 155 206 262 323 383
#
# _framework density 24.884384000000001
#
# number of rings (size 3 to 8) (size 9 to 14) (size 15 to 20)
#    0.400    1.467    2.000    1.400    1.867    6.400 
#    0.000    1.333    0.000    4.000    0.000    0.000 
#    0.000    0.000    0.000    0.000    0.000    0.000 
#
# Total GULP energy -167100.758119 kJ/mol
# GULP energy per Si atom -5570.025271 kJ/mol
# Density = 2.482775 g / cm^3
# Si number density = 24.884384 Si / 1000 Ang^3
#
#
#
# Elastic Constant Matrix: (Units=GPa)
#
#
# Indices 1 2 3 4 5 6 
#
# 1 109.1354 11.8913 21.3545 0.0000 -17.1944 0.0000
# 2 11.8913 77.4395 22.0819 0.0000 -2.7717 0.0000
# 3 21.3545 22.0819 124.7807 0.0000 -39.6558 0.0000
# 4 0.0000 0.0000 0.0000 23.0905 0.0000 -6.4002
# 5 -17.1944 -2.7717 -39.6558 0.0000 45.3522 0.0000
# 6 0.0000 0.0000 0.0000 -6.4002 0.0000 14.2173
#
#
#
# Elastic Compliance Matrix: (Units=1/GPa)
#
#
# Indices 1 2 3 4 5 6 
#
# 1 0.009906 -0.001284 -0.000415 0.000000 0.003315 0.000000
# 2 -0.001284 0.013869 -0.002936 0.000000 -0.002206 0.000000
# 3 -0.000415 -0.002936 0.011768 0.000000 0.009953 0.000000
# 4 0.000000 0.000000 0.000000 0.049482 0.000000 0.022276
# 5 0.003315 -0.002206 0.009953 0.000000 0.031874 0.000000
# 6 0.000000 0.000000 0.000000 0.022276 0.000000 0.080365
#
#
# Mechanical properties :
#
#
# Convention : Reuss Voigt Hill
#
# Bulk Modulus (GPa) = 38.06128 46.89012 42.47570
# Shear Modulus (GPa) = 23.22442 33.60053 28.41248
#
# Velocity S-wave (km/s) = 3.05830 3.67858 3.38269
# Velocity P-wave (km/s) = 5.27251 6.07674 5.68885
#
# Compressibility (1/GPa) = 0.02627342
#
# Stress axis : x y z
#
# Youngs Moduli (GPa) = 100.94652 72.10503 84.97901
#
# Poissons Ratio (x) = 0.09260 0.03523
# Poissons Ratio (y) = 0.12965 0.24947
# Poissons Ratio (z) = 0.04185 0.21167
#
# Static dielectric constant tensor:
#      x y z
#    x 2.002270 0.000000 0.006640 
#    y 0.000000 1.943950 0.000000 
#    z 0.006640 0.000000 2.016790 
# 
# From -- ./inp_files/79370.got.cif
#   From: 2010.05.17/outbox.cif.g08.bks.cpg/sg10_40_cif.got.tgz:79370.got - 2010.06.03 11:33:40.
