data_PCOD9150328
_publ_section_title
;
Structure prediction by ZEFSAII (Michael W. Deem and Ramdas Pophale) SiO2 
 PCOD9150328
Probable space group: P 2/M
;
_chemical_formula_sum "Si O2"
_cell_formula_units_Z 28
_cell_length_a 12.015536
_cell_length_b 8.970848
_cell_length_c 15.797579
_cell_angle_alpha 90.000000
_cell_angle_beta 124.373908
_cell_angle_gamma 90.000000
_cell_volume 1405.452678
_symmetry_space_group_name_H-M "P 2/M"
_symmetry_group_IT_number 10
_symmetry_cell_setting 'monoclinic'
loop_
_space_group_symop_operation_xyz
x,y,z
-x,y,-z
-x,-y,-z
x,-y,z
loop_
_atom_site_type_symbol
_atom_site_label
_atom_site_fract_x
_atom_site_fract_y
_atom_site_fract_z
Si Si1 0.916566 0.823480 0.707930
Si Si2 0.840090 0.323117 0.270036
Si Si3 0.906691 0.677296 0.879005
Si Si4 0.659096 0.824560 0.050278
Si Si5 0.628579 0.677193 0.321035
Si Si6 0.651687 0.177618 0.850223
Si Si7 0.647622 0.677117 0.528899
O O1 0.958150 0.756863 0.816737
O O2 0.766657 0.766408 0.624275
O O3 0.019111 0.759628 0.682392
O O4 0.922335 0.000000 0.712940
O O5 0.862579 0.500000 0.277888
O O6 0.757851 0.284458 0.319546
O O7 0.745058 0.273675 0.151238
O O8 0.903907 0.500000 0.864596
O O9 0.758447 0.737928 0.837559
O O10 0.000000 0.710382 0.000000
O O11 0.683132 0.789256 0.962211
O O12 0.691034 0.000000 0.078034
O O13 0.500000 0.805004 0.000000
O O14 0.601861 0.500000 0.297458
O O15 0.498666 0.767625 0.234362
O O16 0.651879 0.702430 0.430133
O O17 0.662184 0.000000 0.842551
O O18 0.500000 0.717859 0.500000
O O19 0.667070 0.500000 0.553240
#
# Coordination Sequence:
#
# PCOD9150328 Si02
#       7
#     4   4   4   4   4   4   4
#     4  12  26  43  65  92 125 163 204 255 314 373
#     4  11  23  39  61  90 126 167 212 259 307 367
#     4  11  24  42  64  90 122 161 206 253 304 367
#     4  10  20  36  57  87 128 170 207 249 306 364
#     4  10  22  39  62  92 123 161 209 258 307 363
#     4  11  22  36  60  91 126 164 204 256 309 364
#     4  10  22  43  69  93 121 159 203 256 313 369
#
# _framework density 19.922408000000001
#
# number of rings (size 3 to 8) (size 9 to 14) (size 15 to 20)
#    0.000    1.286    1.429    4.286    0.000    8.000 
#    0.000    2.857    0.000    0.000    0.000    0.000 
#    0.000    0.000    0.000    0.000    0.000    0.000 
#
# Total GULP energy -156675.773832 kJ/mol
# GULP energy per Si atom -5595.563351 kJ/mol
# Density = 1.987706 g / cm^3
# Si number density = 19.922408 Si / 1000 Ang^3
#
#
#
# Elastic Constant Matrix: (Units=GPa)
#
#
# Indices 1 2 3 4 5 6 
#
# 1 137.7994 60.4873 43.3440 0.0000 -5.1566 0.0000
# 2 60.4873 75.4982 52.2198 0.0000 -0.5668 0.0000
# 3 43.3440 52.2198 71.2330 0.0000 -2.5835 0.0000
# 4 0.0000 0.0000 0.0000 37.9099 0.0000 53.1966
# 5 -5.1566 -0.5668 -2.5835 0.0000 26.6698 0.0000
# 6 0.0000 0.0000 0.0000 53.1966 0.0000 139.7171
#
#
#
# Elastic Compliance Matrix: (Units=1/GPa)
#
#
# Indices 1 2 3 4 5 6 
#
# 1 0.011303 -0.008790 -0.000362 0.000000 0.001963 0.000000
# 2 -0.008790 0.033754 -0.019500 0.000000 -0.002871 0.000000
# 3 -0.000362 -0.019500 0.028637 0.000000 0.002290 0.000000
# 4 0.000000 0.000000 0.000000 0.056639 0.000000 -0.021565
# 5 0.001963 -0.002871 0.002290 0.000000 0.038036 0.000000
# 6 0.000000 0.000000 0.000000 -0.021565 0.000000 0.015368
#
#
# Mechanical properties :
#
#
# Convention : Reuss Voigt Hill
#
# Bulk Modulus (GPa) = 61.01737 66.29253 63.65495
# Shear Modulus (GPa) = 20.28360 49.42467 34.85414
#
# Velocity S-wave (km/s) = 3.19428 4.98623 4.18723
# Velocity P-wave (km/s) = 6.65571 8.15460 7.44299
#
# Compressibility (1/GPa) = 0.01638878
#
# Stress axis : x y z
#
# Youngs Moduli (GPa) = 88.47332 29.62651 34.91988
#
# Poissons Ratio (x) = 0.26042 0.01266
# Poissons Ratio (y) = 0.77769 0.68093
# Poissons Ratio (z) = 0.03207 0.57771
#
# Static dielectric constant tensor:
#      x y z
#    x 1.700950 0.000000 -0.006690 
#    y 0.000000 1.661150 0.000000 
#    z -0.006690 0.000000 1.678780 
# 
# From -- ./inp_files/63511.got.cif
#   From: 2010.05.17/outbox.cif.g08.bks.cpg/sg10_32_cif.got.tgz:63511.got - 2010.06.03 11:33:40.
