data_PCOD9150002
_publ_section_title
;
Structure prediction by ZEFSAII (Michael W. Deem and Ramdas Pophale) SiO2 
 PCOD9150002
Probable space group: P 2/M
;
_chemical_formula_sum "Si O2"
_cell_formula_units_Z 32
_cell_length_a 23.056793
_cell_length_b 7.952635
_cell_length_c 14.681547
_cell_angle_alpha 90.000000
_cell_angle_beta 148.628678
_cell_angle_gamma 90.000000
_cell_volume 1401.429335
_symmetry_space_group_name_H-M "P 2/M"
_symmetry_group_IT_number 10
_symmetry_cell_setting 'monoclinic'
loop_
_space_group_symop_operation_xyz
x,y,z
-x,y,-z
-x,-y,-z
x,-y,z
loop_
_atom_site_type_symbol
_atom_site_label
_atom_site_fract_x
_atom_site_fract_y
_atom_site_fract_z
Si Si1 0.060507 0.194363 0.171504
Si Si2 0.743766 0.699572 0.241003
Si Si3 0.377067 0.296929 0.364850
Si Si4 0.464738 0.199489 0.142604
Si Si5 0.064747 0.303817 0.377720
Si Si6 0.094417 0.740423 0.692879
Si Si7 0.712888 0.801658 0.941474
Si Si8 0.691451 0.301223 0.524451
O O1 0.035602 0.279901 0.234196
O O2 0.193705 0.208743 0.341365
O O3 0.026656 0.000000 0.133602
O O4 0.000000 0.264812 0.000000
O O5 0.757810 0.500000 0.238456
O O6 0.805475 0.726471 0.420264
O O7 0.818925 0.803118 0.268889
O O8 0.615973 0.741663 0.047916
O O9 0.500000 0.241669 0.500000
O O10 0.373564 0.500000 0.357117
O O11 0.299964 0.226196 0.182287
O O12 0.348061 0.245458 0.427931
O O13 0.396779 0.240003 0.145361
O O14 0.588045 0.273031 0.317721
O O15 0.474746 0.000000 0.150334
O O16 0.041744 0.500000 0.370940
O O17 0.989320 0.189212 0.342371
O O18 0.000000 0.665519 0.500000
O O19 0.190450 0.683165 0.890399
O O20 0.738847 0.000000 0.992734
O O21 0.716167 0.500000 0.559369
#
# Coordination Sequence:
#
# PCOD9150002 Si02
#       8
#     4   4   4   4   4   4   4   4
#     4  11  27  48  65  85 118 160 205 255 307 357
#     4   9  18  35  61  94 130 162 196 244 300 361
#     4  10  21  37  57  87 120 153 194 243 302 362
#     4  10  20  35  57  89 126 161 193 234 294 362
#     4  10  21  39  64  91 119 159 210 257 301 352
#     4   9  19  35  57  91 129 163 199 245 301 358
#     4  10  21  33  52  85 122 162 199 237 291 357
#     4  11  23  41  65  88 115 155 202 254 304 354
#
# _framework density 22.833832000000001
#
# number of rings (size 3 to 8) (size 9 to 14) (size 15 to 20)
#    0.000    2.000    1.250    1.500    1.750    7.500 
#    0.000    3.125    0.000    3.750    0.000    0.000 
#    0.000    0.000    0.000    0.000    0.000    0.000 
#
# Total GULP energy -178139.528994 kJ/mol
# GULP energy per Si atom -5566.860281 kJ/mol
# Density = 2.278186 g / cm^3
# Si number density = 22.833832 Si / 1000 Ang^3
#
#
#
# Elastic Constant Matrix: (Units=GPa)
#
#
# Indices 1 2 3 4 5 6 
#
# 1 54.6103 13.2429 27.4486 0.0000 -15.9414 0.0000
# 2 13.2429 51.4066 13.9963 0.0000 -6.3420 0.0000
# 3 27.4486 13.9963 162.9874 0.0000 -20.6210 0.0000
# 4 0.0000 0.0000 0.0000 29.7336 0.0000 0.6663
# 5 -15.9414 -6.3420 -20.6210 0.0000 39.4397 0.0000
# 6 0.0000 0.0000 0.0000 0.6663 0.0000 7.0213
#
#
#
# Elastic Compliance Matrix: (Units=1/GPa)
#
#
# Indices 1 2 3 4 5 6 
#
# 1 0.022722 -0.004275 -0.002553 0.000000 0.007162 0.000000
# 2 -0.004275 0.020950 -0.000933 0.000000 0.001153 0.000000
# 3 -0.002553 -0.000933 0.006956 0.000000 0.002455 0.000000
# 4 0.000000 0.000000 0.000000 0.033704 0.000000 -0.003199
# 5 0.007162 0.001153 0.002455 0.000000 0.029719 0.000000
# 6 0.000000 0.000000 0.000000 -0.003199 0.000000 0.142727
#
#
# Mechanical properties :
#
#
# Convention : Reuss Voigt Hill
#
# Bulk Modulus (GPa) = 28.48530 42.04222 35.26376
# Shear Modulus (GPa) = 17.60543 29.52669 23.56606
#
# Velocity S-wave (km/s) = 2.77974 3.59989 3.21607
# Velocity P-wave (km/s) = 4.77543 5.97755 5.40999
#
# Compressibility (1/GPa) = 0.03510582
#
# Stress axis : x y z
#
# Youngs Moduli (GPa) = 44.00977 47.73199 143.75664
#
# Poissons Ratio (x) = 0.20404 0.36708
# Poissons Ratio (y) = 0.18813 0.13417
# Poissons Ratio (z) = 0.11238 0.04455
#
# Static dielectric constant tensor:
#      x y z
#    x 1.842210 0.000000 0.005640 
#    y 0.000000 2.045160 0.000000 
#    z 0.005640 0.000000 1.861780 
# 
# From -- ./inp_files/71575.got.cif
#   From: 2010.05.17/outbox.cif.g08.bks.cpg/sg10_36_cif.got.tgz:71575.got - 2010.06.03 11:33:40.
