data_PCOD9150029
_publ_section_title
;
Structure prediction by ZEFSAII (Michael W. Deem and Ramdas Pophale) SiO2 
 PCOD9150029
Probable space group: P 2/M
;
_chemical_formula_sum "Si O2"
_cell_formula_units_Z 28
_cell_length_a 16.465204
_cell_length_b 18.340933
_cell_length_c 9.784947
_cell_angle_alpha 90.000000
_cell_angle_beta 32.716649
_cell_angle_gamma 90.000000
_cell_volume 1597.094161
_symmetry_space_group_name_H-M "P 2/M"
_symmetry_group_IT_number 10
_symmetry_cell_setting 'monoclinic'
loop_
_space_group_symop_operation_xyz
x,y,z
-x,y,-z
-x,-y,-z
x,-y,z
loop_
_atom_site_type_symbol
_atom_site_label
_atom_site_fract_x
_atom_site_fract_y
_atom_site_fract_z
Si Si1 0.476119 0.082571 0.871182
Si Si2 0.652699 0.417429 0.871182
Si Si3 0.156782 0.250000 0.000000
Si Si4 0.183231 0.724882 0.451289
Si Si5 0.590943 0.349337 0.241443
Si Si6 0.167614 0.150663 0.241444
Si Si7 0.365480 0.224882 0.451289
O O1 0.567621 0.144416 0.661194
O O2 0.520558 0.000000 0.773952
O O3 0.500000 0.093005 0.000000
O O4 0.301483 0.096298 0.085332
O O5 0.705490 0.500000 0.773952
O O6 0.771185 0.355584 0.661195
O O7 0.500000 0.406995 0.000000
O O8 0.613184 0.403702 0.085333
O O9 0.178421 0.183135 0.074347
O O10 0.981754 0.269980 0.249033
O O11 0.252767 0.316866 0.925654
O O12 0.230787 0.230020 0.750967
O O13 0.184042 0.780343 0.321981
O O14 0.304672 0.750000 0.390656
O O15 0.500000 0.379482 0.500000
O O16 0.493978 0.280342 0.321980
O O17 0.000000 0.120518 0.500000
#
# Coordination Sequence:
#
# PCOD9150029 Si02
#       7
#     4   4   4   4   4   4   4
#     4  11  22  36  57  85 115 150 190 231 283 339
#     4  11  22  36  57  85 115 150 190 231 283 339
#     4  10  21  34  57  88 110 136 192 236 281 326
#     4  11  20  36  60  82 111 148 192 235 276 329
#     4  10  20  35  58  84 112 145 187 238 275 328
#     4  10  20  35  58  84 112 145 187 238 275 328
#     4  11  20  36  60  82 111 148 192 235 276 329
#
# _framework density 17.531841
#
# number of rings (size 3 to 8) (size 9 to 14) (size 15 to 20)
#    0.000    1.429    5.714    0.429    0.000    0.571 
#    0.000    2.857    0.000    5.143    0.000    0.000 
#    0.000    0.000    0.000    0.000    0.000    0.000 
#
# Total GULP energy -156329.000208 kJ/mol
# GULP energy per Si atom -5583.178579 kJ/mol
# Density = 1.749194 g / cm^3
# Si number density = 17.531841 Si / 1000 Ang^3
#
#
#
# Elastic Constant Matrix: (Units=GPa)
#
#
# Indices 1 2 3 4 5 6 
#
# 1 66.6699 27.6733 19.9625 0.0000 -0.3118 0.0000
# 2 27.6733 82.7613 42.3132 0.0000 -0.8387 0.0000
# 3 19.9625 42.3132 70.6548 0.0000 0.0833 0.0000
# 4 0.0000 0.0000 0.0000 6.7208 0.0000 -0.5363
# 5 -0.3118 -0.8387 0.0833 0.0000 26.0521 0.0000
# 6 0.0000 0.0000 0.0000 -0.5363 0.0000 -2.6386
#
#
#
# Elastic Compliance Matrix: (Units=1/GPa)
#
#
# Indices 1 2 3 4 5 6 
#
# 1 0.017628 -0.004825 -0.002091 0.000000 0.000062 0.000000
# 2 -0.004825 0.018745 -0.009863 0.000000 0.000577 0.000000
# 3 -0.002091 -0.009863 0.020652 0.000000 -0.000409 0.000000
# 4 0.000000 0.000000 0.000000 0.146416 0.000000 -0.029762
# 5 0.000062 0.000577 -0.000409 0.000000 0.038405 0.000000
# 6 0.000000 0.000000 0.000000 -0.029762 0.000000 -0.372942
#
#
# Mechanical properties :
#
#
# Convention : Reuss Voigt Hill
#
# Bulk Modulus (GPa) = 42.61459 44.44266 43.52863
# Shear Modulus (GPa) = -55.73163 14.70267 -20.51448
#
# Velocity S-wave (km/s) = -5.64427 2.89905 -3.42442
# Velocity P-wave (km/s) = 4.25645 6.05068 3.04083
#
# Compressibility (1/GPa) = 0.02346614
#
# Stress axis : x y z
#
# Youngs Moduli (GPa) = 56.72671 53.34813 48.42252
#
# Poissons Ratio (x) = 0.25738 0.10127
# Poissons Ratio (y) = 0.27368 0.47761
# Poissons Ratio (z) = 0.11864 0.52619
#
# Static dielectric constant tensor:
#      x y z
#    x 1.593810 0.000000 -0.000190 
#    y 0.000000 1.564950 0.000000 
#    z -0.000190 0.000000 1.597140 
# 
# From -- ./inp_files/30121.got.cif
#   From: 2010.05.17/outbox.cif.g08.bks.cpg/sg10_16_cif.got.tgz:30121.got - 2010.06.03 11:33:40.
