data_PCOD9150167
_publ_section_title
;
Structure prediction by ZEFSAII (Michael W. Deem and Ramdas Pophale) SiO2 
 PCOD9150167
Probable space group: P 2/M
;
_chemical_formula_sum "Si O2"
_cell_formula_units_Z 24
_cell_length_a 20.443419
_cell_length_b 10.450643
_cell_length_c 13.825497
_cell_angle_alpha 90.000000
_cell_angle_beta 153.056723
_cell_angle_gamma 90.000000
_cell_volume 1338.379251
_symmetry_space_group_name_H-M "P 2/M"
_symmetry_group_IT_number 10
_symmetry_cell_setting 'monoclinic'
loop_
_space_group_symop_operation_xyz
x,y,z
-x,y,-z
-x,-y,-z
x,-y,z
loop_
_atom_site_type_symbol
_atom_site_label
_atom_site_fract_x
_atom_site_fract_y
_atom_site_fract_z
Si Si1 0.328929 0.348939 0.783493
Si Si2 0.672124 0.000000 0.723099
Si Si3 0.147447 0.248850 0.370606
Si Si4 0.840297 0.651947 0.246605
Si Si5 0.815262 0.251108 0.001204
Si Si6 0.671626 0.500000 0.715982
Si Si7 0.161544 0.000000 0.258154
Si Si8 0.840389 0.500000 0.742881
O O1 0.293690 0.500000 0.719407
O O2 0.245257 0.265048 0.594488
O O3 0.272494 0.320300 0.816724
O O4 0.500000 0.333492 0.000000
O O5 0.500000 0.000000 0.500000
O O6 0.735181 0.875010 0.858953
O O7 0.729928 0.000000 0.689113
O O8 0.178625 0.124658 0.347420
O O9 0.172991 0.374027 0.339322
O O10 0.980437 0.246776 0.182715
O O11 0.831579 0.500000 0.211125
O O12 0.000000 0.674571 0.500000
O O13 0.815046 0.730893 0.116288
O O14 0.738969 0.374693 0.854334
O O15 0.500000 0.500000 0.500000
O O16 0.723117 0.500000 0.672989
O O17 0.000000 0.000000 0.000000
O O18 0.000000 0.500000 0.000000
#
# Coordination Sequence:
#
# PCOD9150167 Si02
#       8
#     4   2   4   4   4   2   2   2
#     4  10  22  39  61  96 132 161 203 264 321 370
#     4  12  28  46  64  91 133 170 206 261 323 377
#     4  12  22  40  68  94 120 168 220 252 311 379
#     4  10  20  35  64  93 124 161 205 256 317 368
#     4  12  22  42  66  92 123 170 213 256 315 379
#     4  12  26  38  58  95 127 154 212 275 315 361
#     4  12  24  44  66  92 125 172 213 257 312 377
#     4  12  22  36  64  92 121 160 213 271 302 371
#
# _framework density 17.932137000000001
#
# number of rings (size 3 to 8) (size 9 to 14) (size 15 to 20)
#    0.000    0.667    6.667    2.000    0.000    2.667 
#    0.000    1.667    0.000    0.000    0.000    0.000 
#    0.000    0.000    0.000    0.000    0.000    0.000 
#
# Total GULP energy -134215.206493 kJ/mol
# GULP energy per Si atom -5592.300271 kJ/mol
# Density = 1.789132 g / cm^3
# Si number density = 17.932137 Si / 1000 Ang^3
#
#
#
# Elastic Constant Matrix: (Units=GPa)
#
#
# Indices 1 2 3 4 5 6 
#
# 1 201.4177 81.8026 91.5539 0.0000 0.7784 0.0000
# 2 81.8026 156.1571 69.1979 0.0000 -18.1800 0.0000
# 3 91.5539 69.1979 108.1241 0.0000 2.4355 0.0000
# 4 0.0000 0.0000 0.0000 10.1389 0.0000 -19.7105
# 5 0.7784 -18.1800 2.4355 0.0000 38.2132 0.0000
# 6 0.0000 0.0000 0.0000 -19.7105 0.0000 28.1755
#
#
#
# Elastic Compliance Matrix: (Units=1/GPa)
#
#
# Indices 1 2 3 4 5 6 
#
# 1 0.008414 -0.001866 -0.005915 0.000000 -0.000682 0.000000
# 2 -0.001866 0.010250 -0.005098 0.000000 0.005240 0.000000
# 3 -0.005915 -0.005098 0.017597 0.000000 -0.003427 0.000000
# 4 0.000000 0.000000 0.000000 -0.273987 0.000000 -0.191671
# 5 -0.000682 0.005240 -0.003427 0.000000 0.028894 0.000000
# 6 0.000000 0.000000 0.000000 -0.191671 0.000000 -0.098594
#
#
# Mechanical properties :
#
#
# Convention : Reuss Voigt Hill
#
# Bulk Modulus (GPa) = 95.20822 105.64531 100.42676
# Shear Modulus (GPa) = -17.97485 30.18181 6.10348
#
# Velocity S-wave (km/s) = -3.16948 4.10703 1.84690
# Velocity P-wave (km/s) = 6.30990 9.02951 7.78931
#
# Compressibility (1/GPa) = 0.01050330
#
# Stress axis : x y z
#
# Youngs Moduli (GPa) = 118.85143 97.55689 56.82787
#
# Poissons Ratio (x) = 0.18204 0.33613
# Poissons Ratio (y) = 0.22177 0.28972
# Poissons Ratio (z) = 0.70299 0.49736
#
# Static dielectric constant tensor:
#      x y z
#    x 1.599410 0.000000 -0.001470 
#    y 0.000000 1.589850 0.000000 
#    z -0.001470 0.000000 1.585910 
# 
# From -- ./inp_files/53758.got.cif
#   From: 2010.05.17/outbox.cif.g08.bks.cpg/sg10_27_cif.got.tgz:53758.got - 2010.06.03 11:33:40.
