data_PCOD9150264
_publ_section_title
;
Structure prediction by ZEFSAII (Michael W. Deem and Ramdas Pophale) SiO2 
 PCOD9150264
Probable space group: P 2/M
;
_chemical_formula_sum "Si O2"
_cell_formula_units_Z 32
_cell_length_a 26.188104
_cell_length_b 8.367817
_cell_length_c 16.239237
_cell_angle_alpha 90.000000
_cell_angle_beta 29.778608
_cell_angle_gamma 90.000000
_cell_volume 1767.389357
_symmetry_space_group_name_H-M "P 2/M"
_symmetry_group_IT_number 10
_symmetry_cell_setting 'monoclinic'
loop_
_space_group_symop_operation_xyz
x,y,z
-x,y,-z
-x,-y,-z
x,-y,z
loop_
_atom_site_type_symbol
_atom_site_label
_atom_site_fract_x
_atom_site_fract_y
_atom_site_fract_z
Si Si1 0.018993 0.694602 0.734951
Si Si2 0.449717 0.305235 0.155034
Si Si3 0.530047 0.689502 0.219125
Si Si4 0.228185 0.306229 0.528065
Si Si5 0.313543 0.187497 0.577502
Si Si6 0.268286 0.187386 0.975613
Si Si7 0.797481 0.310674 0.106482
Si Si8 0.056359 0.693643 0.337897
O O1 0.020136 0.500000 0.733912
O O2 0.123870 0.749143 0.630499
O O3 0.004293 0.742609 0.660268
O O4 0.915630 0.743649 0.927720
O O5 0.451110 0.500000 0.151990
O O6 0.511160 0.256542 0.151161
O O7 0.331009 0.257940 0.334393
O O8 0.500000 0.248422 0.000000
O O9 0.549443 0.500000 0.191595
O O10 0.422522 0.723247 0.415537
O O11 0.625182 0.773918 0.129101
O O12 0.226957 0.500000 0.532968
O O13 0.243454 0.243829 0.599103
O O14 0.258756 0.225884 0.739826
O O15 0.333232 0.000000 0.542404
O O16 0.257574 0.277806 0.903564
O O17 0.259635 0.000000 0.971271
O O18 0.171696 0.242365 0.166105
O O19 0.797883 0.500000 0.121950
O O20 0.061363 0.500000 0.331365
O O21 0.000000 0.745689 0.500000
#
# Coordination Sequence:
#
# PCOD9150264 Si02
#       8
#     4   4   4   4   4   4   4   4
#     4   8  16  31  53  78 102 133 177 225 262 300
#     4   8  15  28  50  79 105 130 168 217 260 299
#     4  10  20  36  57  79 104 138 178 217 260 312
#     4   9  17  32  52  74 103 139 176 213 258 310
#     4  11  22  36  53  77 107 136 170 214 266 318
#     4  11  22  36  54  79 111 142 173 215 268 318
#     4  10  20  37  57  77 102 135 178 221 262 311
#     4   9  18  34  56  81 108 142 185 226 261 304
#
# _framework density 18.105802000000001
#
# number of rings (size 3 to 8) (size 9 to 14) (size 15 to 20)
#    0.000    2.500    0.000    4.500    0.000    2.250 
#    0.000   11.875    0.000   12.375    0.000    0.000 
#    0.000    0.000    0.000    0.000    0.000    0.000 
#
# Total GULP energy -178532.181263 kJ/mol
# GULP energy per Si atom -5579.130664 kJ/mol
# Density = 1.806459 g / cm^3
# Si number density = 18.105802 Si / 1000 Ang^3
#
#
#
# Elastic Constant Matrix: (Units=GPa)
#
#
# Indices 1 2 3 4 5 6 
#
# 1 93.4768 -11.6073 72.9434 0.0000 -14.3048 0.0000
# 2 -11.6073 16.5935 -11.5477 0.0000 0.3729 0.0000
# 3 72.9434 -11.5477 94.0944 0.0000 12.2458 0.0000
# 4 0.0000 0.0000 0.0000 1.4688 0.0000 0.7493
# 5 -14.3048 0.3729 12.2458 0.0000 36.3935 0.0000
# 6 0.0000 0.0000 0.0000 0.7493 0.0000 -7.5182
#
#
#
# Elastic Compliance Matrix: (Units=1/GPa)
#
#
# Indices 1 2 3 4 5 6 
#
# 1 0.048707 0.004435 -0.041518 0.000000 0.033070 0.000000
# 2 0.004435 0.066738 0.004826 0.000000 -0.000564 0.000000
# 3 -0.041518 0.004826 0.047621 0.000000 -0.032392 0.000000
# 4 0.000000 0.000000 0.000000 0.647897 0.000000 0.064569
# 5 0.033070 -0.000564 -0.032392 0.000000 0.051381 0.000000
# 6 0.000000 0.000000 0.000000 0.064569 0.000000 -0.126576
#
#
# Mechanical properties :
#
#
# Convention : Reuss Voigt Hill
#
# Bulk Modulus (GPa) = 10.14698 33.74905 21.94802
# Shear Modulus (GPa) = 6.00144 16.36058 11.18101
#
# Velocity S-wave (km/s) = 1.82259 3.00927 2.48773
# Velocity P-wave (km/s) = 3.16947 5.54569 4.51665
#
# Compressibility (1/GPa) = 0.09855146
#
# Stress axis : x y z
#
# Youngs Moduli (GPa) = 20.53078 14.98398 20.99914
#
# Poissons Ratio (x) = -0.06645 0.87185
# Poissons Ratio (y) = -0.09105 -0.10134
# Poissons Ratio (z) = 0.85240 -0.07231
#
# Static dielectric constant tensor:
#      x y z
#    x 1.600900 0.000000 -0.000130 
#    y 0.000000 1.609130 0.000000 
#    z -0.000130 0.000000 1.600500 
# 
# From -- ./inp_files/71504.got.cif
#   From: 2010.05.17/outbox.cif.g08.bks.cpg/sg10_36_cif.got.tgz:71504.got - 2010.06.03 11:33:40.
