data_PCOD9150500
_publ_section_title
;
Structure prediction by ZEFSAII (Michael W. Deem and Ramdas Pophale) SiO2 
 PCOD9150500
Probable space group: P 2/M
;
_chemical_formula_sum "Si O2"
_cell_formula_units_Z 32
_cell_length_a 12.201259
_cell_length_b 8.646246
_cell_length_c 29.483884
_cell_angle_alpha 90.000000
_cell_angle_beta 30.671135
_cell_angle_gamma 90.000000
_cell_volume 1586.647615
_symmetry_space_group_name_H-M "P 2/M"
_symmetry_group_IT_number 10
_symmetry_cell_setting 'monoclinic'
loop_
_space_group_symop_operation_xyz
x,y,z
-x,y,-z
-x,-y,-z
x,-y,z
loop_
_atom_site_type_symbol
_atom_site_label
_atom_site_fract_x
_atom_site_fract_y
_atom_site_fract_z
Si Si1 0.917289 0.685686 0.579933
Si Si2 0.705177 0.817474 0.318334
Si Si3 0.366556 0.185997 0.003586
Si Si4 0.546079 0.313389 0.214967
Si Si5 0.890741 0.316705 0.163510
Si Si6 0.262490 0.183283 0.525853
Si Si7 0.937593 0.318807 0.317376
Si Si8 0.396535 0.184999 0.174193
O O1 0.943730 0.500000 0.576503
O O2 0.668330 0.722365 0.679075
O O3 0.000000 0.724479 0.500000
O O4 0.065657 0.772367 0.563289
O O5 0.745365 0.724321 0.258493
O O6 0.480574 0.776509 0.422047
O O7 0.888219 0.775696 0.289515
O O8 0.707299 0.000000 0.307930
O O9 0.481688 0.228689 0.915473
O O10 0.363503 0.000000 0.007151
O O11 0.500000 0.243053 0.000000
O O12 0.122640 0.242887 0.088742
O O13 0.551575 0.500000 0.207786
O O14 0.758507 0.263225 0.166407
O O15 0.520640 0.236498 0.175090
O O16 0.917184 0.500000 0.150755
O O17 0.232190 0.272311 0.583589
O O18 0.263362 0.000000 0.535038
O O19 0.929340 0.500000 0.310778
O O20 0.167995 0.269862 0.254705
O O21 0.363860 0.000000 0.186279
#
# Coordination Sequence:
#
# PCOD9150500 Si02
#       8
#     4   4   4   4   4   4   4   4
#     4  10  20  36  59  85 120 168 215 260 310 367
#     4  11  24  41  61  88 126 167 208 261 317 373
#     4  10  23  44  68  94 126 164 206 257 319 381
#     4  10  22  40  61  90 128 168 208 257 315 372
#     4  11  24  42  66  95 126 163 209 258 312 375
#     4  11  23  38  58  88 123 163 212 260 312 374
#     4  12  24  39  62  91 125 164 209 262 317 377
#     4  11  23  40  66  95 125 166 212 261 316 379
#
# _framework density 20.168310000000002
#
# number of rings (size 3 to 8) (size 9 to 14) (size 15 to 20)
#    0.000    1.250    1.250    4.500    0.000    8.500 
#    0.000    2.500    0.000    0.000    0.000    0.000 
#    0.000    0.000    0.000    0.000    0.000    0.000 
#
# Total GULP energy -178999.591678 kJ/mol
# GULP energy per Si atom -5593.737240 kJ/mol
# Density = 2.012241 g / cm^3
# Si number density = 20.168310 Si / 1000 Ang^3
#
#
#
# Elastic Constant Matrix: (Units=GPa)
#
#
# Indices 1 2 3 4 5 6 
#
# 1 122.8359 7.1307 47.8499 0.0000 -7.2186 0.0000
# 2 7.1307 3.4699 25.6427 0.0000 0.7385 0.0000
# 3 47.8499 25.6427 85.7851 0.0000 -0.3300 0.0000
# 4 0.0000 0.0000 0.0000 21.1281 0.0000 10.4612
# 5 -7.2186 0.7385 -0.3300 0.0000 34.5086 0.0000
# 6 0.0000 0.0000 0.0000 10.4612 0.0000 28.1670
#
#
#
# Elastic Compliance Matrix: (Units=1/GPa)
#
#
# Indices 1 2 3 4 5 6 
#
# 1 0.009404 -0.015619 -0.000568 0.000000 0.002296 0.000000
# 2 -0.015619 -0.211277 0.071874 0.000000 0.001942 0.000000
# 3 -0.000568 0.071874 -0.009518 0.000000 -0.001748 0.000000
# 4 0.000000 0.000000 0.000000 0.057995 0.000000 -0.021539
# 5 0.002296 0.001942 -0.001748 0.000000 0.029400 0.000000
# 6 0.000000 0.000000 0.000000 -0.021539 0.000000 0.043502
#
#
# Mechanical properties :
#
#
# Convention : Reuss Voigt Hill
#
# Bulk Modulus (GPa) = -9.99841 41.48194 15.74177
# Shear Modulus (GPa) = -22.20187 25.52524 1.66168
#
# Velocity S-wave (km/s) = -3.32147 3.56140 0.90868
# Velocity P-wave (km/s) = 4.43597 6.12568 2.98715
#
# Compressibility (1/GPa) = -0.10001589
#
# Stress axis : x y z
#
# Youngs Moduli (GPa) = 106.34166 -4.73313 -105.06810
#
# Poissons Ratio (x) = -0.07393 -0.05963
# Poissons Ratio (y) = 1.66098 7.55168
# Poissons Ratio (z) = 0.06035 0.34019
#
# Static dielectric constant tensor:
#      x y z
#    x 1.703050 0.000000 -0.002440 
#    y 0.000000 1.675620 0.000000 
#    z -0.002440 0.000000 1.712520 
# 
# From -- ./inp_files/49865.got.cif
#   From: 2010.05.17/outbox.cif.g08.bks.cpg/sg10_25_cif.got.tgz:49865.got - 2010.06.03 11:33:40.
