data_PCOD9150572
_publ_section_title
;
Structure prediction by ZEFSAII (Michael W. Deem and Ramdas Pophale) SiO2 
 PCOD9150572
Probable space group: P 2/M
;
_chemical_formula_sum "Si O2"
_cell_formula_units_Z 32
_cell_length_a 12.077915
_cell_length_b 8.851001
_cell_length_c 29.378522
_cell_angle_alpha 90.000000
_cell_angle_beta 31.219273
_cell_angle_gamma 90.000000
_cell_volume 1627.825443
_symmetry_space_group_name_H-M "P 2/M"
_symmetry_group_IT_number 10
_symmetry_cell_setting 'monoclinic'
loop_
_space_group_symop_operation_xyz
x,y,z
-x,y,-z
-x,-y,-z
x,-y,z
loop_
_atom_site_type_symbol
_atom_site_label
_atom_site_fract_x
_atom_site_fract_y
_atom_site_fract_z
Si Si1 0.038936 0.181041 0.216558
Si Si2 0.606351 0.183999 0.839762
Si Si3 0.837091 0.176825 0.666692
Si Si4 0.237837 0.322914 0.478779
Si Si5 0.587140 0.179308 0.418710
Si Si6 0.432007 0.174366 0.328600
Si Si7 0.113098 0.816964 0.007703
Si Si8 0.889132 0.678934 0.174913
O O1 0.257343 0.230877 0.164205
O O2 0.837146 0.208624 0.321339
O O3 0.993649 0.257846 0.184377
O O4 0.048201 0.000000 0.206331
O O5 0.737085 0.230260 0.749032
O O6 0.604625 0.000000 0.840078
O O7 0.360869 0.231982 0.922890
O O8 0.657275 0.184183 0.690906
O O9 0.038240 0.270212 0.578860
O O10 0.901692 0.000000 0.648788
O O11 0.229968 0.500000 0.472509
O O12 0.449143 0.276537 0.432301
O O13 0.253136 0.231455 0.426418
O O14 0.500000 0.209971 0.500000
O O15 0.551276 0.000000 0.422555
O O16 0.641213 0.273616 0.262047
O O17 0.485331 0.000000 0.319810
O O18 0.992922 0.752316 0.093685
O O19 0.106117 0.000000 0.012141
O O20 0.000000 0.772038 0.000000
O O21 0.910514 0.500000 0.165833
#
# Coordination Sequence:
#
# PCOD9150572 Si02
#       8
#     4   4   4   4   4   4   4   4
#     4  10  20  37  62  88 119 159 205 255 304 360
#     4   9  19  38  65  94 118 150 203 259 304 354
#     4  10  21  39  63  89 118 156 205 257 308 364
#     4  12  24  36  54  86 126 163 201 248 309 375
#     4  10  20  36  60  85 114 160 215 263 306 357
#     4  11  22  39  63  88 117 159 211 260 305 361
#     4  10  21  41  69  97 124 157 203 254 305 366
#     4  12  25  40  61  90 127 165 202 251 312 375
#
# _framework density 19.658128000000001
#
# number of rings (size 3 to 8) (size 9 to 14) (size 15 to 20)
#    0.000    1.500    1.250    4.500    0.000    7.500 
#    0.000    5.625    0.000    0.000    0.000    0.000 
#    0.000    0.000    0.000    0.000    0.000    0.000 
#
# Total GULP energy -178890.054875 kJ/mol
# GULP energy per Si atom -5590.314215 kJ/mol
# Density = 1.961339 g / cm^3
# Si number density = 19.658128 Si / 1000 Ang^3
#
#
#
# Elastic Constant Matrix: (Units=GPa)
#
#
# Indices 1 2 3 4 5 6 
#
# 1 88.2397 36.8120 56.0402 0.0000 -8.7165 0.0000
# 2 36.8120 37.3544 18.6588 0.0000 3.9203 0.0000
# 3 56.0402 18.6588 115.1956 0.0000 1.3389 0.0000
# 4 0.0000 0.0000 0.0000 2.9659 0.0000 8.1149
# 5 -8.7165 3.9203 1.3389 0.0000 33.8998 0.0000
# 6 0.0000 0.0000 0.0000 8.1149 0.0000 -19.5612
#
#
#
# Elastic Compliance Matrix: (Units=1/GPa)
#
#
# Indices 1 2 3 4 5 6 
#
# 1 0.029403 -0.024924 -0.010393 0.000000 0.010853 0.000000
# 2 -0.024924 0.050602 0.004073 0.000000 -0.012421 0.000000
# 3 -0.010393 0.004073 0.013120 0.000000 -0.003662 0.000000
# 4 0.000000 0.000000 0.000000 0.157919 0.000000 0.065512
# 5 0.010853 -0.012421 -0.003662 0.000000 0.033870 0.000000
# 6 0.000000 0.000000 0.000000 0.065512 0.000000 -0.023944
#
#
# Mechanical properties :
#
#
# Convention : Reuss Voigt Hill
#
# Bulk Modulus (GPa) = 32.64046 51.53464 42.08755
# Shear Modulus (GPa) = 14.98486 12.07949 13.53217
#
# Velocity S-wave (km/s) = 2.76392 2.48156 2.62654
# Velocity P-wave (km/s) = 5.17936 5.87224 5.53665
#
# Compressibility (1/GPa) = 0.03063682
#
# Stress axis : x y z
#
# Youngs Moduli (GPa) = 34.00984 19.76218 76.22100
#
# Poissons Ratio (x) = 0.49255 0.79218
# Poissons Ratio (y) = 0.84766 -0.31046
# Poissons Ratio (z) = 0.35347 -0.08049
#
# Static dielectric constant tensor:
#      x y z
#    x 1.691160 0.000000 -0.005740 
#    y 0.000000 1.652870 0.000000 
#    z -0.005740 0.000000 1.678770 
# 
# From -- ./inp_files/94995.got.cif
#   From: 2010.05.17/outbox.cif.g08.bks.cpg/sg10_48_cif.got.tgz:94995.got - 2010.06.03 11:33:40.
