data_PCOD9150630
_publ_section_title
;
Structure prediction by ZEFSAII (Michael W. Deem and Ramdas Pophale) SiO2 
 PCOD9150630
Probable space group: P 2/M
;
_chemical_formula_sum "Si O2"
_cell_formula_units_Z 32
_cell_length_a 15.372360
_cell_length_b 7.678408
_cell_length_c 23.044256
_cell_angle_alpha 90.000000
_cell_angle_beta 31.579025
_cell_angle_gamma 90.000000
_cell_volume 1424.411566
_symmetry_space_group_name_H-M "P 2/M"
_symmetry_group_IT_number 10
_symmetry_cell_setting 'monoclinic'
loop_
_space_group_symop_operation_xyz
x,y,z
-x,y,-z
-x,-y,-z
x,-y,z
loop_
_atom_site_type_symbol
_atom_site_label
_atom_site_fract_x
_atom_site_fract_y
_atom_site_fract_z
Si Si1 0.760140 0.701339 0.003393
Si Si2 0.370158 0.787300 0.525194
Si Si3 0.465042 0.208355 0.342583
Si Si4 0.998167 0.210303 0.229939
Si Si5 0.894817 0.204464 0.706572
Si Si6 0.184071 0.801448 0.901033
Si Si7 0.869460 0.302859 0.528206
Si Si8 0.471663 0.710563 0.082113
O O1 0.724399 0.500000 0.038084
O O2 0.926077 0.711913 0.870879
O O3 0.777231 0.803076 0.052839
O O4 0.616228 0.769780 0.042822
O O5 0.500000 0.730986 0.500000
O O6 0.409484 0.726874 0.437703
O O7 0.188358 0.737147 0.649783
O O8 0.372493 0.000000 0.521958
O O9 0.648827 0.277041 0.222209
O O10 0.315556 0.237254 0.381499
O O11 0.481690 0.000000 0.336754
O O12 0.099636 0.264344 0.229761
O O13 0.006293 0.000000 0.220029
O O14 0.707305 0.232140 0.793073
O O15 0.028261 0.295724 0.590077
O O16 0.938828 0.000000 0.680886
O O17 0.168068 0.000000 0.887108
O O18 0.000000 0.719303 0.000000
O O19 0.844345 0.500000 0.563017
O O20 0.000000 0.217869 0.500000
O O21 0.475478 0.500000 0.078424
O O22 0.500000 0.773921 0.000000
#
# Coordination Sequence:
#
# PCOD9150630 Si02
#       8
#     4   4   4   4   4   4   4   4
#     4  11  24  40  61  87 123 166 209 253 302 364
#     4   9  18  34  62  93 119 151 189 244 309 364
#     4  10  21  41  65  94 125 156 205 258 306 362
#     4  10  20  36  60  90 122 153 199 253 307 366
#     4  11  22  37  60  89 121 156 200 257 308 359
#     4  10  24  44  67  92 122 163 211 263 314 366
#     4  11  25  42  61  86 121 167 208 247 305 374
#     4  10  21  38  57  83 122 164 199 239 298 367
#
# _framework density 22.465415
#
# number of rings (size 3 to 8) (size 9 to 14) (size 15 to 20)
#    0.000    1.750    2.500    1.125    3.500    3.500 
#    0.000    0.000    0.000    0.750    0.000    0.000 
#    0.000    0.000    0.000    0.000    0.000    0.000 
#
# Total GULP energy -178757.848323 kJ/mol
# GULP energy per Si atom -5586.182760 kJ/mol
# Density = 2.241428 g / cm^3
# Si number density = 22.465415 Si / 1000 Ang^3
#
#
#
# Elastic Constant Matrix: (Units=GPa)
#
#
# Indices 1 2 3 4 5 6 
#
# 1 85.5249 -1.6417 28.1109 0.0000 -26.2548 0.0000
# 2 -1.6417 41.9418 -7.4092 0.0000 -5.5864 0.0000
# 3 28.1109 -7.4092 134.9610 0.0000 -34.0916 0.0000
# 4 0.0000 0.0000 0.0000 40.1056 0.0000 -36.3295
# 5 -26.2548 -5.5864 -34.0916 0.0000 35.2381 0.0000
# 6 0.0000 0.0000 0.0000 -36.3295 0.0000 63.1684
#
#
#
# Elastic Compliance Matrix: (Units=1/GPa)
#
#
# Indices 1 2 3 4 5 6 
#
# 1 0.015353 0.002126 -0.000141 0.000000 0.011640 0.000000
# 2 0.002126 0.025646 0.003166 0.000000 0.008713 0.000000
# 3 -0.000141 0.003166 0.010208 0.000000 0.010272 0.000000
# 4 0.000000 0.000000 0.000000 0.052051 0.000000 0.029936
# 5 0.011640 0.008713 0.010272 0.000000 0.048370 0.000000
# 6 0.000000 0.000000 0.000000 0.029936 0.000000 0.033047
#
#
# Mechanical properties :
#
#
# Convention : Reuss Voigt Hill
#
# Bulk Modulus (GPa) = 16.25785 33.39419 24.82602
# Shear Modulus (GPa) = 25.65748 43.92694 34.79221
#
# Velocity S-wave (km/s) = 3.38315 4.42669 3.93962
# Velocity P-wave (km/s) = 4.74483 6.40503 5.63639
#
# Compressibility (1/GPa) = 0.06150874
#
# Stress axis : x y z
#
# Youngs Moduli (GPa) = 65.13458 38.99315 97.96694
#
# Poissons Ratio (x) = -0.08291 0.01380
# Poissons Ratio (y) = -0.13850 -0.31015
# Poissons Ratio (z) = 0.00917 -0.12345
#
# Static dielectric constant tensor:
#      x y z
#    x 1.831890 0.000000 -0.030460 
#    y 0.000000 1.862310 0.000000 
#    z -0.030460 0.000000 1.820950 
# 
# From -- ./inp_files/89570.got.cif
#   From: 2010.05.17/outbox.cif.g08.bks.cpg/sg10_45_cif.got.tgz:89570.got - 2010.06.03 11:33:40.
