data_PCOD9150177
_publ_section_title
;
Structure prediction by ZEFSAII (Michael W. Deem and Ramdas Pophale) SiO2 
 PCOD9150177
Probable space group: P 2/M
;
_chemical_formula_sum "Si O2"
_cell_formula_units_Z 26
_cell_length_a 28.813737
_cell_length_b 7.514987
_cell_length_c 12.114735
_cell_angle_alpha 90.000000
_cell_angle_beta 157.859704
_cell_angle_gamma 90.000000
_cell_volume 988.644117
_symmetry_space_group_name_H-M "P 2/M"
_symmetry_group_IT_number 10
_symmetry_cell_setting 'monoclinic'
loop_
_space_group_symop_operation_xyz
x,y,z
-x,y,-z
-x,-y,-z
x,-y,z
loop_
_atom_site_type_symbol
_atom_site_label
_atom_site_fract_x
_atom_site_fract_y
_atom_site_fract_z
Si Si1 0.908485 0.209010 0.640951
Si Si2 0.493334 0.801255 0.854285
Si Si3 0.741829 0.292871 0.458392
Si Si4 0.502171 0.500000 0.311750
Si Si5 0.832889 0.295864 0.888365
Si Si6 0.138844 0.200168 0.808187
Si Si7 0.323260 0.786407 0.032000
O O1 0.868915 0.276431 0.673558
O O2 0.791908 0.240394 0.304959
O O3 0.027697 0.292037 0.848968
O O4 0.932277 0.000000 0.700924
O O5 0.641898 0.808063 0.166427
O O6 0.450621 0.655911 0.673529
O O7 0.445329 0.000000 0.733484
O O8 0.500000 0.749929 0.000000
O O9 0.706908 0.500000 0.381368
O O10 0.754351 0.229099 0.611244
O O11 0.432876 0.658414 0.234244
O O12 0.802715 0.500000 0.843610
O O13 0.826326 0.194770 0.987573
O O14 0.256006 0.272425 0.998763
O O15 0.000000 0.283142 0.500000
O O16 0.121868 0.000000 0.723963
O O17 0.355494 0.000000 0.106522
#
# Coordination Sequence:
#
# PCOD9150177 Si02
#       7
#     4   4   4   2   4   4   4
#     4  11  20  33  51  75 110 152 193 232 279 329
#     4  11  23  39  63  92 117 145 183 228 288 356
#     4  11  22  38  54  79 116 149 187 233 284 348
#     4  12  21  36  61  83 119 150 178 234 292 339
#     4  11  24  34  51  78 112 154 197 237 280 331
#     4  10  20  36  53  73 108 153 204 245 279 324
#     4  10  21  34  54  83 113 152 199 240 274 329
#
# _framework density 26.298646000000002
#
# number of rings (size 3 to 8) (size 9 to 14) (size 15 to 20)
#    0.000    1.231    3.846    2.538    2.154    4.615 
#    0.000    0.000    0.000    0.000    0.000    2.154 
#    0.000    4.923    0.000    0.000    0.000    0.000 
#
# Total GULP energy -145020.610776 kJ/mol
# GULP energy per Si atom -5577.715799 kJ/mol
# Density = 2.623879 g / cm^3
# Si number density = 26.298646 Si / 1000 Ang^3
#
#
#
# Elastic Constant Matrix: (Units=GPa)
#
#
# Indices 1 2 3 4 5 6 
#
# 1 180.3062 61.7816 11.5421 0.0000 9.0546 0.0000
# 2 61.7816 150.6337 23.9116 0.0000 5.7603 0.0000
# 3 11.5421 23.9116 67.7299 0.0000 -0.1689 0.0000
# 4 0.0000 0.0000 0.0000 13.2475 0.0000 9.3491
# 5 9.0546 5.7603 -0.1689 0.0000 37.7486 0.0000
# 6 0.0000 0.0000 0.0000 9.3491 0.0000 41.2684
#
#
#
# Elastic Compliance Matrix: (Units=1/GPa)
#
#
# Indices 1 2 3 4 5 6 
#
# 1 0.006506 -0.002592 -0.000196 0.000000 -0.001166 0.000000
# 2 -0.002592 0.008111 -0.002423 0.000000 -0.000627 0.000000
# 3 -0.000196 -0.002423 0.015655 0.000000 0.000487 0.000000
# 4 0.000000 0.000000 0.000000 0.089851 0.000000 -0.020355
# 5 -0.001166 -0.000627 0.000487 0.000000 0.026868 0.000000
# 6 0.000000 0.000000 0.000000 -0.020355 0.000000 0.028843
#
#
# Mechanical properties :
#
#
# Convention : Reuss Voigt Hill
#
# Bulk Modulus (GPa) = 50.38563 65.90448 58.14506
# Shear Modulus (GPa) = 25.92386 38.54855 32.23621
#
# Velocity S-wave (km/s) = 3.14307 3.83273 3.50490
# Velocity P-wave (km/s) = 5.68968 6.68587 6.20779
#
# Compressibility (1/GPa) = 0.01984693
#
# Stress axis : x y z
#
# Youngs Moduli (GPa) = 153.71531 123.29667 63.87878
#
# Poissons Ratio (x) = 0.31964 0.01254
# Poissons Ratio (y) = 0.39850 0.15479
# Poissons Ratio (z) = 0.03017 0.29876
#
# Static dielectric constant tensor:
#      x y z
#    x 2.158620 0.000000 0.070080 
#    y 0.000000 1.989050 0.000000 
#    z 0.070080 0.000000 2.159780 
# 
# From -- ./inp_files/57479.got.cif
#   From: 2010.05.17/outbox.cif.g08.bks.cpg/sg10_29_cif.got.tgz:57479.got - 2010.06.03 11:33:40.
