data_PCOD9150220
_publ_section_title
;
Structure prediction by ZEFSAII (Michael W. Deem and Ramdas Pophale) SiO2 
 PCOD9150220
Probable space group: P 2/M
;
_chemical_formula_sum "Si O2"
_cell_formula_units_Z 32
_cell_length_a 20.773681
_cell_length_b 9.053647
_cell_length_c 22.346533
_cell_angle_alpha 90.000000
_cell_angle_beta 25.132982
_cell_angle_gamma 90.000000
_cell_volume 1785.050610
_symmetry_space_group_name_H-M "P 2/M"
_symmetry_group_IT_number 10
_symmetry_cell_setting 'monoclinic'
loop_
_space_group_symop_operation_xyz
x,y,z
-x,y,-z
-x,-y,-z
x,-y,z
loop_
_atom_site_type_symbol
_atom_site_label
_atom_site_fract_x
_atom_site_fract_y
_atom_site_fract_z
Si Si1 0.160676 0.822255 0.836860
Si Si2 0.468730 0.329086 0.598019
Si Si3 0.263249 0.330678 0.207193
Si Si4 0.331881 0.673553 0.008146
Si Si5 0.776712 0.176467 0.353659
Si Si6 0.074852 0.675215 0.545114
Si Si7 0.358214 0.174946 0.242202
Si Si8 0.979945 0.177362 0.749362
O O1 0.308737 0.751297 0.742733
O O2 0.170236 0.783838 0.758261
O O3 0.171506 0.000000 0.832790
O O4 0.000000 0.775903 0.000000
O O5 0.500000 0.320232 0.500000
O O6 0.458890 0.500000 0.623177
O O7 0.616419 0.253426 0.502026
O O8 0.297368 0.500000 0.197375
O O9 0.310559 0.315138 0.098317
O O10 0.342466 0.220182 0.185765
O O11 0.081916 0.308981 0.359837
O O12 0.335598 0.500000 0.990389
O O13 0.185888 0.752194 0.102723
O O14 0.487976 0.754181 0.862129
O O15 0.906289 0.212185 0.292304
O O16 0.752639 0.000000 0.374630
O O17 0.099715 0.500000 0.531871
O O18 0.214318 0.751046 0.395050
O O19 0.045761 0.752176 0.633263
O O20 0.357730 0.000000 0.249798
O O21 0.967995 0.000000 0.753444
#
# Coordination Sequence:
#
# PCOD9150220 Si02
#       8
#     4   4   4   4   4   4   4   4
#     4   9  17  31  52  78 108 140 171 204 250 305
#     4   9  17  29  48  75 104 134 170 211 248 286
#     4   9  19  35  54  75 100 133 171 210 259 320
#     4  10  21  37  55  74 102 140 176 211 258 316
#     4   9  18  33  54  77 102 136 172 208 252 303
#     4  10  21  37  55  74 101 136 171 210 260 316
#     4  12  23  33  51  79 106 132 168 217 266 309
#     4  10  20  36  56  77 101 131 174 221 261 305
#
# _framework density 17.926662
#
# number of rings (size 3 to 8) (size 9 to 14) (size 15 to 20)
#    0.000    2.250    0.000    4.125    0.000    8.750 
#    0.000    1.250    0.000    6.000    0.000    0.000 
#    0.000    0.000    0.000    0.000    0.000    0.000 
#
# Total GULP energy -178621.831579 kJ/mol
# GULP energy per Si atom -5581.932237 kJ/mol
# Density = 1.788586 g / cm^3
# Si number density = 17.926662 Si / 1000 Ang^3
#
#
#
# Elastic Constant Matrix: (Units=GPa)
#
#
# Indices 1 2 3 4 5 6 
#
# 1 61.9141 44.3121 30.2827 0.0000 -27.2543 0.0000
# 2 44.3121 97.5310 63.1124 0.0000 -26.7271 0.0000
# 3 30.2827 63.1124 131.7705 0.0000 -29.3387 0.0000
# 4 0.0000 0.0000 0.0000 -4.4496 0.0000 29.1980
# 5 -27.2543 -26.7271 -29.3387 0.0000 24.2776 0.0000
# 6 0.0000 0.0000 0.0000 29.1980 0.0000 -11.1944
#
#
#
# Elastic Compliance Matrix: (Units=1/GPa)
#
#
# Indices 1 2 3 4 5 6 
#
# 1 0.036629 -0.009531 0.004058 0.000000 0.035531 0.000000
# 2 -0.009531 0.019648 -0.006548 0.000000 0.003017 0.000000
# 3 0.004058 -0.006548 0.012589 0.000000 0.012561 0.000000
# 4 0.000000 0.000000 0.000000 0.013946 0.000000 0.036374
# 5 0.035531 0.003017 0.012561 0.000000 0.099579 0.000000
# 6 0.000000 0.000000 0.000000 0.036374 0.000000 0.005543
#
#
# Mechanical properties :
#
#
# Convention : Reuss Voigt Hill
#
# Bulk Modulus (GPa) = 22.30976 62.95890 42.63433
# Shear Modulus (GPa) = 22.03458 11.96061 16.99760
#
# Velocity S-wave (km/s) = 3.50973 2.58582 3.08258
# Velocity P-wave (km/s) = 5.37553 6.64167 6.04186
#
# Compressibility (1/GPa) = 0.04482343
#
# Stress axis : x y z
#
# Youngs Moduli (GPa) = 27.30112 50.89688 79.43268
#
# Poissons Ratio (x) = 0.48509 -0.32235
# Poissons Ratio (y) = 0.26020 0.52015
# Poissons Ratio (z) = -0.11079 0.33329
#
# Static dielectric constant tensor:
#      x y z
#    x 1.604380 0.000000 0.004170 
#    y 0.000000 1.594050 0.000000 
#    z 0.004170 0.000000 1.620420 
# 
# From -- ./inp_files/93866.got.cif
#   From: 2010.05.17/outbox.cif.g08.bks.cpg/sg10_47_cif.got.tgz:93866.got - 2010.06.03 11:33:40.
