data_PCOD9150533
_publ_section_title
;
Structure prediction by ZEFSAII (Michael W. Deem and Ramdas Pophale) SiO2 
 PCOD9150533
Probable space group: P 2/M
;
_chemical_formula_sum "Si O2"
_cell_formula_units_Z 28
_cell_length_a 23.097320
_cell_length_b 13.546414
_cell_length_c 9.892845
_cell_angle_alpha 90.000000
_cell_angle_beta 28.820819
_cell_angle_gamma 90.000000
_cell_volume 1492.172730
_symmetry_space_group_name_H-M "P 2/M"
_symmetry_group_IT_number 10
_symmetry_cell_setting 'monoclinic'
loop_
_space_group_symop_operation_xyz
x,y,z
-x,y,-z
-x,-y,-z
x,-y,z
loop_
_atom_site_type_symbol
_atom_site_label
_atom_site_fract_x
_atom_site_fract_y
_atom_site_fract_z
Si Si1 0.136131 0.616434 0.170686
Si Si2 0.734744 0.696862 0.342908
Si Si3 0.586815 0.114001 0.203732
Si Si4 0.133122 0.385453 0.668522
Si Si5 0.588665 0.888036 0.694291
Si Si6 0.514211 0.616009 0.128703
Si Si7 0.738476 0.293947 0.830135
O O1 0.148404 0.500000 0.112571
O O2 0.224583 0.646989 0.111521
O O3 0.000000 0.632594 0.500000
O O4 0.169055 0.680212 0.971562
O O5 0.779675 0.644032 0.387220
O O6 0.693208 0.808110 0.461314
O O7 0.612455 0.643481 0.546103
O O8 0.500000 0.152359 0.500000
O O9 0.500556 0.114829 0.250443
O O10 0.619566 0.000000 0.166659
O O11 0.701463 0.183068 0.945757
O O12 0.153867 0.500000 0.585186
O O13 0.157524 0.314107 0.492438
O O14 0.000000 0.377747 0.000000
O O15 0.634808 0.000000 0.615975
O O16 0.500000 0.866111 0.000000
O O17 0.534900 0.500000 0.086963
O O18 0.500000 0.646530 0.000000
O O19 0.621187 0.665793 0.991584
#
# Coordination Sequence:
#
# PCOD9150533 Si02
#       7
#     4   4   4   4   4   4   4
#     4  11  25  42  58  81 117 161 204 239 278 337
#     4  12  21  37  60  84 119 152 191 243 291 345
#     4  10  21  38  58  84 117 152 189 230 288 359
#     4  11  23  39  60  83 112 160 208 235 274 345
#     4  10  20  36  59  88 118 149 187 232 290 356
#     4  11  21  33  54  89 125 151 178 233 304 356
#     4  12  22  37  62  86 118 151 193 245 290 343
#
# _framework density 18.764583999999999
#
# number of rings (size 3 to 8) (size 9 to 14) (size 15 to 20)
#    0.000    1.000    2.857    5.571    0.000    2.286 
#    0.000    1.429    0.000    5.143    0.000    0.000 
#    0.000    0.000    0.000    0.000    0.000    0.000 
#
# Total GULP energy -156424.513901 kJ/mol
# GULP energy per Si atom -5586.589782 kJ/mol
# Density = 1.872188 g / cm^3
# Si number density = 18.764584 Si / 1000 Ang^3
#
#
#
# Elastic Constant Matrix: (Units=GPa)
#
#
# Indices 1 2 3 4 5 6 
#
# 1 59.2208 11.1602 16.4327 0.0000 11.9918 0.0000
# 2 11.1602 117.0374 57.7269 0.0000 4.3275 0.0000
# 3 16.4327 57.7269 108.7977 0.0000 17.4324 0.0000
# 4 0.0000 0.0000 0.0000 33.3963 0.0000 4.1561
# 5 11.9918 4.3275 17.4324 0.0000 38.5881 0.0000
# 6 0.0000 0.0000 0.0000 4.1561 0.0000 10.3174
#
#
#
# Elastic Compliance Matrix: (Units=1/GPa)
#
#
# Indices 1 2 3 4 5 6 
#
# 1 0.018474 -0.000803 -0.001572 0.000000 -0.004941 0.000000
# 2 -0.000803 0.011699 -0.006378 0.000000 0.001819 0.000000
# 3 -0.001572 -0.006378 0.013605 0.000000 -0.004942 0.000000
# 4 0.000000 0.000000 0.000000 0.031524 0.000000 -0.012698
# 5 -0.004941 0.001819 -0.004942 0.000000 0.029479 0.000000
# 6 0.000000 0.000000 0.000000 -0.012698 0.000000 0.102039
#
#
# Mechanical properties :
#
#
# Convention : Reuss Voigt Hill
#
# Bulk Modulus (GPa) = 38.06443 50.63284 44.34864
# Shear Modulus (GPa) = 21.45154 29.77611 25.61383
#
# Velocity S-wave (km/s) = 3.38478 3.98782 3.69861
# Velocity P-wave (km/s) = 5.96699 6.94589 6.47496
#
# Compressibility (1/GPa) = 0.02627125
#
# Stress axis : x y z
#
# Youngs Moduli (GPa) = 54.12985 85.47529 73.50450
#
# Poissons Ratio (x) = 0.06867 0.11558
# Poissons Ratio (y) = 0.04349 0.46878
# Poissons Ratio (z) = 0.08512 0.54513
#
# Static dielectric constant tensor:
#      x y z
#    x 1.632070 0.000000 0.012240 
#    y 0.000000 1.670180 0.000000 
#    z 0.012240 0.000000 1.685470 
# 
# From -- ./inp_files/35248.got.cif
#   From: 2010.05.17/outbox.cif.g08.bks.cpg/sg10_18_cif.got.tgz:35248.got - 2010.06.03 11:33:40.
