data_PCOD9150552
_publ_section_title
;
Structure prediction by ZEFSAII (Michael W. Deem and Ramdas Pophale) SiO2 
 PCOD9150552
Probable space group: P 2/M
;
_chemical_formula_sum "Si O2"
_cell_formula_units_Z 32
_cell_length_a 20.114461
_cell_length_b 15.548298
_cell_length_c 13.859461
_cell_angle_alpha 90.000000
_cell_angle_beta 21.178696
_cell_angle_gamma 90.000000
_cell_volume 1565.953898
_symmetry_space_group_name_H-M "P 2/M"
_symmetry_group_IT_number 10
_symmetry_cell_setting 'monoclinic'
loop_
_space_group_symop_operation_xyz
x,y,z
-x,y,-z
-x,-y,-z
x,-y,z
loop_
_atom_site_type_symbol
_atom_site_label
_atom_site_fract_x
_atom_site_fract_y
_atom_site_fract_z
Si Si1 0.704253 0.903788 0.924515
Si Si2 0.216031 0.406140 0.234825
Si Si3 0.042856 0.780131 0.055438
Si Si4 0.346603 0.814155 0.358019
Si Si5 0.498116 0.670010 0.706257
Si Si6 0.848760 0.405209 0.120972
Si Si7 0.229435 0.195547 0.978610
Si Si8 0.178282 0.232135 0.391218
O O1 0.730276 0.881663 0.001821
O O2 0.804045 0.832537 0.723057
O O3 0.763182 0.000000 0.821979
O O4 0.490902 0.887629 0.186976
O O5 0.259618 0.500000 0.216921
O O6 0.234909 0.326326 0.280229
O O7 0.000000 0.405125 0.500000
O O8 0.350064 0.388591 0.962595
O O9 0.207354 0.822743 0.894520
O O10 0.862637 0.830954 0.331314
O O11 0.076969 0.678702 0.036594
O O12 0.000000 0.777001 0.000000
O O13 0.408735 0.731240 0.337794
O O14 0.319443 0.795228 0.282791
O O15 0.656024 0.621319 0.432649
O O16 0.383388 0.733293 0.792298
O O17 0.832657 0.500000 0.094991
O O18 0.000000 0.414095 0.000000
O O19 0.028965 0.229390 0.287087
#
# Coordination Sequence:
#
# PCOD9150552 Si02
#       8
#     4   4   4   4   4   4   4   4
#     4  11  23  40  66  96 126 160 200 259 324 380
#     4  11  21  35  56  85 128 176 213 249 298 366
#     4  10  20  41  63  86 116 169 206 250 327 367
#     4  10  21  36  61  88 125 158 204 254 313 377
#     4  11  19  37  57  89 122 168 206 263 304 355
#     4  10  20  36  59  91 125 160 220 276 307 356
#     4  10  22  37  63  90 121 159 208 255 307 381
#     4  11  20  38  59  89 129 166 207 252 304 366
#
# _framework density 20.434828
#
# number of rings (size 3 to 8) (size 9 to 14) (size 15 to 20)
#    0.000    1.500    6.250    1.125    0.000    2.500 
#    0.000    8.125    0.000    2.250    0.000    0.000 
#    0.000    0.000    0.000    0.000    0.000    0.000 
#
# Total GULP energy -178241.095030 kJ/mol
# GULP energy per Si atom -5570.034220 kJ/mol
# Density = 2.038832 g / cm^3
# Si number density = 20.434828 Si / 1000 Ang^3
#
#
#
# Elastic Constant Matrix: (Units=GPa)
#
#
# Indices 1 2 3 4 5 6 
#
# 1 122.1771 34.3174 1.0360 0.0000 -24.8271 0.0000
# 2 34.3174 83.4336 2.2926 0.0000 0.6409 0.0000
# 3 1.0360 2.2926 82.8299 0.0000 -18.0133 0.0000
# 4 0.0000 0.0000 0.0000 -27.2259 0.0000 -1.3816
# 5 -24.8271 0.6409 -18.0133 0.0000 23.1392 0.0000
# 6 0.0000 0.0000 0.0000 -1.3816 0.0000 2.4659
#
#
#
# Elastic Compliance Matrix: (Units=1/GPa)
#
#
# Indices 1 2 3 4 5 6 
#
# 1 0.013274 -0.005696 0.003760 0.000000 0.017327 0.000000
# 2 -0.005696 0.014449 -0.002100 0.000000 -0.008147 0.000000
# 3 0.003760 -0.002100 0.015618 0.000000 0.016250 0.000000
# 4 0.000000 0.000000 0.000000 -0.035714 0.000000 -0.020009
# 5 0.017327 -0.008147 0.016250 0.000000 0.074683 0.000000
# 6 0.000000 0.000000 0.000000 -0.020009 0.000000 0.394317
#
#
# Mechanical properties :
#
#
# Convention : Reuss Voigt Hill
#
# Bulk Modulus (GPa) = 28.35507 40.41474 34.38491
# Shear Modulus (GPa) = 10.07139 16.39548 13.23344
#
# Velocity S-wave (km/s) = 2.22244 2.83562 2.54754
# Velocity P-wave (km/s) = 4.52677 5.52642 5.05138
#
# Compressibility (1/GPa) = 0.03526706
#
# Stress axis : x y z
#
# Youngs Moduli (GPa) = 75.33647 69.21014 64.02837
#
# Poissons Ratio (x) = 0.39423 -0.24073
# Poissons Ratio (y) = 0.42912 0.13449
# Poissons Ratio (z) = -0.28324 0.14537
#
# Static dielectric constant tensor:
#      x y z
#    x 1.773900 0.000000 0.029370 
#    y 0.000000 1.721880 0.000000 
#    z 0.029370 0.000000 1.776750 
# 
# From -- ./inp_files/70757.got.cif
#   From: 2010.05.17/outbox.cif.g08.bks.cpg/sg10_36_cif.got.tgz:70757.got - 2010.06.03 11:33:40.
