data_PCOD9150077
_publ_section_title
;
Structure prediction by ZEFSAII (Michael W. Deem and Ramdas Pophale) SiO2 
 PCOD9150077
Probable space group: P 2/M
;
_chemical_formula_sum "Si O2"
_cell_formula_units_Z 26
_cell_length_a 27.486931
_cell_length_b 10.970508
_cell_length_c 9.658977
_cell_angle_alpha 90.000000
_cell_angle_beta 152.854163
_cell_angle_gamma 90.000000
_cell_volume 1328.903985
_symmetry_space_group_name_H-M "P 2/M"
_symmetry_group_IT_number 10
_symmetry_cell_setting 'monoclinic'
loop_
_space_group_symop_operation_xyz
x,y,z
-x,y,-z
-x,-y,-z
x,-y,z
loop_
_atom_site_type_symbol
_atom_site_label
_atom_site_fract_x
_atom_site_fract_y
_atom_site_fract_z
Si Si1 0.206197 0.769171 0.217485
Si Si2 0.392633 0.246777 0.143579
Si Si3 0.360755 0.500000 0.356069
Si Si4 0.415097 0.856267 0.896419
Si Si5 0.384937 0.500000 0.011820
Si Si6 0.720970 0.500000 0.555185
Si Si7 0.758675 0.247701 0.013977
Si Si8 0.976931 0.861553 0.606080
O O1 0.298181 0.825549 0.544235
O O2 0.211234 0.623562 0.254822
O O3 0.236217 0.799036 0.132419
O O4 0.089100 0.819527 0.953413
O O5 0.500000 0.264651 0.500000
O O6 0.343816 0.377234 0.977626
O O7 0.422978 0.189205 0.073273
O O8 0.313547 0.182540 0.052190
O O9 0.486411 0.500000 0.641144
O O10 0.358263 0.500000 0.515847
O O11 0.295981 0.380479 0.143454
O O12 0.431251 0.000000 0.940555
O O13 0.500000 0.802673 0.000000
O O14 0.345774 0.500000 0.754911
O O15 0.879235 0.232290 0.374172
O O16 0.000000 0.865035 0.500000
O O17 0.948442 0.000000 0.576866
#
# Coordination Sequence:
#
# PCOD9150077 Si02
#       8
#     4   4   2   4   2   2   4   4
#     4  10  20  40  63  90 122 157 204 248 303 360
#     4  12  23  38  61  89 124 158 198 246 309 366
#     4  10  20  35  58  94 125 161 196 244 301 368
#     4  11  25  41  59  85 120 163 207 252 299 356
#     4  12  21  36  60  88 127 162 198 239 305 377
#     4  10  21  32  61  95 119 155 201 252 297 357
#     4  10  21  36  60  93 122 154 200 252 300 357
#     4   9  19  37  63  88 116 160 208 253 298 352
#
# _framework density 19.564995
#
# number of rings (size 3 to 8) (size 9 to 14) (size 15 to 20)
#    0.000    1.538    3.077    2.308    2.154    2.154 
#    0.000    3.846    0.000    2.769    0.000    0.000 
#    0.000    0.000    0.000    0.000    0.000    0.000 
#
# Total GULP energy -144942.557165 kJ/mol
# GULP energy per Si atom -5574.713737 kJ/mol
# Density = 1.952046 g / cm^3
# Si number density = 19.564995 Si / 1000 Ang^3
#
#
#
# Elastic Constant Matrix: (Units=GPa)
#
#
# Indices 1 2 3 4 5 6 
#
# 1 95.2702 19.2890 49.8091 0.0000 -23.2268 0.0000
# 2 19.2890 39.2968 10.2671 0.0000 -15.7174 0.0000
# 3 49.8091 10.2671 114.3463 0.0000 -17.0247 0.0000
# 4 0.0000 0.0000 0.0000 -15.1631 0.0000 14.0912
# 5 -23.2268 -15.7174 -17.0247 0.0000 27.7410 0.0000
# 6 0.0000 0.0000 0.0000 14.0912 0.0000 2.2085
#
#
#
# Elastic Compliance Matrix: (Units=1/GPa)
#
#
# Indices 1 2 3 4 5 6 
#
# 1 0.015999 -0.003115 -0.005456 0.000000 0.008282 0.000000
# 2 -0.003115 0.033514 0.000866 0.000000 0.016912 0.000000
# 3 -0.005456 0.000866 0.011487 0.000000 0.002971 0.000000
# 4 0.000000 0.000000 0.000000 -0.009517 0.000000 0.060725
# 5 0.008282 0.016912 0.002971 0.000000 0.054387 0.000000
# 6 0.000000 0.000000 0.000000 0.060725 0.000000 0.065345
#
#
# Mechanical properties :
#
#
# Convention : Reuss Voigt Hill
#
# Bulk Modulus (GPa) = 21.93534 45.29374 33.61454
# Shear Modulus (GPa) = 24.77425 14.26049 19.51737
#
# Velocity S-wave (km/s) = 3.56231 2.70270 3.16185
# Velocity P-wave (km/s) = 5.30621 5.73935 5.52703
#
# Compressibility (1/GPa) = 0.04558854
#
# Stress axis : x y z
#
# Youngs Moduli (GPa) = 62.50395 29.83801 87.05618
#
# Poissons Ratio (x) = 0.09295 0.47501
# Poissons Ratio (y) = 0.19470 -0.07535
# Poissons Ratio (z) = 0.34104 -0.02583
#
# Static dielectric constant tensor:
#      x y z
#    x 1.732710 0.000000 -0.003040 
#    y 0.000000 1.727250 0.000000 
#    z -0.003040 0.000000 1.657930 
# 
# From -- ./inp_files/37562.got.cif
#   From: 2010.05.17/outbox.cif.g08.bks.cpg/sg10_19_cif.got.tgz:37562.got - 2010.06.03 11:33:40.
