data_PCOD9150550
_publ_section_title
;
Structure prediction by ZEFSAII (Michael W. Deem and Ramdas Pophale) SiO2 
 PCOD9150550
Probable space group: P 2/M
;
_chemical_formula_sum "Si O2"
_cell_formula_units_Z 32
_cell_length_a 17.185363
_cell_length_b 13.581604
_cell_length_c 21.249460
_cell_angle_alpha 90.000000
_cell_angle_beta 19.092163
_cell_angle_gamma 90.000000
_cell_volume 1622.270006
_symmetry_space_group_name_H-M "P 2/M"
_symmetry_group_IT_number 10
_symmetry_cell_setting 'monoclinic'
loop_
_space_group_symop_operation_xyz
x,y,z
-x,y,-z
-x,-y,-z
x,-y,z
loop_
_atom_site_type_symbol
_atom_site_label
_atom_site_fract_x
_atom_site_fract_y
_atom_site_fract_z
Si Si1 0.757507 0.115445 0.769621
Si Si2 0.997090 0.611518 0.157894
Si Si3 0.484519 0.884311 0.170122
Si Si4 0.494789 0.614247 0.303845
Si Si5 0.767806 0.109533 0.269274
Si Si6 0.206051 0.198046 0.495045
Si Si7 0.761119 0.680035 0.218046
Si Si8 0.992569 0.811720 0.224290
O O1 0.707797 0.145395 0.735559
O O2 0.952674 0.180773 0.655292
O O3 0.836423 0.000000 0.711343
O O4 0.500000 0.120083 0.000000
O O5 0.982204 0.500000 0.191538
O O6 0.975701 0.695274 0.225928
O O7 0.791258 0.633397 0.263726
O O8 0.254997 0.625648 0.926195
O O9 0.393124 0.859992 0.309264
O O10 0.517319 0.000000 0.136929
O O11 0.737591 0.835709 0.964899
O O12 0.427415 0.500000 0.352054
O O13 0.302793 0.690668 0.424263
O O14 0.553961 0.644731 0.330720
O O15 0.500000 0.107364 0.500000
O O16 0.771789 0.201944 0.219002
O O17 0.928378 0.136811 0.207259
O O18 0.827786 0.000000 0.199581
O O19 0.176737 0.159205 0.588689
O O20 0.000000 0.647433 0.000000
#
# Coordination Sequence:
#
# PCOD9150550 Si02
#       8
#     4   4   4   4   4   4   4   4
#     4  10  21  40  65  91 121 157 196 243 297 355
#     4   9  18  36  61  86 118 160 204 252 304 349
#     4  11  23  40  62  91 122 156 198 243 295 359
#     4  10  20  36  59  90 122 153 200 257 303 354
#     4  10  21  36  51  75 119 165 200 241 292 351
#     4  12  23  37  63  91 123 156 196 247 306 359
#     4   9  18  34  57  83 115 155 203 247 296 347
#     4  11  22  38  59  87 123 159 202 250 298 351
#
# _framework density 19.725446000000002
#
# number of rings (size 3 to 8) (size 9 to 14) (size 15 to 20)
#    0.000    1.750    2.500    2.250    0.000    4.750 
#    0.000    1.250    0.000    6.750    0.000    0.000 
#    0.000    0.000    0.000    0.000    0.000    0.000 
#
# Total GULP energy -178744.821302 kJ/mol
# GULP energy per Si atom -5585.775666 kJ/mol
# Density = 1.968055 g / cm^3
# Si number density = 19.725446 Si / 1000 Ang^3
#
#
#
# Elastic Constant Matrix: (Units=GPa)
#
#
# Indices 1 2 3 4 5 6 
#
# 1 62.3629 26.0424 20.1235 0.0000 -8.7633 0.0000
# 2 26.0424 76.3392 22.0467 0.0000 -26.5940 0.0000
# 3 20.1235 22.0467 70.6632 0.0000 -11.5551 0.0000
# 4 0.0000 0.0000 0.0000 39.7100 0.0000 -0.1967
# 5 -8.7633 -26.5940 -11.5551 0.0000 38.9070 0.0000
# 6 0.0000 0.0000 0.0000 -0.1967 0.0000 14.1745
#
#
#
# Elastic Compliance Matrix: (Units=1/GPa)
#
#
# Indices 1 2 3 4 5 6 
#
# 1 0.019619 -0.005818 -0.003888 0.000000 -0.000713 0.000000
# 2 -0.005818 0.019847 -0.002660 0.000000 0.011465 0.000000
# 3 -0.003888 -0.002660 0.016447 0.000000 0.002190 0.000000
# 4 0.000000 0.000000 0.000000 0.025184 0.000000 0.000349
# 5 -0.000713 0.011465 0.002190 0.000000 0.034029 0.000000
# 6 0.000000 0.000000 0.000000 0.000349 0.000000 0.070554
#
#
# Mechanical properties :
#
#
# Convention : Reuss Voigt Hill
#
# Bulk Modulus (GPa) = 32.07285 38.42117 35.24701
# Shear Modulus (GPa) = 22.64409 27.96847 25.30628
#
# Velocity S-wave (km/s) = 3.39184 3.76957 3.58568
# Velocity P-wave (km/s) = 5.62444 6.20213 5.92034
#
# Compressibility (1/GPa) = 0.03117902
#
# Stress axis : x y z
#
# Youngs Moduli (GPa) = 50.96981 50.38636 60.80053
#
# Poissons Ratio (x) = 0.29316 0.23642
# Poissons Ratio (y) = 0.29656 0.16175
# Poissons Ratio (z) = 0.19820 0.13405
#
# Static dielectric constant tensor:
#      x y z
#    x 1.723200 0.000000 0.023940 
#    y 0.000000 1.671340 0.000000 
#    z 0.023940 0.000000 1.718280 
# 
# From -- ./inp_files/90202.got.cif
#   From: 2010.05.17/outbox.cif.g08.bks.cpg/sg10_46_cif.got.tgz:90202.got - 2010.06.03 11:33:40.
