data_PCOD9150444
_publ_section_title
;
Structure prediction by ZEFSAII (Michael W. Deem and Ramdas Pophale) SiO2 
 PCOD9150444
Probable space group: P 2/M
;
_chemical_formula_sum "Si O2"
_cell_formula_units_Z 24
_cell_length_a 14.901178
_cell_length_b 10.716823
_cell_length_c 14.398988
_cell_angle_alpha 90.000000
_cell_angle_beta 150.125811
_cell_angle_gamma 90.000000
_cell_volume 1145.335439
_symmetry_space_group_name_H-M "P 2/M"
_symmetry_group_IT_number 10
_symmetry_cell_setting 'monoclinic'
loop_
_space_group_symop_operation_xyz
x,y,z
-x,y,-z
-x,-y,-z
x,-y,z
loop_
_atom_site_type_symbol
_atom_site_label
_atom_site_fract_x
_atom_site_fract_y
_atom_site_fract_z
Si Si1 0.088639 0.723211 0.978157
Si Si2 0.997759 0.000000 0.885948
Si Si3 0.083873 0.136278 0.473555
Si Si4 0.423107 0.000000 0.535695
Si Si5 0.494675 0.858295 0.101123
Si Si6 0.135100 0.638049 0.391149
Si Si7 0.466725 0.744458 0.262319
O O1 0.087186 0.868416 0.942504
O O2 0.963928 0.648442 0.795919
O O3 0.296871 0.684262 0.161575
O O4 0.000000 0.718806 0.000000
O O5 0.793132 0.000000 0.665966
O O6 0.000000 0.000000 0.000000
O O7 0.298488 0.132592 0.680584
O O8 0.050292 0.253923 0.378999
O O9 0.000000 0.149849 0.500000
O O10 0.027938 0.000000 0.385310
O O11 0.500000 0.000000 0.500000
O O12 0.487307 0.876761 0.647107
O O13 0.409907 0.772770 0.104453
O O14 0.419202 0.000000 0.031777
O O15 0.500000 0.811763 0.000000
O O16 0.112515 0.500000 0.410667
O O17 0.347681 0.667706 0.570340
#
# Coordination Sequence:
#
# PCOD9150444 Si02
#       7
#     4   2   4   2   4   4   4
#     4  11  24  41  64  95 131 172 225 274 334 392
#     4  10  20  36  58  97 128 159 213 274 329 383
#     4   9  20  39  66  96 127 164 215 271 335 388
#     4  12  20  36  65  95 137 166 218 277 336 385
#     4   9  18  33  55  90 128 159 203 256 321 390
#     4  11  26  44  65  94 132 178 223 271 329 399
#     4  11  23  40  64  93 131 175 215 274 333 394
#
# _framework density 20.954561000000002
#
# number of rings (size 3 to 8) (size 9 to 14) (size 15 to 20)
#    0.000    1.667    2.500    2.500    4.667    1.333 
#    0.000    0.833    0.000    2.000    0.000    0.000 
#    0.000    0.000    0.000    0.000    0.000    0.000 
#
# Total GULP energy -134096.493127 kJ/mol
# GULP energy per Si atom -5587.353880 kJ/mol
# Density = 2.090687 g / cm^3
# Si number density = 20.954561 Si / 1000 Ang^3
#
#
#
# Elastic Constant Matrix: (Units=GPa)
#
#
# Indices 1 2 3 4 5 6 
#
# 1 113.4174 41.3530 28.8916 0.0000 -0.5745 0.0000
# 2 41.3530 114.0741 21.6801 0.0000 -12.9144 0.0000
# 3 28.8916 21.6801 86.6005 0.0000 1.1854 0.0000
# 4 0.0000 0.0000 0.0000 -30.1576 0.0000 -4.3342
# 5 -0.5745 -12.9144 1.1854 0.0000 39.2922 0.0000
# 6 0.0000 0.0000 0.0000 -4.3342 0.0000 1.2115
#
#
#
# Elastic Compliance Matrix: (Units=1/GPa)
#
#
# Indices 1 2 3 4 5 6 
#
# 1 0.010776 -0.003495 -0.002708 0.000000 -0.000909 0.000000
# 2 -0.003495 0.010730 -0.001568 0.000000 0.003523 0.000000
# 3 -0.002708 -0.001568 0.012856 0.000000 -0.000943 0.000000
# 4 0.000000 0.000000 0.000000 -0.021900 0.000000 -0.078345
# 5 -0.000909 0.003523 -0.000943 0.000000 0.026623 0.000000
# 6 0.000000 0.000000 0.000000 -0.078345 0.000000 0.545125
#
#
# Mechanical properties :
#
#
# Convention : Reuss Voigt Hill
#
# Bulk Modulus (GPa) = 53.13408 55.32681 54.23044
# Shear Modulus (GPa) = 8.25045 16.88039 12.56542
#
# Velocity S-wave (km/s) = 1.98642 2.84134 2.45143
# Velocity P-wave (km/s) = 5.53832 6.10121 5.82657
#
# Compressibility (1/GPa) = 0.01882031
#
# Stress axis : x y z
#
# Youngs Moduli (GPa) = 92.79500 93.19585 77.78321
#
# Poissons Ratio (x) = 0.32571 0.21063
# Poissons Ratio (y) = 0.32431 0.12200
# Poissons Ratio (z) = 0.25128 0.14618
#
# Static dielectric constant tensor:
#      x y z
#    x 1.753130 0.000000 -0.012350 
#    y 0.000000 1.759460 0.000000 
#    z -0.012350 0.000000 1.736580 
# 
# From -- ./inp_files/67430.got.cif
#   From: 2010.05.17/outbox.cif.g08.bks.cpg/sg10_34_cif.got.tgz:67430.got - 2010.06.03 11:33:40.
