data_PCOD9150579
_publ_section_title
;
Structure prediction by ZEFSAII (Michael W. Deem and Ramdas Pophale) SiO2 
 PCOD9150579
Probable space group: P 2/M
;
_chemical_formula_sum "Si O2"
_cell_formula_units_Z 24
_cell_length_a 13.573977
_cell_length_b 13.246038
_cell_length_c 13.947057
_cell_angle_alpha 90.000000
_cell_angle_beta 30.734411
_cell_angle_gamma 90.000000
_cell_volume 1281.583557
_symmetry_space_group_name_H-M "P 2/M"
_symmetry_group_IT_number 10
_symmetry_cell_setting 'monoclinic'
loop_
_space_group_symop_operation_xyz
x,y,z
-x,y,-z
-x,-y,-z
x,-y,z
loop_
_atom_site_type_symbol
_atom_site_label
_atom_site_fract_x
_atom_site_fract_y
_atom_site_fract_z
Si Si1 0.390383 0.261230 0.490884
Si Si2 0.302940 0.793827 0.059431
Si Si3 0.700476 0.884494 0.734944
Si Si4 0.896744 0.118836 0.369687
Si Si5 0.621573 0.384103 0.133460
Si Si6 0.953622 0.386542 0.140046
O O1 0.500000 0.244430 0.500000
O O2 0.283823 0.162927 0.538113
O O3 0.517843 0.318955 0.304098
O O4 0.212191 0.333772 0.663568
O O5 0.273721 0.809441 0.197575
O O6 0.099765 0.824795 0.181720
O O7 0.478898 0.869407 0.887455
O O8 0.377197 0.684825 0.962705
O O9 0.838780 0.866457 0.529795
O O10 0.728741 0.000000 0.745048
O O11 0.921358 0.000000 0.332381
O O12 0.547524 0.500000 0.187891
O O13 0.845852 0.391583 0.973261
O O14 0.882986 0.500000 0.176982
O O15 0.000000 0.334329 0.000000
#
# Coordination Sequence:
#
# PCOD9150579 Si02
#       6
#     4   4   4   4   4   4
#     4  12  23  38  61  86 122 158 199 242 292 346
#     4  11  20  38  63  88 120 151 192 246 297 348
#     4  10  21  38  64  93 116 149 201 251 292 349
#     4  11  23  39  61  88 120 156 195 244 299 352
#     4  11  23  38  59  88 119 158 199 240 294 352
#     4  10  20  36  60  86 112 150 203 252 291 338
#
# _framework density 18.726831000000001
#
# number of rings (size 3 to 8) (size 9 to 14) (size 15 to 20)
#    0.000    1.167    5.000    3.000    0.000    2.333 
#    0.000    1.667    0.000    2.500    0.000    0.000 
#    0.000    0.000    0.000    0.000    0.000    0.000 
#
# Total GULP energy -133822.987741 kJ/mol
# GULP energy per Si atom -5575.957823 kJ/mol
# Density = 1.868421 g / cm^3
# Si number density = 18.726831 Si / 1000 Ang^3
#
#
#
# Elastic Constant Matrix: (Units=GPa)
#
#
# Indices 1 2 3 4 5 6 
#
# 1 71.2468 44.9383 28.1849 0.0000 -0.0406 0.0000
# 2 44.9383 92.1721 31.3913 0.0000 10.5261 0.0000
# 3 28.1849 31.3913 89.1861 0.0000 -6.8008 0.0000
# 4 0.0000 0.0000 0.0000 30.6614 0.0000 -0.5266
# 5 -0.0406 10.5261 -6.8008 0.0000 31.3107 0.0000
# 6 0.0000 0.0000 0.0000 -0.5266 0.0000 27.9073
#
#
#
# Elastic Compliance Matrix: (Units=1/GPa)
#
#
# Indices 1 2 3 4 5 6 
#
# 1 0.021365 -0.009633 -0.003165 0.000000 0.002579 0.000000
# 2 -0.009633 0.017553 -0.003645 0.000000 -0.006705 0.000000
# 3 -0.003165 -0.003645 0.013818 0.000000 0.004223 0.000000
# 4 0.000000 0.000000 0.000000 0.032625 0.000000 0.000616
# 5 0.002579 -0.006705 0.004223 0.000000 0.035113 0.000000
# 6 0.000000 0.000000 0.000000 0.000616 0.000000 0.035845
#
#
# Mechanical properties :
#
#
# Convention : Reuss Voigt Hill
#
# Bulk Modulus (GPa) = 50.37843 51.29267 50.83555
# Shear Modulus (GPa) = 25.53353 27.84857 26.69105
#
# Velocity S-wave (km/s) = 3.69653 3.86047 3.77939
# Velocity P-wave (km/s) = 6.72155 6.87898 6.80072
#
# Compressibility (1/GPa) = 0.01984977
#
# Stress axis : x y z
#
# Youngs Moduli (GPa) = 46.80511 56.96972 72.37143
#
# Poissons Ratio (x) = 0.54881 0.22902
# Poissons Ratio (y) = 0.45089 0.26381
# Poissons Ratio (z) = 0.14812 0.20767
#
# Static dielectric constant tensor:
#      x y z
#    x 1.708790 0.000000 0.003450 
#    y 0.000000 1.672120 0.000000 
#    z 0.003450 0.000000 1.659290 
# 
# From -- ./inp_files/67233.got.cif
#   From: 2010.05.17/outbox.cif.g08.bks.cpg/sg10_34_cif.got.tgz:67233.got - 2010.06.03 11:33:40.
