data_PCOD9150081
_publ_section_title
;
Structure prediction by ZEFSAII (Michael W. Deem and Ramdas Pophale) SiO2 
 PCOD9150081
Probable space group: P 2/M
;
_chemical_formula_sum "Si O2"
_cell_formula_units_Z 18
_cell_length_a 9.368357
_cell_length_b 7.568097
_cell_length_c 23.617968
_cell_angle_alpha 90.000000
_cell_angle_beta 142.865064
_cell_angle_gamma 90.000000
_cell_volume 1010.903397
_symmetry_space_group_name_H-M "P 2/M"
_symmetry_group_IT_number 10
_symmetry_cell_setting 'monoclinic'
loop_
_space_group_symop_operation_xyz
x,y,z
-x,y,-z
-x,-y,-z
x,-y,z
loop_
_atom_site_type_symbol
_atom_site_label
_atom_site_fract_x
_atom_site_fract_y
_atom_site_fract_z
Si Si1 0.022293 0.796872 0.068854
Si Si2 0.491389 0.297744 0.735767
Si Si3 0.751069 0.000000 0.547833
Si Si4 0.281508 0.000000 0.752242
Si Si5 0.586410 0.000000 0.963301
Si Si6 0.249901 0.703269 0.546724
O O1 0.763205 0.831749 0.011578
O O2 0.226337 0.705595 0.168031
O O3 0.114388 0.000000 0.089510
O O4 0.000000 0.715122 0.000000
O O5 0.404278 0.500000 0.714496
O O6 0.429553 0.237867 0.652765
O O7 0.373492 0.169751 0.745096
O O8 0.500000 0.000000 0.500000
O O9 0.756815 0.830160 0.508623
O O10 0.994884 0.000000 0.661131
O O11 0.399571 0.000000 0.852331
O O12 0.500000 0.000000 0.000000
O O13 0.298969 0.500000 0.546421
O O14 0.000000 0.710121 0.500000
#
# Coordination Sequence:
#
# PCOD9150081 Si02
#       6
#     4   4   2   2   2   4
#     4   9  16  33  54  84 112 140 190 240 276 322
#     4  11  20  33  64  91 111 149 193 245 292 328
#     4  12  26  37  61  90 118 163 192 234 297 359
#     4  12  20  40  56  84 120 142 202 240 278 360
#     4  10  20  35  59  82 114 165 180 226 297 341
#     4  10  21  38  60  89 117 148 198 249 287 334
#
# _framework density 17.805855999999999
#
# number of rings (size 3 to 8) (size 9 to 14) (size 15 to 20)
#    0.667    0.889    5.556    1.000    0.000    2.667 
#    0.000    0.000    0.000    2.667    0.000    0.000 
#    0.000    0.000    0.000    0.000    0.000    0.000 
#
# Total GULP energy -100254.679094 kJ/mol
# GULP energy per Si atom -5569.704394 kJ/mol
# Density = 1.776533 g / cm^3
# Si number density = 17.805856 Si / 1000 Ang^3
#
#
#
# Elastic Constant Matrix: (Units=GPa)
#
#
# Indices 1 2 3 4 5 6 
#
# 1 106.0935 27.5474 54.0351 0.0000 4.3496 0.0000
# 2 27.5474 73.7521 21.1418 0.0000 -5.1809 0.0000
# 3 54.0351 21.1418 168.9139 0.0000 9.4191 0.0000
# 4 0.0000 0.0000 0.0000 -82.5335 0.0000 121.0707
# 5 4.3496 -5.1809 9.4191 0.0000 22.7885 0.0000
# 6 0.0000 0.0000 0.0000 121.0707 0.0000 -127.7999
#
#
#
# Elastic Compliance Matrix: (Units=1/GPa)
#
#
# Indices 1 2 3 4 5 6 
#
# 1 0.012156 -0.003713 -0.003324 0.000000 -0.001791 0.000000
# 2 -0.003713 0.015567 -0.001021 0.000000 0.004670 0.000000
# 3 -0.003324 -0.001021 0.007256 0.000000 -0.002597 0.000000
# 4 0.000000 0.000000 0.000000 0.031092 0.000000 0.029455
# 5 -0.001791 0.004670 -0.002597 0.000000 0.046359 0.000000
# 6 0.000000 0.000000 0.000000 0.029455 0.000000 0.020079
#
#
# Mechanical properties :
#
#
# Convention : Reuss Voigt Hill
#
# Bulk Modulus (GPa) = 53.01599 61.57868 57.29733
# Shear Modulus (GPa) = 32.27608 -21.10663 5.58472
#
# Velocity S-wave (km/s) = 4.26216 -3.44666 1.77292
# Velocity P-wave (km/s) = 7.35258 4.33810 6.03654
#
# Compressibility (1/GPa) = 0.01886223
#
# Stress axis : x y z
#
# Youngs Moduli (GPa) = 82.26207 64.24004 137.81452
#
# Poissons Ratio (x) = 0.23855 0.45811
# Poissons Ratio (y) = 0.30547 0.14069
# Poissons Ratio (z) = 0.27345 0.06558
#
# Static dielectric constant tensor:
#      x y z
#    x 1.575730 0.000000 0.028990 
#    y 0.000000 1.634900 0.000000 
#    z 0.028990 0.000000 1.687760 
# 
# From -- ./inp_files/81816.got.cif
#   From: 2010.05.17/outbox.cif.g08.bks.cpg/sg10_41_cif.got.tgz:81816.got - 2010.06.03 11:33:40.
