data_PCOD9150551
_publ_section_title
;
Structure prediction by ZEFSAII (Michael W. Deem and Ramdas Pophale) SiO2 
 PCOD9150551
Probable space group: P 2/M
;
_chemical_formula_sum "Si O2"
_cell_formula_units_Z 28
_cell_length_a 9.963731
_cell_length_b 11.457736
_cell_length_c 14.447905
_cell_angle_alpha 90.000000
_cell_angle_beta 121.544441
_cell_angle_gamma 90.000000
_cell_volume 1405.674814
_symmetry_space_group_name_H-M "P 2/M"
_symmetry_group_IT_number 10
_symmetry_cell_setting 'monoclinic'
loop_
_space_group_symop_operation_xyz
x,y,z
-x,y,-z
-x,-y,-z
x,-y,z
loop_
_atom_site_type_symbol
_atom_site_label
_atom_site_fract_x
_atom_site_fract_y
_atom_site_fract_z
Si Si1 0.530198 0.214595 0.264000
Si Si2 0.825021 0.129560 0.263907
Si Si3 0.603090 0.636871 0.951122
Si Si4 0.873085 0.796134 0.078428
Si Si5 0.807487 0.871540 0.848670
Si Si6 0.365916 0.364984 0.527449
Si Si7 0.995215 0.632758 0.610308
O O1 0.657568 0.138307 0.255208
O O2 0.462633 0.306604 0.165500
O O3 0.372891 0.149677 0.240992
O O4 0.611851 0.280152 0.378073
O O5 0.815022 0.140131 0.149397
O O6 0.913833 0.250880 0.323864
O O7 0.894239 0.000000 0.311063
O O8 0.587840 0.500000 0.939763
O O9 0.500000 0.681196 0.000000
O O10 0.781020 0.675294 0.035337
O O11 0.061859 0.785746 0.146164
O O12 0.825614 0.862165 0.966517
O O13 0.857205 0.000000 0.836088
O O14 0.500000 0.340965 0.500000
O O15 0.385574 0.500000 0.564953
O O16 0.187578 0.355492 0.426456
O O17 0.051192 0.500000 0.658464
O O18 0.000000 0.633285 0.500000
#
# Coordination Sequence:
#
# PCOD9150551 Si02
#       7
#     4   4   4   4   4   4   4
#     4  11  22  38  60  90 121 158 200 251 308 365
#     4  12  24  38  62  95 126 158 205 256 304 361
#     4  10  20  36  59  90 123 158 199 248 302 357
#     4  10  21  39  59  86 118 162 203 242 296 359
#     4  10  21  39  60  81 119 164 199 239 298 368
#     4  10  22  42  64  87 117 158 207 257 307 369
#     4  10  22  42  66  89 117 158 204 250 309 370
#
# _framework density 19.919257999999999
#
# number of rings (size 3 to 8) (size 9 to 14) (size 15 to 20)
#    0.000    1.571    2.857    2.571    2.000    1.429 
#    0.000    8.571    0.000    2.143    0.000    0.000 
#    0.000    0.000    0.000    0.000    0.000    0.000 
#
# Total GULP energy -156150.510929 kJ/mol
# GULP energy per Si atom -5576.803962 kJ/mol
# Density = 1.987392 g / cm^3
# Si number density = 19.919258 Si / 1000 Ang^3
#
#
#
# Elastic Constant Matrix: (Units=GPa)
#
#
# Indices 1 2 3 4 5 6 
#
# 1 102.1379 24.2599 12.5587 0.0000 12.6982 0.0000
# 2 24.2599 101.7408 32.3659 0.0000 7.4090 0.0000
# 3 12.5587 32.3659 34.8406 0.0000 3.4643 0.0000
# 4 0.0000 0.0000 0.0000 19.9923 0.0000 18.6758
# 5 12.6982 7.4090 3.4643 0.0000 28.5712 0.0000
# 6 0.0000 0.0000 0.0000 18.6758 0.0000 35.4001
#
#
#
# Elastic Compliance Matrix: (Units=1/GPa)
#
#
# Indices 1 2 3 4 5 6 
#
# 1 0.010953 -0.001679 -0.001971 0.000000 -0.004194 0.000000
# 2 -0.001679 0.014332 -0.012565 0.000000 -0.001447 0.000000
# 3 -0.001971 -0.012565 0.041170 0.000000 -0.000858 0.000000
# 4 0.000000 0.000000 0.000000 0.098622 0.000000 -0.052029
# 5 -0.004194 -0.001447 -0.000858 0.000000 0.037343 0.000000
# 6 0.000000 0.000000 0.000000 -0.052029 0.000000 0.055697
#
#
# Mechanical properties :
#
#
# Convention : Reuss Voigt Hill
#
# Bulk Modulus (GPa) = 29.39027 41.89869 35.64448
# Shear Modulus (GPa) = 16.56233 28.09505 22.32869
#
# Velocity S-wave (km/s) = 2.88666 3.75967 3.35171
# Velocity P-wave (km/s) = 5.08892 6.31876 5.73689
#
# Compressibility (1/GPa) = 0.03402486
#
# Stress axis : x y z
#
# Youngs Moduli (GPa) = 91.29662 69.77534 24.28951
#
# Poissons Ratio (x) = 0.11717 0.04788
# Poissons Ratio (y) = 0.15332 0.30519
# Poissons Ratio (z) = 0.17997 0.87670
#
# Static dielectric constant tensor:
#      x y z
#    x 1.738300 0.000000 0.019690 
#    y 0.000000 1.703000 0.000000 
#    z 0.019690 0.000000 1.686990 
# 
# From -- ./inp_files/61273.got.cif
#   From: 2010.05.17/outbox.cif.g08.bks.cpg/sg10_31_cif.got.tgz:61273.got - 2010.06.03 11:33:40.
