data_PCOD9150657
_publ_section_title
;
Structure prediction by ZEFSAII (Michael W. Deem and Ramdas Pophale) SiO2 
 PCOD9150657
Probable space group: P 2/M
;
_chemical_formula_sum "Si O2"
_cell_formula_units_Z 28
_cell_length_a 16.678607
_cell_length_b 7.430080
_cell_length_c 14.833258
_cell_angle_alpha 90.000000
_cell_angle_beta 42.985275
_cell_angle_gamma 90.000000
_cell_volume 1253.295339
_symmetry_space_group_name_H-M "P 2/M"
_symmetry_group_IT_number 10
_symmetry_cell_setting 'monoclinic'
loop_
_space_group_symop_operation_xyz
x,y,z
-x,y,-z
-x,-y,-z
x,-y,z
loop_
_atom_site_type_symbol
_atom_site_label
_atom_site_fract_x
_atom_site_fract_y
_atom_site_fract_z
Si Si1 0.660556 0.296231 0.815042
Si Si2 0.990034 0.283010 0.253096
Si Si3 0.501498 0.282664 0.787512
Si Si4 0.744331 0.719152 0.939718
Si Si5 0.440929 0.000000 0.404223
Si Si6 0.881955 0.286140 0.154367
Si Si7 0.310446 0.000000 0.698690
Si Si8 0.892390 0.210096 0.528731
O O1 0.626202 0.500000 0.866219
O O2 0.555782 0.223281 0.839590
O O3 0.706618 0.215923 0.870817
O O4 0.771780 0.299293 0.656820
O O5 0.994626 0.500000 0.246308
O O6 0.125385 0.217959 0.142010
O O7 0.916842 0.227264 0.226475
O O8 0.927415 0.229501 0.396684
O O9 0.515618 0.500000 0.767996
O O10 0.564524 0.173753 0.656421
O O11 0.362874 0.238075 0.905630
O O12 0.750771 0.500000 0.930951
O O13 0.348678 0.000000 0.561632
O O14 0.569489 0.000000 0.344443
O O15 0.857400 0.500000 0.171629
O O16 0.770774 0.172345 0.214628
O O17 0.000000 0.254497 0.000000
O O18 0.000000 0.282452 0.500000
O O19 0.878157 0.000000 0.562375
#
# Coordination Sequence:
#
# PCOD9150657 Si02
#       8
#     4   4   4   4   2   4   2   4
#     4  10  20  36  61  87 122 171 214 257 312 370
#     4  10  21  37  62  92 122 165 210 256 321 386
#     4  10  23  42  66  94 126 167 220 272 315 371
#     4   9  18  37  61  88 127 168 209 257 310 374
#     4  11  28  48  67  97 125 173 225 268 330 396
#     4  10  24  45  73 106 134 165 212 271 338 403
#     4  11  27  50  70  93 134 171 212 269 340 397
#     4  11  23  36  52  86 131 171 211 259 313 378
#
# _framework density 22.341104000000001
#
# number of rings (size 3 to 8) (size 9 to 14) (size 15 to 20)
#    0.000    1.857    1.429    1.071    6.000    3.429 
#    2.571    2.143    0.000    0.000    0.000    0.000 
#    0.000    0.000    0.000    0.000    0.000    0.000 
#
# Total GULP energy -156561.356264 kJ/mol
# GULP energy per Si atom -5591.477009 kJ/mol
# Density = 2.229025 g / cm^3
# Si number density = 22.341104 Si / 1000 Ang^3
#
#
#
# Elastic Constant Matrix: (Units=GPa)
#
#
# Indices 1 2 3 4 5 6 
#
# 1 58.5800 14.2276 -1.5764 0.0000 -9.7346 0.0000
# 2 14.2276 90.3206 12.2396 0.0000 -6.3160 0.0000
# 3 -1.5764 12.2396 52.2967 0.0000 -14.8976 0.0000
# 4 0.0000 0.0000 0.0000 30.8080 0.0000 5.1364
# 5 -9.7346 -6.3160 -14.8976 0.0000 43.4211 0.0000
# 6 0.0000 0.0000 0.0000 5.1364 0.0000 15.8084
#
#
#
# Elastic Compliance Matrix: (Units=1/GPa)
#
#
# Indices 1 2 3 4 5 6 
#
# 1 0.018628 -0.002959 0.002573 0.000000 0.004628 0.000000
# 2 -0.002959 0.011931 -0.002855 0.000000 0.000092 0.000000
# 3 0.002573 -0.002855 0.022071 0.000000 0.007734 0.000000
# 4 0.000000 0.000000 0.000000 0.034318 0.000000 -0.011150
# 5 0.004628 0.000092 0.007734 0.000000 0.026735 0.000000
# 6 0.000000 0.000000 0.000000 -0.011150 0.000000 0.066880
#
#
# Mechanical properties :
#
#
# Convention : Reuss Voigt Hill
#
# Bulk Modulus (GPa) = 21.67054 27.88653 24.77853
# Shear Modulus (GPa) = 24.70009 29.76129 27.23069
#
# Velocity S-wave (km/s) = 3.32865 3.65380 3.49501
# Velocity P-wave (km/s) = 4.94915 5.50541 5.23468
#
# Compressibility (1/GPa) = 0.04614559
#
# Stress axis : x y z
#
# Youngs Moduli (GPa) = 53.68333 83.81376 45.30922
#
# Poissons Ratio (x) = 0.24803 -0.11656
# Poissons Ratio (y) = 0.15886 0.12937
# Poissons Ratio (z) = -0.13810 0.23931
#
# Static dielectric constant tensor:
#      x y z
#    x 1.827130 0.000000 -0.014440 
#    y 0.000000 1.836860 0.000000 
#    z -0.014440 0.000000 1.806400 
# 
# From -- ./inp_files/68625.got.cif
#   From: 2010.05.17/outbox.cif.g08.bks.cpg/sg10_35_cif.got.tgz:68625.got - 2010.06.03 11:33:40.
