data_PCOD9150839
_publ_section_title
;
Structure prediction by ZEFSAII (Michael W. Deem and Ramdas Pophale) SiO2 
 PCOD9150839
Probable space group: P 2/M
;
_chemical_formula_sum "Si O2"
_cell_formula_units_Z 24
_cell_length_a 12.063406
_cell_length_b 10.534264
_cell_length_c 16.065700
_cell_angle_alpha 90.000000
_cell_angle_beta 35.657189
_cell_angle_gamma 90.000000
_cell_volume 1190.127197
_symmetry_space_group_name_H-M "P 2/M"
_symmetry_group_IT_number 10
_symmetry_cell_setting 'monoclinic'
loop_
_space_group_symop_operation_xyz
x,y,z
-x,y,-z
-x,-y,-z
x,-y,z
loop_
_atom_site_type_symbol
_atom_site_label
_atom_site_fract_x
_atom_site_fract_y
_atom_site_fract_z
Si Si1 0.215695 0.147588 0.216445
Si Si2 0.481115 0.639942 0.268814
Si Si3 0.815223 0.853872 0.508729
Si Si4 0.158372 0.353184 0.832898
Si Si5 0.728266 0.144225 0.364786
Si Si6 0.583059 0.288494 0.029547
O O1 0.418377 0.179747 0.134286
O O2 0.037136 0.181499 0.382031
O O3 0.200551 0.000000 0.207367
O O4 0.227813 0.225934 0.122810
O O5 0.391982 0.500000 0.330136
O O6 0.328182 0.751196 0.368017
O O7 0.638332 0.653472 0.244310
O O8 0.588226 0.647626 0.114602
O O9 0.784437 0.852159 0.427387
O O10 0.784275 0.000000 0.556588
O O11 0.129918 0.500000 0.822086
O O12 0.168980 0.250612 0.753156
O O13 0.000000 0.325979 0.000000
O O14 0.500000 0.164303 0.500000
O O15 0.766503 0.000000 0.310619
O O16 0.500000 0.364311 0.000000
#
# Coordination Sequence:
#
# PCOD9150839 Si02
#       6
#     4   4   4   4   4   4
#     4   8  17  36  58  83 111 144 188 228 279 336
#     4  11  23  39  56  84 116 148 189 233 280 338
#     4  10  21  37  59  86 115 151 186 231 281 333
#     4  10  23  39  58  82 114 152 192 231 276 334
#     4  10  20  37  58  84 118 147 184 230 282 334
#     4   8  19  36  57  80 111 143 186 232 283 321
#
# _framework density 20.165911999999999
#
# number of rings (size 3 to 8) (size 9 to 14) (size 15 to 20)
#    1.000    1.333    1.667    1.000    2.333    3.667 
#    0.000    4.167    0.000    0.000    0.000    0.000 
#    0.000    0.000    0.000    0.000    0.000    0.000 
#
# Total GULP energy -133683.057526 kJ/mol
# GULP energy per Si atom -5570.127397 kJ/mol
# Density = 2.012001 g / cm^3
# Si number density = 20.165912 Si / 1000 Ang^3
#
#
#
# Elastic Constant Matrix: (Units=GPa)
#
#
# Indices 1 2 3 4 5 6 
#
# 1 34.5046 9.0925 5.7795 0.0000 11.3365 0.0000
# 2 9.0925 122.4589 76.3366 0.0000 11.4668 0.0000
# 3 5.7795 76.3366 99.8202 0.0000 3.2092 0.0000
# 4 0.0000 0.0000 0.0000 29.5267 0.0000 7.7405
# 5 11.3365 11.4668 3.2092 0.0000 33.5839 0.0000
# 6 0.0000 0.0000 0.0000 7.7405 0.0000 -1.0275
#
#
#
# Elastic Compliance Matrix: (Units=1/GPa)
#
#
# Indices 1 2 3 4 5 6 
#
# 1 0.032883 -0.000891 -0.000878 0.000000 -0.010712 0.000000
# 2 -0.000891 0.016243 -0.012239 0.000000 -0.004076 0.000000
# 3 -0.000878 -0.012239 0.019344 0.000000 0.002627 0.000000
# 4 0.000000 0.000000 0.000000 0.011384 0.000000 0.085765
# 5 -0.010712 -0.004076 0.002627 0.000000 0.034533 0.000000
# 6 0.000000 0.000000 0.000000 0.085765 0.000000 -0.327154
#
#
# Mechanical properties :
#
#
# Convention : Reuss Voigt Hill
#
# Bulk Modulus (GPa) = 24.71972 48.80009 36.75991
# Shear Modulus (GPa) = -29.19458 23.45497 -2.86980
#
# Velocity S-wave (km/s) = -3.80902 3.41413 -1.19423
# Velocity P-wave (km/s) = 2.65707 6.30821 4.04558
#
# Compressibility (1/GPa) = 0.04045352
#
# Stress axis : x y z
#
# Youngs Moduli (GPa) = 30.41099 61.56337 51.69466
#
# Poissons Ratio (x) = 0.05487 0.04538
# Poissons Ratio (y) = 0.02710 0.63271
# Poissons Ratio (z) = 0.02670 0.75350
#
# Static dielectric constant tensor:
#      x y z
#    x 1.769330 0.000000 -0.004610 
#    y 0.000000 1.698530 0.000000 
#    z -0.004610 0.000000 1.728540 
# 
# From -- ./inp_files/68769.got.cif
#   From: 2010.05.17/outbox.cif.g08.bks.cpg/sg10_35_cif.got.tgz:68769.got - 2010.06.03 11:33:40.
