data_PCOD9150118
_publ_section_title
;
Structure prediction by ZEFSAII (Michael W. Deem and Ramdas Pophale) SiO2 
 PCOD9150118
Probable space group: P 2/M
;
_chemical_formula_sum "Si O2"
_cell_formula_units_Z 32
_cell_length_a 26.426240
_cell_length_b 14.077261
_cell_length_c 9.250725
_cell_angle_alpha 90.000000
_cell_angle_beta 30.175925
_cell_angle_gamma 90.000000
_cell_volume 1729.819635
_symmetry_space_group_name_H-M "P 2/M"
_symmetry_group_IT_number 10
_symmetry_cell_setting 'monoclinic'
loop_
_space_group_symop_operation_xyz
x,y,z
-x,y,-z
-x,-y,-z
x,-y,z
loop_
_atom_site_type_symbol
_atom_site_label
_atom_site_fract_x
_atom_site_fract_y
_atom_site_fract_z
Si Si1 0.615879 0.112567 0.747801
Si Si2 0.718094 0.609072 0.210127
Si Si3 0.507132 0.387015 0.153110
Si Si4 0.198449 0.774457 0.194865
Si Si5 0.024754 0.259501 0.272208
Si Si6 0.171402 0.610066 0.755861
Si Si7 0.199772 0.889232 0.915425
Si Si8 0.692215 0.264100 0.782941
O O1 0.693897 0.131255 0.424616
O O2 0.659425 0.173493 0.770772
O O3 0.618169 0.000000 0.772182
O O4 0.500000 0.137830 0.000000
O O5 0.732384 0.500000 0.127019
O O6 0.599996 0.631536 0.508422
O O7 0.756433 0.614631 0.280836
O O8 0.776974 0.682397 0.965103
O O9 0.526503 0.500000 0.108576
O O10 0.500000 0.360943 0.000000
O O11 0.595584 0.332618 0.015238
O O12 0.270379 0.767907 0.153653
O O13 0.081422 0.774209 0.528392
O O14 0.211550 0.862461 0.054094
O O15 0.000000 0.287166 0.500000
O O16 0.068811 0.344882 0.069258
O O17 0.110891 0.177992 0.071935
O O18 0.163086 0.500000 0.732763
O O19 0.220064 0.676279 0.514022
O O20 0.175257 0.000000 0.955910
#
# Coordination Sequence:
#
# PCOD9150118 Si02
#       8
#     4   4   4   4   4   4   4   4
#     4  10  22  41  67  91 113 151 198 241 290 358
#     4  10  20  37  59  84 117 157 208 246 282 345
#     4  10  20  35  60  87 112 157 208 247 285 345
#     4  11  25  38  55  91 124 157 193 247 303 352
#     4  10  20  39  62  87 117 153 207 246 290 342
#     4  11  21  37  62  88 116 158 208 245 286 347
#     4  10  21  43  69  89 114 152 203 248 292 356
#     4  12  23  37  59  87 129 153 188 247 305 358
#
# _framework density 18.499037999999999
#
# number of rings (size 3 to 8) (size 9 to 14) (size 15 to 20)
#    0.000    1.500    5.000    0.750    1.750    5.500 
#    0.000    1.875    0.000    3.750    0.000    0.000 
#    0.000    0.000    0.000    0.000    0.000    0.000 
#
# Total GULP energy -178676.612945 kJ/mol
# GULP energy per Si atom -5583.644155 kJ/mol
# Density = 1.845693 g / cm^3
# Si number density = 18.499038 Si / 1000 Ang^3
#
#
#
# Elastic Constant Matrix: (Units=GPa)
#
#
# Indices 1 2 3 4 5 6 
#
# 1 81.5085 25.2979 22.9330 0.0000 -16.6311 0.0000
# 2 25.2979 72.7960 37.5212 0.0000 -2.4900 0.0000
# 3 22.9330 37.5212 90.7015 0.0000 -16.6209 0.0000
# 4 0.0000 0.0000 0.0000 27.0801 0.0000 -4.2847
# 5 -16.6311 -2.4900 -16.6209 0.0000 17.4587 0.0000
# 6 0.0000 0.0000 0.0000 -4.2847 0.0000 14.6197
#
#
#
# Elastic Compliance Matrix: (Units=1/GPa)
#
#
# Indices 1 2 3 4 5 6 
#
# 1 0.017203 -0.006025 0.001197 0.000000 0.016668 0.000000
# 2 -0.006025 0.019987 -0.008811 0.000000 -0.011278 0.000000
# 3 0.001197 -0.008811 0.017378 0.000000 0.016428 0.000000
# 4 0.000000 0.000000 0.000000 0.038723 0.000000 0.011349
# 5 0.016668 -0.011278 0.016428 0.000000 0.087187 0.000000
# 6 0.000000 0.000000 0.000000 0.011349 0.000000 0.071727
#
#
# Mechanical properties :
#
#
# Convention : Reuss Voigt Hill
#
# Bulk Modulus (GPa) = 36.64488 46.27892 41.46190
# Shear Modulus (GPa) = 17.32629 22.44863 19.88746
#
# Velocity S-wave (km/s) = 3.06372 3.48732 3.28236
# Velocity P-wave (km/s) = 5.68922 6.42545 6.06851
#
# Compressibility (1/GPa) = 0.02728894
#
# Stress axis : x y z
#
# Youngs Moduli (GPa) = 58.13005 50.03316 57.54468
#
# Poissons Ratio (x) = 0.30147 -0.06890
# Poissons Ratio (y) = 0.35025 0.50704
# Poissons Ratio (z) = -0.06960 0.44085
#
# Static dielectric constant tensor:
#      x y z
#    x 1.622390 0.000000 -0.009290 
#    y 0.000000 1.647770 0.000000 
#    z -0.009290 0.000000 1.656470 
# 
# From -- ./inp_files/36346.got.cif
#   From: 2010.05.17/outbox.cif.g08.bks.cpg/sg10_19_cif.got.tgz:36346.got - 2010.06.03 11:33:40.
