data_PCOD9150051
_publ_section_title
;
Structure prediction by ZEFSAII (Michael W. Deem and Ramdas Pophale) SiO2 
 PCOD9150051
Probable space group: P 2/M
;
_chemical_formula_sum "Si O2"
_cell_formula_units_Z 32
_cell_length_a 23.672292
_cell_length_b 13.345148
_cell_length_c 9.286680
_cell_angle_alpha 90.000000
_cell_angle_beta 145.029760
_cell_angle_gamma 90.000000
_cell_volume 1681.485593
_symmetry_space_group_name_H-M "P 2/M"
_symmetry_group_IT_number 10
_symmetry_cell_setting 'monoclinic'
loop_
_space_group_symop_operation_xyz
x,y,z
-x,y,-z
-x,-y,-z
x,-y,z
loop_
_atom_site_type_symbol
_atom_site_label
_atom_site_fract_x
_atom_site_fract_y
_atom_site_fract_z
Si Si1 0.117379 0.885559 0.272403
Si Si2 0.500131 0.613615 0.158361
Si Si3 0.100778 0.892699 0.796662
Si Si4 0.401185 0.269028 0.211578
Si Si5 0.296462 0.613447 0.253787
Si Si6 0.880220 0.279450 0.946891
Si Si7 0.948288 0.382539 0.551091
Si Si8 0.801646 0.804054 0.266414
O O1 0.150660 0.781471 0.261076
O O2 0.147628 0.866640 0.500569
O O3 0.151570 0.000000 0.304674
O O4 0.000000 0.885768 0.000000
O O5 0.461437 0.500000 0.062789
O O6 0.440901 0.665824 0.161991
O O7 0.612061 0.609291 0.446114
O O8 0.500000 0.661657 0.000000
O O9 0.179677 0.855942 0.847408
O O10 0.000000 0.899112 0.500000
O O11 0.127256 0.000000 0.913409
O O12 0.084673 0.813295 0.884461
O O13 0.500000 0.229023 0.500000
O O14 0.340686 0.332941 0.204963
O O15 0.316089 0.200693 0.965659
O O16 0.264818 0.500000 0.151888
O O17 0.209481 0.669946 0.154676
O O18 0.972427 0.355294 0.156975
O O19 0.921164 0.500000 0.503176
O O20 0.857877 0.304203 0.376119
O O21 0.000000 0.367241 0.500000
#
# Coordination Sequence:
#
# PCOD9150051 Si02
#       8
#     4   4   4   4   4   4   4   4
#     4  11  24  41  62  86 120 158 198 251 302 350
#     4   9  19  35  55  84 114 151 203 249 289 340
#     4  11  20  35  60  86 112 145 199 252 288 336
#     4  10  21  37  60  87 117 156 200 249 295 346
#     4  10  20  35  58  86 120 159 195 240 293 351
#     4  12  20  37  56  88 120 158 196 237 295 361
#     4  11  21  35  56  87 127 163 195 233 286 355
#     4  12  21  39  58  89 119 158 200 240 300 355
#
# _framework density 19.030791000000001
#
# number of rings (size 3 to 8) (size 9 to 14) (size 15 to 20)
#    0.000    1.250    5.000    1.500    1.750    5.500 
#    0.000    1.875    0.000    1.500    0.000    3.500 
#    0.000    0.000    0.000    0.000    0.000    0.000 
#
# Total GULP energy -178318.744700 kJ/mol
# GULP energy per Si atom -5572.460772 kJ/mol
# Density = 1.898748 g / cm^3
# Si number density = 19.030791 Si / 1000 Ang^3
#
#
#
# Elastic Constant Matrix: (Units=GPa)
#
#
# Indices 1 2 3 4 5 6 
#
# 1 50.2687 5.3617 26.0102 0.0000 4.5468 0.0000
# 2 5.3617 76.3703 15.7992 0.0000 9.2922 0.0000
# 3 26.0102 15.7992 70.3923 0.0000 6.4195 0.0000
# 4 0.0000 0.0000 0.0000 9.2000 0.0000 -0.7568
# 5 4.5468 9.2922 6.4195 0.0000 38.8626 0.0000
# 6 0.0000 0.0000 0.0000 -0.7568 0.0000 45.0440
#
#
#
# Elastic Compliance Matrix: (Units=1/GPa)
#
#
# Indices 1 2 3 4 5 6 
#
# 1 0.024678 0.000320 -0.009056 0.000000 -0.001468 0.000000
# 2 0.000320 0.014046 -0.003006 0.000000 -0.002899 0.000000
# 3 -0.009056 -0.003006 0.018341 0.000000 -0.001251 0.000000
# 4 0.000000 0.000000 0.000000 0.108846 0.000000 0.001829
# 5 -0.001468 -0.002899 -0.001251 0.000000 0.026803 0.000000
# 6 0.000000 0.000000 0.000000 0.001829 0.000000 0.022231
#
#
# Mechanical properties :
#
#
# Convention : Reuss Voigt Hill
#
# Bulk Modulus (GPa) = 29.78036 32.37483 31.07759
# Shear Modulus (GPa) = 20.02998 28.61200 24.32099
#
# Velocity S-wave (km/s) = 3.24775 3.88165 3.57876
# Velocity P-wave (km/s) = 5.45402 6.09413 5.78294
#
# Compressibility (1/GPa) = 0.03357918
#
# Stress axis : x y z
#
# Youngs Moduli (GPa) = 40.52232 71.19278 54.52164
#
# Poissons Ratio (x) = -0.02275 0.49377
# Poissons Ratio (y) = -0.01295 0.16391
# Poissons Ratio (z) = 0.36699 0.21403
#
# Static dielectric constant tensor:
#      x y z
#    x 1.719570 0.000000 -0.017280 
#    y 0.000000 1.698560 0.000000 
#    z -0.017280 0.000000 1.725440 
# 
# From -- ./inp_files/36406.got.cif
#   From: 2010.05.17/outbox.cif.g08.bks.cpg/sg10_19_cif.got.tgz:36406.got - 2010.06.03 11:33:40.
