data_PCOD9150837
_publ_section_title
;
Structure prediction by ZEFSAII (Michael W. Deem and Ramdas Pophale) SiO2 
 PCOD9150837
Probable space group: P 2/M
;
_chemical_formula_sum "Si O2"
_cell_formula_units_Z 32
_cell_length_a 13.054914
_cell_length_b 14.068129
_cell_length_c 9.577302
_cell_angle_alpha 90.000000
_cell_angle_beta 59.855675
_cell_angle_gamma 90.000000
_cell_volume 1521.075361
_symmetry_space_group_name_H-M "P 2/M"
_symmetry_group_IT_number 10
_symmetry_cell_setting 'monoclinic'
loop_
_space_group_symop_operation_xyz
x,y,z
-x,y,-z
-x,-y,-z
x,-y,z
loop_
_atom_site_type_symbol
_atom_site_label
_atom_site_fract_x
_atom_site_fract_y
_atom_site_fract_z
Si Si1 0.367205 0.886893 0.632896
Si Si2 0.727299 0.386932 0.520873
Si Si3 0.023201 0.708450 0.646485
Si Si4 0.412801 0.777971 0.862279
Si Si5 0.361216 0.391659 0.721681
Si Si6 0.896689 0.390027 0.961790
Si Si7 0.168828 0.887938 0.534464
Si Si8 0.330144 0.220358 0.229826
O O1 0.500000 0.854808 0.500000
O O2 0.341429 0.839078 0.798496
O O3 0.269619 0.866435 0.582355
O O4 0.371223 0.000000 0.646190
O O5 0.721999 0.500000 0.551901
O O6 0.862076 0.355355 0.392728
O O7 0.650265 0.366974 0.433854
O O8 0.693593 0.319530 0.673417
O O9 0.059859 0.818328 0.639927
O O10 0.000000 0.691472 0.500000
O O11 0.915075 0.676004 0.815792
O O12 0.432992 0.678212 0.770668
O O13 0.542974 0.819619 0.803640
O O14 0.347067 0.767095 0.053858
O O15 0.402159 0.500000 0.704997
O O16 0.228679 0.384373 0.876027
O O17 0.913664 0.500000 0.907384
O O18 0.000000 0.365223 0.000000
O O19 0.227467 0.850621 0.350418
O O20 0.143949 0.000000 0.549968
#
# Coordination Sequence:
#
# PCOD9150837 Si02
#       8
#     4   4   4   4   4   4   4   4
#     4  10  20  37  64  90 110 145 193 240 291 346
#     4  10  21  39  58  84 118 154 200 244 286 345
#     4  11  23  37  60  87 114 153 198 238 302 351
#     4  11  22  37  58  86 124 151 195 241 288 349
#     4  10  22  37  59  86 115 158 202 242 288 338
#     4  10  20  37  58  84 115 149 192 242 289 336
#     4  10  22  42  63  85 117 153 194 243 294 353
#     4  10  23  37  56  88 119 161 188 233 299 352
#
# _framework density 21.037748000000001
#
# number of rings (size 3 to 8) (size 9 to 14) (size 15 to 20)
#    0.000    1.750    2.500    1.875    3.500    2.750 
#    0.000    3.750    0.000    0.375    0.000    0.000 
#    0.000    0.000    0.000    0.000    0.000    0.000 
#
# Total GULP energy -178882.839660 kJ/mol
# GULP energy per Si atom -5590.088739 kJ/mol
# Density = 2.098986 g / cm^3
# Si number density = 21.037748 Si / 1000 Ang^3
#
#
#
# Elastic Constant Matrix: (Units=GPa)
#
#
# Indices 1 2 3 4 5 6 
#
# 1 38.4556 2.7424 14.9795 0.0000 8.5236 0.0000
# 2 2.7424 68.1752 46.4053 0.0000 16.1083 0.0000
# 3 14.9795 46.4053 135.9077 0.0000 19.7937 0.0000
# 4 0.0000 0.0000 0.0000 20.9266 0.0000 -8.6034
# 5 8.5236 16.1083 19.7937 0.0000 28.6743 0.0000
# 6 0.0000 0.0000 0.0000 -8.6034 0.0000 6.5895
#
#
#
# Elastic Compliance Matrix: (Units=1/GPa)
#
#
# Indices 1 2 3 4 5 6 
#
# 1 0.028736 0.002743 -0.002930 0.000000 -0.008060 0.000000
# 2 0.002743 0.020695 -0.006178 0.000000 -0.008177 0.000000
# 3 -0.002930 -0.006178 0.010182 0.000000 -0.002687 0.000000
# 4 0.000000 0.000000 0.000000 0.103158 0.000000 0.134685
# 5 -0.008060 -0.008177 -0.002687 0.000000 0.043719 0.000000
# 6 0.000000 0.000000 0.000000 0.134685 0.000000 0.327604
#
#
# Mechanical properties :
#
#
# Convention : Reuss Voigt Hill
#
# Bulk Modulus (GPa) = 21.32961 41.19920 31.26440
# Shear Modulus (GPa) = 8.88968 23.13219 16.01094
#
# Velocity S-wave (km/s) = 2.05785 3.31955 2.76172
# Velocity P-wave (km/s) = 3.97581 5.85820 5.00628
#
# Compressibility (1/GPa) = 0.04688318
#
# Stress axis : x y z
#
# Youngs Moduli (GPa) = 34.79929 48.32164 98.21729
#
# Poissons Ratio (x) = -0.13254 0.28776
# Poissons Ratio (y) = -0.09545 0.60675
# Poissons Ratio (z) = 0.10196 0.29851
#
# Static dielectric constant tensor:
#      x y z
#    x 1.797470 0.000000 -0.015230 
#    y 0.000000 1.749870 0.000000 
#    z -0.015230 0.000000 1.747460 
# 
# From -- ./inp_files/29476.got.cif
#   From: 2010.05.17/outbox.cif.g08.bks.cpg/sg10_15_cif.got.tgz:29476.got - 2010.06.03 11:33:40.
