data_PCOD9150595
_publ_section_title
;
Structure prediction by ZEFSAII (Michael W. Deem and Ramdas Pophale) SiO2 
 PCOD9150595
Probable space group: P 2/M
;
_chemical_formula_sum "Si O2"
_cell_formula_units_Z 32
_cell_length_a 26.361005
_cell_length_b 9.032779
_cell_length_c 21.407321
_cell_angle_alpha 90.000000
_cell_angle_beta 20.001633
_cell_angle_gamma 90.000000
_cell_volume 1743.537773
_symmetry_space_group_name_H-M "P 2/M"
_symmetry_group_IT_number 10
_symmetry_cell_setting 'monoclinic'
loop_
_space_group_symop_operation_xyz
x,y,z
-x,y,-z
-x,-y,-z
x,-y,z
loop_
_atom_site_type_symbol
_atom_site_label
_atom_site_fract_x
_atom_site_fract_y
_atom_site_fract_z
Si Si1 0.342875 0.676473 0.983902
Si Si2 0.648839 0.177649 0.290837
Si Si3 0.555084 0.822951 0.257917
Si Si4 0.641094 0.176687 0.691296
Si Si5 0.045304 0.677185 0.018461
Si Si6 0.325844 0.330055 0.217682
Si Si7 0.169907 0.168679 0.283741
Si Si8 0.775589 0.175772 0.401768
O O1 0.347548 0.500000 0.981000
O O2 0.357499 0.735899 0.896739
O O3 0.485661 0.744806 0.854402
O O4 0.202751 0.740440 0.183039
O O5 0.500000 0.222519 0.500000
O O6 0.617704 0.208043 0.253915
O O7 0.665560 0.000000 0.278935
O O8 0.796759 0.254258 0.145016
O O9 0.379865 0.785860 0.453145
O O10 0.566039 0.000000 0.233174
O O11 0.698575 0.245703 0.688953
O O12 0.744918 0.202307 0.510728
O O13 0.619917 0.000000 0.721720
O O14 0.053955 0.500000 0.012123
O O15 0.914466 0.736781 0.214261
O O16 0.000000 0.718662 0.000000
O O17 0.274834 0.500000 0.281061
O O18 0.252153 0.246244 0.245678
O O19 0.500000 0.331534 0.000000
O O20 0.000000 0.166061 0.500000
O O21 0.222647 0.000000 0.213984
O O22 0.800230 0.000000 0.364457
#
# Coordination Sequence:
#
# PCOD9150595 Si02
#       8
#     4   4   4   4   4   4   4   4
#     4  11  21  35  58  86 117 153 192 236 292 350
#     4  10  21  39  64  90 115 150 197 242 283 334
#     4   9  19  37  61  88 115 148 191 240 287 341
#     4  10  20  36  60  87 115 151 196 243 288 340
#     4  11  24  39  57  86 123 158 190 231 288 344
#     4  11  22  36  59  90 118 149 192 242 295 350
#     4  11  24  41  60  83 112 153 199 243 293 347
#     4   9  19  37  61  87 114 149 194 239 285 338
#
# _framework density 18.353487999999999
#
# number of rings (size 3 to 8) (size 9 to 14) (size 15 to 20)
#    0.000    1.750    1.250    4.125    0.000    6.750 
#    2.250    0.000    0.000    0.000    0.000    0.000 
#    0.000    0.000    0.000    0.000    0.000    0.000 
#
# Total GULP energy -178743.843048 kJ/mol
# GULP energy per Si atom -5585.745095 kJ/mol
# Density = 1.831171 g / cm^3
# Si number density = 18.353488 Si / 1000 Ang^3
#
#
#
# Elastic Constant Matrix: (Units=GPa)
#
#
# Indices 1 2 3 4 5 6 
#
# 1 113.9606 69.1972 61.8575 0.0000 7.9077 0.0000
# 2 69.1972 110.0871 64.2533 0.0000 11.1597 0.0000
# 3 61.8575 64.2533 120.7713 0.0000 11.0549 0.0000
# 4 0.0000 0.0000 0.0000 2.7275 0.0000 15.2052
# 5 7.9077 11.1597 11.0549 0.0000 23.1217 0.0000
# 6 0.0000 0.0000 0.0000 15.2052 0.0000 13.7996
#
#
#
# Elastic Compliance Matrix: (Units=1/GPa)
#
#
# Indices 1 2 3 4 5 6 
#
# 1 0.015402 -0.007377 -0.003982 0.000000 0.000197 0.000000
# 2 -0.007377 0.016931 -0.004928 0.000000 -0.003293 0.000000
# 3 -0.003982 -0.004928 0.013176 0.000000 -0.002559 0.000000
# 4 0.000000 0.000000 0.000000 -0.071294 0.000000 0.078556
# 5 0.000197 -0.003293 -0.002559 0.000000 0.045995 0.000000
# 6 0.000000 0.000000 0.000000 0.078556 0.000000 -0.014091
#
#
# Mechanical properties :
#
#
# Convention : Reuss Voigt Hill
#
# Bulk Modulus (GPa) = 77.31105 81.71498 79.51302
# Shear Modulus (GPa) = 116.27198 17.89718 67.08458
#
# Velocity S-wave (km/s) = 7.96800 3.12611 6.05233
# Velocity P-wave (km/s) = 11.26351 7.59273 9.60511
#
# Compressibility (1/GPa) = 0.01293476
#
# Stress axis : x y z
#
# Youngs Moduli (GPa) = 64.92623 59.06487 75.89843
#
# Poissons Ratio (x) = 0.43573 0.30223
# Poissons Ratio (y) = 0.47897 0.37400
# Poissons Ratio (z) = 0.25853 0.29105
#
# Static dielectric constant tensor:
#      x y z
#    x 1.617190 0.000000 0.007550 
#    y 0.000000 1.618660 0.000000 
#    z 0.007550 0.000000 1.610040 
# 
# From -- ./inp_files/86739.got.cif
#   From: 2010.05.17/outbox.cif.g08.bks.cpg/sg10_44_cif.got.tgz:86739.got - 2010.06.03 11:33:40.
