data_PCOD9150690
_publ_section_title
;
Structure prediction by ZEFSAII (Michael W. Deem and Ramdas Pophale) SiO2 
 PCOD9150690
Probable space group: P 2/M
;
_chemical_formula_sum "Si O2"
_cell_formula_units_Z 28
_cell_length_a 14.460243
_cell_length_b 8.760619
_cell_length_c 17.311427
_cell_angle_alpha 90.000000
_cell_angle_beta 39.623418
_cell_angle_gamma 90.000000
_cell_volume 1398.576206
_symmetry_space_group_name_H-M "P 2/M"
_symmetry_group_IT_number 10
_symmetry_cell_setting 'monoclinic'
loop_
_space_group_symop_operation_xyz
x,y,z
-x,y,-z
-x,-y,-z
x,-y,z
loop_
_atom_site_type_symbol
_atom_site_label
_atom_site_fract_x
_atom_site_fract_y
_atom_site_fract_z
Si Si1 0.538413 0.320642 0.272025
Si Si2 0.778134 0.320446 0.697883
Si Si3 0.645613 0.817788 0.356787
Si Si4 0.825474 0.821852 0.830091
Si Si5 0.104904 0.680405 0.698444
Si Si6 0.571010 0.325131 0.076349
Si Si7 0.222620 0.819453 0.465812
O O1 0.497368 0.500000 0.306048
O O2 0.632713 0.267253 0.283432
O O3 0.609190 0.304354 0.142131
O O4 0.393478 0.218830 0.364558
O O5 0.813225 0.500000 0.675129
O O6 0.838988 0.239305 0.734221
O O7 0.602343 0.306066 0.816470
O O8 0.822931 0.244831 0.588284
O O9 0.500000 0.781397 0.500000
O O10 0.785089 0.763194 0.314422
O O11 0.648900 0.000000 0.343655
O O12 0.938964 0.733564 0.811402
O O13 0.856595 0.000000 0.812326
O O14 0.664322 0.785447 0.963724
O O15 0.118654 0.500000 0.698061
O O16 0.150011 0.732645 0.583486
O O17 0.603749 0.500000 0.031778
O O18 0.197882 0.000000 0.487050
#
# Coordination Sequence:
#
# PCOD9150690 Si02
#       7
#     4   4   4   4   4   4   4
#     4  10  20  36  61  91 120 155 197 241 289 347
#     4  10  21  39  63  89 118 156 201 243 289 348
#     4  11  22  37  61  92 123 153 190 244 297 345
#     4  12  25  40  59  86 120 157 198 245 298 349
#     4  12  25  41  61  84 118 160 200 240 292 358
#     4   9  20  39  62  88 119 155 199 244 286 341
#     4  11  21  36  58  89 123 152 192 246 298 346
#
# _framework density 20.020361000000001
#
# number of rings (size 3 to 8) (size 9 to 14) (size 15 to 20)
#    0.000    1.286    1.429    6.429    0.000    6.286 
#    0.000    3.571    0.000    4.286    0.000    0.000 
#    0.000    0.000    0.000    0.000    0.000    0.000 
#
# Total GULP energy -156630.904672 kJ/mol
# GULP energy per Si atom -5593.960881 kJ/mol
# Density = 1.997479 g / cm^3
# Si number density = 20.020361 Si / 1000 Ang^3
#
#
#
# Elastic Constant Matrix: (Units=GPa)
#
#
# Indices 1 2 3 4 5 6 
#
# 1 100.1386 12.0392 3.6875 0.0000 13.4023 0.0000
# 2 12.0392 69.0153 2.7063 0.0000 6.9342 0.0000
# 3 3.6875 2.7063 18.0183 0.0000 5.9834 0.0000
# 4 0.0000 0.0000 0.0000 2981.4675 0.0000-1139.7859
# 5 13.4023 6.9342 5.9834 0.0000 20.9489 0.0000
# 6 0.0000 0.0000 0.0000-1139.7859 0.0000 475.8216
#
#
#
# Elastic Compliance Matrix: (Units=1/GPa)
#
#
# Indices 1 2 3 4 5 6 
#
# 1 0.011026 -0.001258 0.000151 0.000000 -0.006681 0.000000
# 2 -0.001258 0.015139 -0.000684 0.000000 -0.004011 0.000000
# 3 0.000151 -0.000684 0.061346 0.000000 -0.017391 0.000000
# 4 0.000000 0.000000 0.000000 0.003981 0.000000 0.009535
# 5 -0.006681 -0.004011 -0.017391 0.000000 0.058304 0.000000
# 6 0.000000 0.000000 0.000000 0.009535 0.000000 0.024942
#
#
# Mechanical properties :
#
#
# Convention : Reuss Voigt Hill
#
# Bulk Modulus (GPa) = 11.91505 24.89313 18.40409
# Shear Modulus (GPa) = 24.23691 706.89689 365.56690
#
# Velocity S-wave (km/s) = 3.48316 18.81105 13.52753
# Velocity P-wave (km/s) = 4.70542 22.00610 15.91240
#
# Compressibility (1/GPa) = 0.08392749
#
# Stress axis : x y z
#
# Youngs Moduli (GPa) = 90.69495 66.05534 16.30096
#
# Poissons Ratio (x) = 0.08310 -0.00246
# Poissons Ratio (y) = 0.11410 0.01116
# Poissons Ratio (z) = -0.01368 0.04521
#
# Static dielectric constant tensor:
#      x y z
#    x 1.706880 0.000000 -0.022270 
#    y 0.000000 1.663260 0.000000 
#    z -0.022270 0.000000 1.729290 
# 
# From -- ./inp_files/77708.got.cif
#   From: 2010.05.17/outbox.cif.g08.bks.cpg/sg10_39_cif.got.tgz:77708.got - 2010.06.03 11:33:40.
