data_PCOD9150439
_publ_section_title
;
Structure prediction by ZEFSAII (Michael W. Deem and Ramdas Pophale) SiO2 
 PCOD9150439
Probable space group: P 2/M
;
_chemical_formula_sum "Si O2"
_cell_formula_units_Z 14
_cell_length_a 10.045930
_cell_length_b 10.856304
_cell_length_c 5.259416
_cell_angle_alpha 90.000000
_cell_angle_beta 94.728225
_cell_angle_gamma 90.000000
_cell_volume 571.648673
_symmetry_space_group_name_H-M "P 2/M"
_symmetry_group_IT_number 10
_symmetry_cell_setting 'monoclinic'
loop_
_space_group_symop_operation_xyz
x,y,z
-x,y,-z
-x,-y,-z
x,-y,z
loop_
_atom_site_type_symbol
_atom_site_label
_atom_site_fract_x
_atom_site_fract_y
_atom_site_fract_z
Si Si1 0.344802 0.253313 0.554830
Si Si2 0.350491 0.000000 0.865451
Si Si3 0.408845 0.500000 0.743919
Si Si4 0.918225 0.275130 0.723912
Si Si5 0.116515 0.000000 0.220419
O O1 0.500000 0.243510 0.500000
O O2 0.322111 0.123436 0.697034
O O3 0.330754 0.371545 0.734322
O O4 0.241755 0.296811 0.316040
O O5 0.500000 0.000000 0.000000
O O6 0.255775 0.000000 0.094742
O O7 0.500000 0.500000 0.500000
O O8 0.500000 0.500000 0.000000
O O9 0.000000 0.332474 0.500000
O O10 0.904797 0.129957 0.657139
O O11 0.000000 0.293133 0.000000
O O12 0.000000 0.000000 0.000000
#
# Coordination Sequence:
#
# PCOD9150439 Si02
#       5
#     4   2   2   4   2
#     4  11  23  42  67  99 132 174 220 271 326 390
#     4  12  22  36  66 103 134 164 217 286 330 368
#     4  10  24  44  68  94 130 176 219 260 323 400
#     4  11  23  40  63  95 134 175 216 267 327 390
#     4  10  20  36  58  89 130 176 210 252 321 398
#
# _framework density 24.490569000000001
#
# number of rings (size 3 to 8) (size 9 to 14) (size 15 to 20)
#    0.000    1.143    0.000    7.714    0.000    6.857 
#    0.000    1.429    0.000    0.000    0.000    1.000 
#    0.000    0.000    0.000    0.000    0.000    0.000 
#
# Total GULP energy -78019.911505 kJ/mol
# GULP energy per Si atom -5572.850822 kJ/mol
# Density = 2.443483 g / cm^3
# Si number density = 24.490569 Si / 1000 Ang^3
#
#
#
# Elastic Constant Matrix: (Units=GPa)
#
#
# Indices 1 2 3 4 5 6 
#
# 1 182.8104 -18.0160 92.5018 0.0000 23.3980 0.0000
# 2 -18.0160 136.3774 30.6090 0.0000 7.4184 0.0000
# 3 92.5018 30.6090 169.9253 0.0000 35.1170 0.0000
# 4 0.0000 0.0000 0.0000 24.7582 0.0000 3.8948
# 5 23.3980 7.4184 35.1170 0.0000 67.7577 0.0000
# 6 0.0000 0.0000 0.0000 3.8948 0.0000 -17.3967
#
#
#
# Elastic Compliance Matrix: (Units=1/GPa)
#
#
# Indices 1 2 3 4 5 6 
#
# 1 0.008135 0.002161 -0.004691 0.000000 -0.000615 0.000000
# 2 0.002161 0.008217 -0.002594 0.000000 -0.000301 0.000000
# 3 -0.004691 -0.002594 0.009533 0.000000 -0.003037 0.000000
# 4 0.000000 0.000000 0.000000 0.039017 0.000000 0.008735
# 5 -0.000615 -0.000301 -0.003037 0.000000 0.016578 0.000000
# 6 0.000000 0.000000 0.000000 0.008735 0.000000 -0.055526
#
#
# Mechanical properties :
#
#
# Convention : Reuss Voigt Hill
#
# Bulk Modulus (GPa) = 63.94932 77.70032 70.82482
# Shear Modulus (GPa) = 120.73255 40.62505 80.67880
#
# Velocity S-wave (km/s) = 7.02884 4.07726 5.74581
# Velocity P-wave (km/s) = 9.59381 7.34581 8.54407
#
# Compressibility (1/GPa) = 0.01563738
#
# Stress axis : x y z
#
# Youngs Moduli (GPa) = 122.92036 121.70331 104.89418
#
# Poissons Ratio (x) = -0.26300 0.49204
# Poissons Ratio (y) = -0.26563 0.27211
# Poissons Ratio (z) = 0.57660 0.31572
#
# Static dielectric constant tensor:
#      x y z
#    x 2.216740 0.000000 0.031430 
#    y 0.000000 1.830740 0.000000 
#    z 0.031430 0.000000 1.912380 
# 
# From -- ./inp_files/2913.got.cif
#   From: 2010.05.17/outbox.cif.g08.bks.cpg/sg10_2_cif.got.tgz:2913.got - 2010.06.03 11:33:40.
