data_PCOD9150793
_publ_section_title
;
Structure prediction by ZEFSAII (Michael W. Deem and Ramdas Pophale) SiO2 
 PCOD9150793
Probable space group: P 2/M
;
_chemical_formula_sum "Si O2"
_cell_formula_units_Z 30
_cell_length_a 11.287757
_cell_length_b 22.560099
_cell_length_c 9.216891
_cell_angle_alpha 90.000000
_cell_angle_beta 40.339842
_cell_angle_gamma 90.000000
_cell_volume 1519.329970
_symmetry_space_group_name_H-M "P 2/M"
_symmetry_group_IT_number 10
_symmetry_cell_setting 'monoclinic'
loop_
_space_group_symop_operation_xyz
x,y,z
-x,y,-z
-x,-y,-z
x,-y,z
loop_
_atom_site_type_symbol
_atom_site_label
_atom_site_fract_x
_atom_site_fract_y
_atom_site_fract_z
Si Si1 0.500053 0.570228 0.269787
Si Si2 0.500000 0.648811 0.000000
Si Si3 0.661119 0.163086 0.942789
Si Si4 0.272556 0.933243 0.618329
Si Si5 0.195722 0.570654 0.765289
Si Si6 0.409391 0.199616 0.427554
Si Si7 0.156567 0.936001 0.053333
Si Si8 0.809536 0.737602 0.602023
O O1 0.482803 0.500000 0.255219
O O2 0.306117 0.592070 0.519837
O O3 0.657069 0.576877 0.243915
O O4 0.558491 0.606614 0.076344
O O5 0.659605 0.689607 0.788004
O O6 0.566849 0.201862 0.157632
O O7 0.500000 0.133528 0.000000
O O8 0.789844 0.116097 0.893765
O O9 0.767417 0.203676 0.733004
O O10 0.354136 0.870677 0.487824
O O11 0.058732 0.933649 0.776453
O O12 0.343972 0.000000 0.511088
O O13 0.266174 0.930231 0.799578
O O14 0.169105 0.500000 0.765762
O O15 0.000000 0.595518 0.000000
O O16 0.500000 0.215732 0.500000
O O17 0.242680 0.240022 0.515371
O O18 0.200591 0.000000 0.075926
O O19 0.000000 0.717141 0.500000
#
# Coordination Sequence:
#
# PCOD9150793 Si02
#       8
#     4   2   4   4   4   4   4   4
#     4   9  19  35  62  96 129 167 199 247 306 354
#     4  12  23  42  62  88 127 160 214 254 296 376
#     4  10  20  37  57  79 111 147 192 246 301 361
#     4   9  18  30  51  83 115 145 183 241 306 364
#     4   8  15  33  60  92 131 167 201 238 286 350
#     4  11  20  37  63  86 112 149 202 258 297 362
#     4   9  17  31  50  80 116 147 187 236 296 374
#     4  11  25  46  63  80 119 166 202 254 318 356
#
# _framework density 19.745546999999998
#
# number of rings (size 3 to 8) (size 9 to 14) (size 15 to 20)
#    0.000    2.267    3.333    2.600    0.000    2.133 
#    2.400    2.000    0.000   11.200    0.000    0.000 
#    0.000    0.000    0.000    0.000    0.000    0.000 
#
# Total GULP energy -167042.698207 kJ/mol
# GULP energy per Si atom -5568.089940 kJ/mol
# Density = 1.970061 g / cm^3
# Si number density = 19.745547 Si / 1000 Ang^3
#
#
#
# Elastic Constant Matrix: (Units=GPa)
#
#
# Indices 1 2 3 4 5 6 
#
# 1 92.7705 36.0557 24.6256 0.0000 6.1600 0.0000
# 2 36.0557 57.9345 15.7025 0.0000 3.7309 0.0000
# 3 24.6256 15.7025 45.2958 0.0000 -3.8762 0.0000
# 4 0.0000 0.0000 0.0000 -16.2520 0.0000 -21.4255
# 5 6.1600 3.7309 -3.8762 0.0000 33.9942 0.0000
# 6 0.0000 0.0000 0.0000 -21.4255 0.0000 49.4079
#
#
#
# Elastic Compliance Matrix: (Units=1/GPa)
#
#
# Indices 1 2 3 4 5 6 
#
# 1 0.015623 -0.007935 -0.005969 0.000000 -0.002641 0.000000
# 2 -0.007935 0.023363 -0.003920 0.000000 -0.001573 0.000000
# 3 -0.005969 -0.003920 0.027075 0.000000 0.004599 0.000000
# 4 0.000000 0.000000 0.000000 -0.039149 0.000000 -0.016977
# 5 -0.002641 -0.001573 0.004599 0.000000 0.030592 0.000000
# 6 0.000000 0.000000 0.000000 -0.016977 0.000000 0.012878
#
#
# Mechanical properties :
#
#
# Convention : Reuss Voigt Hill
#
# Bulk Modulus (GPa) = 32.88050 38.75208 35.81629
# Shear Modulus (GPa) = 43.04169 21.40448 32.22309
#
# Velocity S-wave (km/s) = 4.67392 3.29601 4.04408
# Velocity P-wave (km/s) = 6.76872 5.84408 6.32332
#
# Compressibility (1/GPa) = 0.03041316
#
# Stress axis : x y z
#
# Youngs Moduli (GPa) = 64.00778 42.80256 36.93511
#
# Poissons Ratio (x) = 0.33965 0.22046
# Poissons Ratio (y) = 0.50792 0.14478
# Poissons Ratio (z) = 0.38205 0.16777
#
# Static dielectric constant tensor:
#      x y z
#    x 1.743280 0.000000 -0.016270 
#    y 0.000000 1.684780 0.000000 
#    z -0.016270 0.000000 1.730030 
# 
# From -- ./inp_files/26165.got.cif
#   From: 2010.05.17/outbox.cif.g08.bks.cpg/sg10_14_cif.got.tgz:26165.got - 2010.06.03 11:33:40.
