data_PCOD9150494
_publ_section_title
;
Structure prediction by ZEFSAII (Michael W. Deem and Ramdas Pophale) SiO2 
 PCOD9150494
Probable space group: P 2/M
;
_chemical_formula_sum "Si O2"
_cell_formula_units_Z 32
_cell_length_a 29.335093
_cell_length_b 9.710065
_cell_length_c 11.748093
_cell_angle_alpha 90.000000
_cell_angle_beta 28.547568
_cell_angle_gamma 90.000000
_cell_volume 1599.201891
_symmetry_space_group_name_H-M "P 2/M"
_symmetry_group_IT_number 10
_symmetry_cell_setting 'monoclinic'
loop_
_space_group_symop_operation_xyz
x,y,z
-x,y,-z
-x,-y,-z
x,-y,z
loop_
_atom_site_type_symbol
_atom_site_label
_atom_site_fract_x
_atom_site_fract_y
_atom_site_fract_z
Si Si1 0.542612 0.844673 0.595495
Si Si2 0.082611 0.161173 0.649729
Si Si3 0.185325 0.656256 0.255602
Si Si4 0.259293 0.835511 0.432145
Si Si5 0.128932 0.837859 0.924319
Si Si6 0.351437 0.153872 0.863798
Si Si7 0.092257 0.659169 0.225910
Si Si8 0.547971 0.338261 0.019092
O O1 0.622561 0.816603 0.324696
O O2 0.446748 0.848659 0.729279
O O3 0.557724 0.000000 0.608622
O O4 0.523305 0.734080 0.734760
O O5 0.103295 0.258685 0.497805
O O6 0.167347 0.190316 0.552902
O O7 0.971370 0.181043 0.924413
O O8 0.091846 0.000000 0.599325
O O9 0.184299 0.500000 0.297398
O O10 0.171706 0.658731 0.149875
O O11 0.282525 0.734308 0.067032
O O12 0.352157 0.745944 0.200105
O O13 0.281200 0.000000 0.375638
O O14 0.218377 0.804701 0.647892
O O15 0.121008 0.749258 0.055566
O O16 0.134595 0.000000 0.940053
O O17 0.308585 0.000000 0.963313
O O18 0.073121 0.500000 0.233213
O O19 0.000000 0.707888 0.500000
O O20 0.562988 0.500000 0.012563
O O21 0.500000 0.328322 0.000000
#
# Coordination Sequence:
#
# PCOD9150494 Si02
#       8
#     4   4   4   4   4   4   4   4
#     4   9  19  38  62  84 110 145 183 228 284 342
#     4  10  20  36  59  85 117 151 185 233 287 335
#     4  11  22  34  53  82 115 152 192 229 273 330
#     4  10  22  40  61  87 115 146 188 236 287 340
#     4  10  21  37  60  87 114 148 192 238 281 331
#     4   9  19  36  58  86 115 142 180 232 286 336
#     4  10  21  38  54  73 111 155 188 223 270 325
#     4  11  25  42  59  82 115 152 191 236 284 335
#
# _framework density 20.009981
#
# number of rings (size 3 to 8) (size 9 to 14) (size 15 to 20)
#    0.000    2.000    1.250    2.625    0.000    9.750 
#    0.000    6.250    0.000    2.250    0.000    0.000 
#    0.000    0.000    0.000    0.000    0.000    0.000 
#
# Total GULP energy -178575.656430 kJ/mol
# GULP energy per Si atom -5580.489263 kJ/mol
# Density = 1.996444 g / cm^3
# Si number density = 20.009981 Si / 1000 Ang^3
#
#
#
# Elastic Constant Matrix: (Units=GPa)
#
#
# Indices 1 2 3 4 5 6 
#
# 1 38.3716 31.0895 5.3341 0.0000 20.8714 0.0000
# 2 31.0895 74.0379 34.4304 0.0000 15.2103 0.0000
# 3 5.3341 34.4304 49.1453 0.0000 7.9872 0.0000
# 4 0.0000 0.0000 0.0000 -49.1288 0.0000 -26.4254
# 5 20.8714 15.2103 7.9872 0.0000 31.9570 0.0000
# 6 0.0000 0.0000 0.0000 -26.4254 0.0000 -24.8590
#
#
#
# Elastic Compliance Matrix: (Units=1/GPa)
#
#
# Indices 1 2 3 4 5 6 
#
# 1 0.065503 -0.029440 0.018961 0.000000 -0.033508 0.000000
# 2 -0.029440 0.034553 -0.022372 0.000000 0.008373 0.000000
# 3 0.018961 -0.022372 0.035696 0.000000 -0.010657 0.000000
# 4 0.000000 0.000000 0.000000 -0.047532 0.000000 0.050527
# 5 -0.033508 0.008373 -0.010657 0.000000 0.051854 0.000000
# 6 0.000000 0.000000 0.000000 0.050527 0.000000 -0.093938
#
#
# Mechanical properties :
#
#
# Convention : Reuss Voigt Hill
#
# Bulk Modulus (GPa) = 14.27563 33.69588 23.98576
# Shear Modulus (GPa) = 36.98564 -2.35943 17.31310
#
# Velocity S-wave (km/s) = 4.30392 -1.08705 2.94466
# Velocity P-wave (km/s) = 5.64341 3.91159 4.85533
#
# Compressibility (1/GPa) = 0.07004943
#
# Stress axis : x y z
#
# Youngs Moduli (GPa) = 15.26639 28.94146 28.01469
#
# Poissons Ratio (x) = 0.85202 -0.53119
# Poissons Ratio (y) = 0.44944 0.62676
# Poissons Ratio (z) = -0.28947 0.64749
#
# Static dielectric constant tensor:
#      x y z
#    x 1.745750 0.000000 -0.013250 
#    y 0.000000 1.679470 0.000000 
#    z -0.013250 0.000000 1.718400 
# 
# From -- ./inp_files/58129.got.cif
#   From: 2010.05.17/outbox.cif.g08.bks.cpg/sg10_30_cif.got.tgz:58129.got - 2010.06.03 11:33:40.
