data_PCOD9150334
_publ_section_title
;
Structure prediction by ZEFSAII (Michael W. Deem and Ramdas Pophale) SiO2 
 PCOD9150334
Probable space group: P 2/M
;
_chemical_formula_sum "Si O2"
_cell_formula_units_Z 28
_cell_length_a 9.945849
_cell_length_b 11.383450
_cell_length_c 17.170472
_cell_angle_alpha 90.000000
_cell_angle_beta 53.821380
_cell_angle_gamma 90.000000
_cell_volume 1569.165449
_symmetry_space_group_name_H-M "P 2/M"
_symmetry_group_IT_number 10
_symmetry_cell_setting 'monoclinic'
loop_
_space_group_symop_operation_xyz
x,y,z
-x,y,-z
-x,-y,-z
x,-y,z
loop_
_atom_site_type_symbol
_atom_site_label
_atom_site_fract_x
_atom_site_fract_y
_atom_site_fract_z
Si Si1 0.752459 0.361954 0.805073
Si Si2 0.083695 0.255337 0.099522
Si Si3 0.414523 0.749073 0.880875
Si Si4 0.008701 0.357553 0.585777
Si Si5 0.557046 0.000000 0.069885
Si Si6 0.259832 0.362391 0.787225
Si Si7 0.047736 0.000000 0.073869
Si Si8 0.683819 0.642779 0.412031
O O1 0.780802 0.500000 0.810665
O O2 0.840015 0.289373 0.843527
O O3 0.557159 0.335014 0.866113
O O4 0.844547 0.331415 0.692631
O O5 0.934868 0.342161 0.127919
O O6 0.002161 0.124874 0.126503
O O7 0.239717 0.259886 0.987156
O O8 0.484536 0.880434 0.870886
O O9 0.371371 0.713099 0.807850
O O10 0.019830 0.500000 0.578342
O O11 0.169984 0.316948 0.579790
O O12 0.000000 0.314431 0.500000
O O13 0.500000 0.000000 0.000000
O O14 0.754347 0.000000 0.993604
O O15 0.302869 0.500000 0.781013
O O16 0.282000 0.327057 0.689470
O O17 0.000000 0.000000 0.000000
O O18 0.500000 0.681854 0.500000
O O19 0.685796 0.500000 0.414413
#
# Coordination Sequence:
#
# PCOD9150334 Si02
#       8
#     4   4   4   4   2   4   2   4
#     4  11  22  35  52  82 117 144 179 219 270 340
#     4  11  21  37  55  76 110 149 184 226 270 312
#     4  11  23  35  55  80 108 149 186 224 267 318
#     4   9  18  33  53  76 106 143 181 223 264 311
#     4  10  20  40  58  74 101 140 197 245 262 289
#     4  11  22  35  52  82 119 146 177 219 273 340
#     4  10  20  36  58  78  97 136 199 241 256 297
#     4   9  18  33  53  76 106 144 181 220 265 315
#
# _framework density 17.843882000000001
#
# number of rings (size 3 to 8) (size 9 to 14) (size 15 to 20)
#    0.000    1.714    1.429    5.143    2.000    3.429 
#    0.000    0.000    0.000    0.000    0.000    6.000 
#    0.000    0.000    0.000    0.000    0.000    0.000 
#
# Total GULP energy -156161.689605 kJ/mol
# GULP energy per Si atom -5577.203200 kJ/mol
# Density = 1.780327 g / cm^3
# Si number density = 17.843882 Si / 1000 Ang^3
#
#
#
# Elastic Constant Matrix: (Units=GPa)
#
#
# Indices 1 2 3 4 5 6 
#
# 1 118.3465 31.2919 38.6721 0.0000 27.9114 0.0000
# 2 31.2919 59.4476 41.0763 0.0000 18.7678 0.0000
# 3 38.6721 41.0763 81.9054 0.0000 19.9039 0.0000
# 4 0.0000 0.0000 0.0000 -1.5758 0.0000 10.9368
# 5 27.9114 18.7678 19.9039 0.0000 39.2465 0.0000
# 6 0.0000 0.0000 0.0000 10.9368 0.0000 23.9085
#
#
#
# Elastic Compliance Matrix: (Units=1/GPa)
#
#
# Indices 1 2 3 4 5 6 
#
# 1 0.011271 -0.002208 -0.002878 0.000000 -0.005501 0.000000
# 2 -0.002208 0.027752 -0.011442 0.000000 -0.005898 0.000000
# 3 -0.002878 -0.011442 0.019936 0.000000 -0.002592 0.000000
# 4 0.000000 0.000000 0.000000 -0.152005 0.000000 0.069534
# 5 -0.005501 -0.005898 -0.002592 0.000000 0.033527 0.000000
# 6 0.000000 0.000000 0.000000 0.069534 0.000000 0.010018
#
#
# Mechanical properties :
#
#
# Convention : Reuss Voigt Hill
#
# Bulk Modulus (GPa) = 38.60438 53.53111 46.06775
# Shear Modulus (GPa) = -640.21672 22.22645 -308.99513
#
# Velocity S-wave (km/s) = -18.96224 3.53314 -13.17353
# Velocity P-wave (km/s) = 21.39488 6.83440 14.33583
#
# Compressibility (1/GPa) = 0.02590380
#
# Stress axis : x y z
#
# Youngs Moduli (GPa) = 88.72161 36.03371 50.15994
#
# Poissons Ratio (x) = 0.07956 0.14435
# Poissons Ratio (y) = 0.19589 0.57393
# Poissons Ratio (z) = 0.25532 0.41230
#
# Static dielectric constant tensor:
#      x y z
#    x 1.606230 0.000000 -0.004490 
#    y 0.000000 1.667020 0.000000 
#    z -0.004490 0.000000 1.614800 
# 
# From -- ./inp_files/61172.got.cif
#   From: 2010.05.17/outbox.cif.g08.bks.cpg/sg10_31_cif.got.tgz:61172.got - 2010.06.03 11:33:40.
