data_PCOD9150632
_publ_section_title
;
Structure prediction by ZEFSAII (Michael W. Deem and Ramdas Pophale) SiO2 
 PCOD9150632
Probable space group: P 2/M
;
_chemical_formula_sum "Si O2"
_cell_formula_units_Z 32
_cell_length_a 12.705489
_cell_length_b 8.715709
_cell_length_c 30.526059
_cell_angle_alpha 90.000000
_cell_angle_beta 28.195548
_cell_angle_gamma 90.000000
_cell_volume 1597.167170
_symmetry_space_group_name_H-M "P 2/M"
_symmetry_group_IT_number 10
_symmetry_cell_setting 'monoclinic'
loop_
_space_group_symop_operation_xyz
x,y,z
-x,y,-z
-x,-y,-z
x,-y,z
loop_
_atom_site_type_symbol
_atom_site_label
_atom_site_fract_x
_atom_site_fract_y
_atom_site_fract_z
Si Si1 0.879489 0.184304 0.753257
Si Si2 0.585883 0.183326 0.333072
Si Si3 0.528567 0.317197 0.041030
Si Si4 0.363785 0.316288 0.593163
Si Si5 0.203121 0.813650 0.896412
Si Si6 0.299526 0.814798 0.274439
Si Si7 0.756379 0.677283 0.610307
Si Si8 0.983073 0.185072 0.128598
O O1 0.669471 0.240496 0.858749
O O2 0.838070 0.230623 0.717816
O O3 0.112700 0.253166 0.683147
O O4 0.889131 0.000000 0.752192
O O5 0.533058 0.257305 0.399161
O O6 0.413357 0.232838 0.358830
O O7 0.833292 0.229853 0.225301
O O8 0.583520 0.000000 0.338004
O O9 0.517286 0.500000 0.051131
O O10 0.500000 0.282174 0.000000
O O11 0.773513 0.256915 0.963536
O O12 0.500000 0.265195 0.500000
O O13 0.360145 0.500000 0.594813
O O14 0.442876 0.765781 0.825819
O O15 0.158375 0.771926 0.862614
O O16 0.200629 0.000000 0.899117
O O17 0.000000 0.755997 0.000000
O O18 0.228685 0.746590 0.346695
O O19 0.292996 0.000000 0.279816
O O20 0.684220 0.500000 0.639256
O O21 0.000000 0.683914 0.500000
O O22 0.006603 0.000000 0.120319
#
# Coordination Sequence:
#
# PCOD9150632 Si02
#       8
#     4   4   4   4   4   4   4   4
#     4  11  24  42  67  97 127 166 218 270 318 374
#     4  11  23  42  69  97 127 163 214 271 316 372
#     4  11  24  40  60  88 125 170 213 258 318 384
#     4  11  26  46  67  92 129 170 207 259 327 388
#     4   9  16  31  56  85 120 158 197 244 304 363
#     4  10  21  40  64  93 127 166 211 262 316 371
#     4  11  25  42  63  93 130 172 212 256 322 389
#     4  10  20  36  60  90 122 158 202 256 312 365
#
# _framework density 20.035471999999999
#
# number of rings (size 3 to 8) (size 9 to 14) (size 15 to 20)
#    0.000    1.500    1.250    3.375    1.750    9.000 
#    0.000    0.000    0.000    1.500    0.000    0.000 
#    0.000    0.000    0.000    0.000    0.000    0.000 
#
# Total GULP energy -178872.735637 kJ/mol
# GULP energy per Si atom -5589.772989 kJ/mol
# Density = 1.998987 g / cm^3
# Si number density = 20.035472 Si / 1000 Ang^3
#
#
#
# Elastic Constant Matrix: (Units=GPa)
#
#
# Indices 1 2 3 4 5 6 
#
# 1 95.8386 28.3460 22.4566 0.0000 17.5048 0.0000
# 2 28.3460 38.1679 26.2613 0.0000 9.7371 0.0000
# 3 22.4566 26.2613 80.6072 0.0000 18.2345 0.0000
# 4 0.0000 0.0000 0.0000 28.9209 0.0000 0.7943
# 5 17.5048 9.7371 18.2345 0.0000 38.7253 0.0000
# 6 0.0000 0.0000 0.0000 0.7943 0.0000 11.9273
#
#
#
# Elastic Compliance Matrix: (Units=1/GPa)
#
#
# Indices 1 2 3 4 5 6 
#
# 1 0.013913 -0.009372 0.000075 0.000000 -0.003968 0.000000
# 2 -0.009372 0.040565 -0.010359 0.000000 -0.001085 0.000000
# 3 0.000075 -0.010359 0.016988 0.000000 -0.005428 0.000000
# 4 0.000000 0.000000 0.000000 0.034640 0.000000 -0.002307
# 5 -0.003968 -0.001085 -0.005428 0.000000 0.030445 0.000000
# 6 0.000000 0.000000 0.000000 -0.002307 0.000000 0.083995
#
#
# Mechanical properties :
#
#
# Convention : Reuss Voigt Hill
#
# Bulk Modulus (GPa) = 31.10130 40.97127 36.03629
# Shear Modulus (GPa) = 18.47893 25.08466 21.78179
#
# Velocity S-wave (km/s) = 3.04025 3.54222 3.30079
# Velocity P-wave (km/s) = 5.28025 6.10111 5.70546
#
# Compressibility (1/GPa) = 0.03215300
#
# Stress axis : x y z
#
# Youngs Moduli (GPa) = 71.87309 24.65174 58.86540
#
# Poissons Ratio (x) = 0.23104 -0.00440
# Poissons Ratio (y) = 0.67361 0.60980
# Poissons Ratio (z) = -0.00538 0.25537
#
# Static dielectric constant tensor:
#      x y z
#    x 1.704160 0.000000 0.010760 
#    y 0.000000 1.679820 0.000000 
#    z 0.010760 0.000000 1.694930 
# 
# From -- ./inp_files/95008.got.cif
#   From: 2010.05.17/outbox.cif.g08.bks.cpg/sg10_48_cif.got.tgz:95008.got - 2010.06.03 11:33:40.
