data_PCOD9150168
_publ_section_title
;
Structure prediction by ZEFSAII (Michael W. Deem and Ramdas Pophale) SiO2 
 PCOD9150168
Probable space group: P 2/M
;
_chemical_formula_sum "Si O2"
_cell_formula_units_Z 28
_cell_length_a 14.776452
_cell_length_b 8.669284
_cell_length_c 9.782622
_cell_angle_alpha 90.000000
_cell_angle_beta 105.982636
_cell_angle_gamma 90.000000
_cell_volume 1204.725288
_symmetry_space_group_name_H-M "P 2/M"
_symmetry_group_IT_number 10
_symmetry_cell_setting 'monoclinic'
loop_
_space_group_symop_operation_xyz
x,y,z
-x,y,-z
-x,-y,-z
x,-y,z
loop_
_atom_site_type_symbol
_atom_site_label
_atom_site_fract_x
_atom_site_fract_y
_atom_site_fract_z
Si Si1 0.751534 0.822618 0.136948
Si Si2 0.446868 0.816778 0.347891
Si Si3 0.888899 0.500000 0.414941
Si Si4 0.436402 0.324248 0.837612
Si Si5 0.041373 0.827564 0.171111
Si Si6 0.248287 0.816026 0.169691
Si Si7 0.113128 0.832833 0.564246
Si Si8 0.033656 0.500000 0.841727
O O1 0.513922 0.787837 0.248035
O O2 0.669283 0.726717 0.173249
O O3 0.845663 0.834460 0.264767
O O4 0.716120 0.000000 0.111665
O O5 0.500000 0.749286 0.500000
O O6 0.343495 0.750667 0.272777
O O7 0.435020 0.000000 0.365632
O O8 0.852139 0.661463 0.463000
O O9 0.000000 0.500000 0.500000
O O10 0.880711 0.500000 0.242944
O O11 0.437988 0.500000 0.787255
O O12 0.500000 0.318035 0.000000
O O13 0.231120 0.241019 0.007895
O O14 0.152983 0.800664 0.212397
O O15 0.004765 0.667312 0.213724
O O16 0.023117 0.000000 0.221563
O O17 0.000000 0.837160 0.000000
O O18 0.261212 0.000000 0.162085
O O19 0.000000 0.833609 0.500000
O O20 0.147416 0.000000 0.520587
O O21 0.000000 0.500000 0.000000
#
# Coordination Sequence:
#
# PCOD9150168 Si02
#       8
#     4   4   2   4   4   4   4   2
#     4  10  20  35  64  94 119 158 207 258 310 364
#     4  10  21  40  66  89 119 161 206 258 314 374
#     4  10  22  40  60  82 122 165 203 252 308 367
#     4  11  23  39  59  95 130 159 204 260 321 376
#     4   9  19  36  57  86 123 154 192 252 303 352
#     4   9  18  35  60  92 117 152 204 249 309 371
#     4   9  20  38  60  90 123 163 210 253 306 371
#     4  10  22  36  54  90 114 152 207 244 301 349
#
# _framework density 23.241811999999999
#
# number of rings (size 3 to 8) (size 9 to 14) (size 15 to 20)
#    0.000    2.286    1.429    0.429    5.000    1.429 
#    2.571    2.857    0.000    8.571    0.000    0.000 
#    0.000    0.000    0.000    0.000    0.000    0.000 
#
# Total GULP energy -155929.057287 kJ/mol
# GULP energy per Si atom -5568.894903 kJ/mol
# Density = 2.318891 g / cm^3
# Si number density = 23.241812 Si / 1000 Ang^3
#
#
#
# Elastic Constant Matrix: (Units=GPa)
#
#
# Indices 1 2 3 4 5 6 
#
# 1 80.8029 18.1404 29.4803 0.0000 24.4425 0.0000
# 2 18.1404 126.1238 17.5697 0.0000 7.9705 0.0000
# 3 29.4803 17.5697 122.9372 0.0000 15.9388 0.0000
# 4 0.0000 0.0000 0.0000 17.7729 0.0000 2.6509
# 5 24.4425 7.9705 15.9388 0.0000 23.3128 0.0000
# 6 0.0000 0.0000 0.0000 2.6509 0.0000 33.4332
#
#
#
# Elastic Compliance Matrix: (Units=1/GPa)
#
#
# Indices 1 2 3 4 5 6 
#
# 1 0.018817 -0.001295 -0.002005 0.000000 -0.017916 0.000000
# 2 -0.001295 0.008280 -0.000748 0.000000 -0.000962 0.000000
# 3 -0.002005 -0.000748 0.009235 0.000000 -0.003956 0.000000
# 4 0.000000 0.000000 0.000000 0.056939 0.000000 -0.004515
# 5 -0.017916 -0.000962 -0.003956 0.000000 0.064712 0.000000
# 6 0.000000 0.000000 0.000000 -0.004515 0.000000 0.030268
#
#
# Mechanical properties :
#
#
# Convention : Reuss Voigt Hill
#
# Bulk Modulus (GPa) = 35.41490 51.13829 43.27660
# Shear Modulus (GPa) = 24.30026 32.54871 28.42448
#
# Velocity S-wave (km/s) = 3.23699 3.74630 3.50092
# Velocity P-wave (km/s) = 5.40754 6.38463 5.91629
#
# Compressibility (1/GPa) = 0.02823670
#
# Stress axis : x y z
#
# Youngs Moduli (GPa) = 53.14256 120.77346 108.28635
#
# Poissons Ratio (x) = 0.15641 0.21706
# Poissons Ratio (y) = 0.06882 0.08101
# Poissons Ratio (z) = 0.10653 0.09035
#
# Static dielectric constant tensor:
#      x y z
#    x 1.868520 0.000000 -0.030550 
#    y 0.000000 1.902420 0.000000 
#    z -0.030550 0.000000 1.944960 
# 
# From -- ./inp_files/50152.got.cif
#   From: 2010.05.17/outbox.cif.g08.bks.cpg/sg10_26_cif.got.tgz:50152.got - 2010.06.03 11:33:40.
