data_PCOD9150170
_publ_section_title
;
Structure prediction by ZEFSAII (Michael W. Deem and Ramdas Pophale) SiO2 
 PCOD9150170
Probable space group: P 2/M
;
_chemical_formula_sum "Si O2"
_cell_formula_units_Z 19
_cell_length_a 14.291715
_cell_length_b 5.727751
_cell_length_c 11.608753
_cell_angle_alpha 90.000000
_cell_angle_beta 50.802908
_cell_angle_gamma 90.000000
_cell_volume 736.448900
_symmetry_space_group_name_H-M "P 2/M"
_symmetry_group_IT_number 10
_symmetry_cell_setting 'monoclinic'
loop_
_space_group_symop_operation_xyz
x,y,z
-x,y,-z
-x,-y,-z
x,-y,z
loop_
_atom_site_type_symbol
_atom_site_label
_atom_site_fract_x
_atom_site_fract_y
_atom_site_fract_z
Si Si1 0.039056 0.750079 0.296104
Si Si2 0.227748 0.500000 0.287377
Si Si3 0.449461 0.500000 0.772734
Si Si4 0.578343 0.000000 0.273668
Si Si5 0.129176 0.748596 0.963496
Si Si6 0.682489 0.000000 0.446123
Si Si7 0.712919 0.500000 0.490226
Si Si8 0.500000 0.500000 0.000000
O O1 0.971631 0.500000 0.353579
O O2 0.143215 0.715127 0.311079
O O3 0.100773 0.750283 0.122081
O O4 0.977587 0.000000 0.359184
O O5 0.259343 0.500000 0.396024
O O6 0.349543 0.500000 0.119131
O O7 0.385194 0.249193 0.808511
O O8 0.564484 0.500000 0.595264
O O9 0.498902 0.500000 0.862349
O O10 0.614453 0.000000 0.378138
O O11 0.429932 0.000000 0.375398
O O12 0.185417 0.500000 0.886885
O O13 0.184002 0.000000 0.891330
O O14 0.000000 0.749069 0.000000
O O15 0.750979 0.248121 0.407863
#
# Coordination Sequence:
#
# PCOD9150170 Si02
#       8
#     4   2   2   2   4   2   2   1
#     4   8  15  25  36  49  67  95 121 155 187 212
#     4   9  19  29  40  51  76 103 132 168 185 223
#     4   9  18  30  40  56  70  94 113 156 182 231
#     4   9  16  29  44  56  74  81 110 144 202 229
#     4   8  12  19  32  49  66  84 113 150 180 211
#     4   9  16  26  42  60  68  88 103 147 191 247
#     4   9  17  25  39  55  74  88 119 142 191 221
#     4  10  20  36  40  58  72 106 138 164 196 216
#
# _framework density 25.799482000000001
#
# number of rings (size 3 to 8) (size 9 to 14) (size 15 to 20)
#    0.632    2.737    0.000    0.632    1.474    2.947 
#    3.789    0.000    0.000    0.000    0.000    0.000 
#    0.000    0.000    0.000    0.000    0.000    0.000 
#
# Total GULP energy -105795.654752 kJ/mol
# GULP energy per Si atom -5568.192355 kJ/mol
# Density = 2.574076 g / cm^3
# Si number density = 25.799482 Si / 1000 Ang^3
#
#
#
# Elastic Constant Matrix: (Units=GPa)
#
#
# Indices 1 2 3 4 5 6 
#
# 1 70.5588 62.1219 35.3571 0.0000 16.0410 0.0000
# 2 62.1219 320.9773 32.8005 0.0000 8.1227 0.0000
# 3 35.3571 32.8005 67.7858 0.0000 10.7855 0.0000
# 4 0.0000 0.0000 0.0000 61.6198 0.0000 47.9156
# 5 16.0410 8.1227 10.7855 0.0000 60.7401 0.0000
# 6 0.0000 0.0000 0.0000 47.9156 0.0000 120.3339
#
#
#
# Elastic Compliance Matrix: (Units=1/GPa)
#
#
# Indices 1 2 3 4 5 6 
#
# 1 0.022839 -0.003333 -0.009685 0.000000 -0.003866 0.000000
# 2 -0.003333 0.003765 -0.000148 0.000000 0.000403 0.000000
# 3 -0.009685 -0.000148 0.020031 0.000000 -0.000979 0.000000
# 4 0.000000 0.000000 0.000000 0.023507 0.000000 -0.009360
# 5 -0.003866 0.000403 -0.000979 0.000000 0.017605 0.000000
# 6 0.000000 0.000000 0.000000 -0.009360 0.000000 0.012037
#
#
# Mechanical properties :
#
#
# Convention : Reuss Voigt Hill
#
# Bulk Modulus (GPa) = 49.24952 79.98677 64.61815
# Shear Modulus (GPa) = 37.62686 70.47493 54.05089
#
# Velocity S-wave (km/s) = 3.82309 5.23218 4.58212
# Velocity P-wave (km/s) = 6.21440 8.22019 7.28664
#
# Compressibility (1/GPa) = 0.02030477
#
# Stress axis : x y z
#
# Youngs Moduli (GPa) = 43.78506 265.57593 49.92168
#
# Poissons Ratio (x) = 0.88508 0.48349
# Poissons Ratio (y) = 0.14592 0.00738
# Poissons Ratio (z) = 0.42406 0.03925
#
# Static dielectric constant tensor:
#      x y z
#    x 2.090210 0.000000 -0.080230 
#    y 0.000000 2.086830 0.000000 
#    z -0.080230 0.000000 1.966840 
# 
# From -- ./inp_files/48268.got.cif
#   From: 2010.05.17/outbox.cif.g08.bks.cpg/sg10_25_cif.got.tgz:48268.got - 2010.06.03 11:33:40.
