data_PCOD9150826
_publ_section_title
;
Structure prediction by ZEFSAII (Michael W. Deem and Ramdas Pophale) SiO2 
 PCOD9150826
Probable space group: P 2/M
;
_chemical_formula_sum "Si O2"
_cell_formula_units_Z 28
_cell_length_a 14.990052
_cell_length_b 8.683150
_cell_length_c 22.352268
_cell_angle_alpha 90.000000
_cell_angle_beta 30.663660
_cell_angle_gamma 90.000000
_cell_volume 1483.781817
_symmetry_space_group_name_H-M "P 2/M"
_symmetry_group_IT_number 10
_symmetry_cell_setting 'monoclinic'
loop_
_space_group_symop_operation_xyz
x,y,z
-x,y,-z
-x,-y,-z
x,-y,z
loop_
_atom_site_type_symbol
_atom_site_label
_atom_site_fract_x
_atom_site_fract_y
_atom_site_fract_z
Si Si1 0.075195 0.812906 0.521092
Si Si2 0.216908 0.314385 0.646625
Si Si3 0.432555 0.682700 0.887159
Si Si4 0.544832 0.684872 0.377730
Si Si5 0.254275 0.186241 0.213057
Si Si6 0.168936 0.816170 0.130758
Si Si7 0.523556 0.184342 0.707192
O O1 0.273835 0.760164 0.413998
O O2 0.000000 0.764874 0.500000
O O3 0.935587 0.766113 0.651698
O O4 0.079157 0.000000 0.519077
O O5 0.195005 0.500000 0.656390
O O6 0.309467 0.277591 0.656620
O O7 0.357613 0.269350 0.514634
O O8 0.032381 0.232249 0.747371
O O9 0.439799 0.500000 0.880140
O O10 0.596478 0.745001 0.831215
O O11 0.444125 0.750555 0.813982
O O12 0.261353 0.736950 0.021533
O O13 0.543076 0.500000 0.372388
O O14 0.569659 0.761269 0.299404
O O15 0.264693 0.229360 0.137533
O O16 0.266182 0.000000 0.210137
O O17 0.183402 0.000000 0.116632
O O18 0.524047 0.000000 0.710233
#
# Coordination Sequence:
#
# PCOD9150826 Si02
#       7
#     4   4   4   4   4   4   4
#     4   9  16  30  54  80 110 144 178 221 275 331
#     4   9  19  38  62  87 119 153 184 226 280 338
#     4  12  25  39  55  78 113 154 195 237 283 341
#     4   9  19  37  61  89 120 152 183 223 282 342
#     4  10  20  37  58  82 112 149 189 233 285 336
#     4  11  23  38  59  84 112 148 194 242 285 332
#     4  11  21  36  59  85 115 152 192 235 284 335
#
# _framework density 18.870698000000001
#
# number of rings (size 3 to 8) (size 9 to 14) (size 15 to 20)
#    0.000    1.857    1.429    4.286    0.000    5.143 
#    0.000    4.286    0.000    4.286    0.000    0.000 
#    0.000    0.000    0.000    0.000    0.000    0.000 
#
# Total GULP energy -156429.891611 kJ/mol
# GULP energy per Si atom -5586.781843 kJ/mol
# Density = 1.882775 g / cm^3
# Si number density = 18.870698 Si / 1000 Ang^3
#
#
#
# Elastic Constant Matrix: (Units=GPa)
#
#
# Indices 1 2 3 4 5 6 
#
# 1 102.3741 36.5468 44.9580 0.0000 32.0678 0.0000
# 2 36.5468 44.1866 27.9043 0.0000 14.5011 0.0000
# 3 44.9580 27.9043 74.6687 0.0000 20.6954 0.0000
# 4 0.0000 0.0000 0.0000 33.3362 0.0000 1.3227
# 5 32.0678 14.5011 20.6954 0.0000 25.4940 0.0000
# 6 0.0000 0.0000 0.0000 1.3227 0.0000 28.0576
#
#
#
# Elastic Compliance Matrix: (Units=1/GPa)
#
#
# Indices 1 2 3 4 5 6 
#
# 1 0.019823 -0.008215 -0.004193 0.000000 -0.016858 0.000000
# 2 -0.008215 0.035211 -0.007129 0.000000 -0.003907 0.000000
# 3 -0.004193 -0.007129 0.020639 0.000000 -0.007425 0.000000
# 4 0.000000 0.000000 0.000000 0.030054 0.000000 -0.001417
# 5 -0.016858 -0.003907 -0.007425 0.000000 0.068679 0.000000
# 6 0.000000 0.000000 0.000000 -0.001417 0.000000 0.035708
#
#
# Mechanical properties :
#
#
# Convention : Reuss Voigt Hill
#
# Bulk Modulus (GPa) = 27.32393 48.89417 38.10905
# Shear Modulus (GPa) = 19.12871 24.83225 21.98048
#
# Velocity S-wave (km/s) = 3.18728 3.63149 3.41661
# Velocity P-wave (km/s) = 5.29679 6.59924 5.98356
#
# Compressibility (1/GPa) = 0.03659795
#
# Stress axis : x y z
#
# Youngs Moduli (GPa) = 50.44727 28.40057 48.45133
#
# Poissons Ratio (x) = 0.23332 0.20315
# Poissons Ratio (y) = 0.41444 0.34542
# Poissons Ratio (z) = 0.21152 0.20247
#
# Static dielectric constant tensor:
#      x y z
#    x 1.641340 0.000000 0.000580 
#    y 0.000000 1.636370 0.000000 
#    z 0.000580 0.000000 1.648040 
# 
# From -- ./inp_files/49158.got.cif
#   From: 2010.05.17/outbox.cif.g08.bks.cpg/sg10_25_cif.got.tgz:49158.got - 2010.06.03 11:33:40.
