data_PCOD9150447
_publ_section_title
;
Structure prediction by ZEFSAII (Michael W. Deem and Ramdas Pophale) SiO2 
 PCOD9150447
Probable space group: P 2/M
;
_chemical_formula_sum "Si O2"
_cell_formula_units_Z 28
_cell_length_a 9.322688
_cell_length_b 7.715712
_cell_length_c 30.107634
_cell_angle_alpha 90.000000
_cell_angle_beta 38.878246
_cell_angle_gamma 90.000000
_cell_volume 1359.325453
_symmetry_space_group_name_H-M "P 2/M"
_symmetry_group_IT_number 10
_symmetry_cell_setting 'monoclinic'
loop_
_space_group_symop_operation_xyz
x,y,z
-x,y,-z
-x,-y,-z
x,-y,z
loop_
_atom_site_type_symbol
_atom_site_label
_atom_site_fract_x
_atom_site_fract_y
_atom_site_fract_z
Si Si1 0.238705 0.712648 0.571157
Si Si2 0.076666 0.707062 0.433554
Si Si3 0.771313 0.213212 0.156539
Si Si4 0.540410 0.794322 0.849679
Si Si5 0.395168 0.207261 0.707388
Si Si6 0.170708 0.799864 0.001606
Si Si7 0.943113 0.703836 0.290257
O O1 0.500000 0.765213 0.500000
O O2 0.237386 0.500000 0.572069
O O3 0.143030 0.774271 0.641605
O O4 0.077396 0.772631 0.569897
O O5 0.040294 0.500000 0.443443
O O6 0.342684 0.738825 0.361093
O O7 0.000000 0.776944 0.500000
O O8 0.579199 0.268809 0.166985
O O9 0.707538 0.271419 0.221088
O O10 0.016368 0.274119 0.078421
O O11 0.774823 0.000000 0.155703
O O12 0.809739 0.771361 0.783757
O O13 0.494501 0.000000 0.861682
O O14 0.403128 0.721772 0.925515
O O15 0.244559 0.266106 0.702201
O O16 0.387701 0.000000 0.710276
O O17 0.216834 0.000000 0.003153
O O18 0.000000 0.800996 0.000000
O O19 0.972860 0.500000 0.289107
#
# Coordination Sequence:
#
# PCOD9150447 Si02
#       7
#     4   4   4   4   4   4   4
#     4   9  18  34  56  79 100 128 168 206 241 291
#     4  10  20  36  59  82 104 132 166 205 251 303
#     4   8  15  29  51  78 103 129 166 212 258 302
#     4   9  16  30  54  79 101 127 165 213 259 303
#     4  11  22  35  52  75 105 137 171 212 253 295
#     4   7  11  23  47  76 100 125 162 207 253 302
#     4  11  22  35  51  72 103 139 172 207 249 301
#
# _framework density 20.598452000000002
#
# number of rings (size 3 to 8) (size 9 to 14) (size 15 to 20)
#    0.000    2.714    0.000    4.286    0.000    2.571 
#    0.000    2.143    0.000   12.857    0.000    0.000 
#    0.000    0.000    0.000    0.000    0.000    0.000 
#
# Total GULP energy -156203.157933 kJ/mol
# GULP energy per Si atom -5578.684212 kJ/mol
# Density = 2.055157 g / cm^3
# Si number density = 20.598452 Si / 1000 Ang^3
#
#
#
# Elastic Constant Matrix: (Units=GPa)
#
#
# Indices 1 2 3 4 5 6 
#
# 1 161.2486 -9.0552 112.6221 0.0000 3.4499 0.0000
# 2 -9.0552 25.6890 -6.6904 0.0000 3.6533 0.0000
# 3 112.6221 -6.6904 223.7439 0.0000 5.6870 0.0000
# 4 0.0000 0.0000 0.0000 25.1727 0.0000 -7.1697
# 5 3.4499 3.6533 5.6870 0.0000 36.2329 0.0000
# 6 0.0000 0.0000 0.0000 -7.1697 0.0000 14.3554
#
#
#
# Elastic Compliance Matrix: (Units=1/GPa)
#
#
# Indices 1 2 3 4 5 6 
#
# 1 0.009687 0.002220 -0.004800 0.000000 -0.000393 0.000000
# 2 0.002220 0.040375 0.000199 0.000000 -0.004314 0.000000
# 3 -0.004800 0.000199 0.006908 0.000000 -0.000647 0.000000
# 4 0.000000 0.000000 0.000000 0.046314 0.000000 0.023131
# 5 -0.000393 -0.004314 -0.000647 0.000000 0.028173 0.000000
# 6 0.000000 0.000000 0.000000 0.023131 0.000000 0.081213
#
#
# Mechanical properties :
#
#
# Convention : Reuss Voigt Hill
#
# Bulk Modulus (GPa) = 19.15334 67.15939 43.15636
# Shear Modulus (GPa) = 21.29179 36.07255 28.68217
#
# Velocity S-wave (km/s) = 3.21855 4.18931 3.73559
# Velocity P-wave (km/s) = 4.80944 7.48834 6.29309
#
# Compressibility (1/GPa) = 0.05221022
#
# Stress axis : x y z
#
# Youngs Moduli (GPa) = 103.23235 24.76763 144.76667
#
# Poissons Ratio (x) = -0.05500 0.69481
# Poissons Ratio (y) = -0.22922 -0.02885
# Poissons Ratio (z) = 0.49547 -0.00494
#
# Static dielectric constant tensor:
#      x y z
#    x 1.668930 0.000000 0.039000 
#    y 0.000000 1.789700 0.000000 
#    z 0.039000 0.000000 1.742830 
# 
# From -- ./inp_files/94493.got.cif
#   From: 2010.05.17/outbox.cif.g08.bks.cpg/sg10_48_cif.got.tgz:94493.got - 2010.06.03 11:33:40.
