data_PCOD9150121
_publ_section_title
;
Structure prediction by ZEFSAII (Michael W. Deem and Ramdas Pophale) SiO2 
 PCOD9150121
Probable space group: P 2/M
;
_chemical_formula_sum "Si O2"
_cell_formula_units_Z 25
_cell_length_a 17.039516
_cell_length_b 14.444743
_cell_length_c 13.707994
_cell_angle_alpha 90.000000
_cell_angle_beta 23.502277
_cell_angle_gamma 90.000000
_cell_volume 1345.489625
_symmetry_space_group_name_H-M "P 2/M"
_symmetry_group_IT_number 10
_symmetry_cell_setting 'monoclinic'
loop_
_space_group_symop_operation_xyz
x,y,z
-x,y,-z
-x,-y,-z
x,-y,z
loop_
_atom_site_type_symbol
_atom_site_label
_atom_site_fract_x
_atom_site_fract_y
_atom_site_fract_z
Si Si1 0.282029 0.648899 0.795757
Si Si2 0.000000 0.500000 0.000000
Si Si3 0.454152 0.000000 0.666872
Si Si4 0.975369 0.744810 0.634089
Si Si5 0.649813 0.395989 0.055252
Si Si6 0.106935 0.000000 0.774005
Si Si7 0.326589 0.394540 0.278303
Si Si8 0.861596 0.842155 0.959394
O O1 0.500000 0.653557 0.500000
O O2 0.317922 0.613422 0.866109
O O3 0.137164 0.581555 0.899866
O O4 0.189636 0.751462 0.917908
O O5 0.500000 0.000000 0.500000
O O6 0.660677 0.000000 0.484678
O O7 0.327946 0.091474 0.832213
O O8 0.161512 0.680668 0.447521
O O9 0.000000 0.788997 0.500000
O O10 0.930299 0.811355 0.774566
O O11 0.790359 0.675596 0.841750
O O12 0.701838 0.500000 0.965563
O O13 0.429113 0.381005 0.267203
O O14 0.028835 0.907225 0.812909
O O15 0.000000 0.000000 0.000000
O O16 0.247463 0.500000 0.365025
O O17 0.500000 0.388358 0.000000
#
# Coordination Sequence:
#
# PCOD9150121 Si02
#       8
#     4   1   2   4   4   2   4   4
#     4  11  25  42  61  88 135 179 218 266 316 389
#     4  12  26  40  60  88 132 190 226 252 322 378
#     4  11  21  44  73  96 128 155 205 275 322 389
#     4  11  22  39  61  89 130 166 210 265 316 390
#     4  10  21  38  55  84 119 170 228 264 315 363
#     4  11  23  44  73 104 125 154 208 271 328 399
#     4  10  20  35  60  88 120 173 228 277 320 361
#     4  10  25  42  67 101 122 169 211 260 339 386
#
# _framework density 18.580597000000001
#
# number of rings (size 3 to 8) (size 9 to 14) (size 15 to 20)
#    0.000    1.440    4.000    1.200    1.120    5.760 
#    5.760    1.600    0.000    0.960    0.000    0.000 
#    0.000    0.000    0.000    0.000    0.000    0.000 
#
# Total GULP energy -139287.774928 kJ/mol
# GULP energy per Si atom -5571.510997 kJ/mol
# Density = 1.853831 g / cm^3
# Si number density = 18.580597 Si / 1000 Ang^3
#
#
#
# Elastic Constant Matrix: (Units=GPa)
#
#
# Indices 1 2 3 4 5 6 
#
# 1 135.1906 71.9057 63.1555 0.0000 -10.2903 0.0000
# 2 71.9057 145.8522 63.4507 0.0000 -6.9702 0.0000
# 3 63.1555 63.4507 98.5768 0.0000 0.7518 0.0000
# 4 0.0000 0.0000 0.0000 23.2315 0.0000 4.1433
# 5 -10.2903 -6.9702 0.7518 0.0000 36.5763 0.0000
# 6 0.0000 0.0000 0.0000 4.1433 0.0000 30.8271
#
#
#
# Elastic Compliance Matrix: (Units=1/GPa)
#
#
# Indices 1 2 3 4 5 6 
#
# 1 0.011991 -0.003367 -0.005537 0.000000 0.002846 0.000000
# 2 -0.003367 0.010608 -0.004680 0.000000 0.001170 0.000000
# 3 -0.005537 -0.004680 0.016725 0.000000 -0.002793 0.000000
# 4 0.000000 0.000000 0.000000 0.044102 0.000000 -0.005928
# 5 0.002846 0.001170 -0.002793 0.000000 0.028421 0.000000
# 6 0.000000 0.000000 0.000000 -0.005928 0.000000 0.033236
#
#
# Mechanical properties :
#
#
# Convention : Reuss Voigt Hill
#
# Bulk Modulus (GPa) = 82.25697 86.29371 84.27534
# Shear Modulus (GPa) = 28.36032 30.20082 29.28057
#
# Velocity S-wave (km/s) = 3.91108 4.03599 3.97403
# Velocity P-wave (km/s) = 8.04747 8.26213 8.15551
#
# Compressibility (1/GPa) = 0.01215702
#
# Stress axis : x y z
#
# Youngs Moduli (GPa) = 83.39646 94.26867 59.78987
#
# Poissons Ratio (x) = 0.31739 0.33104
# Poissons Ratio (y) = 0.28078 0.27981
# Poissons Ratio (z) = 0.46175 0.44117
#
# Static dielectric constant tensor:
#      x y z
#    x 1.654790 0.000000 0.032840 
#    y 0.000000 1.619870 0.000000 
#    z 0.032840 0.000000 1.619260 
# 
# From -- ./inp_files/51586.got.cif
#   From: 2010.05.17/outbox.cif.g08.bks.cpg/sg10_26_cif.got.tgz:51586.got - 2010.06.03 11:33:40.
