data_PCOD9150849
_publ_section_title
;
Structure prediction by ZEFSAII (Michael W. Deem and Ramdas Pophale) SiO2 
 PCOD9150849
Probable space group: P 2/M
;
_chemical_formula_sum "Si O2"
_cell_formula_units_Z 32
_cell_length_a 12.363384
_cell_length_b 8.749159
_cell_length_c 28.555467
_cell_angle_alpha 90.000000
_cell_angle_beta 149.446135
_cell_angle_gamma 90.000000
_cell_volume 1570.197216
_symmetry_space_group_name_H-M "P 2/M"
_symmetry_group_IT_number 10
_symmetry_cell_setting 'monoclinic'
loop_
_space_group_symop_operation_xyz
x,y,z
-x,y,-z
-x,-y,-z
x,-y,z
loop_
_atom_site_type_symbol
_atom_site_label
_atom_site_fract_x
_atom_site_fract_y
_atom_site_fract_z
Si Si1 0.747758 0.826051 0.109139
Si Si2 0.323411 0.317241 0.717851
Si Si3 0.580415 0.813634 0.644047
Si Si4 0.122658 0.319494 0.936258
Si Si5 0.113074 0.185220 0.434828
Si Si6 0.600925 0.316756 0.146724
Si Si7 0.690126 0.182424 0.790075
Si Si8 0.745281 0.176628 0.610170
O O1 0.867817 0.729020 0.114742
O O2 0.743564 0.762754 0.160148
O O3 0.825847 0.000000 0.136649
O O4 0.500000 0.824716 0.000000
O O5 0.321088 0.500000 0.714744
O O6 0.354519 0.270309 0.783681
O O7 0.515756 0.254094 0.758914
O O8 0.094917 0.250446 0.618230
O O9 0.335576 0.772204 0.542037
O O10 0.644353 0.765867 0.719582
O O11 0.726634 0.756636 0.655348
O O12 0.590140 0.000000 0.645757
O O13 0.092291 0.500000 0.928936
O O14 0.930093 0.234395 0.889684
O O15 0.354089 0.280319 0.043357
O O16 0.126978 0.244465 0.385970
O O17 0.103450 0.000000 0.430093
O O18 0.625864 0.500000 0.151414
O O19 0.674093 0.000000 0.785917
O O20 0.500000 0.173249 0.500000
O O21 0.814304 0.000000 0.640353
#
# Coordination Sequence:
#
# PCOD9150849 Si02
#       8
#     4   4   4   4   4   4   4   4
#     4   9  17  31  55  87 116 139 172 220 268 317
#     4  11  24  40  54  74 106 143 187 232 273 321
#     4   8  16  32  55  82 111 140 171 212 266 328
#     4  10  20  37  59  81 109 145 180 217 269 329
#     4   9  17  33  58  84 108 138 175 216 266 324
#     4   9  20  38  58  78 107 148 184 217 267 330
#     4  11  23  38  55  78 107 141 186 233 273 318
#     4   7  11  24  50  81 106 129 163 206 253 310
#
# _framework density 20.379607
#
# number of rings (size 3 to 8) (size 9 to 14) (size 15 to 20)
#    0.000    2.750    0.000    3.000    0.000    5.000 
#    0.000    7.500    0.000    4.125    0.000    0.000 
#    0.000    0.000    0.000    0.000    0.000    0.000 
#
# Total GULP energy -178631.259157 kJ/mol
# GULP energy per Si atom -5582.226849 kJ/mol
# Density = 2.033322 g / cm^3
# Si number density = 20.379607 Si / 1000 Ang^3
#
#
#
# Elastic Constant Matrix: (Units=GPa)
#
#
# Indices 1 2 3 4 5 6 
#
# 1 65.7236 14.6645 25.2414 0.0000 19.0075 0.0000
# 2 14.6645 21.6422 16.7297 0.0000 6.5669 0.0000
# 3 25.2414 16.7297 59.6110 0.0000 9.1182 0.0000
# 4 0.0000 0.0000 0.0000 12.2022 0.0000 -0.1583
# 5 19.0075 6.5669 9.1182 0.0000 34.1633 0.0000
# 6 0.0000 0.0000 0.0000 -0.1583 0.0000 28.3627
#
#
#
# Elastic Compliance Matrix: (Units=1/GPa)
#
#
# Indices 1 2 3 4 5 6 
#
# 1 0.021720 -0.007560 -0.005681 0.000000 -0.009115 0.000000
# 2 -0.007560 0.063396 -0.013939 0.000000 -0.004260 0.000000
# 3 -0.005681 -0.013939 0.023145 0.000000 -0.000337 0.000000
# 4 0.000000 0.000000 0.000000 0.081958 0.000000 0.000458
# 5 -0.009115 -0.004260 -0.000337 0.000000 0.035251 0.000000
# 6 0.000000 0.000000 0.000000 0.000458 0.000000 0.035260
#
#
# Mechanical properties :
#
#
# Convention : Reuss Voigt Hill
#
# Bulk Modulus (GPa) = 18.55279 28.91644 23.73462
# Shear Modulus (GPa) = 15.01240 20.96838 17.99039
#
# Velocity S-wave (km/s) = 2.71705 3.21111 2.97436
# Velocity P-wave (km/s) = 4.35506 5.28848 4.84430
#
# Compressibility (1/GPa) = 0.05390023
#
# Stress axis : x y z
#
# Youngs Moduli (GPa) = 46.04071 15.77378 43.20664
#
# Poissons Ratio (x) = 0.11925 0.24546
# Poissons Ratio (y) = 0.34806 0.60227
# Poissons Ratio (z) = 0.26156 0.21988
#
# Static dielectric constant tensor:
#      x y z
#    x 1.715810 0.000000 -0.011710 
#    y 0.000000 1.686080 0.000000 
#    z -0.011710 0.000000 1.769440 
# 
# From -- ./inp_files/95029.got.cif
#   From: 2010.05.17/outbox.cif.g08.bks.cpg/sg10_48_cif.got.tgz:95029.got - 2010.06.03 11:33:40.
