data_PCOD9150403
_publ_section_title
;
Structure prediction by ZEFSAII (Michael W. Deem and Ramdas Pophale) SiO2 
 PCOD9150403
Probable space group: P 2/M
;
_chemical_formula_sum "Si O2"
_cell_formula_units_Z 32
_cell_length_a 25.470990
_cell_length_b 7.885197
_cell_length_c 13.882344
_cell_angle_alpha 90.000000
_cell_angle_beta 149.017021
_cell_angle_gamma 90.000000
_cell_volume 1435.310027
_symmetry_space_group_name_H-M "P 2/M"
_symmetry_group_IT_number 10
_symmetry_cell_setting 'monoclinic'
loop_
_space_group_symop_operation_xyz
x,y,z
-x,y,-z
-x,-y,-z
x,-y,z
loop_
_atom_site_type_symbol
_atom_site_label
_atom_site_fract_x
_atom_site_fract_y
_atom_site_fract_z
Si Si1 0.544063 0.704098 0.868347
Si Si2 0.147299 0.801584 0.343149
Si Si3 0.723385 0.804140 0.789169
Si Si4 0.941865 0.293857 0.502275
Si Si5 0.741504 0.705983 0.285560
Si Si6 0.051117 0.301343 0.871419
Si Si7 0.424699 0.698731 0.298761
Si Si8 0.324768 0.795143 0.490905
O O1 0.553537 0.500000 0.881736
O O2 0.566578 0.770432 0.795101
O O3 0.427431 0.747601 0.707909
O O4 0.629988 0.764148 0.077892
O O5 0.213606 0.778257 0.545001
O O6 0.221019 0.730672 0.376378
O O7 0.036424 0.723173 0.186626
O O8 0.130741 0.000000 0.299501
O O9 0.686954 0.715179 0.829096
O O10 0.667340 0.731377 0.606394
O O11 0.696231 0.000000 0.758046
O O12 0.842152 0.791107 0.950673
O O13 0.944918 0.500000 0.504377
O O14 0.999941 0.242092 0.690823
O O15 0.000000 0.229453 0.500000
O O16 0.823741 0.248613 0.331800
O O17 0.742622 0.500000 0.297551
O O18 0.074036 0.500000 0.899715
O O19 0.500000 0.771486 0.500000
O O20 0.449150 0.500000 0.328593
O O21 0.318523 0.000000 0.477923
#
# Coordination Sequence:
#
# PCOD9150403 Si02
#       8
#     4   4   4   4   4   4   4   4
#     4  10  21  36  58  86 116 149 187 235 281 333
#     4  10  21  40  61  80 110 149 189 236 284 333
#     4  11  23  38  57  83 116 152 190 231 280 338
#     4   8  15  29  52  78 105 140 178 218 267 326
#     4   9  19  35  55  83 114 145 185 229 282 334
#     4  10  21  37  59  85 113 145 186 234 283 335
#     4  10  20  36  58  84 115 150 189 232 281 332
#     4  10  23  40  58  80 110 152 194 232 281 339
#
# _framework density 22.294834000000002
#
# number of rings (size 3 to 8) (size 9 to 14) (size 15 to 20)
#    0.000    2.250    1.250    1.875    1.750    3.750 
#    0.000    5.000    0.000    1.875    0.000    0.000 
#    0.000    0.000    0.000    0.000    0.000    0.000 
#
# Total GULP energy -178667.686353 kJ/mol
# GULP energy per Si atom -5583.365199 kJ/mol
# Density = 2.224409 g / cm^3
# Si number density = 22.294834 Si / 1000 Ang^3
#
#
#
# Elastic Constant Matrix: (Units=GPa)
#
#
# Indices 1 2 3 4 5 6 
#
# 1 66.4443 -4.9621 -14.0682 0.0000 19.6570 0.0000
# 2 -4.9621 30.0774 -3.2180 0.0000 -1.3765 0.0000
# 3 -14.0682 -3.2180 64.5826 0.0000 19.7424 0.0000
# 4 0.0000 0.0000 0.0000 35.7031 0.0000 14.4054
# 5 19.6570 -1.3765 19.7424 0.0000 25.3517 0.0000
# 6 0.0000 0.0000 0.0000 14.4054 0.0000 21.6450
#
#
#
# Elastic Compliance Matrix: (Units=1/GPa)
#
#
# Indices 1 2 3 4 5 6 
#
# 1 0.030515 0.005281 0.018447 0.000000 -0.037739 0.000000
# 2 0.005281 0.034349 0.004650 0.000000 -0.005851 0.000000
# 3 0.018447 0.004650 0.031537 0.000000 -0.038609 0.000000
# 4 0.000000 0.000000 0.000000 0.038291 0.000000 -0.025484
# 5 -0.037739 -0.005851 -0.038609 0.000000 0.098456 0.000000
# 6 0.000000 0.000000 0.000000 -0.025484 0.000000 0.063160
#
#
# Mechanical properties :
#
#
# Convention : Reuss Voigt Hill
#
# Bulk Modulus (GPa) = 6.52928 12.95642 9.74285
# Shear Modulus (GPa) = 17.20559 28.76348 22.98453
#
# Velocity S-wave (km/s) = 2.78102 3.59575 3.21430
# Velocity P-wave (km/s) = 3.63965 4.80242 4.26088
#
# Compressibility (1/GPa) = 0.15315631
#
# Stress axis : x y z
#
# Youngs Moduli (GPa) = 32.77071 29.11331 31.70911
#
# Poissons Ratio (x) = -0.15374 -0.58493
# Poissons Ratio (y) = -0.17305 -0.14746
# Poissons Ratio (z) = -0.60452 -0.13539
#
# Static dielectric constant tensor:
#      x y z
#    x 1.840760 0.000000 0.009770 
#    y 0.000000 1.808360 0.000000 
#    z 0.009770 0.000000 1.836850 
# 
# From -- ./inp_files/66611.got.cif
#   From: 2010.05.17/outbox.cif.g08.bks.cpg/sg10_34_cif.got.tgz:66611.got - 2010.06.03 11:33:40.
