data_PCOD9150998
_publ_section_title
;
Structure prediction by ZEFSAII (Michael W. Deem and Ramdas Pophale) SiO2 
 PCOD9150998
Probable space group: P 2/M
;
_chemical_formula_sum "Si O2"
_cell_formula_units_Z 24
_cell_length_a 14.793420
_cell_length_b 8.206254
_cell_length_c 9.826387
_cell_angle_alpha 90.000000
_cell_angle_beta 82.087032
_cell_angle_gamma 90.000000
_cell_volume 1181.550763
_symmetry_space_group_name_H-M "P 2/M"
_symmetry_group_IT_number 10
_symmetry_cell_setting 'monoclinic'
loop_
_space_group_symop_operation_xyz
x,y,z
-x,y,-z
-x,-y,-z
x,-y,z
loop_
_atom_site_type_symbol
_atom_site_label
_atom_site_fract_x
_atom_site_fract_y
_atom_site_fract_z
Si Si1 0.267999 0.190050 0.953023
Si Si2 0.421763 0.306534 0.115597
Si Si3 0.079868 0.312615 0.093567
Si Si4 0.586827 0.302988 0.571605
Si Si5 0.248261 0.194897 0.650826
Si Si6 0.041381 0.697299 0.635521
O O1 0.276385 0.255449 0.796587
O O2 0.293203 0.000000 0.947823
O O3 0.329282 0.278877 0.051788
O O4 0.163641 0.211681 0.019375
O O5 0.438398 0.500000 0.125260
O O6 0.418942 0.242352 0.270920
O O7 0.500000 0.237156 0.000000
O O8 0.111187 0.500000 0.111474
O O9 0.030602 0.244911 0.236919
O O10 0.000000 0.319009 0.000000
O O11 0.500000 0.247099 0.500000
O O12 0.584658 0.500000 0.575069
O O13 0.679787 0.253601 0.476399
O O14 0.144527 0.246461 0.640333
O O15 0.250528 0.000000 0.655199
O O16 0.042972 0.500000 0.643294
O O17 0.000000 0.746077 0.500000
#
# Coordination Sequence:
#
# PCOD9150998 Si02
#       6
#     4   4   4   4   4   4
#     4  11  24  39  59  88 124 162 198 242 295 353
#     4  10  22  41  66  93 118 150 196 247 297 352
#     4  10  20  37  61  87 115 155 203 248 293 342
#     4  10  22  41  66  92 118 152 196 246 297 351
#     4  11  24  40  59  87 123 163 200 239 295 356
#     4  10  22  39  60  86 118 156 201 250 295 346
#
# _framework density 20.312287999999999
#
# number of rings (size 3 to 8) (size 9 to 14) (size 15 to 20)
#    0.000    1.667    1.667    2.000    2.333    6.000 
#    0.000    0.000    0.000    0.000    0.000    0.000 
#    0.000    0.000    0.000    0.000    0.000    0.000 
#
# Total GULP energy -134048.195222 kJ/mol
# GULP energy per Si atom -5585.341468 kJ/mol
# Density = 2.026606 g / cm^3
# Si number density = 20.312288 Si / 1000 Ang^3
#
#
#
# Elastic Constant Matrix: (Units=GPa)
#
#
# Indices 1 2 3 4 5 6 
#
# 1 77.8091 -4.3613 62.9586 0.0000 -1.0845 0.0000
# 2 -4.3613 11.3745 13.6427 0.0000 0.5495 0.0000
# 3 62.9586 13.6427 210.8259 0.0000 -2.5495 0.0000
# 4 0.0000 0.0000 0.0000 9.9706 0.0000 26.2640
# 5 -1.0845 0.5495 -2.5495 0.0000 37.0001 0.0000
# 6 0.0000 0.0000 0.0000 26.2640 0.0000 -149.4064
#
#
#
# Elastic Compliance Matrix: (Units=1/GPa)
#
#
# Indices 1 2 3 4 5 6 
#
# 1 0.019148 0.015404 -0.006717 0.000000 -0.000130 0.000000
# 2 0.015404 0.107831 -0.011602 0.000000 -0.001949 0.000000
# 3 -0.006717 -0.011602 0.007506 0.000000 0.000493 0.000000
# 4 0.000000 0.000000 0.000000 0.068552 0.000000 0.012051
# 5 -0.000130 -0.001949 0.000493 0.000000 0.027086 0.000000
# 6 0.000000 0.000000 0.000000 0.012051 0.000000 -0.004575
#
#
# Mechanical properties :
#
#
# Convention : Reuss Voigt Hill
#
# Bulk Modulus (GPa) = 7.77258 49.38774 28.58016
# Shear Modulus (GPa) = 18.23074 -5.30250 6.46412
#
# Velocity S-wave (km/s) = 2.99912 -1.61745 1.78585
# Velocity P-wave (km/s) = 3.97842 4.56933 4.28407
#
# Compressibility (1/GPa) = 0.12865745
#
# Stress axis : x y z
#
# Youngs Moduli (GPa) = 52.22400 9.27374 133.23158
#
# Poissons Ratio (x) = -0.14285 0.89487
# Poissons Ratio (y) = -0.80447 1.54570
# Poissons Ratio (z) = 0.35077 0.10759
#
# Static dielectric constant tensor:
#      x y z
#    x 1.693620 0.000000 0.034800 
#    y 0.000000 1.729360 0.000000 
#    z 0.034800 0.000000 1.763440 
# 
# From -- ./inp_files/27097.got.cif
#   From: 2010.05.17/outbox.cif.g08.bks.cpg/sg10_14_cif.got.tgz:27097.got - 2010.06.03 11:33:40.
