data_PCOD9150853
_publ_section_title
;
Structure prediction by ZEFSAII (Michael W. Deem and Ramdas Pophale) SiO2 
 PCOD9150853
Probable space group: P 2/M
;
_chemical_formula_sum "Si O2"
_cell_formula_units_Z 30
_cell_length_a 15.691002
_cell_length_b 12.357375
_cell_length_c 11.170090
_cell_angle_alpha 90.000000
_cell_angle_beta 47.247040
_cell_angle_gamma 90.000000
_cell_volume 1590.375498
_symmetry_space_group_name_H-M "P 2/M"
_symmetry_group_IT_number 10
_symmetry_cell_setting 'monoclinic'
loop_
_space_group_symop_operation_xyz
x,y,z
-x,y,-z
-x,-y,-z
x,-y,z
loop_
_atom_site_type_symbol
_atom_site_label
_atom_site_fract_x
_atom_site_fract_y
_atom_site_fract_z
Si Si1 0.500000 0.709094 0.000000
Si Si2 0.084166 0.129253 0.528132
Si Si3 0.984421 0.782008 0.146894
Si Si4 0.700037 0.122509 0.827370
Si Si5 0.435643 0.622645 0.311596
Si Si6 0.598309 0.770748 0.317552
Si Si7 0.231199 0.371955 0.678624
Si Si8 0.203297 0.120290 0.003836
O O1 0.397902 0.789904 0.058829
O O2 0.452399 0.640143 0.155428
O O3 0.215294 0.153108 0.361847
O O4 0.000000 0.171628 0.500000
O O5 0.063430 0.164238 0.684918
O O6 0.070360 0.000000 0.539734
O O7 0.104317 0.683268 0.791764
O O8 0.119815 0.779126 0.053379
O O9 0.000000 0.836769 0.000000
O O10 0.655080 0.000000 0.850485
O O11 0.776659 0.119018 0.874002
O O12 0.465408 0.500000 0.317718
O O13 0.524874 0.701606 0.292802
O O14 0.305058 0.640638 0.484887
O O15 0.500000 0.816332 0.500000
O O16 0.685834 0.691834 0.307128
O O17 0.676554 0.859540 0.178406
O O18 0.222521 0.500000 0.713769
O O19 0.156558 0.000000 0.016346
#
# Coordination Sequence:
#
# PCOD9150853 Si02
#       8
#     2   4   4   4   4   4   4   4
#     4  12  20  34  60  86 122 146 190 248 300 344
#     4  10  20  37  59  81 112 159 202 236 288 357
#     4  12  23  38  61  90 120 153 199 256 302 346
#     4  10  21  37  58  83 115 160 203 240 289 358
#     4  10  21  37  61  88 115 152 197 244 297 355
#     4  10  20  40  62  85 117 159 197 233 297 363
#     4  10  22  41  61  85 119 154 195 247 299 353
#     4  11  22  39  59  85 121 157 196 245 296 352
#
# _framework density 18.863472000000002
#
# number of rings (size 3 to 8) (size 9 to 14) (size 15 to 20)
#    0.000    1.467    4.000    2.000    0.000    3.200 
#    0.000    0.000    0.000    0.400    0.000    0.000 
#    0.000    0.000    0.000    0.000    0.000    0.000 
#
# Total GULP energy -167010.931557 kJ/mol
# GULP energy per Si atom -5567.031052 kJ/mol
# Density = 1.882054 g / cm^3
# Si number density = 18.863472 Si / 1000 Ang^3
#
#
#
# Elastic Constant Matrix: (Units=GPa)
#
#
# Indices 1 2 3 4 5 6 
#
# 1 46.5626 11.7186 24.3814 0.0000 0.2511 0.0000
# 2 11.7186 39.2166 27.0228 0.0000 -8.4693 0.0000
# 3 24.3814 27.0228 134.3086 0.0000 7.9882 0.0000
# 4 0.0000 0.0000 0.0000 50.3587 0.0000 -3.2220
# 5 0.2511 -8.4693 7.9882 0.0000 36.9454 0.0000
# 6 0.0000 0.0000 0.0000 -3.2220 0.0000 17.8104
#
#
#
# Elastic Compliance Matrix: (Units=1/GPa)
#
#
# Indices 1 2 3 4 5 6 
#
# 1 0.024545 -0.005133 -0.003387 0.000000 -0.000611 0.000000
# 2 -0.005133 0.033336 -0.006313 0.000000 0.009042 0.000000
# 3 -0.003387 -0.006313 0.009538 0.000000 -0.003486 0.000000
# 4 0.000000 0.000000 0.000000 0.020090 0.000000 0.003634
# 5 -0.000611 0.009042 -0.003486 0.000000 0.029898 0.000000
# 6 0.000000 0.000000 0.000000 0.003634 0.000000 0.056805
#
#
# Mechanical properties :
#
#
# Convention : Reuss Voigt Hill
#
# Bulk Modulus (GPa) = 26.48754 38.48147 32.48450
# Shear Modulus (GPa) = 23.09884 31.48721 27.29303
#
# Velocity S-wave (km/s) = 3.50312 4.09004 3.80790
# Velocity P-wave (km/s) = 5.51676 6.53826 6.04911
#
# Compressibility (1/GPa) = 0.03775361
#
# Stress axis : x y z
#
# Youngs Moduli (GPa) = 40.74165 29.99750 104.84494
#
# Poissons Ratio (x) = 0.15397 0.35507
# Poissons Ratio (y) = 0.20912 0.66191
# Poissons Ratio (z) = 0.13798 0.18938
#
# Static dielectric constant tensor:
#      x y z
#    x 1.679040 0.000000 -0.000340 
#    y 0.000000 1.624700 0.000000 
#    z -0.000340 0.000000 1.703900 
# 
# From -- ./inp_files/53669.got.cif
#   From: 2010.05.17/outbox.cif.g08.bks.cpg/sg10_27_cif.got.tgz:53669.got - 2010.06.03 11:33:40.
