data_PCOD9150354
_publ_section_title
;
Structure prediction by ZEFSAII (Michael W. Deem and Ramdas Pophale) SiO2 
 PCOD9150354
Probable space group: P 2/M
;
_chemical_formula_sum "Si O2"
_cell_formula_units_Z 32
_cell_length_a 27.102291
_cell_length_b 7.845234
_cell_length_c 21.895780
_cell_angle_alpha 90.000000
_cell_angle_beta 20.193705
_cell_angle_gamma 90.000000
_cell_volume 1607.077910
_symmetry_space_group_name_H-M "P 2/M"
_symmetry_group_IT_number 10
_symmetry_cell_setting 'monoclinic'
loop_
_space_group_symop_operation_xyz
x,y,z
-x,y,-z
-x,-y,-z
x,-y,z
loop_
_atom_site_type_symbol
_atom_site_label
_atom_site_fract_x
_atom_site_fract_y
_atom_site_fract_z
Si Si1 0.358528 0.705234 0.962975
Si Si2 0.635181 0.204625 0.303229
Si Si3 0.529235 0.796760 0.296089
Si Si4 0.671380 0.293998 0.646646
Si Si5 0.941701 0.698099 0.003667
Si Si6 0.341657 0.291733 0.202328
Si Si7 0.156917 0.291091 0.301989
Si Si8 0.780426 0.200912 0.390384
O O1 0.354227 0.500000 0.966527
O O2 0.374461 0.765100 0.875298
O O3 0.506507 0.753429 0.824645
O O4 0.227882 0.766487 0.156273
O O5 0.500000 0.267370 0.500000
O O6 0.604663 0.269051 0.269797
O O7 0.624917 0.000000 0.313163
O O8 0.790953 0.238763 0.151297
O O9 0.367530 0.731276 0.469078
O O10 0.512624 0.000000 0.321748
O O11 0.680660 0.500000 0.633950
O O12 0.705816 0.235517 0.675140
O O13 0.761118 0.226202 0.485371
O O14 0.914850 0.500000 0.046729
O O15 0.074608 0.718124 0.803078
O O16 0.000000 0.776330 0.000000
O O17 0.341286 0.500000 0.204895
O O18 0.247639 0.238435 0.254902
O O19 0.500000 0.238406 0.000000
O O20 0.157368 0.500000 0.299284
O O21 0.000000 0.233009 0.500000
O O22 0.789416 0.000000 0.366987
#
# Coordination Sequence:
#
# PCOD9150354 Si02
#       8
#     4   4   4   4   4   4   4   4
#     4   9  16  28  48  72 100 135 173 216 267 320
#     4  10  21  39  62  85 110 145 188 222 256 313
#     4   9  19  35  56  81 107 140 181 224 265 314
#     4   9  16  28  49  75 102 134 176 224 269 316
#     4  11  24  40  59  86 117 144 174 220 273 317
#     4   9  14  24  44  67  93 131 175 217 265 318
#     4   9  16  26  41  66  97 127 168 220 267 313
#     4  10  20  36  58  81 110 147 184 220 266 324
#
# _framework density 19.911913999999999
#
# number of rings (size 3 to 8) (size 9 to 14) (size 15 to 20)
#    0.000    2.500    1.250    1.500    0.000    3.250 
#    2.250    0.000    0.000    1.500    0.000    0.000 
#    0.000    0.000    0.000    0.000    0.000    0.000 
#
# Total GULP energy -178404.803983 kJ/mol
# GULP energy per Si atom -5575.150124 kJ/mol
# Density = 1.986659 g / cm^3
# Si number density = 19.911914 Si / 1000 Ang^3
#
#
#
# Elastic Constant Matrix: (Units=GPa)
#
#
# Indices 1 2 3 4 5 6 
#
# 1 165.0116 8.9533 95.7205 0.0000 3.6149 0.0000
# 2 8.9533 16.4494 1.7101 0.0000 -0.1142 0.0000
# 3 95.7205 1.7101 155.9913 0.0000 -1.1348 0.0000
# 4 0.0000 0.0000 0.0000 7.5365 0.0000 5.5572
# 5 3.6149 -0.1142 -1.1348 0.0000 26.5324 0.0000
# 6 0.0000 0.0000 0.0000 5.5572 0.0000 35.9220
#
#
#
# Elastic Compliance Matrix: (Units=1/GPa)
#
#
# Indices 1 2 3 4 5 6 
#
# 1 0.009827 -0.004737 -0.005990 0.000000 -0.001616 0.000000
# 2 -0.004737 0.063147 0.002222 0.000000 0.001012 0.000000
# 3 -0.005990 0.002222 0.010071 0.000000 0.001256 0.000000
# 4 0.000000 0.000000 0.000000 0.149772 0.000000 -0.023170
# 5 -0.001616 0.001012 0.001256 0.000000 0.037968 0.000000
# 6 0.000000 0.000000 0.000000 -0.023170 0.000000 0.031423
#
#
# Mechanical properties :
#
#
# Convention : Reuss Voigt Hill
#
# Bulk Modulus (GPa) = 15.14356 61.13554 38.13955
# Shear Modulus (GPa) = 14.65283 29.40274 22.02778
#
# Velocity S-wave (km/s) = 2.71566 3.84688 3.32966
# Velocity P-wave (km/s) = 4.17790 7.10640 5.82906
#
# Compressibility (1/GPa) = 0.06603467
#
# Stress axis : x y z
#
# Youngs Moduli (GPa) = 101.75597 15.83603 99.29366
#
# Poissons Ratio (x) = 0.07502 0.59479
# Poissons Ratio (y) = 0.48207 -0.22065
# Poissons Ratio (z) = 0.60954 -0.03519
#
# Static dielectric constant tensor:
#      x y z
#    x 1.706700 0.000000 0.014420 
#    y 0.000000 1.736310 0.000000 
#    z 0.014420 0.000000 1.667360 
# 
# From -- ./inp_files/86740.got.cif
#   From: 2010.05.17/outbox.cif.g08.bks.cpg/sg10_44_cif.got.tgz:86740.got - 2010.06.03 11:33:40.
