data_PCOD9150361
_publ_section_title
;
Structure prediction by ZEFSAII (Michael W. Deem and Ramdas Pophale) SiO2 
 PCOD9150361
Probable space group: P 2/M
;
_chemical_formula_sum "Si O2"
_cell_formula_units_Z 28
_cell_length_a 19.455770
_cell_length_b 7.373564
_cell_length_c 22.375758
_cell_angle_alpha 90.000000
_cell_angle_beta 19.207690
_cell_angle_gamma 90.000000
_cell_volume 1056.065394
_symmetry_space_group_name_H-M "P 2/M"
_symmetry_group_IT_number 10
_symmetry_cell_setting 'monoclinic'
loop_
_space_group_symop_operation_xyz
x,y,z
-x,y,-z
-x,-y,-z
x,-y,z
loop_
_atom_site_type_symbol
_atom_site_label
_atom_site_fract_x
_atom_site_fract_y
_atom_site_fract_z
Si Si1 0.819581 0.293112 0.722490
Si Si2 0.268620 0.779176 0.711298
Si Si3 0.272025 0.788476 0.382754
Si Si4 0.153891 0.779619 0.609620
Si Si5 0.101172 0.221144 0.074632
Si Si6 0.392107 0.780213 0.735721
Si Si7 0.437873 0.204238 0.954517
O O1 0.818228 0.500000 0.703652
O O2 0.643471 0.196278 0.828233
O O3 0.053028 0.220250 0.527053
O O4 0.737091 0.287448 0.858997
O O5 0.500000 0.727033 0.500000
O O6 0.086482 0.723803 0.816109
O O7 0.256760 0.720969 0.790181
O O8 0.261185 0.000000 0.716952
O O9 0.205188 0.710513 0.501487
O O10 0.463535 0.713081 0.186627
O O11 0.326349 0.000000 0.347469
O O12 0.958728 0.717650 0.809586
O O13 0.365955 0.735698 0.471344
O O14 0.138993 0.000000 0.617417
O O15 0.105025 0.000000 0.073984
O O16 0.306302 0.279771 0.870432
O O17 0.382044 0.000000 0.744582
O O18 0.364925 0.000000 0.001580
#
# Coordination Sequence:
#
# PCOD9150361 Si02
#       7
#     4   4   4   4   4   4   4
#     4  11  22  36  57  83 109 136 170 215 262 308
#     4   9  13  19  31  47  73 108 150 202 250 291
#     4  10  21  35  53  76 105 141 178 214 258 310
#     4   9  17  28  39  57  85 120 163 206 243 290
#     4   9  15  22  34  51  75 112 155 203 249 294
#     4   9  15  22  33  50  75 111 158 202 246 293
#     4  10  20  36  58  82 109 139 172 212 258 308
#
# _framework density 26.513511000000001
#
# number of rings (size 3 to 8) (size 9 to 14) (size 15 to 20)
#    0.000    2.429    1.429    3.429    0.000    5.714 
#    0.000    4.286    0.000    0.000    0.000    0.000 
#    0.000    0.000    0.000    2.571    0.000   15.143 
#
# Total GULP energy -156569.334415 kJ/mol
# GULP energy per Si atom -5591.761943 kJ/mol
# Density = 2.645316 g / cm^3
# Si number density = 26.513511 Si / 1000 Ang^3
#
#
#
# Elastic Constant Matrix: (Units=GPa)
#
#
# Indices 1 2 3 4 5 6 
#
# 1 102.3313 -3.2532 36.5437 0.0000 27.7943 0.0000
# 2 -3.2532 96.9691 -1.7250 0.0000 7.5781 0.0000
# 3 36.5437 -1.7250 168.4673 0.0000 37.4875 0.0000
# 4 0.0000 0.0000 0.0000 1.6798 0.0000 1.7364
# 5 27.7943 7.5781 37.4875 0.0000 54.4461 0.0000
# 6 0.0000 0.0000 0.0000 1.7364 0.0000 -54.1677
#
#
#
# Elastic Compliance Matrix: (Units=1/GPa)
#
#
# Indices 1 2 3 4 5 6 
#
# 1 0.011681 0.000767 -0.001388 0.000000 -0.005114 0.000000
# 2 0.000767 0.010513 0.000418 0.000000 -0.002143 0.000000
# 3 -0.001388 0.000418 0.007200 0.000000 -0.004307 0.000000
# 4 0.000000 0.000000 0.000000 0.576202 0.000000 0.018471
# 5 -0.005114 -0.002143 -0.004307 0.000000 0.024241 0.000000
# 6 0.000000 0.000000 0.000000 0.018471 0.000000 -0.017869
#
#
# Mechanical properties :
#
#
# Convention : Reuss Voigt Hill
#
# Bulk Modulus (GPa) = 34.49709 47.87762 41.18735
# Shear Modulus (GPa) = 8.03811 22.80513 15.42162
#
# Velocity S-wave (km/s) = 1.74307 2.93598 2.41436
# Velocity P-wave (km/s) = 4.13406 5.43970 4.83119
#
# Compressibility (1/GPa) = 0.02898796
#
# Stress axis : x y z
#
# Youngs Moduli (GPa) = 85.60669 95.11878 138.89728
#
# Poissons Ratio (x) = -0.07294 0.19279
# Poissons Ratio (y) = -0.06565 -0.05807
# Poissons Ratio (z) = 0.11882 -0.03977
#
# Static dielectric constant tensor:
#      x y z
#    x 2.129390 0.000000 0.027460 
#    y 0.000000 1.251630 0.000000 
#    z 0.027460 0.000000 2.012800 
# 
# From -- ./inp_files/90360.got.cif
#   From: 2010.05.17/outbox.cif.g08.bks.cpg/sg10_46_cif.got.tgz:90360.got - 2010.06.03 11:33:40.
