data_PCOD9150506
_publ_section_title
;
Structure prediction by ZEFSAII (Michael W. Deem and Ramdas Pophale) SiO2 
 PCOD9150506
Probable space group: P 2/M
;
_chemical_formula_sum "Si O2"
_cell_formula_units_Z 20
_cell_length_a 9.976366
_cell_length_b 7.531970
_cell_length_c 11.410873
_cell_angle_alpha 90.000000
_cell_angle_beta 88.685783
_cell_angle_gamma 90.000000
_cell_volume 857.206727
_symmetry_space_group_name_H-M "P 2/M"
_symmetry_group_IT_number 10
_symmetry_cell_setting 'monoclinic'
loop_
_space_group_symop_operation_xyz
x,y,z
-x,y,-z
-x,-y,-z
x,-y,z
loop_
_atom_site_type_symbol
_atom_site_label
_atom_site_fract_x
_atom_site_fract_y
_atom_site_fract_z
Si Si1 0.438318 0.714538 0.377385
Si Si2 0.067306 0.702393 0.613701
Si Si3 0.184474 0.205470 0.244509
Si Si4 0.350603 0.792040 0.021929
Si Si5 0.305128 0.715037 0.766122
O O1 0.500000 0.770411 0.500000
O O2 0.429684 0.500000 0.379078
O O3 0.292933 0.784033 0.347036
O O4 0.545953 0.768679 0.276683
O O5 0.104902 0.500000 0.578584
O O6 0.198312 0.780417 0.672512
O O7 0.000000 0.786781 0.500000
O O8 0.950478 0.700654 0.712866
O O9 0.261810 0.281903 0.129689
O O10 0.150018 0.000000 0.223047
O O11 0.368934 0.000000 0.050650
O O12 0.500000 0.714043 0.000000
O O13 0.278833 0.776146 0.898206
O O14 0.299942 0.500000 0.765704
#
# Coordination Sequence:
#
# PCOD9150506 Si02
#       5
#     4   4   4   4   4
#     4  10  20  36  59  86 115 150 194 243 295 347
#     4  10  22  42  63  85 120 158 192 239 296 350
#     4  11  23  38  59  87 117 155 198 239 290 346
#     4  10  21  39  59  82 120 160 192 238 296 346
#     4  10  21  36  60  89 113 150 200 244 289 343
#
# _framework density 23.331593999999999
#
# number of rings (size 3 to 8) (size 9 to 14) (size 15 to 20)
#    0.000    1.800    2.000    1.800    0.000    7.600 
#    0.000    6.000    0.000    0.000    0.000    0.000 
#    0.000    0.000    0.000    0.000    0.000    0.000 
#
# Total GULP energy -111819.397963 kJ/mol
# GULP energy per Si atom -5590.969898 kJ/mol
# Density = 2.327849 g / cm^3
# Si number density = 23.331594 Si / 1000 Ang^3
#
#
#
# Elastic Constant Matrix: (Units=GPa)
#
#
# Indices 1 2 3 4 5 6 
#
# 1 75.9763 -5.2343 -12.0091 0.0000 4.8388 0.0000
# 2 -5.2343 66.0384 -6.3042 0.0000 -3.5471 0.0000
# 3 -12.0091 -6.3042 79.3637 0.0000 3.5055 0.0000
# 4 0.0000 0.0000 0.0000 22.4191 0.0000 2.4258
# 5 4.8388 -3.5471 3.5055 0.0000 42.2505 0.0000
# 6 0.0000 0.0000 0.0000 2.4258 0.0000 -2.1198
#
#
#
# Elastic Compliance Matrix: (Units=1/GPa)
#
#
# Indices 1 2 3 4 5 6 
#
# 1 0.013705 0.001212 0.002243 0.000000 -0.001654 0.000000
# 2 0.001212 0.015425 0.001363 0.000000 0.001043 0.000000
# 3 0.002243 0.001363 0.013102 0.000000 -0.001230 0.000000
# 4 0.000000 0.000000 0.000000 0.039690 0.000000 0.045420
# 5 -0.001654 0.001043 -0.001230 0.000000 0.024047 0.000000
# 6 0.000000 0.000000 0.000000 0.045420 0.000000 -0.419776
#
#
# Mechanical properties :
#
#
# Convention : Reuss Voigt Hill
#
# Bulk Modulus (GPa) = 19.28010 19.36481 19.32246
# Shear Modulus (GPa) = -16.33177 28.83836 6.25330
#
# Velocity S-wave (km/s) = -2.64859 3.51952 1.63890
# Velocity P-wave (km/s) = 1.03534 4.98336 3.44688
#
# Compressibility (1/GPa) = 0.05186694
#
# Stress axis : x y z
#
# Youngs Moduli (GPa) = 72.96412 64.83046 76.32316
#
# Poissons Ratio (x) = -0.07855 -0.17120
# Poissons Ratio (y) = -0.08840 -0.10399
# Poissons Ratio (z) = -0.16367 -0.08833
#
# Static dielectric constant tensor:
#      x y z
#    x 1.835300 0.000000 -0.008350 
#    y 0.000000 1.881010 0.000000 
#    z -0.008350 0.000000 1.894460 
# 
# From -- ./inp_files/22161.got.cif
#   From: 2010.05.17/outbox.cif.g08.bks.cpg/sg10_12_cif.got.tgz:22161.got - 2010.06.03 11:33:40.
