data_PCOD9150543
_publ_section_title
;
Structure prediction by ZEFSAII (Michael W. Deem and Ramdas Pophale) SiO2 
 PCOD9150543
Probable space group: P 2/M
;
_chemical_formula_sum "Si O2"
_cell_formula_units_Z 32
_cell_length_a 18.228288
_cell_length_b 14.011877
_cell_length_c 12.281850
_cell_angle_alpha 90.000000
_cell_angle_beta 28.630046
_cell_angle_gamma 90.000000
_cell_volume 1503.070948
_symmetry_space_group_name_H-M "P 2/M"
_symmetry_group_IT_number 10
_symmetry_cell_setting 'monoclinic'
loop_
_space_group_symop_operation_xyz
x,y,z
-x,y,-z
-x,-y,-z
x,-y,z
loop_
_atom_site_type_symbol
_atom_site_label
_atom_site_fract_x
_atom_site_fract_y
_atom_site_fract_z
Si Si1 0.259393 0.792424 0.630029
Si Si2 0.067112 0.781586 0.674369
Si Si3 0.768397 0.889141 0.104124
Si Si4 0.245879 0.613928 0.366286
Si Si5 0.429085 0.612355 0.474169
Si Si6 0.443051 0.111707 0.819417
Si Si7 0.438010 0.385528 0.919410
Si Si8 0.162106 0.885059 0.343356
O O1 0.118678 0.797226 0.731384
O O2 0.291818 0.685558 0.630862
O O3 0.405633 0.826578 0.369599
O O4 0.252031 0.860623 0.744213
O O5 0.102899 0.672850 0.596149
O O6 0.166594 0.841362 0.457754
O O7 0.896525 0.820028 0.888103
O O8 0.817385 0.000000 0.030428
O O9 0.620051 0.878694 0.221725
O O10 0.221714 0.500000 0.401274
O O11 0.396086 0.637347 0.243991
O O12 0.298872 0.646689 0.176604
O O13 0.500000 0.627393 0.500000
O O14 0.387897 0.500000 0.516011
O O15 0.554379 0.636242 0.217626
O O16 0.477542 0.000000 0.792822
O O17 0.307213 0.139258 0.078773
O O18 0.429982 0.500000 0.939168
O O19 0.000000 0.855229 0.500000
O O20 0.158793 0.000000 0.354994
#
# Coordination Sequence:
#
# PCOD9150543 Si02
#       8
#     4   4   4   4   4   4   4   4
#     4  12  25  39  61  97 128 154 213 277 315 362
#     4  12  24  37  65  93 123 168 210 255 319 382
#     4  11  24  45  65  85 122 174 217 253 319 397
#     4   9  18  34  58  90 128 164 204 258 316 373
#     4  10  20  36  59  88 128 171 207 250 310 380
#     4  10  22  41  66  90 120 162 207 261 318 375
#     4   8  15  31  55  83 121 164 203 249 311 370
#     4  10  21  41  64  89 123 163 205 250 315 394
#
# _framework density 21.289745
#
# number of rings (size 3 to 8) (size 9 to 14) (size 15 to 20)
#    0.000    1.750    2.500    3.000    1.750    4.000 
#    0.000    1.875    0.000    2.625    0.000    0.000 
#    0.000    0.000    0.000    0.000    0.000    0.000 
#
# Total GULP energy -178766.337302 kJ/mol
# GULP energy per Si atom -5586.448041 kJ/mol
# Density = 2.124129 g / cm^3
# Si number density = 21.289745 Si / 1000 Ang^3
#
#
#
# Elastic Constant Matrix: (Units=GPa)
#
#
# Indices 1 2 3 4 5 6 
#
# 1 65.7833 13.2466 4.1186 0.0000 24.8142 0.0000
# 2 13.2466 71.9173 19.7311 0.0000 -4.2348 0.0000
# 3 4.1186 19.7311 60.6389 0.0000 11.0893 0.0000
# 4 0.0000 0.0000 0.0000 31.1441 0.0000 2.0497
# 5 24.8142 -4.2348 11.0893 0.0000 33.3943 0.0000
# 6 0.0000 0.0000 0.0000 2.0497 0.0000 27.0579
#
#
#
# Elastic Compliance Matrix: (Units=1/GPa)
#
#
# Indices 1 2 3 4 5 6 
#
# 1 0.023815 -0.006718 0.004216 0.000000 -0.019948 0.000000
# 2 -0.006718 0.017634 -0.007030 0.000000 0.009563 0.000000
# 3 0.004216 -0.007030 0.020471 0.000000 -0.010823 0.000000
# 4 0.000000 0.000000 0.000000 0.032270 0.000000 -0.002444
# 5 -0.019948 0.009563 -0.010823 0.000000 0.049575 0.000000
# 6 0.000000 0.000000 0.000000 -0.002444 0.000000 0.037143
#
#
# Mechanical properties :
#
#
# Convention : Reuss Voigt Hill
#
# Bulk Modulus (GPa) = 23.33360 30.28134 26.80747
# Shear Modulus (GPa) = 23.33642 29.06882 26.20262
#
# Velocity S-wave (km/s) = 3.31438 3.69913 3.51203
# Velocity P-wave (km/s) = 5.06267 5.70079 5.39118
#
# Compressibility (1/GPa) = 0.04285665
#
# Stress axis : x y z
#
# Youngs Moduli (GPa) = 41.99047 56.70797 48.84848
#
# Poissons Ratio (x) = 0.38096 -0.20597
# Poissons Ratio (y) = 0.28209 0.34343
# Poissons Ratio (z) = -0.17705 0.39868
#
# Static dielectric constant tensor:
#      x y z
#    x 1.752350 0.000000 0.039490 
#    y 0.000000 1.784860 0.000000 
#    z 0.039490 0.000000 1.781540 
# 
# From -- ./inp_files/54002.got.cif
#   From: 2010.05.17/outbox.cif.g08.bks.cpg/sg10_28_cif.got.tgz:54002.got - 2010.06.03 11:33:40.
