data_PCOD9150329
_publ_section_title
;
Structure prediction by ZEFSAII (Michael W. Deem and Ramdas Pophale) SiO2 
 PCOD9150329
Probable space group: P 2/M
;
_chemical_formula_sum "Si O2"
_cell_formula_units_Z 22
_cell_length_a 16.485894
_cell_length_b 11.547326
_cell_length_c 18.445661
_cell_angle_alpha 90.000000
_cell_angle_beta 161.547667
_cell_angle_gamma 90.000000
_cell_volume 1111.432936
_symmetry_space_group_name_H-M "P 2/M"
_symmetry_group_IT_number 10
_symmetry_cell_setting 'monoclinic'
loop_
_space_group_symop_operation_xyz
x,y,z
-x,y,-z
-x,-y,-z
x,-y,z
loop_
_atom_site_type_symbol
_atom_site_label
_atom_site_fract_x
_atom_site_fract_y
_atom_site_fract_z
Si Si1 0.000000 0.704022 0.000000
Si Si2 0.520752 0.873474 0.245748
Si Si3 0.672581 0.500000 0.782321
Si Si4 0.057388 0.130724 0.184136
Si Si5 0.346463 0.867718 0.938365
Si Si6 0.106726 0.262671 0.367715
Si Si7 0.956307 0.500000 0.757606
O O1 0.228655 0.616672 0.172880
O O2 0.074737 0.786169 0.130157
O O3 0.637684 0.751382 0.369494
O O4 0.639638 0.000000 0.368328
O O5 0.514514 0.872749 0.153720
O O6 0.237505 0.875879 0.039206
O O7 0.361460 0.500000 0.509418
O O8 0.851808 0.500000 0.009317
O O9 0.181971 0.188955 0.360000
O O10 0.147942 0.000000 0.246391
O O11 0.099790 0.799173 0.756241
O O12 0.272043 0.000000 0.856710
O O13 0.500000 0.819612 0.000000
O O14 0.998435 0.383168 0.248815
#
# Coordination Sequence:
#
# PCOD9150329 Si02
#       7
#     2   4   2   4   4   4   2
#     4  11  21  40  62  88 129 157 214 264 326 363
#     4   9  18  34  58  85 120 159 201 248 307 377
#     4  11  26  46  66  92 119 169 219 273 308 374
#     4  10  20  36  57  88 122 160 203 256 319 380
#     4   9  19  36  61  94 127 157 196 250 313 378
#     4  11  21  37  60  86 119 165 208 260 302 376
#     4  12  26  45  69  89 122 166 224 259 317 361
#
# _framework density 19.794267000000001
#
# number of rings (size 3 to 8) (size 9 to 14) (size 15 to 20)
#    0.000    1.818    1.818    4.091    2.545    2.182 
#    3.273    3.182    0.000    5.455    0.000    0.000 
#    0.000    0.000    0.000    0.000    0.000    0.000 
#
# Total GULP energy -122507.883826 kJ/mol
# GULP energy per Si atom -5568.540174 kJ/mol
# Density = 1.974921 g / cm^3
# Si number density = 19.794267 Si / 1000 Ang^3
#
#
#
# Elastic Constant Matrix: (Units=GPa)
#
#
# Indices 1 2 3 4 5 6 
#
# 1 56.2313 28.4056 24.2294 0.0000 -0.0532 0.0000
# 2 28.4056 87.6519 1.8647 0.0000 -3.3917 0.0000
# 3 24.2294 1.8647 40.8940 0.0000 -5.2752 0.0000
# 4 0.0000 0.0000 0.0000 8.5306 0.0000 6.8945
# 5 -0.0532 -3.3917 -5.2752 0.0000 10.6212 0.0000
# 6 0.0000 0.0000 0.0000 6.8945 0.0000 65.9127
#
#
#
# Elastic Compliance Matrix: (Units=1/GPa)
#
#
# Indices 1 2 3 4 5 6 
#
# 1 0.031555 -0.010306 -0.019905 0.000000 -0.013019 0.000000
# 2 -0.010306 0.014918 0.006447 0.000000 0.007914 0.000000
# 3 -0.019905 0.006447 0.038684 0.000000 0.021172 0.000000
# 4 0.000000 0.000000 0.000000 0.128050 0.000000 -0.013394
# 5 -0.013019 0.007914 0.021172 0.000000 0.107128 0.000000
# 6 0.000000 0.000000 0.000000 -0.013394 0.000000 0.016573
#
#
# Mechanical properties :
#
#
# Convention : Reuss Voigt Hill
#
# Bulk Modulus (GPa) = 26.57619 32.64183 29.60901
# Shear Modulus (GPa) = 12.59511 25.69808 19.14660
#
# Velocity S-wave (km/s) = 2.52524 3.60704 3.11349
# Velocity P-wave (km/s) = 4.68591 5.82014 5.28355
#
# Compressibility (1/GPa) = 0.03762766
#
# Stress axis : x y z
#
# Youngs Moduli (GPa) = 31.69111 67.03388 25.85022
#
# Poissons Ratio (x) = 0.69087 0.51456
# Poissons Ratio (y) = 0.32662 -0.16666
# Poissons Ratio (z) = 0.63082 -0.43217
#
# Static dielectric constant tensor:
#      x y z
#    x 1.674150 0.000000 -0.020950 
#    y 0.000000 1.731340 0.000000 
#    z -0.020950 0.000000 1.775500 
# 
# From -- ./inp_files/8898.got.cif
#   From: 2010.05.17/outbox.cif.g08.bks.cpg/sg10_5_cif.got.tgz:8898.got - 2010.06.03 11:33:40.
