data_PCOD9150507
_publ_section_title
;
Structure prediction by ZEFSAII (Michael W. Deem and Ramdas Pophale) SiO2 
 PCOD9150507
Probable space group: P 2/M
;
_chemical_formula_sum "Si O2"
_cell_formula_units_Z 28
_cell_length_a 9.354435
_cell_length_b 8.624706
_cell_length_c 29.935930
_cell_angle_alpha 90.000000
_cell_angle_beta 38.340680
_cell_angle_gamma 90.000000
_cell_volume 1498.240898
_symmetry_space_group_name_H-M "P 2/M"
_symmetry_group_IT_number 10
_symmetry_cell_setting 'monoclinic'
loop_
_space_group_symop_operation_xyz
x,y,z
-x,y,-z
-x,-y,-z
x,-y,z
loop_
_atom_site_type_symbol
_atom_site_label
_atom_site_fract_x
_atom_site_fract_y
_atom_site_fract_z
Si Si1 0.194064 0.815458 0.357703
Si Si2 0.985048 0.813227 0.770375
Si Si3 0.501022 0.314110 0.362768
Si Si4 0.591163 0.812641 0.930593
Si Si5 0.346410 0.684252 0.225750
Si Si6 0.318626 0.687178 0.505959
Si Si7 0.737875 0.813686 0.072018
O O1 0.333350 0.755211 0.366497
O O2 0.300591 0.744683 0.286529
O O3 0.929233 0.762318 0.425798
O O4 0.207832 0.000000 0.352319
O O5 0.836136 0.761509 0.850260
O O6 0.839339 0.758788 0.762900
O O7 0.239583 0.745251 0.707485
O O8 0.994512 0.000000 0.767698
O O9 0.496573 0.500000 0.360605
O O10 0.415435 0.271157 0.433428
O O11 0.405399 0.780236 0.937718
O O12 0.607267 0.000000 0.930708
O O13 0.500000 0.750729 0.000000
O O14 0.321497 0.500000 0.230249
O O15 0.597417 0.734232 0.146218
O O16 0.500000 0.731752 0.500000
O O17 0.292432 0.500000 0.514123
O O18 0.733749 0.000000 0.080311
O O19 0.000000 0.765204 0.000000
#
# Coordination Sequence:
#
# PCOD9150507 Si02
#       7
#     4   4   4   4   4   4   4
#     4  12  25  40  60  86 117 151 193 244 291 337
#     4  10  20  36  59  86 115 150 196 242 285 340
#     4  11  23  39  60  87 121 156 189 231 287 346
#     4   8  15  29  50  77 108 143 183 228 277 329
#     4  11  22  38  59  82 114 154 196 241 292 349
#     4  10  22  41  64  88 116 152 190 229 283 348
#     4   9  18  33  54  80 111 147 189 237 287 340
#
# _framework density 18.688585
#
# number of rings (size 3 to 8) (size 9 to 14) (size 15 to 20)
#    0.000    1.857    0.000    5.571    0.000    5.714 
#    0.000    2.857    0.000   10.714    0.000    0.000 
#    0.000    0.000    0.000    0.000    0.000    0.000 
#
# Total GULP energy -156418.069665 kJ/mol
# GULP energy per Si atom -5586.359631 kJ/mol
# Density = 1.864605 g / cm^3
# Si number density = 18.688585 Si / 1000 Ang^3
#
#
#
# Elastic Constant Matrix: (Units=GPa)
#
#
# Indices 1 2 3 4 5 6 
#
# 1 96.1013 27.8816 85.7529 0.0000 -1.6629 0.0000
# 2 27.8816 48.1428 52.5325 0.0000 -2.7222 0.0000
# 3 85.7529 52.5325 184.9950 0.0000 2.8780 0.0000
# 4 0.0000 0.0000 0.0000 73.9546 0.0000 3.1567
# 5 -1.6629 -2.7222 2.8780 0.0000 39.7201 0.0000
# 6 0.0000 0.0000 0.0000 3.1567 0.0000 30.1258
#
#
#
# Elastic Compliance Matrix: (Units=1/GPa)
#
#
# Indices 1 2 3 4 5 6 
#
# 1 0.017921 -0.001777 -0.007821 0.000000 0.001195 0.000000
# 2 -0.001777 0.030563 -0.007895 0.000000 0.002592 0.000000
# 3 -0.007821 -0.007895 0.011299 0.000000 -0.001687 0.000000
# 4 0.000000 0.000000 0.000000 0.013583 0.000000 -0.001423
# 5 0.001195 0.002592 -0.001687 0.000000 0.025526 0.000000
# 6 0.000000 0.000000 0.000000 -0.001423 0.000000 0.033343
#
#
# Mechanical properties :
#
#
# Convention : Reuss Voigt Hill
#
# Bulk Modulus (GPa) = 40.32951 73.50810 56.91880
# Shear Modulus (GPa) = 28.49224 39.63157 34.06190
#
# Velocity S-wave (km/s) = 3.90882 4.61003 4.27383
# Velocity P-wave (km/s) = 6.48062 8.23134 7.40788
#
# Compressibility (1/GPa) = 0.02479574
#
# Stress axis : x y z
#
# Youngs Moduli (GPa) = 55.80131 32.71979 88.50207
#
# Poissons Ratio (x) = 0.05814 0.69217
# Poissons Ratio (y) = 0.09916 0.69876
# Poissons Ratio (z) = 0.43642 0.25833
#
# Static dielectric constant tensor:
#      x y z
#    x 1.613180 0.000000 0.007200 
#    y 0.000000 1.631110 0.000000 
#    z 0.007200 0.000000 1.642350 
# 
# From -- ./inp_files/91968.got.cif
#   From: 2010.05.17/outbox.cif.g08.bks.cpg/sg10_46_cif.got.tgz:91968.got - 2010.06.03 11:33:40.
