data_PCOD9150996
_publ_section_title
;
Structure prediction by ZEFSAII (Michael W. Deem and Ramdas Pophale) SiO2 
 PCOD9150996
Probable space group: P 2/M
;
_chemical_formula_sum "Si O2"
_cell_formula_units_Z 28
_cell_length_a 12.795868
_cell_length_b 14.006773
_cell_length_c 8.706953
_cell_angle_alpha 90.000000
_cell_angle_beta 104.998804
_cell_angle_gamma 90.000000
_cell_volume 1507.371323
_symmetry_space_group_name_H-M "P 2/M"
_symmetry_group_IT_number 10
_symmetry_cell_setting 'monoclinic'
loop_
_space_group_symop_operation_xyz
x,y,z
-x,y,-z
-x,-y,-z
x,-y,z
loop_
_atom_site_type_symbol
_atom_site_label
_atom_site_fract_x
_atom_site_fract_y
_atom_site_fract_z
Si Si1 0.312173 0.771911 0.311401
Si Si2 0.104858 0.612474 0.453765
Si Si3 0.923299 0.251069 0.834666
Si Si4 0.710669 0.114261 0.376268
Si Si5 0.345910 0.613292 0.567594
Si Si6 0.520314 0.237139 0.187335
Si Si7 0.064059 0.891454 0.684426
O O1 0.199552 0.780018 0.175149
O O2 0.295618 0.839050 0.455708
O O3 0.341809 0.669415 0.402979
O O4 0.412438 0.791848 0.238971
O O5 0.092098 0.500000 0.428564
O O6 0.101557 0.664089 0.291361
O O7 0.221205 0.626493 0.576897
O O8 0.000000 0.651113 0.500000
O O9 0.993302 0.170834 0.773408
O O10 0.000000 0.283441 0.000000
O O11 0.607315 0.153569 0.247271
O O12 0.817653 0.144538 0.322071
O O13 0.713441 0.000000 0.391356
O O14 0.367519 0.500000 0.561974
O O15 0.426861 0.669762 0.709563
O O16 0.500000 0.253573 0.000000
O O17 0.000000 0.894895 0.500000
O O18 0.074721 0.000000 0.747689
#
# Coordination Sequence:
#
# PCOD9150996 Si02
#       7
#     4   4   4   4   4   4   4
#     4  10  22  39  57  86 112 148 197 236 273 336
#     4   9  19  35  58  87 114 149 197 233 269 334
#     4  11  23  34  58  86 121 155 177 229 298 337
#     4  10  21  40  64  83 108 151 195 236 279 333
#     4   9  19  38  61  83 111 152 195 234 275 326
#     4  11  25  38  56  86 121 147 186 237 287 342
#     4  10  20  37  61  87 111 144 194 236 275 338
#
# _framework density 18.575382000000001
#
# number of rings (size 3 to 8) (size 9 to 14) (size 15 to 20)
#    0.000    2.000    1.429    2.143    6.000    3.429 
#    0.000    0.000    0.000    0.000    0.000    0.000 
#    0.000    0.000    0.000    0.000    0.000    0.000 
#
# Total GULP energy -156064.077589 kJ/mol
# GULP energy per Si atom -5573.717057 kJ/mol
# Density = 1.853310 g / cm^3
# Si number density = 18.575382 Si / 1000 Ang^3
#
#
#
# Elastic Constant Matrix: (Units=GPa)
#
#
# Indices 1 2 3 4 5 6 
#
# 1 165.5011 22.9419 36.4778 0.0000 17.6006 0.0000
# 2 22.9419 67.2131 3.3349 0.0000 6.9011 0.0000
# 3 36.4778 3.3349 60.7862 0.0000 25.7602 0.0000
# 4 0.0000 0.0000 0.0000 12.0706 0.0000 5.0410
# 5 17.6006 6.9011 25.7602 0.0000 23.4728 0.0000
# 6 0.0000 0.0000 0.0000 5.0410 0.0000 23.7043
#
#
#
# Elastic Compliance Matrix: (Units=1/GPa)
#
#
# Indices 1 2 3 4 5 6 
#
# 1 0.007296 -0.002258 -0.004146 0.000000 -0.000258 0.000000
# 2 -0.002258 0.016171 0.003300 0.000000 -0.006683 0.000000
# 3 -0.004146 0.003300 0.033373 0.000000 -0.034487 0.000000
# 4 0.000000 0.000000 0.000000 0.090921 0.000000 -0.019335
# 5 -0.000258 -0.006683 -0.034487 0.000000 0.082608 0.000000
# 6 0.000000 0.000000 0.000000 -0.019335 0.000000 0.046298
#
#
# Mechanical properties :
#
#
# Convention : Reuss Voigt Hill
#
# Bulk Modulus (GPa) = 19.75007 46.55663 33.15335
# Shear Modulus (GPa) = 16.68045 27.23261 21.95653
#
# Velocity S-wave (km/s) = 2.99989 3.83307 3.44179
# Velocity P-wave (km/s) = 4.75969 6.68640 5.80356
#
# Compressibility (1/GPa) = 0.05063274
#
# Stress axis : x y z
#
# Youngs Moduli (GPa) = 137.05361 61.83798 29.96463
#
# Poissons Ratio (x) = 0.13965 0.12422
# Poissons Ratio (y) = 0.30952 -0.09889
# Poissons Ratio (z) = 0.56816 -0.20407
#
# Static dielectric constant tensor:
#      x y z
#    x 1.720380 0.000000 0.013930 
#    y 0.000000 1.653860 0.000000 
#    z 0.013930 0.000000 1.610020 
# 
# From -- ./inp_files/25028.got.cif
#   From: 2010.05.17/outbox.cif.g08.bks.cpg/sg10_13_cif.got.tgz:25028.got - 2010.06.03 11:33:40.
