data_PCOD9150209
_publ_section_title
;
Structure prediction by ZEFSAII (Michael W. Deem and Ramdas Pophale) SiO2 
 PCOD9150209
Probable space group: P 2/M
;
_chemical_formula_sum "Si O2"
_cell_formula_units_Z 28
_cell_length_a 11.746419
_cell_length_b 16.020860
_cell_length_c 8.479679
_cell_angle_alpha 90.000000
_cell_angle_beta 61.230420
_cell_angle_gamma 90.000000
_cell_volume 1398.793259
_symmetry_space_group_name_H-M "P 2/M"
_symmetry_group_IT_number 10
_symmetry_cell_setting 'monoclinic'
loop_
_space_group_symop_operation_xyz
x,y,z
-x,y,-z
-x,-y,-z
x,-y,z
loop_
_atom_site_type_symbol
_atom_site_label
_atom_site_fract_x
_atom_site_fract_y
_atom_site_fract_z
Si Si1 0.525280 0.260397 0.300847
Si Si2 0.413654 0.906061 0.899998
Si Si3 0.896930 0.638225 0.686225
Si Si4 0.147005 0.094575 0.256776
Si Si5 0.763109 0.222420 0.564814
Si Si6 0.970091 0.228253 0.201108
Si Si7 0.627892 0.407538 0.026288
O O1 0.500000 0.278847 0.500000
O O2 0.573798 0.166672 0.235478
O O3 0.381569 0.255092 0.321721
O O4 0.612145 0.329952 0.156363
O O5 0.449589 0.000000 0.823493
O O6 0.500000 0.887859 0.000000
O O7 0.265603 0.905720 0.055298
O O8 0.849130 0.713848 0.607639
O O9 0.970459 0.682989 0.782585
O O10 0.764160 0.597919 0.839900
O O11 0.000000 0.593158 0.500000
O O12 0.210072 0.133436 0.372845
O O13 0.038505 0.156075 0.259963
O O14 0.102391 0.000000 0.306890
O O15 0.819125 0.225336 0.351040
O O16 0.000000 0.214290 0.000000
O O17 0.623674 0.500000 0.105154
O O18 0.500000 0.402461 0.000000
#
# Coordination Sequence:
#
# PCOD9150209 Si02
#       7
#     4   4   4   4   4   4   4
#     4  12  24  36  62  90 126 164 197 251 314 363
#     4  10  20  37  60  86 115 153 204 254 299 362
#     4   9  19  39  63  86 117 154 198 249 294 358
#     4  10  20  36  57  78 112 156 199 253 306 357
#     4  10  20  36  55  84 111 153 205 243 292 369
#     4  10  22  35  56  83 116 151 204 250 300 362
#     4  11  23  41  67  95 122 157 205 255 304 369
#
# _framework density 20.017254000000001
#
# number of rings (size 3 to 8) (size 9 to 14) (size 15 to 20)
#    0.000    1.714    2.857    3.429    4.000    2.286 
#    0.000    0.000    0.000    0.429    0.000    0.000 
#    0.000    0.000    0.000    0.000    0.000    0.000 
#
# Total GULP energy -156110.991782 kJ/mol
# GULP energy per Si atom -5575.392564 kJ/mol
# Density = 1.997169 g / cm^3
# Si number density = 20.017254 Si / 1000 Ang^3
#
#
#
# Elastic Constant Matrix: (Units=GPa)
#
#
# Indices 1 2 3 4 5 6 
#
# 1 41.2940 14.9989 20.3713 0.0000 -18.6526 0.0000
# 2 14.9989 116.1204 48.3114 0.0000 -1.0286 0.0000
# 3 20.3713 48.3114 121.0696 0.0000 -17.8606 0.0000
# 4 0.0000 0.0000 0.0000 -4.9831 0.0000 0.9649
# 5 -18.6526 -1.0286 -17.8606 0.0000 36.8751 0.0000
# 6 0.0000 0.0000 0.0000 0.9649 0.0000 -4.1551
#
#
#
# Elastic Compliance Matrix: (Units=1/GPa)
#
#
# Indices 1 2 3 4 5 6 
#
# 1 0.033623 -0.003391 -0.001949 0.000000 0.015969 0.000000
# 2 -0.003391 0.010785 -0.004245 0.000000 -0.003470 0.000000
# 3 -0.001949 -0.004245 0.010897 0.000000 0.004174 0.000000
# 4 0.000000 0.000000 0.000000 -0.210128 0.000000 -0.048797
# 5 0.015969 -0.003470 0.004174 0.000000 0.037121 0.000000
# 6 0.000000 0.000000 0.000000 -0.048797 0.000000 -0.252000
#
#
# Mechanical properties :
#
#
# Convention : Reuss Voigt Hill
#
# Bulk Modulus (GPa) = 27.67298 49.53856 38.60577
# Shear Modulus (GPa) = -14.77162 18.53420 1.88129
#
# Velocity S-wave (km/s) = -2.71946 3.04618 0.97050
# Velocity P-wave (km/s) = 1.99849 6.09704 4.53695
#
# Compressibility (1/GPa) = 0.03613633
#
# Stress axis : x y z
#
# Youngs Moduli (GPa) = 29.74177 92.72005 91.76566
#
# Poissons Ratio (x) = 0.31440 0.17881
# Poissons Ratio (y) = 0.10085 0.38956
# Poissons Ratio (z) = 0.05795 0.39361
#
# Static dielectric constant tensor:
#      x y z
#    x 1.736840 0.000000 -0.034710 
#    y 0.000000 1.709180 0.000000 
#    z -0.034710 0.000000 1.732920 
# 
# From -- ./inp_files/25231.got.cif
#   From: 2010.05.17/outbox.cif.g08.bks.cpg/sg10_13_cif.got.tgz:25231.got - 2010.06.03 11:33:40.
