data_PCOD9150912
_publ_section_title
;
Structure prediction by ZEFSAII (Michael W. Deem and Ramdas Pophale) SiO2 
 PCOD9150912
Probable space group: P 2/M
;
_chemical_formula_sum "Si O2"
_cell_formula_units_Z 28
_cell_length_a 14.990247
_cell_length_b 8.496900
_cell_length_c 22.308462
_cell_angle_alpha 90.000000
_cell_angle_beta 30.609099
_cell_angle_gamma 90.000000
_cell_volume 1446.800478
_symmetry_space_group_name_H-M "P 2/M"
_symmetry_group_IT_number 10
_symmetry_cell_setting 'monoclinic'
loop_
_space_group_symop_operation_xyz
x,y,z
-x,y,-z
-x,-y,-z
x,-y,z
loop_
_atom_site_type_symbol
_atom_site_label
_atom_site_fract_x
_atom_site_fract_y
_atom_site_fract_z
Si Si1 0.573069 0.191169 0.022539
Si Si2 0.938877 0.813671 0.125284
Si Si3 0.974322 0.190586 0.794132
Si Si4 0.919825 0.313655 0.395778
Si Si5 0.348483 0.187729 0.356352
Si Si6 0.261401 0.316026 0.870534
Si Si7 0.239504 0.809951 0.290420
O O1 0.430685 0.236733 0.154432
O O2 0.577903 0.000000 0.019925
O O3 0.500000 0.240673 0.000000
O O4 0.771687 0.245331 0.915880
O O5 0.929000 0.765351 0.200264
O O6 0.813172 0.722467 0.152548
O O7 0.903882 0.000000 0.140311
O O8 0.136306 0.781033 0.987711
O O9 0.055503 0.254255 0.686139
O O10 0.972490 0.000000 0.792231
O O11 0.901721 0.500000 0.406840
O O12 0.755083 0.237454 0.524731
O O13 0.090651 0.264308 0.335409
O O14 0.537902 0.266067 0.242066
O O15 0.235238 0.231450 0.362884
O O16 0.371512 0.000000 0.341671
O O17 0.239687 0.500000 0.895767
O O18 0.222394 0.000000 0.294881
#
# Coordination Sequence:
#
# PCOD9150912 Si02
#       7
#     4   4   4   4   4   4   4
#     4   9  15  28  55  83 110 140 180 232 278 325
#     4  10  20  37  64  92 118 151 195 238 279 340
#     4  10  20  37  60  85 114 154 199 240 282 334
#     4  12  25  38  54  81 120 157 191 238 294 350
#     4  11  23  40  62  83 109 151 204 247 282 338
#     4  11  22  38  61  90 124 152 182 235 299 349
#     4  10  20  37  60  84 110 150 198 241 285 338
#
# _framework density 19.353048000000001
#
# number of rings (size 3 to 8) (size 9 to 14) (size 15 to 20)
#    0.000    1.571    1.429    5.571    0.000    6.286 
#    0.000    2.143    0.000    4.286    0.000    0.000 
#    0.000    0.000    0.000    0.000    0.000    0.000 
#
# Total GULP energy -156488.111754 kJ/mol
# GULP energy per Si atom -5588.861134 kJ/mol
# Density = 1.930900 g / cm^3
# Si number density = 19.353048 Si / 1000 Ang^3
#
#
#
# Elastic Constant Matrix: (Units=GPa)
#
#
# Indices 1 2 3 4 5 6 
#
# 1 79.2025 7.0026 20.7495 0.0000 20.5506 0.0000
# 2 7.0026 27.8280 -4.7983 0.0000 2.5354 0.0000
# 3 20.7495 -4.7983 43.9298 0.0000 9.4823 0.0000
# 4 0.0000 0.0000 0.0000 55.0933 0.0000 -98.2680
# 5 20.5506 2.5354 9.4823 0.0000 23.4752 0.0000
# 6 0.0000 0.0000 0.0000 -98.2680 0.0000 152.0132
#
#
#
# Elastic Compliance Matrix: (Units=1/GPa)
#
#
# Indices 1 2 3 4 5 6 
#
# 1 0.017946 -0.004428 -0.006214 0.000000 -0.012722 0.000000
# 2 -0.004428 0.038534 0.006970 0.000000 -0.003100 0.000000
# 3 -0.006214 0.006970 0.027879 0.000000 -0.006574 0.000000
# 4 0.000000 0.000000 0.000000 -0.118603 0.000000 -0.076671
# 5 -0.012722 -0.003100 -0.006574 0.000000 0.056725 0.000000
# 6 0.000000 0.000000 0.000000 -0.076671 0.000000 -0.042985
#
#
# Mechanical properties :
#
#
# Convention : Reuss Voigt Hill
#
# Bulk Modulus (GPa) = 12.98476 21.87421 17.42948
# Shear Modulus (GPa) = 399.57975 54.65013 227.11494
#
# Velocity S-wave (km/s) = 14.38461 5.31976 10.84474
# Velocity P-wave (km/s) = 16.81110 7.00431 12.87776
#
# Compressibility (1/GPa) = 0.07701338
#
# Stress axis : x y z
#
# Youngs Moduli (GPa) = 55.72146 25.95133 35.86923
#
# Poissons Ratio (x) = 0.11492 0.22290
# Poissons Ratio (y) = 0.24676 -0.25000
# Poissons Ratio (z) = 0.34627 -0.18088
#
# Static dielectric constant tensor:
#      x y z
#    x 1.673090 0.000000 0.006450 
#    y 0.000000 1.658130 0.000000 
#    z 0.006450 0.000000 1.660430 
# 
# From -- ./inp_files/84914.got.cif
#   From: 2010.05.17/outbox.cif.g08.bks.cpg/sg10_43_cif.got.tgz:84914.got - 2010.06.03 11:33:40.
