data_PCOD9150438
_publ_section_title
;
Structure prediction by ZEFSAII (Michael W. Deem and Ramdas Pophale) SiO2 
 PCOD9150438
Probable space group: P 2/M
;
_chemical_formula_sum "Si O2"
_cell_formula_units_Z 28
_cell_length_a 9.449594
_cell_length_b 13.382558
_cell_length_c 15.029875
_cell_angle_alpha 90.000000
_cell_angle_beta 39.262593
_cell_angle_gamma 90.000000
_cell_volume 1202.890091
_symmetry_space_group_name_H-M "P 2/M"
_symmetry_group_IT_number 10
_symmetry_cell_setting 'monoclinic'
loop_
_space_group_symop_operation_xyz
x,y,z
-x,y,-z
-x,-y,-z
x,-y,z
loop_
_atom_site_type_symbol
_atom_site_label
_atom_site_fract_x
_atom_site_fract_y
_atom_site_fract_z
Si Si1 0.059799 0.882896 0.266660
Si Si2 0.393038 0.745113 0.187879
Si Si3 0.302265 0.113129 0.396312
Si Si4 0.203426 0.385946 0.683112
Si Si5 0.821005 0.385605 0.007564
Si Si6 0.999498 0.616914 0.602320
Si Si7 0.667743 0.821514 0.338998
O O1 0.889297 0.867221 0.435155
O O2 0.913133 0.852014 0.252116
O O3 0.285802 0.818728 0.165841
O O4 0.107981 0.000000 0.239783
O O5 0.313913 0.806369 0.313298
O O6 0.638786 0.701456 0.084626
O O7 0.245264 0.646157 0.246630
O O8 0.551434 0.122083 0.315656
O O9 0.265649 0.000000 0.381664
O O10 0.289486 0.500000 0.646880
O O11 0.336973 0.298805 0.667999
O O12 0.167707 0.349717 0.598658
O O13 0.965271 0.388914 0.847425
O O14 0.732026 0.500000 0.067101
O O15 0.000000 0.366273 0.000000
O O16 0.037172 0.500000 0.581930
O O17 0.000000 0.651088 0.500000
O O18 0.500000 0.848909 0.500000
#
# Coordination Sequence:
#
# PCOD9150438 Si02
#       7
#     4   4   4   4   4   4   4
#     4  10  20  36  58  89 125 159 206 262 316 376
#     4  12  21  35  62  89 119 159 211 259 311 362
#     4  10  21  36  59  91 127 166 209 259 319 381
#     4  10  21  40  62  89 126 166 211 257 309 375
#     4  10  23  43  64  88 122 169 220 262 306 373
#     4  10  21  36  57  91 129 159 195 255 322 380
#     4  10  20  36  60  90 124 166 203 250 316 379
#
# _framework density 23.277270999999999
#
# number of rings (size 3 to 8) (size 9 to 14) (size 15 to 20)
#    0.000    1.714    1.429    3.429    2.000    3.714 
#    0.000    2.857    0.000   10.286    0.000    0.000 
#    0.000    0.000    0.000    0.000    0.000    0.000 
#
# Total GULP energy -156180.983651 kJ/mol
# GULP energy per Si atom -5577.892273 kJ/mol
# Density = 2.322429 g / cm^3
# Si number density = 23.277271 Si / 1000 Ang^3
#
#
#
# Elastic Constant Matrix: (Units=GPa)
#
#
# Indices 1 2 3 4 5 6 
#
# 1 100.3598 62.5758 37.6501 0.0000 -28.1051 0.0000
# 2 62.5758 104.5124 51.1390 0.0000 -24.3833 0.0000
# 3 37.6501 51.1390 68.4912 0.0000 -23.3628 0.0000
# 4 0.0000 0.0000 0.0000 12.6152 0.0000 -4.7042
# 5 -28.1051 -24.3833 -23.3628 0.0000 34.8973 0.0000
# 6 0.0000 0.0000 0.0000 -4.7042 0.0000 26.0385
#
#
#
# Elastic Compliance Matrix: (Units=1/GPa)
#
#
# Indices 1 2 3 4 5 6 
#
# 1 0.017677 -0.008362 -0.000791 0.000000 0.007864 0.000000
# 2 -0.008362 0.019450 -0.009832 0.000000 0.000273 0.000000
# 3 -0.000791 -0.009832 0.025680 0.000000 0.009685 0.000000
# 4 0.000000 0.000000 0.000000 0.084996 0.000000 0.015355
# 5 0.007864 0.000273 0.009685 0.000000 0.041664 0.000000
# 6 0.000000 0.000000 0.000000 0.015355 0.000000 0.041179
#
#
# Mechanical properties :
#
#
# Convention : Reuss Voigt Hill
#
# Bulk Modulus (GPa) = 40.26436 64.01036 52.13736
# Shear Modulus (GPa) = 18.05737 22.84342 20.45040
#
# Velocity S-wave (km/s) = 2.78825 3.13607 2.96726
# Velocity P-wave (km/s) = 5.26318 6.37746 5.84693
#
# Compressibility (1/GPa) = 0.02483586
#
# Stress axis : x y z
#
# Youngs Moduli (GPa) = 56.56997 51.41460 38.94036
#
# Poissons Ratio (x) = 0.42994 0.03081
# Poissons Ratio (y) = 0.47305 0.38288
# Poissons Ratio (z) = 0.04475 0.50553
#
# Static dielectric constant tensor:
#      x y z
#    x 1.975040 0.000000 0.026890 
#    y 0.000000 1.862100 0.000000 
#    z 0.026890 0.000000 1.889370 
# 
# From -- ./inp_files/75272.got.cif
#   From: 2010.05.17/outbox.cif.g08.bks.cpg/sg10_38_cif.got.tgz:75272.got - 2010.06.03 11:33:40.
