data_PCOD9150936
_publ_section_title
;
Structure prediction by ZEFSAII (Michael W. Deem and Ramdas Pophale) SiO2 
 PCOD9150936
Probable space group: P 2/M
;
_chemical_formula_sum "Si O2"
_cell_formula_units_Z 17
_cell_length_a 5.298036
_cell_length_b 7.396158
_cell_length_c 22.940338
_cell_angle_alpha 90.000000
_cell_angle_beta 126.157669
_cell_angle_gamma 90.000000
_cell_volume 725.784565
_symmetry_space_group_name_H-M "P 2/M"
_symmetry_group_IT_number 10
_symmetry_cell_setting 'monoclinic'
loop_
_space_group_symop_operation_xyz
x,y,z
-x,y,-z
-x,-y,-z
x,-y,z
loop_
_atom_site_type_symbol
_atom_site_label
_atom_site_fract_x
_atom_site_fract_y
_atom_site_fract_z
Si Si1 0.548685 0.220134 0.782385
Si Si2 0.355003 0.791844 0.071589
Si Si3 0.350843 0.282923 0.539571
Si Si4 0.857143 0.785282 0.707349
Si Si5 0.500000 0.500000 0.000000
O O1 0.648482 0.266605 0.861541
O O2 0.759543 0.285900 0.757688
O O3 0.188161 0.281973 0.727988
O O4 0.557497 0.000000 0.780633
O O5 0.467512 0.000000 0.083338
O O6 0.542043 0.658120 0.055976
O O7 0.000000 0.782803 0.000000
O O8 0.500000 0.214146 0.500000
O O9 0.331629 0.500000 0.532296
O O10 0.576476 0.243640 0.624263
O O11 0.000000 0.213854 0.500000
O O12 0.900039 0.000000 0.719668
#
# Coordination Sequence:
#
# PCOD9150936 Si02
#       5
#     4   4   4   4   1
#     4   9  20  38  60  86 120 158 200 252 313 375
#     4  10  23  43  66  90 129 177 214 268 337 387
#     4  10  21  37  56  80 116 154 191 236 295 366
#     4  10  20  37  60  87 116 150 199 253 303 364
#     4  12  24  40  64 100 128 156 232 282 306 402
#
# _framework density 23.422929
#
# number of rings (size 3 to 8) (size 9 to 14) (size 15 to 20)
#    0.000    2.118    0.000    2.118    3.294    0.941 
#    4.235    0.000    0.000    0.000    0.000    0.000 
#    0.000    0.000    0.000    0.000    0.000    0.000 
#
# Total GULP energy -94840.809468 kJ/mol
# GULP energy per Si atom -5578.871145 kJ/mol
# Density = 2.336962 g / cm^3
# Si number density = 23.422929 Si / 1000 Ang^3
#
#
#
# Elastic Constant Matrix: (Units=GPa)
#
#
# Indices 1 2 3 4 5 6 
#
# 1 84.6138 14.7250 2.4105 0.0000 -16.9415 0.0000
# 2 14.7250 97.7631 -0.5784 0.0000 -8.7005 0.0000
# 3 2.4105 -0.5784 91.6721 0.0000 -14.9013 0.0000
# 4 0.0000 0.0000 0.0000 39.4384 0.0000 -10.6328
# 5 -16.9415 -8.7005 -14.9013 0.0000 46.2996 0.0000
# 6 0.0000 0.0000 0.0000 -10.6328 0.0000 -84.4678
#
#
#
# Elastic Compliance Matrix: (Units=1/GPa)
#
#
# Indices 1 2 3 4 5 6 
#
# 1 0.012996 -0.001546 0.000395 0.000000 0.004592 0.000000
# 2 -0.001546 0.010601 0.000358 0.000000 0.001542 0.000000
# 3 0.000395 0.000358 0.011538 0.000000 0.003925 0.000000
# 4 0.000000 0.000000 0.000000 0.024524 0.000000 -0.003087
# 5 0.004592 0.001542 0.003925 0.000000 0.024832 0.000000
# 6 0.000000 0.000000 0.000000 -0.003087 0.000000 -0.011450
#
#
# Mechanical properties :
#
#
# Convention : Reuss Voigt Hill
#
# Bulk Modulus (GPa) = 29.80777 34.12925 31.96851
# Shear Modulus (GPa) = 58.26848 17.42017 37.84433
#
# Velocity S-wave (km/s) = 4.99306 2.73009 4.02393
# Velocity P-wave (km/s) = 6.78192 4.95382 5.93864
#
# Compressibility (1/GPa) = 0.03354830
#
# Stress axis : x y z
#
# Youngs Moduli (GPa) = 76.94897 94.33043 86.66721
#
# Poissons Ratio (x) = 0.14587 -0.03423
# Poissons Ratio (y) = 0.11899 -0.03104
# Poissons Ratio (z) = -0.03039 -0.03378
#
# Static dielectric constant tensor:
#      x y z
#    x 1.885980 0.000000 0.025930 
#    y 0.000000 1.895240 0.000000 
#    z 0.025930 0.000000 1.829080 
# 
# From -- ./inp_files/10657.got.cif
#   From: 2010.05.17/outbox.cif.g08.bks.cpg/sg10_6_cif.got.tgz:10657.got - 2010.06.03 11:33:40.
