data_PCOD9150054
_publ_section_title
;
Structure prediction by ZEFSAII (Michael W. Deem and Ramdas Pophale) SiO2 
 PCOD9150054
Probable space group: P 2/M
;
_chemical_formula_sum "Si O2"
_cell_formula_units_Z 32
_cell_length_a 15.991484
_cell_length_b 9.763669
_cell_length_c 10.096718
_cell_angle_alpha 90.000000
_cell_angle_beta 97.537936
_cell_angle_gamma 90.000000
_cell_volume 1562.833295
_symmetry_space_group_name_H-M "P 2/M"
_symmetry_group_IT_number 10
_symmetry_cell_setting 'monoclinic'
loop_
_space_group_symop_operation_xyz
x,y,z
-x,y,-z
-x,-y,-z
x,-y,z
loop_
_atom_site_type_symbol
_atom_site_label
_atom_site_fract_x
_atom_site_fract_y
_atom_site_fract_z
Si Si1 0.310033 0.159036 0.171429
Si Si2 0.212801 0.844399 0.869867
Si Si3 0.268635 0.158811 0.596985
Si Si4 0.469940 0.341774 0.143372
Si Si5 0.171514 0.654307 0.253067
Si Si6 0.577772 0.659174 0.424111
Si Si7 0.083396 0.653388 0.955136
Si Si8 0.084262 0.159801 0.431972
O O1 0.397422 0.238019 0.172359
O O2 0.250487 0.242862 0.259494
O O3 0.318702 0.000000 0.212296
O O4 0.265272 0.161280 0.017004
O O5 0.268994 0.812401 0.754497
O O6 0.181838 0.000000 0.846616
O O7 0.133684 0.743694 0.862437
O O8 0.337898 0.254178 0.545021
O O9 0.171565 0.176951 0.532117
O O10 0.290468 0.000000 0.579241
O O11 0.438163 0.500000 0.140302
O O12 0.544388 0.332982 0.266191
O O13 0.500000 0.313744 0.000000
O O14 0.188755 0.500000 0.307134
O O15 0.142961 0.640142 0.095321
O O16 0.097705 0.731112 0.317862
O O17 0.500000 0.706152 0.500000
O O18 0.593702 0.500000 0.460623
O O19 0.062677 0.500000 0.901468
O O20 0.000000 0.718858 0.000000
O O21 0.000000 0.183430 0.500000
O O22 0.081730 0.000000 0.385868
#
# Coordination Sequence:
#
# PCOD9150054 Si02
#       8
#     4   4   4   4   4   4   4   4
#     4  10  20  35  58  87 118 151 191 239 292 349
#     4   9  19  35  55  83 114 148 190 234 286 348
#     4  10  22  40  61  86 118 155 197 242 291 347
#     4  10  21  37  59  87 120 156 197 243 296 355
#     4  10  21  37  57  81 113 150 193 240 290 350
#     4  10  23  41  60  87 120 156 200 246 297 355
#     4   9  19  34  53  80 112 144 184 238 292 345
#     4  10  23  41  60  85 118 155 197 245 294 348
#
# _framework density 20.475632999999998
#
# number of rings (size 3 to 8) (size 9 to 14) (size 15 to 20)
#    0.000    2.250    0.000    1.500    3.500    3.500 
#    0.000    0.000    0.000    0.000    0.000    0.000 
#    0.000    0.000    0.000    0.000    0.000    0.000 
#
# Total GULP energy -178619.922453 kJ/mol
# GULP energy per Si atom -5581.872577 kJ/mol
# Density = 2.042903 g / cm^3
# Si number density = 20.475633 Si / 1000 Ang^3
#
#
#
# Elastic Constant Matrix: (Units=GPa)
#
#
# Indices 1 2 3 4 5 6 
#
# 1 123.1357 81.5072 14.9547 0.0000 -24.4387 0.0000
# 2 81.5072 111.0225 22.7278 0.0000 -26.7445 0.0000
# 3 14.9547 22.7278 62.0672 0.0000 -12.9524 0.0000
# 4 0.0000 0.0000 0.0000 11.1205 0.0000 -5.8279
# 5 -24.4387 -26.7445 -12.9524 0.0000 23.1062 0.0000
# 6 0.0000 0.0000 0.0000 -5.8279 0.0000 33.1925
#
#
#
# Elastic Compliance Matrix: (Units=1/GPa)
#
#
# Indices 1 2 3 4 5 6 
#
# 1 0.016225 -0.010898 0.001167 0.000000 0.005201 0.000000
# 2 -0.010898 0.019982 -0.002571 0.000000 0.010161 0.000000
# 3 0.001167 -0.002571 0.018582 0.000000 0.008675 0.000000
# 4 0.000000 0.000000 0.000000 0.099037 0.000000 0.017389
# 5 0.005201 0.010161 0.008675 0.000000 0.065403 0.000000
# 6 0.000000 0.000000 0.000000 0.017389 0.000000 0.033180
#
#
# Mechanical properties :
#
#
# Convention : Reuss Voigt Hill
#
# Bulk Modulus (GPa) = 33.12881 59.40054 46.26467
# Shear Modulus (GPa) = 17.41709 25.28622 21.35166
#
# Velocity S-wave (km/s) = 2.91971 3.51799 3.23272
# Velocity P-wave (km/s) = 5.25177 6.75092 6.04798
#
# Compressibility (1/GPa) = 0.03018521
#
# Stress axis : x y z
#
# Youngs Moduli (GPa) = 61.63261 50.04606 53.81522
#
# Poissons Ratio (x) = 0.54538 -0.06278
# Poissons Ratio (y) = 0.67165 0.13835
# Poissons Ratio (z) = -0.07190 0.12866
#
# Static dielectric constant tensor:
#      x y z
#    x 1.712450 0.000000 0.026010 
#    y 0.000000 1.727530 0.000000 
#    z 0.026010 0.000000 1.767420 
# 
# From -- ./inp_files/49874.got.cif
#   From: 2010.05.17/outbox.cif.g08.bks.cpg/sg10_25_cif.got.tgz:49874.got - 2010.06.03 11:33:40.
