data_PCOD9150953
_publ_section_title
;
Structure prediction by ZEFSAII (Michael W. Deem and Ramdas Pophale) SiO2 
 PCOD9150953
Probable space group: P 2/M
;
_chemical_formula_sum "Si O2"
_cell_formula_units_Z 24
_cell_length_a 22.820143
_cell_length_b 7.256446
_cell_length_c 11.793661
_cell_angle_alpha 90.000000
_cell_angle_beta 31.774113
_cell_angle_gamma 90.000000
_cell_volume 1028.367930
_symmetry_space_group_name_H-M "P 2/M"
_symmetry_group_IT_number 10
_symmetry_cell_setting 'monoclinic'
loop_
_space_group_symop_operation_xyz
x,y,z
-x,y,-z
-x,-y,-z
x,-y,z
loop_
_atom_site_type_symbol
_atom_site_label
_atom_site_fract_x
_atom_site_fract_y
_atom_site_fract_z
Si Si1 0.337879 0.223452 0.079921
Si Si2 0.445747 0.223510 0.388438
Si Si3 0.128371 0.776629 0.298880
Si Si4 0.749488 0.779011 0.135484
Si Si5 0.669698 0.779251 0.659294
Si Si6 0.861750 0.500000 0.342903
Si Si7 0.101644 0.500000 0.982710
O O1 0.211749 0.284543 0.262128
O O2 0.383102 0.269264 0.131172
O O3 0.335833 0.000000 0.078682
O O4 0.427392 0.284258 0.838630
O O5 0.372514 0.278770 0.617623
O O6 0.384010 0.277544 0.372139
O O7 0.448440 0.000000 0.387114
O O8 0.000000 0.712131 0.500000
O O9 0.121185 0.000000 0.317297
O O10 0.202344 0.730416 0.066625
O O11 0.835020 0.679489 0.077907
O O12 0.753955 0.000000 0.136499
O O13 0.787559 0.680862 0.478517
O O14 0.676973 0.000000 0.643094
O O15 0.891356 0.500000 0.162427
O O16 0.973849 0.500000 0.229961
#
# Coordination Sequence:
#
# PCOD9150953 Si02
#       7
#     4   4   4   4   4   2   2
#     4   9  18  33  58  89 123 159 197 246 293 348
#     4   9  17  33  58  88 118 156 200 240 297 356
#     4   9  19  35  57  88 120 157 203 245 292 348
#     4  10  21  39  63  86 117 159 200 243 297 352
#     4  10  20  37  60  88 122 157 193 243 302 353
#     4  11  24  38  57  88 123 154 201 245 297 364
#     4  11  24  40  57  87 122 156 198 252 299 345
#
# _framework density 23.337952000000001
#
# number of rings (size 3 to 8) (size 9 to 14) (size 15 to 20)
#    0.000    2.333    1.667    0.500    2.333    3.333 
#    0.000    8.750    0.000    1.000    0.000    0.000 
#    0.000    0.000    0.000    0.000    0.000    0.000 
#
# Total GULP energy -133882.184053 kJ/mol
# GULP energy per Si atom -5578.424336 kJ/mol
# Density = 2.328483 g / cm^3
# Si number density = 23.337952 Si / 1000 Ang^3
#
#
#
# Elastic Constant Matrix: (Units=GPa)
#
#
# Indices 1 2 3 4 5 6 
#
# 1 86.9652 -1.9548 61.4076 0.0000 -6.1669 0.0000
# 2 -1.9548 75.4552 6.4864 0.0000 4.9430 0.0000
# 3 61.4076 6.4864 151.2151 0.0000 -11.4125 0.0000
# 4 0.0000 0.0000 0.0000 30.8541 0.0000 -4.1072
# 5 -6.1669 4.9430 -11.4125 0.0000 40.4235 0.0000
# 6 0.0000 0.0000 0.0000 -4.1072 0.0000 132.1521
#
#
#
# Elastic Compliance Matrix: (Units=1/GPa)
#
#
# Indices 1 2 3 4 5 6 
#
# 1 0.016205 0.000953 -0.006584 0.000000 0.000497 0.000000
# 2 0.000953 0.013491 -0.001103 0.000000 -0.001816 0.000000
# 3 -0.006584 -0.001103 0.009470 0.000000 0.001804 0.000000
# 4 0.000000 0.000000 0.000000 0.032545 0.000000 0.001011
# 5 0.000497 -0.001816 0.001804 0.000000 0.025545 0.000000
# 6 0.000000 0.000000 0.000000 0.001011 0.000000 0.007598
#
#
# Mechanical properties :
#
#
# Convention : Reuss Voigt Hill
#
# Bulk Modulus (GPa) = 38.91203 49.50156 44.20679
# Shear Modulus (GPa) = 39.40462 57.19903 48.30182
#
# Velocity S-wave (km/s) = 4.11352 4.95603 4.55430
# Velocity P-wave (km/s) = 6.26664 7.34891 6.82925
#
# Compressibility (1/GPa) = 0.02569899
#
# Stress axis : x y z
#
# Youngs Moduli (GPa) = 61.71097 74.12165 105.59342
#
# Poissons Ratio (x) = -0.07066 0.69523
# Poissons Ratio (y) = -0.05883 0.11645
# Poissons Ratio (z) = 0.40630 0.08175
#
# Static dielectric constant tensor:
#      x y z
#    x 1.893820 0.000000 0.020360 
#    y 0.000000 1.895170 0.000000 
#    z 0.020360 0.000000 1.926320 
# 
# From -- ./inp_files/56573.got.cif
#   From: 2010.05.17/outbox.cif.g08.bks.cpg/sg10_29_cif.got.tgz:56573.got - 2010.06.03 11:33:40.
