data_PCOD9150887
_publ_section_title
;
Structure prediction by ZEFSAII (Michael W. Deem and Ramdas Pophale) SiO2 
 PCOD9150887
Probable space group: P 2/M
;
_chemical_formula_sum "Si O2"
_cell_formula_units_Z 32
_cell_length_a 23.533997
_cell_length_b 13.661858
_cell_length_c 17.354809
_cell_angle_alpha 90.000000
_cell_angle_beta 18.076859
_cell_angle_gamma 90.000000
_cell_volume 1731.396689
_symmetry_space_group_name_H-M "P 2/M"
_symmetry_group_IT_number 10
_symmetry_cell_setting 'monoclinic'
loop_
_space_group_symop_operation_xyz
x,y,z
-x,y,-z
-x,-y,-z
x,-y,z
loop_
_atom_site_type_symbol
_atom_site_label
_atom_site_fract_x
_atom_site_fract_y
_atom_site_fract_z
Si Si1 0.149659 0.781656 0.253514
Si Si2 0.677634 0.109174 0.111144
Si Si3 0.950031 0.886344 0.905422
Si Si4 0.368562 0.776305 0.594926
Si Si5 0.430717 0.712820 0.012936
Si Si6 0.203285 0.608783 0.704034
Si Si7 0.818108 0.700049 0.436755
Si Si8 0.921299 0.384904 0.463977
O O1 0.314615 0.767020 0.099068
O O2 0.000000 0.834245 0.500000
O O3 0.054775 0.681313 0.344726
O O4 0.222388 0.835355 0.085675
O O5 0.492105 0.157646 0.380091
O O6 0.636649 0.000000 0.138694
O O7 0.817696 0.107530 0.001969
O O8 0.112645 0.810682 0.672432
O O9 0.999905 0.000000 0.861240
O O10 0.816821 0.832923 0.139625
O O11 0.500000 0.756254 0.500000
O O12 0.315828 0.681420 0.613724
O O13 0.285463 0.634621 0.236100
O O14 0.500000 0.769376 0.000000
O O15 0.613643 0.684780 0.732508
O O16 0.284513 0.500000 0.600119
O O17 0.178384 0.644514 0.648660
O O18 0.000000 0.605489 0.000000
O O19 0.933574 0.655961 0.360111
O O20 0.961081 0.500000 0.415350
#
# Coordination Sequence:
#
# PCOD9150887 Si02
#       8
#     4   4   4   4   4   4   4   4
#     4  10  20  37  59  88 119 155 196 244 295 355
#     4  10  20  37  63  91 118 153 200 252 310 357
#     4  10  20  37  64  91 117 155 200 250 306 354
#     4  10  21  40  63  88 119 154 202 260 294 347
#     4   9  21  36  58  83 120 153 189 243 296 342
#     4  11  23  38  57  84 121 165 196 232 295 360
#     4  11  20  39  60  85 121 159 196 244 296 358
#     4  10  21  38  62  89 116 153 201 249 295 352
#
# _framework density 18.482187
#
# number of rings (size 3 to 8) (size 9 to 14) (size 15 to 20)
#    0.000    1.875    2.500    1.500    0.000    7.000 
#    0.000    5.625    0.000    4.500    0.000    0.000 
#    0.000    0.000    0.000    0.000    0.000    0.000 
#
# Total GULP energy -178189.736905 kJ/mol
# GULP energy per Si atom -5568.429278 kJ/mol
# Density = 1.844012 g / cm^3
# Si number density = 18.482187 Si / 1000 Ang^3
#
#
#
# Elastic Constant Matrix: (Units=GPa)
#
#
# Indices 1 2 3 4 5 6 
#
# 1 90.2258 51.1723 42.1910 0.0000 17.6840 0.0000
# 2 51.1723 136.8530 42.0867 0.0000 11.2981 0.0000
# 3 42.1910 42.0867 69.4312 0.0000 21.1924 0.0000
# 4 0.0000 0.0000 0.0000 39.2094 0.0000 -25.9068
# 5 17.6840 11.2981 21.1924 0.0000 37.3880 0.0000
# 6 0.0000 0.0000 0.0000 -25.9068 0.0000 149.3581
#
#
#
# Elastic Compliance Matrix: (Units=1/GPa)
#
#
# Indices 1 2 3 4 5 6 
#
# 1 0.017289 -0.004015 -0.007191 0.000000 -0.002888 0.000000
# 2 -0.004015 0.009920 -0.003916 0.000000 0.001121 0.000000
# 3 -0.007191 -0.003916 0.023877 0.000000 -0.008950 0.000000
# 4 0.000000 0.000000 0.000000 0.028805 0.000000 0.004996
# 5 -0.002888 0.001121 -0.008950 0.000000 0.032847 0.000000
# 6 0.000000 0.000000 0.000000 0.004996 0.000000 0.007562
#
#
# Mechanical properties :
#
#
# Convention : Reuss Voigt Hill
#
# Bulk Modulus (GPa) = 47.97451 63.04557 55.51004
# Shear Modulus (GPa) = 31.74785 55.92843 43.83814
#
# Velocity S-wave (km/s) = 4.14908 5.50694 4.87551
# Velocity P-wave (km/s) = 6.99762 8.63833 7.86090
#
# Compressibility (1/GPa) = 0.02084440
#
# Stress axis : x y z
#
# Youngs Moduli (GPa) = 57.84046 100.80647 41.88049
#
# Poissons Ratio (x) = 0.40473 0.30114
# Poissons Ratio (y) = 0.23222 0.16398
# Poissons Ratio (z) = 0.41591 0.39471
#
# Static dielectric constant tensor:
#      x y z
#    x 1.663420 0.000000 0.006110 
#    y 0.000000 1.637460 0.000000 
#    z 0.006110 0.000000 1.583820 
# 
# From -- ./inp_files/61233.got.cif
#   From: 2010.05.17/outbox.cif.g08.bks.cpg/sg10_31_cif.got.tgz:61233.got - 2010.06.03 11:33:40.
