data_PCOD9150731
_publ_section_title
;
Structure prediction by ZEFSAII (Michael W. Deem and Ramdas Pophale) SiO2 
 PCOD9150731
Probable space group: P 2/M
;
_chemical_formula_sum "Si O2"
_cell_formula_units_Z 32
_cell_length_a 11.528045
_cell_length_b 14.986416
_cell_length_c 8.597278
_cell_angle_alpha 90.000000
_cell_angle_beta 82.993863
_cell_angle_gamma 90.000000
_cell_volume 1474.210203
_symmetry_space_group_name_H-M "P 2/M"
_symmetry_group_IT_number 10
_symmetry_cell_setting 'monoclinic'
loop_
_space_group_symop_operation_xyz
x,y,z
-x,y,-z
-x,-y,-z
x,-y,z
loop_
_atom_site_type_symbol
_atom_site_label
_atom_site_fract_x
_atom_site_fract_y
_atom_site_fract_z
Si Si1 0.354229 0.221806 0.171821
Si Si2 0.422323 0.768121 0.666973
Si Si3 0.931203 0.896563 0.274427
Si Si4 0.140383 0.176613 0.380500
Si Si5 0.274151 0.107140 0.888134
Si Si6 0.234376 0.594559 0.106674
Si Si7 0.247074 0.603864 0.733540
Si Si8 0.012822 0.636523 0.329626
O O1 0.485820 0.234511 0.204811
O O2 0.276125 0.179994 0.322563
O O3 0.302161 0.319952 0.155588
O O4 0.323761 0.160181 0.028560
O O5 0.500000 0.777285 0.500000
O O6 0.342574 0.852671 0.727349
O O7 0.343549 0.677895 0.670343
O O8 0.884082 0.851309 0.439725
O O9 0.860945 0.867781 0.132483
O O10 0.070175 0.884445 0.268185
O O11 0.904281 0.000000 0.294370
O O12 0.079392 0.271298 0.357147
O O13 0.286977 0.000000 0.903770
O O14 0.285736 0.500000 0.153187
O O15 0.100668 0.596387 0.188579
O O16 0.243596 0.598945 0.920300
O O17 0.263238 0.500000 0.674573
O O18 0.119343 0.640238 0.707364
O O19 0.000000 0.591687 0.500000
#
# Coordination Sequence:
#
# PCOD9150731 Si02
#       8
#     4   4   4   4   4   4   4   4
#     4  11  25  42  65  96 130 174 222 276 331 391
#     4  12  27  46  69  93 132 176 230 283 329 396
#     4  10  20  38  64  96 133 171 216 271 336 404
#     4  10  20  36  62  95 133 177 215 264 328 394
#     4  11  25  45  70  98 130 168 219 279 339 403
#     4  10  23  42  67  97 134 175 219 269 331 405
#     4  11  25  45  68  96 134 181 225 275 335 394
#     4  11  22  37  66 102 139 175 216 269 328 398
#
# _framework density 21.706538999999999
#
# number of rings (size 3 to 8) (size 9 to 14) (size 15 to 20)
#    0.000    1.250    2.500    3.375    3.500    5.500 
#    0.000    2.500    0.000    0.000    0.000    0.000 
#    0.000    0.000    0.000    0.000    0.000    0.000 
#
# Total GULP energy -178549.528700 kJ/mol
# GULP energy per Si atom -5579.672772 kJ/mol
# Density = 2.165713 g / cm^3
# Si number density = 21.706539 Si / 1000 Ang^3
#
#
#
# Elastic Constant Matrix: (Units=GPa)
#
#
# Indices 1 2 3 4 5 6 
#
# 1 105.2271 30.5857 3.6688 0.0000 18.0461 0.0000
# 2 30.5857 108.5891 13.4826 0.0000 8.5863 0.0000
# 3 3.6688 13.4826 44.4092 0.0000 0.3822 0.0000
# 4 0.0000 0.0000 0.0000 11.6702 0.0000 -0.5802
# 5 18.0461 8.5863 0.3822 0.0000 41.0449 0.0000
# 6 0.0000 0.0000 0.0000 -0.5802 0.0000 22.3825
#
#
#
# Elastic Compliance Matrix: (Units=1/GPa)
#
#
# Indices 1 2 3 4 5 6 
#
# 1 0.011042 -0.002768 -0.000035 0.000000 -0.004276 0.000000
# 2 -0.002768 0.010426 -0.002929 0.000000 -0.000937 0.000000
# 3 -0.000035 -0.002929 0.023406 0.000000 0.000410 0.000000
# 4 0.000000 0.000000 0.000000 0.085799 0.000000 0.002224
# 5 -0.004276 -0.000937 0.000410 0.000000 0.026436 0.000000
# 6 0.000000 0.000000 0.000000 0.002224 0.000000 0.044735
#
#
# Mechanical properties :
#
#
# Convention : Reuss Voigt Hill
#
# Bulk Modulus (GPa) = 29.92963 39.29993 34.61478
# Shear Modulus (GPa) = 22.27715 29.05208 25.66461
#
# Velocity S-wave (km/s) = 3.20705 3.66239 3.44225
# Velocity P-wave (km/s) = 5.24707 6.00238 5.63739
#
# Compressibility (1/GPa) = 0.03341171
#
# Stress axis : x y z
#
# Youngs Moduli (GPa) = 90.56157 95.91104 42.72340
#
# Poissons Ratio (x) = 0.26546 0.00150
# Poissons Ratio (y) = 0.25065 0.12512
# Poissons Ratio (z) = 0.00318 0.28090
#
# Static dielectric constant tensor:
#      x y z
#    x 1.825170 0.000000 -0.003020 
#    y 0.000000 1.871460 0.000000 
#    z -0.003020 0.000000 1.817810 
# 
# From -- ./inp_files/25324.got.cif
#   From: 2010.05.17/outbox.cif.g08.bks.cpg/sg10_13_cif.got.tgz:25324.got - 2010.06.03 11:33:40.
