data_PCOD9150661
_publ_section_title
;
Structure prediction by ZEFSAII (Michael W. Deem and Ramdas Pophale) SiO2 
 PCOD9150661
Probable space group: P 2/M
;
_chemical_formula_sum "Si O2"
_cell_formula_units_Z 28
_cell_length_a 15.917550
_cell_length_b 8.731794
_cell_length_c 11.481659
_cell_angle_alpha 90.000000
_cell_angle_beta 117.514788
_cell_angle_gamma 90.000000
_cell_volume 1415.320845
_symmetry_space_group_name_H-M "P 2/M"
_symmetry_group_IT_number 10
_symmetry_cell_setting 'monoclinic'
loop_
_space_group_symop_operation_xyz
x,y,z
-x,y,-z
-x,-y,-z
x,-y,z
loop_
_atom_site_type_symbol
_atom_site_label
_atom_site_fract_x
_atom_site_fract_y
_atom_site_fract_z
Si Si1 0.115600 0.682680 0.330580
Si Si2 0.625532 0.316834 0.863344
Si Si3 0.900498 0.316421 0.144403
Si Si4 0.713382 0.816600 0.140680
Si Si5 0.269106 0.182274 0.582662
Si Si6 0.451272 0.683636 0.590847
Si Si7 0.812492 0.182850 0.864536
O O1 0.124692 0.500000 0.325531
O O2 0.172408 0.739769 0.479086
O O3 0.162610 0.760232 0.247788
O O4 0.004340 0.720894 0.258594
O O5 0.637523 0.500000 0.867916
O O6 0.525622 0.278916 0.740747
O O7 0.710092 0.242611 0.841722
O O8 0.639612 0.257435 0.003358
O O9 0.888359 0.500000 0.136365
O O10 0.816445 0.240210 0.164147
O O11 0.886278 0.254403 0.004350
O O12 0.702080 0.772481 0.267818
O O13 0.708271 0.000000 0.126886
O O14 0.352653 0.234269 0.550499
O O15 0.257810 0.000000 0.572004
O O16 0.500000 0.725420 0.500000
O O17 0.435719 0.500000 0.579726
O O18 0.815078 0.000000 0.872726
#
# Coordination Sequence:
#
# PCOD9150661 Si02
#       7
#     4   4   4   4   4   4   4
#     4  11  23  38  57  82 115 153 193 239 287 338
#     4  10  20  36  61  88 115 152 194 235 282 336
#     4  10  21  37  59  85 113 151 195 236 283 338
#     4  10  22  40  59  83 116 151 190 237 287 338
#     4  11  25  41  59  84 114 151 192 236 287 342
#     4  10  22  40  62  88 117 149 185 230 285 341
#     4  11  21  34  57  88 120 152 188 234 287 341
#
# _framework density 19.7835
#
# number of rings (size 3 to 8) (size 9 to 14) (size 15 to 20)
#    0.000    1.571    0.000    6.429    0.000   10.000 
#    0.000    5.714    0.000    0.000    0.000    0.000 
#    0.000    0.000    0.000    0.000    0.000    0.000 
#
# Total GULP energy -156573.981765 kJ/mol
# GULP energy per Si atom -5591.927920 kJ/mol
# Density = 1.973847 g / cm^3
# Si number density = 19.783500 Si / 1000 Ang^3
#
#
#
# Elastic Constant Matrix: (Units=GPa)
#
#
# Indices 1 2 3 4 5 6 
#
# 1 24.7875 7.4882 19.3488 0.0000 2.7582 0.0000
# 2 7.4882 44.9289 23.1531 0.0000 8.4464 0.0000
# 3 19.3488 23.1531 92.2513 0.0000 10.5423 0.0000
# 4 0.0000 0.0000 0.0000 29.5901 0.0000 -16.7964
# 5 2.7582 8.4464 10.5423 0.0000 35.5929 0.0000
# 6 0.0000 0.0000 0.0000 -16.7964 0.0000 -20.0899
#
#
#
# Elastic Compliance Matrix: (Units=1/GPa)
#
#
# Indices 1 2 3 4 5 6 
#
# 1 0.048658 -0.003240 -0.009366 0.000000 -0.000228 0.000000
# 2 -0.003240 0.026435 -0.005451 0.000000 -0.004407 0.000000
# 3 -0.009366 -0.005451 0.014430 0.000000 -0.002255 0.000000
# 4 0.000000 0.000000 0.000000 0.022919 0.000000 -0.019161
# 5 -0.000228 -0.004407 -0.002255 0.000000 0.029827 0.000000
# 6 0.000000 0.000000 0.000000 -0.019161 0.000000 -0.033756
#
#
# Mechanical properties :
#
#
# Convention : Reuss Voigt Hill
#
# Bulk Modulus (GPa) = 18.72384 29.10534 23.91459
# Shear Modulus (GPa) = 30.78217 16.48379 23.63298
#
# Velocity S-wave (km/s) = 3.94883 2.88967 3.46002
# Velocity P-wave (km/s) = 5.50236 5.08699 5.29875
#
# Compressibility (1/GPa) = 0.05340785
#
# Stress axis : x y z
#
# Youngs Moduli (GPa) = 20.55146 37.82823 69.29861
#
# Poissons Ratio (x) = 0.12257 0.64908
# Poissons Ratio (y) = 0.06659 0.37777
# Poissons Ratio (z) = 0.19249 0.20622
#
# Static dielectric constant tensor:
#      x y z
#    x 1.669090 0.000000 -0.000410 
#    y 0.000000 1.660310 0.000000 
#    z -0.000410 0.000000 1.706370 
# 
# From -- ./inp_files/50047.got.cif
#   From: 2010.05.17/outbox.cif.g08.bks.cpg/sg10_26_cif.got.tgz:50047.got - 2010.06.03 11:33:40.
