data_PCOD9150673
_publ_section_title
;
Structure prediction by ZEFSAII (Michael W. Deem and Ramdas Pophale) SiO2 
 PCOD9150673
Probable space group: P 2/M
;
_chemical_formula_sum "Si O2"
_cell_formula_units_Z 32
_cell_length_a 28.506416
_cell_length_b 8.949473
_cell_length_c 22.061982
_cell_angle_alpha 90.000000
_cell_angle_beta 18.636634
_cell_angle_gamma 90.000000
_cell_volume 1798.639511
_symmetry_space_group_name_H-M "P 2/M"
_symmetry_group_IT_number 10
_symmetry_cell_setting 'monoclinic'
loop_
_space_group_symop_operation_xyz
x,y,z
-x,y,-z
-x,-y,-z
x,-y,z
loop_
_atom_site_type_symbol
_atom_site_label
_atom_site_fract_x
_atom_site_fract_y
_atom_site_fract_z
Si Si1 0.665815 0.821045 0.777382
Si Si2 0.180810 0.822475 0.886094
Si Si3 0.670071 0.322258 0.412708
Si Si4 0.648714 0.822760 0.197341
Si Si5 0.886812 0.676632 0.824608
Si Si6 0.164687 0.821474 0.676048
Si Si7 0.199345 0.677302 0.505537
Si Si8 0.059669 0.680075 0.493148
O O1 0.702828 0.750126 0.666827
O O2 0.787971 0.756445 0.673950
O O3 0.680916 0.000000 0.755806
O O4 0.500000 0.784689 0.000000
O O5 0.250359 0.732246 0.745853
O O6 0.265368 0.791738 0.845125
O O7 0.195489 0.000000 0.855175
O O8 0.008942 0.789280 0.104587
O O9 0.674520 0.500000 0.411539
O O10 0.503734 0.263897 0.615756
O O11 0.751745 0.249425 0.369820
O O12 0.622123 0.000000 0.226371
O O13 0.753183 0.769634 0.014957
O O14 0.851294 0.500000 0.869413
O O15 0.030651 0.700120 0.690406
O O16 0.940867 0.716835 0.690914
O O17 0.219069 0.752571 0.546307
O O18 0.183373 0.000000 0.652693
O O19 0.225304 0.500000 0.476610
O O20 0.080647 0.500000 0.469625
O O21 0.000000 0.720828 0.500000
#
# Coordination Sequence:
#
# PCOD9150673 Si02
#       8
#     4   4   4   4   4   4   4   4
#     4  10  21  37  58  86 120 156 196 240 284 338
#     4  10  22  40  63  87 112 149 194 237 290 351
#     4  12  26  40  56  85 120 154 192 241 295 341
#     4  11  22  39  61  85 114 153 195 238 291 348
#     4   9  18  34  58  86 116 149 191 239 283 342
#     4  11  22  40  63  87 117 153 193 239 290 347
#     4  10  20  36  61  89 117 153 195 239 287 343
#     4   9  19  37  60  87 118 153 192 239 292 345
#
# _framework density 17.791224
#
# number of rings (size 3 to 8) (size 9 to 14) (size 15 to 20)
#    0.000    1.750    1.250    4.125    0.000    8.250 
#    2.250    0.000    0.000    0.000    0.000    0.000 
#    0.000    0.000    0.000    0.000    0.000    0.000 
#
# Total GULP energy -178791.124656 kJ/mol
# GULP energy per Si atom -5587.222646 kJ/mol
# Density = 1.775073 g / cm^3
# Si number density = 17.791224 Si / 1000 Ang^3
#
#
#
# Elastic Constant Matrix: (Units=GPa)
#
#
# Indices 1 2 3 4 5 6 
#
# 1 134.2860 67.9283 79.9926 0.0000 8.5285 0.0000
# 2 67.9283 75.9678 81.2562 0.0000 2.5182 0.0000
# 3 79.9926 81.2562 136.1322 0.0000 6.4903 0.0000
# 4 0.0000 0.0000 0.0000 23.7167 0.0000 2.1721
# 5 8.5285 2.5182 6.4903 0.0000 25.5912 0.0000
# 6 0.0000 0.0000 0.0000 2.1721 0.0000 28.9419
#
#
#
# Elastic Compliance Matrix: (Units=1/GPa)
#
#
# Indices 1 2 3 4 5 6 
#
# 1 0.014053 -0.010483 -0.001849 0.000000 -0.003183 0.000000
# 2 -0.010483 0.044324 -0.020503 0.000000 0.004332 0.000000
# 3 -0.001849 -0.020503 0.020796 0.000000 -0.002641 0.000000
# 4 0.000000 0.000000 0.000000 0.042456 0.000000 -0.003186
# 5 -0.003183 0.004332 -0.002641 0.000000 0.040380 0.000000
# 6 0.000000 0.000000 0.000000 -0.003186 0.000000 0.034791
#
#
# Mechanical properties :
#
#
# Convention : Reuss Voigt Hill
#
# Bulk Modulus (GPa) = 74.05550 89.41561 81.73555
# Shear Modulus (GPa) = 18.72860 23.46389 21.09625
#
# Velocity S-wave (km/s) = 3.24803 3.63553 3.44723
# Velocity P-wave (km/s) = 7.46869 8.24561 7.86675
#
# Compressibility (1/GPa) = 0.01350339
#
# Stress axis : x y z
#
# Youngs Moduli (GPa) = 71.15966 22.56124 48.08524
#
# Poissons Ratio (x) = 0.23650 0.08890
# Poissons Ratio (y) = 0.74594 0.98591
# Poissons Ratio (z) = 0.13157 0.46258
#
# Static dielectric constant tensor:
#      x y z
#    x 1.585810 0.000000 0.002040 
#    y 0.000000 1.593230 0.000000 
#    z 0.002040 0.000000 1.582440 
# 
# From -- ./inp_files/86840.got.cif
#   From: 2010.05.17/outbox.cif.g08.bks.cpg/sg10_44_cif.got.tgz:86840.got - 2010.06.03 11:33:40.
