data_PCOD9150369
_publ_section_title
;
Structure prediction by ZEFSAII (Michael W. Deem and Ramdas Pophale) SiO2 
 PCOD9150369
Probable space group: P 2/M
;
_chemical_formula_sum "Si O2"
_cell_formula_units_Z 26
_cell_length_a 9.108764
_cell_length_b 9.668422
_cell_length_c 17.017884
_cell_angle_alpha 90.000000
_cell_angle_beta 125.864719
_cell_angle_gamma 90.000000
_cell_volume 1214.566812
_symmetry_space_group_name_H-M "P 2/M"
_symmetry_group_IT_number 10
_symmetry_cell_setting 'monoclinic'
loop_
_space_group_symop_operation_xyz
x,y,z
-x,y,-z
-x,-y,-z
x,-y,z
loop_
_atom_site_type_symbol
_atom_site_label
_atom_site_fract_x
_atom_site_fract_y
_atom_site_fract_z
Si Si1 0.431103 0.154628 0.304225
Si Si2 0.090988 0.342486 0.206784
Si Si3 0.167940 0.333368 0.000774
Si Si4 0.226579 0.834295 0.696215
Si Si5 0.500000 0.235997 0.500000
Si Si6 0.557224 0.334558 0.110326
Si Si7 0.106895 0.346612 0.398995
O O1 0.262448 0.253695 0.235140
O O2 0.620136 0.194178 0.321996
O O3 0.449488 0.155496 0.404937
O O4 0.387807 0.000000 0.263728
O O5 0.124121 0.500000 0.190528
O O6 0.078335 0.343460 0.295916
O O7 0.902023 0.298058 0.108421
O O8 0.181639 0.500000 0.008775
O O9 0.364637 0.286491 0.087110
O O10 0.000000 0.286799 0.000000
O O11 0.299023 0.758423 0.798105
O O12 0.032972 0.767062 0.613072
O O13 0.210258 0.000000 0.701187
O O14 0.321870 0.319848 0.471783
O O15 0.596551 0.500000 0.134569
O O16 0.500000 0.321601 0.000000
O O17 0.062320 0.500000 0.414786
#
# Coordination Sequence:
#
# PCOD9150369 Si02
#       7
#     4   4   4   4   2   4   4
#     4  10  22  39  59  84 117 154 193 237 288 349
#     4   9  18  34  57  83 111 146 190 240 288 336
#     4   9  16  27  48  78 107 138 181 230 277 324
#     4  11  24  39  56  85 122 157 192 233 286 346
#     4  10  22  42  66  88 108 142 192 244 294 346
#     4  10  20  36  58  82 112 153 199 241 282 331
#     4  10  21  39  62  86 113 145 187 237 290 347
#
# _framework density 21.406807000000001
#
# number of rings (size 3 to 8) (size 9 to 14) (size 15 to 20)
#    0.000    2.154    0.000    2.769    0.000    9.538 
#    0.000    3.077    0.000    2.769    0.000    0.000 
#    0.000    0.000    0.000    0.000    0.000    0.000 
#
# Total GULP energy -144957.331818 kJ/mol
# GULP energy per Si atom -5575.281993 kJ/mol
# Density = 2.135808 g / cm^3
# Si number density = 21.406807 Si / 1000 Ang^3
#
#
#
# Elastic Constant Matrix: (Units=GPa)
#
#
# Indices 1 2 3 4 5 6 
#
# 1 96.0721 51.1444 19.1812 0.0000 21.5922 0.0000
# 2 51.1444 97.2108 30.1390 0.0000 24.7634 0.0000
# 3 19.1812 30.1390 72.7788 0.0000 21.6725 0.0000
# 4 0.0000 0.0000 0.0000 3.8499 0.0000 6.0039
# 5 21.5922 24.7634 21.6725 0.0000 49.9915 0.0000
# 6 0.0000 0.0000 0.0000 6.0039 0.0000 19.7143
#
#
#
# Elastic Compliance Matrix: (Units=1/GPa)
#
#
# Indices 1 2 3 4 5 6 
#
# 1 0.014819 -0.007023 -0.000146 0.000000 -0.002858 0.000000
# 2 -0.007023 0.015986 -0.003806 0.000000 -0.003235 0.000000
# 3 -0.000146 -0.003806 0.016965 0.000000 -0.005406 0.000000
# 4 0.000000 0.000000 0.000000 0.494710 0.000000 -0.150663
# 5 -0.002858 -0.003235 -0.005406 0.000000 0.025184 0.000000
# 6 0.000000 0.000000 0.000000 -0.150663 0.000000 0.096609
#
#
# Mechanical properties :
#
#
# Convention : Reuss Voigt Hill
#
# Bulk Modulus (GPa) = 38.72946 51.88788 45.30867
# Shear Modulus (GPa) = 7.19601 25.75094 16.47347
#
# Velocity S-wave (km/s) = 1.83544 3.47209 2.77707
# Velocity P-wave (km/s) = 4.75639 6.35338 5.61198
#
# Compressibility (1/GPa) = 0.02582014
#
# Stress axis : x y z
#
# Youngs Moduli (GPa) = 67.47951 62.55439 58.94599
#
# Poissons Ratio (x) = 0.43934 0.00861
# Poissons Ratio (y) = 0.47393 0.22433
# Poissons Ratio (z) = 0.00985 0.23806
#
# Static dielectric constant tensor:
#      x y z
#    x 1.889080 0.000000 -0.022810 
#    y 0.000000 1.739380 0.000000 
#    z -0.022810 0.000000 1.799440 
# 
# From -- ./inp_files/82237.got.cif
#   From: 2010.05.17/outbox.cif.g08.bks.cpg/sg10_42_cif.got.tgz:82237.got - 2010.06.03 11:33:40.
