data_PCOD9150451
_publ_section_title
;
Structure prediction by ZEFSAII (Michael W. Deem and Ramdas Pophale) SiO2 
 PCOD9150451
Probable space group: P 2/M
;
_chemical_formula_sum "Si O2"
_cell_formula_units_Z 32
_cell_length_a 22.151341
_cell_length_b 15.888245
_cell_length_c 16.311943
_cell_angle_alpha 90.000000
_cell_angle_beta 17.900552
_cell_angle_gamma 90.000000
_cell_volume 1764.563000
_symmetry_space_group_name_H-M "P 2/M"
_symmetry_group_IT_number 10
_symmetry_cell_setting 'monoclinic'
loop_
_space_group_symop_operation_xyz
x,y,z
-x,y,-z
-x,-y,-z
x,-y,z
loop_
_atom_site_type_symbol
_atom_site_label
_atom_site_fract_x
_atom_site_fract_y
_atom_site_fract_z
Si Si1 0.059721 0.137584 0.686497
Si Si2 0.105877 0.901677 0.449638
Si Si3 0.372971 0.090532 0.746243
Si Si4 0.458309 0.234248 0.765074
Si Si5 0.082525 0.251037 0.812492
Si Si6 0.391713 0.403771 0.774809
Si Si7 0.807105 0.594137 0.143848
Si Si8 0.489456 0.905008 0.862506
O O1 0.045500 0.151963 0.606803
O O2 0.051056 0.211136 0.764126
O O3 0.278812 0.099733 0.416347
O O4 0.860824 0.088459 0.965518
O O5 0.000000 0.881599 0.500000
O O6 0.057657 0.000000 0.530909
O O7 0.338596 0.896411 0.132751
O O8 0.500000 0.097771 0.500000
O O9 0.415593 0.172610 0.744501
O O10 0.428937 0.000000 0.712583
O O11 0.687230 0.256819 0.472767
O O12 0.356805 0.324945 0.880757
O O13 0.430564 0.171496 0.878196
O O14 0.000000 0.202637 0.000000
O O15 0.965461 0.337348 0.961101
O O16 0.370935 0.500000 0.834291
O O17 0.255886 0.396100 0.869739
O O18 0.610759 0.397018 0.452477
O O19 0.883300 0.500000 0.056846
O O20 0.450870 0.000000 0.879460
#
# Coordination Sequence:
#
# PCOD9150451 Si02
#       8
#     4   4   4   4   4   4   4   4
#     4  11  22  36  57  79 109 151 190 234 287 333
#     4  10  20  36  59  83 105 134 183 245 296 333
#     4  11  23  36  51  72 103 150 196 229 266 324
#     4  11  21  32  51  74 108 143 178 229 275 331
#     4  11  21  33  49  78 111 147 182 220 275 333
#     4   9  18  32  52  77 104 141 185 229 279 330
#     4   9  18  32  51  74 103 140 184 231 277 327
#     4  10  21  36  55  81 110 143 185 236 290 336
#
# _framework density 18.134802000000001
#
# number of rings (size 3 to 8) (size 9 to 14) (size 15 to 20)
#    0.000    1.750    1.250    4.875    1.750    2.750 
#    0.000    0.000    0.000    7.875    0.000    0.875 
#    0.000    8.000    0.000    0.375    0.000    0.250 
#
# Total GULP energy -178245.317701 kJ/mol
# GULP energy per Si atom -5570.166178 kJ/mol
# Density = 1.809353 g / cm^3
# Si number density = 18.134802 Si / 1000 Ang^3
#
#
#
# Elastic Constant Matrix: (Units=GPa)
#
#
# Indices 1 2 3 4 5 6 
#
# 1 97.2163 58.5864 33.6642 0.0000 9.3209 0.0000
# 2 58.5864 120.8596 26.9503 0.0000 -2.0035 0.0000
# 3 33.6642 26.9503 94.0403 0.0000 1.1646 0.0000
# 4 0.0000 0.0000 0.0000 14.0442 0.0000 -6.8162
# 5 9.3209 -2.0035 1.1646 0.0000 26.9712 0.0000
# 6 0.0000 0.0000 0.0000 -6.8162 0.0000 -114.2026
#
#
#
# Elastic Compliance Matrix: (Units=1/GPa)
#
#
# Indices 1 2 3 4 5 6 
#
# 1 0.016572 -0.007295 -0.003766 0.000000 -0.006106 0.000000
# 2 -0.007295 0.012066 -0.000889 0.000000 0.003456 0.000000
# 3 -0.003766 -0.000889 0.012228 0.000000 0.000708 0.000000
# 4 0.000000 0.000000 0.000000 0.069199 0.000000 -0.004130
# 5 -0.006106 0.003456 0.000708 0.000000 0.039413 0.000000
# 6 0.000000 0.000000 0.000000 -0.004130 0.000000 -0.008510
#
#
# Mechanical properties :
#
#
# Convention : Reuss Voigt Hill
#
# Bulk Modulus (GPa) = 58.94351 61.16867 60.05609
# Shear Modulus (GPa) = 29.32141 -1.77642 13.77249
#
# Velocity S-wave (km/s) = 4.02538 -0.99080 2.75880
# Velocity P-wave (km/s) = 7.36060 5.70038 6.58304
#
# Compressibility (1/GPa) = 0.01696540
#
# Stress axis : x y z
#
# Youngs Moduli (GPa) = 60.34256 82.87938 81.77903
#
# Poissons Ratio (x) = 0.60458 0.30800
# Poissons Ratio (y) = 0.44018 0.07273
# Poissons Ratio (z) = 0.22727 0.07370
#
# Static dielectric constant tensor:
#      x y z
#    x 1.670130 0.000000 -0.010390 
#    y 0.000000 1.635820 0.000000 
#    z -0.010390 0.000000 1.623170 
# 
# From -- ./inp_files/70835.got.cif
#   From: 2010.05.17/outbox.cif.g08.bks.cpg/sg10_36_cif.got.tgz:70835.got - 2010.06.03 11:33:40.
