data_PCOD9150230
_publ_section_title
;
Structure prediction by ZEFSAII (Michael W. Deem and Ramdas Pophale) SiO2 
 PCOD9150230
Probable space group: P 2/M
;
_chemical_formula_sum "Si O2"
_cell_formula_units_Z 25
_cell_length_a 21.151830
_cell_length_b 13.180917
_cell_length_c 13.274274
_cell_angle_alpha 90.000000
_cell_angle_beta 157.912314
_cell_angle_gamma 90.000000
_cell_volume 1391.621773
_symmetry_space_group_name_H-M "P 2/M"
_symmetry_group_IT_number 10
_symmetry_cell_setting 'monoclinic'
loop_
_space_group_symop_operation_xyz
x,y,z
-x,y,-z
-x,-y,-z
x,-y,z
loop_
_atom_site_type_symbol
_atom_site_label
_atom_site_fract_x
_atom_site_fract_y
_atom_site_fract_z
Si Si1 0.188653 0.117932 0.799063
Si Si2 0.741608 0.323592 0.425643
Si Si3 0.397613 0.382328 0.577262
Si Si4 0.693287 0.112361 0.252229
Si Si5 0.878344 0.615217 0.999458
Si Si6 0.361323 0.261766 0.212077
Si Si7 0.500000 0.500000 0.000000
O O1 0.285623 0.123594 0.836307
O O2 0.000000 0.158551 0.500000
O O3 0.171047 0.000000 0.801569
O O4 0.286781 0.175893 0.030754
O O5 0.630448 0.318430 0.363477
O O6 0.762618 0.213901 0.406012
O O7 0.646640 0.409219 0.220149
O O8 0.926902 0.361986 0.727476
O O9 0.426253 0.500000 0.650967
O O10 0.228803 0.376830 0.261343
O O11 0.544466 0.342091 0.721953
O O12 0.766990 0.000000 0.387327
O O13 0.500000 0.109928 0.000000
O O14 0.857523 0.500000 0.004609
O O15 0.789719 0.687375 0.949329
O O16 0.500000 0.228671 0.500000
#
# Coordination Sequence:
#
# PCOD9150230 Si02
#       7
#     4   4   4   4   4   4   1
#     4  10  21  38  58  80 107 144 188 229 277 334
#     4  12  21  36  56  82 117 140 187 229 280 328
#     4  10  20  36  57  79 110 147 185 221 274 338
#     4  10  21  36  56  78 106 148 186 222 269 329
#     4  10  20  36  56  80 108 148 184 223 270 339
#     4  10  21  36  56  82 111 144 184 231 278 323
#     4  12  24  32  52  90 116 148 168 242 284 324
#
# _framework density 17.964651
#
# number of rings (size 3 to 8) (size 9 to 14) (size 15 to 20)
#    0.000    1.600    2.400    2.880    0.000    3.520 
#    0.000    0.000    0.000    6.720    0.000    0.000 
#    0.000    0.000    0.000    0.000    0.000    0.000 
#
# Total GULP energy -139196.334455 kJ/mol
# GULP energy per Si atom -5567.853378 kJ/mol
# Density = 1.792376 g / cm^3
# Si number density = 17.964651 Si / 1000 Ang^3
#
#
#
# Elastic Constant Matrix: (Units=GPa)
#
#
# Indices 1 2 3 4 5 6 
#
# 1 82.0223 26.5914 13.2104 0.0000 -0.1452 0.0000
# 2 26.5914 105.1108 21.8668 0.0000 -21.0708 0.0000
# 3 13.2104 21.8668 50.5115 0.0000 10.5742 0.0000
# 4 0.0000 0.0000 0.0000 24.5705 0.0000 -4.5705
# 5 -0.1452 -21.0708 10.5742 0.0000 20.4913 0.0000
# 6 0.0000 0.0000 0.0000 -4.5705 0.0000 31.3598
#
#
#
# Elastic Compliance Matrix: (Units=1/GPa)
#
#
# Indices 1 2 3 4 5 6 
#
# 1 0.013628 -0.003835 -0.001231 0.000000 -0.003212 0.000000
# 2 -0.003835 0.017843 -0.011835 0.000000 0.024428 0.000000
# 3 -0.001231 -0.011835 0.031159 0.000000 -0.028257 0.000000
# 4 0.000000 0.000000 0.000000 0.041833 0.000000 0.006097
# 5 -0.003212 0.024428 -0.028257 0.000000 0.088479 0.000000
# 6 0.000000 0.000000 0.000000 0.006097 0.000000 0.032777
#
#
# Mechanical properties :
#
#
# Convention : Reuss Voigt Hill
#
# Bulk Modulus (GPa) = 34.69123 40.10908 37.40016
# Shear Modulus (GPa) = 18.57834 27.01605 22.79720
#
# Velocity S-wave (km/s) = 3.21933 3.88215 3.56617
# Velocity P-wave (km/s) = 5.75947 6.51690 6.14986
#
# Compressibility (1/GPa) = 0.02882573
#
# Stress axis : x y z
#
# Youngs Moduli (GPa) = 73.37916 56.04425 32.09392
#
# Poissons Ratio (x) = 0.21495 0.03952
# Poissons Ratio (y) = 0.28143 0.37984
# Poissons Ratio (z) = 0.09036 0.66329
#
# Static dielectric constant tensor:
#      x y z
#    x 1.611840 0.000000 -0.014790 
#    y 0.000000 1.621020 0.000000 
#    z -0.014790 0.000000 1.609990 
# 
# From -- ./inp_files/71845.got.cif
#   From: 2010.05.17/outbox.cif.g08.bks.cpg/sg10_36_cif.got.tgz:71845.got - 2010.06.03 11:33:40.
