data_PCOD9150524
_publ_section_title
;
Structure prediction by ZEFSAII (Michael W. Deem and Ramdas Pophale) SiO2 
 PCOD9150524
Probable space group: P 2/M
;
_chemical_formula_sum "Si O2"
_cell_formula_units_Z 28
_cell_length_a 15.328514
_cell_length_b 14.102574
_cell_length_c 8.923727
_cell_angle_alpha 90.000000
_cell_angle_beta 130.619026
_cell_angle_gamma 90.000000
_cell_volume 1464.259525
_symmetry_space_group_name_H-M "P 2/M"
_symmetry_group_IT_number 10
_symmetry_cell_setting 'monoclinic'
loop_
_space_group_symop_operation_xyz
x,y,z
-x,y,-z
-x,-y,-z
x,-y,z
loop_
_atom_site_type_symbol
_atom_site_label
_atom_site_fract_x
_atom_site_fract_y
_atom_site_fract_z
Si Si1 0.263676 0.759802 0.339310
Si Si2 0.751708 0.896166 0.247067
Si Si3 0.077530 0.106847 0.286547
Si Si4 0.113607 0.388789 0.023684
Si Si5 0.606578 0.106759 0.732967
Si Si6 0.090132 0.237503 0.740638
Si Si7 0.553479 0.195702 0.204353
O O1 0.157009 0.822966 0.279372
O O2 0.216201 0.659534 0.232262
O O3 0.311436 0.816763 0.250368
O O4 0.363159 0.755039 0.578989
O O5 0.854555 0.901023 0.481565
O O6 0.792137 0.807921 0.191166
O O7 0.639092 0.878466 0.220409
O O8 0.747374 0.000000 0.170265
O O9 0.960994 0.158605 0.202608
O O10 0.066627 0.000000 0.215033
O O11 0.130759 0.500000 0.016747
O O12 0.102015 0.331119 0.854875
O O13 0.000000 0.376888 0.000000
O O14 0.500000 0.102760 0.500000
O O15 0.548663 0.142931 0.821262
O O16 0.653383 0.000000 0.786824
O O17 0.000000 0.251692 0.500000
O O18 0.500000 0.250151 0.000000
#
# Coordination Sequence:
#
# PCOD9150524 Si02
#       7
#     4   4   4   4   4   4   4
#     4  10  20  38  59  82 115 159 198 239 294 343
#     4   9  18  31  52  84 123 162 192 225 273 338
#     4   9  16  31  54  84 123 159 189 224 273 346
#     4  11  24  43  64  86 113 147 194 248 306 361
#     4   9  18  33  54  84 121 159 199 238 276 334
#     4  10  20  36  59  87 119 152 192 236 286 349
#     4  10  21  35  55  84 118 161 199 240 278 331
#
# _framework density 19.122292999999999
#
# number of rings (size 3 to 8) (size 9 to 14) (size 15 to 20)
#    0.000    2.286    1.429    1.286    2.000    6.571 
#    0.000    2.857    0.000    4.286    0.000    0.000 
#    0.000    0.000    0.000    0.000    0.000    0.000 
#
# Total GULP energy -156090.712843 kJ/mol
# GULP energy per Si atom -5574.668316 kJ/mol
# Density = 1.907877 g / cm^3
# Si number density = 19.122293 Si / 1000 Ang^3
#
#
#
# Elastic Constant Matrix: (Units=GPa)
#
#
# Indices 1 2 3 4 5 6 
#
# 1 101.5038 52.8083 15.8007 0.0000 -8.2633 0.0000
# 2 52.8083 122.6838 37.1203 0.0000 -5.2079 0.0000
# 3 15.8007 37.1203 122.5086 0.0000 -14.7604 0.0000
# 4 0.0000 0.0000 0.0000 21.4616 0.0000 -7.0092
# 5 -8.2633 -5.2079 -14.7604 0.0000 23.8996 0.0000
# 6 0.0000 0.0000 0.0000 -7.0092 0.0000 12.2518
#
#
#
# Elastic Compliance Matrix: (Units=1/GPa)
#
#
# Indices 1 2 3 4 5 6 
#
# 1 0.012967 -0.005564 0.000440 0.000000 0.003543 0.000000
# 2 -0.005564 0.011363 -0.002873 0.000000 -0.001222 0.000000
# 3 0.000440 -0.002873 0.009636 0.000000 0.005478 0.000000
# 4 0.000000 0.000000 0.000000 0.057301 0.000000 0.032782
# 5 0.003543 -0.001222 0.005478 0.000000 0.046183 0.000000
# 6 0.000000 0.000000 0.000000 0.032782 0.000000 0.100376
#
#
# Mechanical properties :
#
#
# Convention : Reuss Voigt Hill
#
# Bulk Modulus (GPa) = 55.63810 62.01721 58.82765
# Shear Modulus (GPa) = 19.24479 27.58705 23.41592
#
# Velocity S-wave (km/s) = 3.17583 3.80236 3.50313
# Velocity P-wave (km/s) = 6.52740 7.19580 6.86974
#
# Compressibility (1/GPa) = 0.01797330
#
# Stress axis : x y z
#
# Youngs Moduli (GPa) = 77.12162 88.00152 103.77432
#
# Poissons Ratio (x) = 0.48966 -0.04571
# Poissons Ratio (y) = 0.42912 0.29811
# Poissons Ratio (z) = -0.03397 0.25280
#
# Static dielectric constant tensor:
#      x y z
#    x 1.667340 0.000000 -0.003490 
#    y 0.000000 1.614800 0.000000 
#    z -0.003490 0.000000 1.782500 
# 
# From -- ./inp_files/28667.got.cif
#   From: 2010.05.17/outbox.cif.g08.bks.cpg/sg10_15_cif.got.tgz:28667.got - 2010.06.03 11:33:40.
