data_PCOD9150888
_publ_section_title
;
Structure prediction by ZEFSAII (Michael W. Deem and Ramdas Pophale) SiO2 
 PCOD9150888
Probable space group: P 2/M
;
_chemical_formula_sum "Si O2"
_cell_formula_units_Z 26
_cell_length_a 13.558307
_cell_length_b 7.853004
_cell_length_c 16.636243
_cell_angle_alpha 90.000000
_cell_angle_beta 144.580774
_cell_angle_gamma 90.000000
_cell_volume 1026.575607
_symmetry_space_group_name_H-M "P 2/M"
_symmetry_group_IT_number 10
_symmetry_cell_setting 'monoclinic'
loop_
_space_group_symop_operation_xyz
x,y,z
-x,y,-z
-x,-y,-z
x,-y,z
loop_
_atom_site_type_symbol
_atom_site_label
_atom_site_fract_x
_atom_site_fract_y
_atom_site_fract_z
Si Si1 0.296054 0.804677 0.675461
Si Si2 0.135757 0.301089 0.726450
Si Si3 0.687307 0.000000 0.769017
Si Si4 0.618929 0.304769 0.980272
Si Si5 0.732324 0.311538 0.696284
Si Si6 0.772018 0.197269 0.542638
Si Si7 0.106083 0.808684 0.956622
O O1 0.169049 0.719419 0.654192
O O2 0.478127 0.798484 0.839189
O O3 0.309500 0.732101 0.594458
O O4 0.241295 0.000000 0.630191
O O5 0.113657 0.500000 0.730438
O O6 0.972646 0.206348 0.652736
O O7 0.309021 0.243859 0.886436
O O8 0.637204 0.153746 0.673703
O O9 0.772580 0.144732 0.888242
O O10 0.558188 0.500000 0.946135
O O11 0.786089 0.291820 0.036405
O O12 0.671601 0.500000 0.677569
O O13 0.738750 0.290810 0.603743
O O14 0.930358 0.286229 0.854431
O O15 0.718788 0.000000 0.515129
O O16 0.052198 0.000000 0.890795
#
# Coordination Sequence:
#
# PCOD9150888 Si02
#       7
#     4   4   2   4   4   4   4
#     4  11  25  41  60  89 123 172 217 260 313 371
#     4  11  23  39  61  91 125 163 214 268 314 366
#     4  10  23  40  60  97 128 163 200 265 324 369
#     4  11  23  39  62  91 126 169 212 260 315 375
#     4  12  21  36  63  94 128 166 208 255 319 381
#     4  11  23  40  63  89 128 168 212 262 316 374
#     4  10  20  37  59  88 127 158 203 253 315 368
#
# _framework density 25.326920000000001
#
# number of rings (size 3 to 8) (size 9 to 14) (size 15 to 20)
#    0.462    0.615    3.077    4.154    0.000    9.846 
#    0.000    0.000    0.000    1.846    0.000    2.154 
#    0.000    0.000    0.000    0.000    0.000    0.000 
#
# Total GULP energy -144994.912358 kJ/mol
# GULP energy per Si atom -5576.727398 kJ/mol
# Density = 2.526927 g / cm^3
# Si number density = 25.326920 Si / 1000 Ang^3
#
#
#
# Elastic Constant Matrix: (Units=GPa)
#
#
# Indices 1 2 3 4 5 6 
#
# 1 59.5463 26.0486 31.6662 0.0000 -10.5829 0.0000
# 2 26.0486 124.5138 22.5502 0.0000 -20.0063 0.0000
# 3 31.6662 22.5502 110.2610 0.0000 -23.9513 0.0000
# 4 0.0000 0.0000 0.0000 -7.6508 0.0000 -45.3842
# 5 -10.5829 -20.0063 -23.9513 0.0000 44.3826 0.0000
# 6 0.0000 0.0000 0.0000 -45.3842 0.0000 -15.1658
#
#
#
# Elastic Compliance Matrix: (Units=1/GPa)
#
#
# Indices 1 2 3 4 5 6 
#
# 1 0.021179 -0.003369 -0.005241 0.000000 0.000703 0.000000
# 2 -0.003369 0.009302 -0.000225 0.000000 0.003268 0.000000
# 3 -0.005241 -0.000225 0.011698 0.000000 0.004962 0.000000
# 4 0.000000 0.000000 0.000000 0.007803 0.000000 -0.023349
# 5 0.000703 0.003268 0.004962 0.000000 0.026850 0.000000
# 6 0.000000 0.000000 0.000000 -0.023349 0.000000 0.003936
#
#
# Mechanical properties :
#
#
# Convention : Reuss Voigt Hill
#
# Bulk Modulus (GPa) = 40.79838 50.53901 45.66870
# Shear Modulus (GPa) = 46.90105 18.58360 32.74232
#
# Velocity S-wave (km/s) = 4.30795 2.71172 3.59944
# Velocity P-wave (km/s) = 6.39440 5.45917 5.94520
#
# Compressibility (1/GPa) = 0.02451077
#
# Stress axis : x y z
#
# Youngs Moduli (GPa) = 47.21597 107.50557 85.48181
#
# Poissons Ratio (x) = 0.36214 0.44799
# Poissons Ratio (y) = 0.15905 0.01923
# Poissons Ratio (z) = 0.24745 0.02419
#
# Static dielectric constant tensor:
#      x y z
#    x 2.018260 0.000000 0.022130 
#    y 0.000000 1.918210 0.000000 
#    z 0.022130 0.000000 2.099010 
# 
# From -- ./inp_files/66891.got.cif
#   From: 2010.05.17/outbox.cif.g08.bks.cpg/sg10_34_cif.got.tgz:66891.got - 2010.06.03 11:33:40.
