data_PCOD9150718
_publ_section_title
;
Structure prediction by ZEFSAII (Michael W. Deem and Ramdas Pophale) SiO2 
 PCOD9150718
Probable space group: P 2/M
;
_chemical_formula_sum "Si O2"
_cell_formula_units_Z 32
_cell_length_a 12.555031
_cell_length_b 8.983457
_cell_length_c 14.660789
_cell_angle_alpha 90.000000
_cell_angle_beta 90.868203
_cell_angle_gamma 90.000000
_cell_volume 1653.365093
_symmetry_space_group_name_H-M "P 2/M"
_symmetry_group_IT_number 10
_symmetry_cell_setting 'monoclinic'
loop_
_space_group_symop_operation_xyz
x,y,z
-x,y,-z
-x,-y,-z
x,-y,z
loop_
_atom_site_type_symbol
_atom_site_label
_atom_site_fract_x
_atom_site_fract_y
_atom_site_fract_z
Si Si1 0.110878 0.176288 0.166739
Si Si2 0.333507 0.822130 0.265266
Si Si3 0.380218 0.172132 0.963351
Si Si4 0.827194 0.324386 0.013178
Si Si5 0.622133 0.178059 0.522107
Si Si6 0.275040 0.327798 0.643698
Si Si7 0.546255 0.671306 0.208260
Si Si8 0.876480 0.176643 0.209697
O O1 0.217615 0.214849 0.223767
O O2 0.003286 0.201068 0.222086
O O3 0.115983 0.000000 0.144903
O O4 0.106308 0.264166 0.071419
O O5 0.345522 0.791718 0.373149
O O6 0.427941 0.732842 0.217940
O O7 0.351117 0.000000 0.251348
O O8 0.294417 0.276030 0.010216
O O9 0.389067 0.223791 0.859402
O O10 0.348594 0.000000 0.973204
O O11 0.500000 0.189552 0.000000
O O12 0.838145 0.500000 0.023137
O O13 0.850632 0.245906 0.110028
O O14 0.500000 0.227097 0.500000
O O15 0.703724 0.251075 0.452404
O O16 0.624345 0.000000 0.508620
O O17 0.245164 0.500000 0.632754
O O18 0.389177 0.322429 0.696842
O O19 0.191302 0.249427 0.710172
O O20 0.547703 0.500000 0.175664
O O21 0.855700 0.000000 0.206483
#
# Coordination Sequence:
#
# PCOD9150718 Si02
#       8
#     4   4   4   4   4   4   4   4
#     4  10  23  42  62  87 117 156 203 250 296 346
#     4  10  21  39  62  88 121 156 197 246 296 355
#     4  11  23  37  55  81 116 159 201 242 291 349
#     4  12  24  38  59  88 120 156 198 246 299 355
#     4  10  20  36  62  92 119 154 196 239 292 355
#     4  11  23  38  59  89 122 153 191 243 298 351
#     4  11  22  35  55  85 120 155 191 238 298 355
#     4  11  23  41  65  87 115 157 206 251 292 346
#
# _framework density 19.354469000000002
#
# number of rings (size 3 to 8) (size 9 to 14) (size 15 to 20)
#    0.000    1.250    2.500    3.750    0.000    8.750 
#    0.000    0.625    0.000    3.750    0.000    0.000 
#    0.000    0.000    0.000    0.000    0.000    0.000 
#
# Total GULP energy -178849.194411 kJ/mol
# GULP energy per Si atom -5589.037325 kJ/mol
# Density = 1.931042 g / cm^3
# Si number density = 19.354469 Si / 1000 Ang^3
#
#
#
# Elastic Constant Matrix: (Units=GPa)
#
#
# Indices 1 2 3 4 5 6 
#
# 1 111.7132 44.4875 32.5876 0.0000 -16.6531 0.0000
# 2 44.4875 58.8053 38.4358 0.0000 -12.0473 0.0000
# 3 32.5876 38.4358 77.5814 0.0000 -18.5482 0.0000
# 4 0.0000 0.0000 0.0000 33.6430 0.0000 -82.1546
# 5 -16.6531 -12.0473 -18.5482 0.0000 30.6425 0.0000
# 6 0.0000 0.0000 0.0000 -82.1546 0.0000 326.8057
#
#
#
# Elastic Compliance Matrix: (Units=1/GPa)
#
#
# Indices 1 2 3 4 5 6 
#
# 1 0.013152 -0.009127 -0.000178 0.000000 0.003452 0.000000
# 2 -0.009127 0.031681 -0.011774 0.000000 0.000369 0.000000
# 3 -0.000178 -0.011774 0.020657 0.000000 0.007778 0.000000
# 4 0.000000 0.000000 0.000000 0.076980 0.000000 0.019352
# 5 0.003452 0.000369 0.007778 0.000000 0.039364 0.000000
# 6 0.000000 0.000000 0.000000 0.019352 0.000000 0.007925
#
#
# Mechanical properties :
#
#
# Convention : Reuss Voigt Hill
#
# Bulk Modulus (GPa) = 42.85585 53.23573 48.04579
# Shear Modulus (GPa) = 20.86006 87.05753 53.95879
#
# Velocity S-wave (km/s) = 3.28653 6.71403 5.28581
# Velocity P-wave (km/s) = 6.04917 9.36321 7.88232
#
# Compressibility (1/GPa) = 0.02333404
#
# Stress axis : x y z
#
# Youngs Moduli (GPa) = 76.03130 31.56487 48.40987
#
# Poissons Ratio (x) = 0.28809 0.00860
# Poissons Ratio (y) = 0.69392 0.56996
# Poissons Ratio (z) = 0.01351 0.37163
#
# Static dielectric constant tensor:
#      x y z
#    x 1.709150 0.000000 0.015460 
#    y 0.000000 1.655720 0.000000 
#    z 0.015460 0.000000 1.674700 
# 
# From -- ./inp_files/58300.got.cif
#   From: 2010.05.17/outbox.cif.g08.bks.cpg/sg10_30_cif.got.tgz:58300.got - 2010.06.03 11:33:40.
