data_PCOD9150105
_publ_section_title
;
Structure prediction by ZEFSAII (Michael W. Deem and Ramdas Pophale) SiO2 
 PCOD9150105
Probable space group: P 2/M
;
_chemical_formula_sum "Si O2"
_cell_formula_units_Z 26
_cell_length_a 16.621323
_cell_length_b 7.890868
_cell_length_c 17.557165
_cell_angle_alpha 90.000000
_cell_angle_beta 27.304529
_cell_angle_gamma 90.000000
_cell_volume 1056.312063
_symmetry_space_group_name_H-M "P 2/M"
_symmetry_group_IT_number 10
_symmetry_cell_setting 'monoclinic'
loop_
_space_group_symop_operation_xyz
x,y,z
-x,y,-z
-x,-y,-z
x,-y,z
loop_
_atom_site_type_symbol
_atom_site_label
_atom_site_fract_x
_atom_site_fract_y
_atom_site_fract_z
Si Si1 0.389671 0.698284 0.665181
Si Si2 0.223073 0.688814 0.004842
Si Si3 0.417361 0.697733 0.236127
Si Si4 0.896992 0.800972 0.196233
Si Si5 0.865083 0.500000 0.776485
Si Si6 0.818773 0.187230 0.699768
Si Si7 0.676616 0.802456 0.528155
O O1 0.500000 0.769114 0.500000
O O2 0.427924 0.500000 0.639599
O O3 0.191060 0.720176 0.803959
O O4 0.476251 0.783426 0.665832
O O5 0.275261 0.500000 0.930631
O O6 0.115417 0.644777 0.171809
O O7 0.098163 0.771661 0.048524
O O8 0.398325 0.772370 0.890565
O O9 0.448703 0.500000 0.189112
O O10 0.332562 0.788178 0.236202
O O11 0.299427 0.707956 0.411772
O O12 0.790478 0.738312 0.360949
O O13 0.866292 0.000000 0.214381
O O14 0.823141 0.348975 0.750140
O O15 0.000000 0.190333 0.500000
O O16 0.802001 0.000000 0.749984
O O17 0.716607 0.000000 0.507012
#
# Coordination Sequence:
#
# PCOD9150105 Si02
#       7
#     4   4   4   4   2   4   4
#     4   9  17  32  55  85 118 157 202 246 297 358
#     4   9  23  40  60  86 118 157 205 246 300 362
#     4  11  23  41  63  85 124 161 199 254 308 361
#     4  10  20  35  59  88 123 158 199 253 299 359
#     4  10  23  45  68  88 123 169 201 261 306 370
#     4  11  25  42  65  98 129 159 204 257 312 373
#     4  10  21  35  57  90 122 157 202 249 305 363
#
# _framework density 24.613938000000001
#
# number of rings (size 3 to 8) (size 9 to 14) (size 15 to 20)
#    0.462    1.538    0.769    2.077    2.154    6.769 
#    0.000    1.538    0.000    4.615    0.000    0.000 
#    0.000    0.000    0.000    0.000    0.000    0.000 
#
# Total GULP energy -144752.144569 kJ/mol
# GULP energy per Si atom -5567.390176 kJ/mol
# Density = 2.455792 g / cm^3
# Si number density = 24.613938 Si / 1000 Ang^3
#
#
#
# Elastic Constant Matrix: (Units=GPa)
#
#
# Indices 1 2 3 4 5 6 
#
# 1 121.6908 39.0331 16.5828 0.0000 -1.2548 0.0000
# 2 39.0331 103.9522 -2.4808 0.0000 -3.7480 0.0000
# 3 16.5828 -2.4808 72.4408 0.0000 -24.2628 0.0000
# 4 0.0000 0.0000 0.0000 19.5365 0.0000 -0.7351
# 5 -1.2548 -3.7480 -24.2628 0.0000 26.2345 0.0000
# 6 0.0000 0.0000 0.0000 -0.7351 0.0000 66.2634
#
#
#
# Elastic Compliance Matrix: (Units=1/GPa)
#
#
# Indices 1 2 3 4 5 6 
#
# 1 0.009925 -0.003932 -0.003529 0.000000 -0.003351 0.000000
# 2 -0.003932 0.011294 0.002556 0.000000 0.003789 0.000000
# 3 -0.003529 0.002556 0.021392 0.000000 0.019980 0.000000
# 4 0.000000 0.000000 0.000000 0.051208 0.000000 0.000568
# 5 -0.003351 0.003789 0.019980 0.000000 0.056977 0.000000
# 6 0.000000 0.000000 0.000000 0.000568 0.000000 0.015098
#
#
# Mechanical properties :
#
#
# Convention : Reuss Voigt Hill
#
# Bulk Modulus (GPa) = 30.48672 44.92824 37.70748
# Shear Modulus (GPa) = 26.79008 38.73679 32.76344
#
# Velocity S-wave (km/s) = 3.30269 3.97139 3.65237
# Velocity P-wave (km/s) = 5.19196 6.27073 5.75667
#
# Compressibility (1/GPa) = 0.03280117
#
# Stress axis : x y z
#
# Youngs Moduli (GPa) = 100.75540 88.54435 46.74698
#
# Poissons Ratio (x) = 0.34814 0.16496
# Poissons Ratio (y) = 0.39615 -0.11948
# Poissons Ratio (z) = 0.35555 -0.22632
#
# Static dielectric constant tensor:
#      x y z
#    x 1.796980 0.000000 0.247190 
#    y 0.000000 1.886500 0.000000 
#    z 0.247190 0.000000 1.668860 
# 
# From -- ./inp_files/84668.got.cif
#   From: 2010.05.17/outbox.cif.g08.bks.cpg/sg10_43_cif.got.tgz:84668.got - 2010.06.03 11:33:40.
