data_PCOD9150881
_publ_section_title
;
Structure prediction by ZEFSAII (Michael W. Deem and Ramdas Pophale) SiO2 
 PCOD9150881
Probable space group: P 2/M
;
_chemical_formula_sum "Si O2"
_cell_formula_units_Z 20
_cell_length_a 13.436268
_cell_length_b 10.449319
_cell_length_c 7.028667
_cell_angle_alpha 90.000000
_cell_angle_beta 89.590863
_cell_angle_gamma 90.000000
_cell_volume 986.798637
_symmetry_space_group_name_H-M "P 2/M"
_symmetry_group_IT_number 10
_symmetry_cell_setting 'monoclinic'
loop_
_space_group_symop_operation_xyz
x,y,z
-x,y,-z
-x,-y,-z
x,-y,z
loop_
_atom_site_type_symbol
_atom_site_label
_atom_site_fract_x
_atom_site_fract_y
_atom_site_fract_z
Si Si1 0.910773 0.000000 0.225124
Si Si2 0.742760 0.251849 0.630646
Si Si3 0.389891 0.345112 0.078957
Si Si4 0.130752 0.500000 0.324505
Si Si5 0.136332 0.000000 0.319904
Si Si6 0.914454 0.500000 0.222123
Si Si7 0.787890 0.252168 0.181973
O O1 0.853549 0.125156 0.150407
O O2 0.892539 0.000000 0.454884
O O3 0.031264 0.000000 0.208503
O O4 0.634157 0.282289 0.715755
O O5 0.806693 0.372366 0.702965
O O6 0.750997 0.249234 0.402609
O O7 0.795872 0.124892 0.707825
O O8 0.376633 0.500000 0.082980
O O9 0.500000 0.320646 0.000000
O O10 0.308151 0.278473 0.944773
O O11 0.102365 0.500000 0.548098
O O12 0.032417 0.500000 0.200280
O O13 0.860494 0.372813 0.154526
#
# Coordination Sequence:
#
# PCOD9150881 Si02
#       7
#     2   4   4   2   2   2   4
#     4   9  18  35  61  90 123 159 186 220 280 350
#     4  10  20  37  59  86 117 150 190 234 285 344
#     4  11  24  41  60  83 111 147 199 255 298 335
#     4   9  16  29  53  82 113 147 182 224 274 332
#     4   9  18  35  61  90 123 159 186 220 280 350
#     4   9  16  29  53  82 113 147 182 224 274 332
#     4  10  20  37  59  86 117 150 190 234 285 344
#
# _framework density 20.26756
#
# number of rings (size 3 to 8) (size 9 to 14) (size 15 to 20)
#    0.000    2.200    2.000    1.200    0.000    6.400 
#    0.000   10.000    0.000    3.600    0.000    0.000 
#    0.000    0.000    0.000    0.000    0.000    0.000 
#
# Total GULP energy -111729.968346 kJ/mol
# GULP energy per Si atom -5586.498417 kJ/mol
# Density = 2.022143 g / cm^3
# Si number density = 20.267560 Si / 1000 Ang^3
#
#
#
# Elastic Constant Matrix: (Units=GPa)
#
#
# Indices 1 2 3 4 5 6 
#
# 1 95.5586 52.2480 16.2055 0.0000 -20.5337 0.0000
# 2 52.2480 167.3830 13.3355 0.0000 -10.1233 0.0000
# 3 16.2055 13.3355 77.9041 0.0000 -9.2464 0.0000
# 4 0.0000 0.0000 0.0000 -4.8325 0.0000 4.0847
# 5 -20.5337 -10.1233 -9.2464 0.0000 38.5867 0.0000
# 6 0.0000 0.0000 0.0000 4.0847 0.0000 21.7302
#
#
#
# Elastic Compliance Matrix: (Units=1/GPa)
#
#
# Indices 1 2 3 4 5 6 
#
# 1 0.014203 -0.003938 -0.001550 0.000000 0.006154 0.000000
# 2 -0.003938 0.007221 -0.000454 0.000000 -0.000310 0.000000
# 3 -0.001550 -0.000454 0.013509 0.000000 0.002293 0.000000
# 4 0.000000 0.000000 0.000000 -0.178561 0.000000 0.033565
# 5 0.006154 -0.000310 0.002293 0.000000 0.029658 0.000000
# 6 0.000000 0.000000 0.000000 0.033565 0.000000 0.039710
#
#
# Mechanical properties :
#
#
# Convention : Reuss Voigt Hill
#
# Bulk Modulus (GPa) = 43.38510 56.04708 49.71609
# Shear Modulus (GPa) = -91.41676 28.36733 -31.52471
#
# Velocity S-wave (km/s) = -6.72331 3.74524 -3.94817
# Velocity P-wave (km/s) = 6.23040 6.81293 1.94912
#
# Compressibility (1/GPa) = 0.02304939
#
# Stress axis : x y z
#
# Youngs Moduli (GPa) = 70.40794 138.48712 74.02706
#
# Poissons Ratio (x) = 0.54533 0.11475
# Poissons Ratio (y) = 0.27725 0.03359
# Poissons Ratio (z) = 0.10914 0.06283
#
# Static dielectric constant tensor:
#      x y z
#    x 1.686320 0.000000 -0.037720 
#    y 0.000000 1.677570 0.000000 
#    z -0.037720 0.000000 1.805310 
# 
# From -- ./inp_files/22321.got.cif
#   From: 2010.05.17/outbox.cif.g08.bks.cpg/sg10_12_cif.got.tgz:22321.got - 2010.06.03 11:33:40.
