data_PCOD9150705
_publ_section_title
;
Structure prediction by ZEFSAII (Michael W. Deem and Ramdas Pophale) SiO2 
 PCOD9150705
Probable space group: P 2/M
;
_chemical_formula_sum "Si O2"
_cell_formula_units_Z 29
_cell_length_a 19.972139
_cell_length_b 9.218702
_cell_length_c 14.927288
_cell_angle_alpha 90.000000
_cell_angle_beta 146.625572
_cell_angle_gamma 90.000000
_cell_volume 1511.900783
_symmetry_space_group_name_H-M "P 2/M"
_symmetry_group_IT_number 10
_symmetry_cell_setting 'monoclinic'
loop_
_space_group_symop_operation_xyz
x,y,z
-x,y,-z
-x,-y,-z
x,-y,z
loop_
_atom_site_type_symbol
_atom_site_label
_atom_site_fract_x
_atom_site_fract_y
_atom_site_fract_z
Si Si1 0.298207 0.665881 0.936130
Si Si2 0.194917 0.663917 0.635466
Si Si3 0.361350 0.823990 0.352886
Si Si4 0.051927 0.676217 0.307573
Si Si5 0.206226 0.825419 0.005098
Si Si6 0.570286 0.739489 0.211267
Si Si7 0.500000 0.000000 0.000000
Si Si8 0.731316 0.174265 0.555084
O O1 0.256954 0.500000 0.908600
O O2 0.228804 0.726875 0.770220
O O3 0.275457 0.769231 0.994353
O O4 0.441690 0.660572 0.075867
O O5 0.155815 0.500000 0.610683
O O6 0.319142 0.660568 0.716184
O O7 0.095295 0.726558 0.456051
O O8 0.500000 0.770851 0.500000
O O9 0.281762 0.783310 0.178010
O O10 0.302244 0.782517 0.381424
O O11 0.366048 0.000000 0.358506
O O12 0.051092 0.500000 0.304808
O O13 0.152139 0.740140 0.351842
O O14 0.922950 0.745093 0.140738
O O15 0.192348 0.000000 0.988011
O O16 0.621346 0.785780 0.365117
O O17 0.543224 0.876143 0.119488
O O18 0.751660 0.000000 0.573997
#
# Coordination Sequence:
#
# PCOD9150705 Si02
#       8
#     4   4   4   4   4   4   1   4
#     4  11  22  36  57  82 115 157 194 232 285 344
#     4   9  19  36  57  79 110 153 193 227 271 344
#     4   9  19  38  61  88 115 147 185 228 281 341
#     4  10  22  41  60  82 114 150 191 235 284 341
#     4  11  24  40  60  83 112 145 192 244 287 332
#     4  11  20  32  54  88 125 148 185 232 289 335
#     4  12  20  28  50  92 128 154 174 238 290 332
#     4  10  20  36  62  86 114 153 194 234 279 334
#
# _framework density 19.181152999999998
#
# number of rings (size 3 to 8) (size 9 to 14) (size 15 to 20)
#    0.000    1.793    2.069    2.069    0.966    3.862 
#    0.000    6.897    0.000    2.897    0.000    0.000 
#    0.000    0.000    0.000    0.000    0.000    0.000 
#
# Total GULP energy -161524.154915 kJ/mol
# GULP energy per Si atom -5569.798445 kJ/mol
# Density = 1.913750 g / cm^3
# Si number density = 19.181153 Si / 1000 Ang^3
#
#
#
# Elastic Constant Matrix: (Units=GPa)
#
#
# Indices 1 2 3 4 5 6 
#
# 1 59.1691 16.5702 66.4650 0.0000 -34.5726 0.0000
# 2 16.5702 69.8852 35.4506 0.0000 -7.6014 0.0000
# 3 66.4650 35.4506 169.8035 0.0000 -24.6719 0.0000
# 4 0.0000 0.0000 0.0000 30.6369 0.0000 7.8659
# 5 -34.5726 -7.6014 -24.6719 0.0000 37.2258 0.0000
# 6 0.0000 0.0000 0.0000 7.8659 0.0000 15.8315
#
#
#
# Elastic Compliance Matrix: (Units=1/GPa)
#
#
# Indices 1 2 3 4 5 6 
#
# 1 0.068084 -0.000961 -0.019133 0.000000 0.050355 0.000000
# 2 -0.000961 0.016063 -0.002911 0.000000 0.000459 0.000000
# 3 -0.019133 -0.002911 0.012524 0.000000 -0.010063 0.000000
# 4 0.000000 0.000000 0.000000 0.037413 0.000000 -0.018589
# 5 0.050355 0.000459 -0.010063 0.000000 0.067053 0.000000
# 6 0.000000 0.000000 0.000000 -0.018589 0.000000 0.072401
#
#
# Mechanical properties :
#
#
# Convention : Reuss Voigt Hill
#
# Bulk Modulus (GPa) = 19.73837 59.53660 39.63748
# Shear Modulus (GPa) = 14.86172 28.76364 21.81268
#
# Velocity S-wave (km/s) = 2.78656 3.87664 3.37589
# Velocity P-wave (km/s) = 4.54599 7.15152 5.99209
#
# Compressibility (1/GPa) = 0.05066275
#
# Stress axis : x y z
#
# Youngs Moduli (GPa) = 14.68770 62.25294 79.84835
#
# Poissons Ratio (x) = 0.05980 1.52772
# Poissons Ratio (y) = 0.01411 0.23244
# Poissons Ratio (z) = 0.28102 0.18122
#
# Static dielectric constant tensor:
#      x y z
#    x 1.672840 0.000000 0.006960 
#    y 0.000000 1.666220 0.000000 
#    z 0.006960 0.000000 1.677080 
# 
# From -- ./inp_files/70356.got.cif
#   From: 2010.05.17/outbox.cif.g08.bks.cpg/sg10_36_cif.got.tgz:70356.got - 2010.06.03 11:33:40.
