data_PCOD9150346
_publ_section_title
;
Structure prediction by ZEFSAII (Michael W. Deem and Ramdas Pophale) SiO2 
 PCOD9150346
Probable space group: P 2/M
;
_chemical_formula_sum "Si O2"
_cell_formula_units_Z 32
_cell_length_a 23.457390
_cell_length_b 7.756326
_cell_length_c 28.549170
_cell_angle_alpha 90.000000
_cell_angle_beta 162.514478
_cell_angle_gamma 90.000000
_cell_volume 1560.712199
_symmetry_space_group_name_H-M "P 2/M"
_symmetry_group_IT_number 10
_symmetry_cell_setting 'monoclinic'
loop_
_space_group_symop_operation_xyz
x,y,z
-x,y,-z
-x,-y,-z
x,-y,z
loop_
_atom_site_type_symbol
_atom_site_label
_atom_site_fract_x
_atom_site_fract_y
_atom_site_fract_z
Si Si1 0.206406 0.792200 0.146673
Si Si2 0.517331 0.292963 0.714495
Si Si3 0.192441 0.292950 0.388336
Si Si4 0.529797 0.792627 0.470967
Si Si5 0.221208 0.288248 0.904589
Si Si6 0.701995 0.705743 0.140474
Si Si7 0.452755 0.292450 0.769032
Si Si8 0.029916 0.794542 0.470643
O O1 0.286629 0.747107 0.158412
O O2 0.363560 0.727131 0.306587
O O3 0.202728 0.000000 0.146462
O O4 0.000000 0.728386 0.000000
O O5 0.499540 0.500000 0.702249
O O6 0.345676 0.227345 0.546755
O O7 0.498986 0.227495 0.752974
O O8 0.190017 0.500000 0.390356
O O9 0.274093 0.249573 0.401258
O O10 0.981406 0.231212 0.233876
O O11 0.500000 0.726909 0.500000
O O12 0.515265 0.000000 0.461105
O O13 0.220670 0.500000 0.904203
O O14 0.245864 0.229253 0.870395
O O15 0.395273 0.230932 0.073565
O O16 0.679960 0.500000 0.118131
O O17 0.867823 0.734364 0.307890
O O18 0.500000 0.775742 0.000000
O O19 0.468817 0.500000 0.780389
O O20 0.238537 0.251084 0.615706
O O21 0.000000 0.725463 0.500000
O O22 0.015467 0.000000 0.461356
#
# Coordination Sequence:
#
# PCOD9150346 Si02
#       8
#     4   4   4   4   4   4   4   4
#     4   9  18  32  49  69  96 132 170 208 253 307
#     4   9  18  32  51  75 102 133 168 211 261 309
#     4   9  17  31  49  70 100 133 164 203 254 308
#     4   9  18  32  48  67  93 125 164 208 251 299
#     4   9  18  33  54  81 108 133 169 218 262 303
#     4  10  20  36  60  85 107 138 180 219 257 306
#     4  10  20  36  58  81 106 138 177 218 261 312
#     4  11  24  39  55  79 112 145 176 215 263 311
#
# _framework density 20.50346
#
# number of rings (size 3 to 8) (size 9 to 14) (size 15 to 20)
#    0.000    2.500    0.000    1.875    0.000    6.250 
#    0.000    4.375    0.000    0.000    0.000    0.000 
#    0.000    0.000    0.000    0.000    0.000    0.000 
#
# Total GULP energy -178636.825431 kJ/mol
# GULP energy per Si atom -5582.400795 kJ/mol
# Density = 2.045679 g / cm^3
# Si number density = 20.503460 Si / 1000 Ang^3
#
#
#
# Elastic Constant Matrix: (Units=GPa)
#
#
# Indices 1 2 3 4 5 6 
#
# 1 332.3304 42.5917 219.4630 0.0000 -37.9786 0.0000
# 2 42.5917 41.4555 37.6696 0.0000 -22.1949 0.0000
# 3 219.4630 37.6696 268.6809 0.0000 -30.3202 0.0000
# 4 0.0000 0.0000 0.0000 12.5032 0.0000 4.5590
# 5 -37.9786 -22.1949 -30.3202 0.0000 63.9358 0.0000
# 6 0.0000 0.0000 0.0000 4.5590 0.0000 -1.2586
#
#
#
# Elastic Compliance Matrix: (Units=1/GPa)
#
#
# Indices 1 2 3 4 5 6 
#
# 1 0.006749 -0.001729 -0.005162 0.000000 0.000961 0.000000
# 2 -0.001729 0.032854 -0.002137 0.000000 0.009365 0.000000
# 3 -0.005162 -0.002137 0.008250 0.000000 0.000104 0.000000
# 4 0.000000 0.000000 0.000000 0.034463 0.000000 0.124832
# 5 0.000961 0.009365 0.000104 0.000000 0.019512 0.000000
# 6 0.000000 0.000000 0.000000 0.124832 0.000000 -0.342359
#
#
# Mechanical properties :
#
#
# Convention : Reuss Voigt Hill
#
# Bulk Modulus (GPa) = 33.56063 137.99061 85.77562
# Shear Modulus (GPa) = -23.52479 37.88559 7.18040
#
# Velocity S-wave (km/s) = -3.39094 4.30323 1.87340
# Velocity P-wave (km/s) = 1.03562 9.59883 6.82679
#
# Compressibility (1/GPa) = 0.02979682
#
# Stress axis : x y z
#
# Youngs Moduli (GPa) = 148.15950 30.43729 121.21479
#
# Poissons Ratio (x) = 0.05263 0.62574
# Poissons Ratio (y) = 0.25620 0.25904
# Poissons Ratio (z) = 0.76483 0.06505
#
# Static dielectric constant tensor:
#      x y z
#    x 1.724950 0.000000 -0.001870 
#    y 0.000000 1.753870 0.000000 
#    z -0.001870 0.000000 1.705510 
# 
# From -- ./inp_files/93711.got.cif
#   From: 2010.05.17/outbox.cif.g08.bks.cpg/sg10_47_cif.got.tgz:93711.got - 2010.06.03 11:33:40.
