data_PCOD9150426
_publ_section_title
;
Structure prediction by ZEFSAII (Michael W. Deem and Ramdas Pophale) SiO2 
 PCOD9150426
Probable space group: P 2/M
;
_chemical_formula_sum "Si O2"
_cell_formula_units_Z 32
_cell_length_a 11.333260
_cell_length_b 8.974470
_cell_length_c 15.327630
_cell_angle_alpha 90.000000
_cell_angle_beta 94.243151
_cell_angle_gamma 90.000000
_cell_volume 1554.700188
_symmetry_space_group_name_H-M "P 2/M"
_symmetry_group_IT_number 10
_symmetry_cell_setting 'monoclinic'
loop_
_space_group_symop_operation_xyz
x,y,z
-x,y,-z
-x,-y,-z
x,-y,z
loop_
_atom_site_type_symbol
_atom_site_label
_atom_site_fract_x
_atom_site_fract_y
_atom_site_fract_z
Si Si1 0.984894 0.673783 0.897882
Si Si2 0.639354 0.331334 0.988792
Si Si3 0.372954 0.673468 0.216974
Si Si4 0.389691 0.827457 0.716310
Si Si5 0.894051 0.679208 0.561559
Si Si6 0.150155 0.175531 0.263157
Si Si7 0.789042 0.168837 0.135807
Si Si8 0.633030 0.679777 0.470446
O O1 0.951965 0.500000 0.894694
O O2 0.110330 0.707912 0.861352
O O3 0.897610 0.765827 0.832163
O O4 0.000000 0.719473 0.000000
O O5 0.680980 0.500000 0.013592
O O6 0.704044 0.209882 0.050598
O O7 0.500000 0.325706 0.000000
O O8 0.656147 0.310643 0.886912
O O9 0.360799 0.500000 0.240181
O O10 0.504761 0.729493 0.238873
O O11 0.285616 0.770600 0.270346
O O12 0.283350 0.822994 0.779163
O O13 0.357429 0.759135 0.622008
O O14 0.426932 0.000000 0.709801
O O15 0.898277 0.500000 0.568529
O O16 0.913833 0.749473 0.657959
O O17 0.757702 0.718157 0.526047
O O18 0.000000 0.723289 0.500000
O O19 0.139296 0.000000 0.267991
O O20 0.836383 0.000000 0.128568
O O21 0.500000 0.718673 0.500000
O O22 0.632731 0.500000 0.461974
#
# Coordination Sequence:
#
# PCOD9150426 Si02
#       8
#     4   4   4   4   4   4   4   4
#     4  11  25  45  68  93 125 171 224 271 318 381
#     4  10  20  36  58  87 121 166 216 261 312 375
#     4  11  22  39  64  92 127 169 218 266 314 378
#     4  11  24  39  60  94 131 165 205 257 325 390
#     4  10  23  44  69  99 131 171 224 275 326 392
#     4  12  26  43  67  98 134 172 212 265 330 390
#     4  11  24  39  59  91 129 166 207 261 326 388
#     4  10  22  41  66  94 125 165 214 267 324 388
#
# _framework density 20.582747999999999
#
# number of rings (size 3 to 8) (size 9 to 14) (size 15 to 20)
#    0.000    1.250    1.250    4.125    1.750    8.750 
#    0.000    0.000    0.000    0.000    0.000    0.000 
#    0.000    0.000    0.000    0.000    0.000    0.000 
#
# Total GULP energy -178789.738318 kJ/mol
# GULP energy per Si atom -5587.179322 kJ/mol
# Density = 2.053590 g / cm^3
# Si number density = 20.582748 Si / 1000 Ang^3
#
#
#
# Elastic Constant Matrix: (Units=GPa)
#
#
# Indices 1 2 3 4 5 6 
#
# 1 84.7330 27.0678 31.8938 0.0000 -8.4754 0.0000
# 2 27.0678 41.4581 50.8829 0.0000 -4.8322 0.0000
# 3 31.8938 50.8829 102.2277 0.0000 -8.2644 0.0000
# 4 0.0000 0.0000 0.0000 -23.5659 0.0000 -0.5542
# 5 -8.4754 -4.8322 -8.2644 0.0000 19.9404 0.0000
# 6 0.0000 0.0000 0.0000 -0.5542 0.0000 17.8206
#
#
#
# Elastic Compliance Matrix: (Units=1/GPa)
#
#
# Indices 1 2 3 4 5 6 
#
# 1 0.015267 -0.010402 0.000761 0.000000 0.004284 0.000000
# 2 -0.010402 0.069181 -0.031237 0.000000 -0.000603 0.000000
# 3 0.000761 -0.031237 0.025357 0.000000 0.003263 0.000000
# 4 0.000000 0.000000 0.000000 -0.042403 0.000000 -0.001319
# 5 0.004284 -0.000603 0.003263 0.000000 0.053176 0.000000
# 6 0.000000 0.000000 0.000000 -0.001319 0.000000 0.056074
#
#
# Mechanical properties :
#
#
# Convention : Reuss Voigt Hill
#
# Bulk Modulus (GPa) = 35.65498 49.78975 42.72236
# Shear Modulus (GPa) = 18.67360 10.74396 14.70878
#
# Velocity S-wave (km/s) = 3.01532 2.28719 2.67613
# Velocity P-wave (km/s) = 5.42985 5.58726 5.50912
#
# Compressibility (1/GPa) = 0.02804657
#
# Stress axis : x y z
#
# Youngs Moduli (GPa) = 65.50155 14.45489 39.43738
#
# Poissons Ratio (x) = 0.15036 -0.03000
# Poissons Ratio (y) = 0.68136 1.23192
# Poissons Ratio (z) = -0.04983 0.45153
#
# Static dielectric constant tensor:
#      x y z
#    x 1.853770 0.000000 0.062200 
#    y 0.000000 1.689090 0.000000 
#    z 0.062200 0.000000 1.760620 
# 
# From -- ./inp_files/63850.got.cif
#   From: 2010.05.17/outbox.cif.g08.bks.cpg/sg10_32_cif.got.tgz:63850.got - 2010.06.03 11:33:40.
