data_PCOD9150913
_publ_section_title
;
Structure prediction by ZEFSAII (Michael W. Deem and Ramdas Pophale) SiO2 
 PCOD9150913
Probable space group: P 2/M
;
_chemical_formula_sum "Si O2"
_cell_formula_units_Z 24
_cell_length_a 12.068904
_cell_length_b 12.069106
_cell_length_c 17.946014
_cell_angle_alpha 90.000000
_cell_angle_beta 29.905088
_cell_angle_gamma 90.000000
_cell_volume 1303.264243
_symmetry_space_group_name_H-M "P 2/M"
_symmetry_group_IT_number 10
_symmetry_cell_setting 'monoclinic'
loop_
_space_group_symop_operation_xyz
x,y,z
-x,y,-z
-x,-y,-z
x,-y,z
loop_
_atom_site_type_symbol
_atom_site_label
_atom_site_fract_x
_atom_site_fract_y
_atom_site_fract_z
Si Si1 0.932106 0.264314 0.337485
Si Si2 0.252393 0.500000 0.552208
Si Si3 0.952749 0.264357 0.152028
Si Si4 0.631171 0.871807 0.135774
Si Si5 0.509468 0.871069 0.376410
Si Si6 0.668616 0.870431 0.832298
Si Si7 0.765839 0.500000 0.255581
O O1 0.868262 0.387465 0.400922
O O2 0.012177 0.270141 0.205084
O O3 0.706843 0.192544 0.469296
O O4 0.119221 0.205582 0.277217
O O5 0.510323 0.500000 0.378033
O O6 0.249130 0.500000 0.644925
O O7 0.732259 0.189732 0.273353
O O8 0.890188 0.387411 0.161642
O O9 0.155890 0.207120 0.991577
O O10 0.515311 0.864988 0.283174
O O11 0.463290 0.845579 0.166598
O O12 0.705967 0.000000 0.081318
O O13 0.508465 0.000000 0.398863
O O14 0.736919 0.000000 0.790550
O O15 0.500000 0.857530 0.000000
#
# Coordination Sequence:
#
# PCOD9150913 Si02
#       7
#     4   2   4   4   4   4   2
#     4  11  21  36  61  85 109 148 195 234 274 331
#     4   9  18  36  55  83 116 146 179 237 292 319
#     4  11  20  36  59  84 113 149 190 228 281 335
#     4  10  22  39  56  80 121 156 179 226 288 336
#     4  11  23  35  54  86 118 148 184 231 287 338
#     4  10  20  37  60  84 111 147 190 232 277 331
#     4   9  18  34  57  82 113 150 185 228 283 332
#
# _framework density 18.415298
#
# number of rings (size 3 to 8) (size 9 to 14) (size 15 to 20)
#    0.000    1.667    3.333    2.000    0.000    4.667 
#    0.000    6.250    0.000    1.000    0.000    0.000 
#    0.000    0.000    0.000    0.000    0.000    0.000 
#
# Total GULP energy -134086.775590 kJ/mol
# GULP energy per Si atom -5586.948983 kJ/mol
# Density = 1.837338 g / cm^3
# Si number density = 18.415298 Si / 1000 Ang^3
#
#
#
# Elastic Constant Matrix: (Units=GPa)
#
#
# Indices 1 2 3 4 5 6 
#
# 1 76.5144 31.5195 11.2280 0.0000 -9.0062 0.0000
# 2 31.5195 115.6485 16.5023 0.0000 -18.0400 0.0000
# 3 11.2280 16.5023 30.0359 0.0000 -2.8755 0.0000
# 4 0.0000 0.0000 0.0000 16.8338 0.0000 3.0677
# 5 -9.0062 -18.0400 -2.8755 0.0000 27.1946 0.0000
# 6 0.0000 0.0000 0.0000 3.0677 0.0000 8.1046
#
#
#
# Elastic Compliance Matrix: (Units=1/GPa)
#
#
# Indices 1 2 3 4 5 6 
#
# 1 0.015238 -0.003237 -0.003678 0.000000 0.002510 0.000000
# 2 -0.003237 0.011048 -0.004305 0.000000 0.005802 0.000000
# 3 -0.003678 -0.004305 0.037018 0.000000 -0.000159 0.000000
# 4 0.000000 0.000000 0.000000 0.063806 0.000000 -0.024152
# 5 0.002510 0.005802 -0.000159 0.000000 0.041435 0.000000
# 6 0.000000 0.000000 0.000000 -0.024152 0.000000 0.132528
#
#
# Mechanical properties :
#
#
# Convention : Reuss Voigt Hill
#
# Bulk Modulus (GPa) = 24.47005 37.85538 31.16272
# Shear Modulus (GPa) = 14.83092 21.28988 18.06040
#
# Velocity S-wave (km/s) = 2.84096 3.40383 3.13506
# Velocity P-wave (km/s) = 4.90695 6.00410 5.48304
#
# Compressibility (1/GPa) = 0.04086628
#
# Stress axis : x y z
#
# Youngs Moduli (GPa) = 65.62576 90.51125 27.01382
#
# Poissons Ratio (x) = 0.29295 0.09935
# Poissons Ratio (y) = 0.21241 0.11629
# Poissons Ratio (z) = 0.24135 0.38963
#
# Static dielectric constant tensor:
#      x y z
#    x 1.620420 0.000000 0.020990 
#    y 0.000000 1.634110 0.000000 
#    z 0.020990 0.000000 1.605050 
# 
# From -- ./inp_files/41955.got.cif
#   From: 2010.05.17/outbox.cif.g08.bks.cpg/sg10_21_cif.got.tgz:41955.got - 2010.06.03 11:33:40.
