data_PCOD9150762
_publ_section_title
;
Structure prediction by ZEFSAII (Michael W. Deem and Ramdas Pophale) SiO2 
 PCOD9150762
Probable space group: P 2/M
;
_chemical_formula_sum "Si O2"
_cell_formula_units_Z 26
_cell_length_a 10.093159
_cell_length_b 23.661655
_cell_length_c 5.460978
_cell_angle_alpha 90.000000
_cell_angle_beta 76.125008
_cell_angle_gamma 90.000000
_cell_volume 1266.140585
_symmetry_space_group_name_H-M "P 2/M"
_symmetry_group_IT_number 10
_symmetry_cell_setting 'monoclinic'
loop_
_space_group_symop_operation_xyz
x,y,z
-x,y,-z
-x,-y,-z
x,-y,z
loop_
_atom_site_type_symbol
_atom_site_label
_atom_site_fract_x
_atom_site_fract_y
_atom_site_fract_z
Si Si1 0.587589 0.061080 0.711510
Si Si2 0.233732 0.661196 0.912490
Si Si3 0.848948 0.784058 0.138367
Si Si4 0.305055 0.813354 0.295867
Si Si5 0.339283 0.438530 0.542350
Si Si6 0.500000 0.726233 0.000000
Si Si7 0.122231 0.562459 0.251079
O O1 0.500000 0.062610 0.500000
O O2 0.661722 0.120810 0.691931
O O3 0.663465 0.000000 0.671774
O O4 0.500000 0.059930 0.000000
O O5 0.157759 0.716323 0.854792
O O6 0.280351 0.617100 0.688393
O O7 0.373233 0.686323 0.974664
O O8 0.131611 0.621502 0.109730
O O9 0.791997 0.800780 0.429671
O O10 0.757797 0.803686 0.947039
O O11 0.000000 0.803589 0.000000
O O12 0.434463 0.769566 0.231222
O O13 0.500000 0.435666 0.500000
O O14 0.298281 0.500000 0.668315
O O15 0.273242 0.439503 0.304788
O O16 0.102209 0.500000 0.146060
O O17 0.000000 0.566255 0.500000
#
# Coordination Sequence:
#
# PCOD9150762 Si02
#       7
#     4   4   4   4   4   2   4
#     4  10  20  36  65 103 139 174 216 268 327 386
#     4  11  24  36  61  83 117 154 205 265 314 398
#     4  11  27  42  64  92 128 182 224 267 323 384
#     4  11  23  43  66  94 138 172 213 274 322 393
#     4  10  22  38  59  83 112 148 191 259 331 392
#     4  10  24  38  60  98 122 170 204 260 338 390
#     4  10  23  41  60  83 114 155 206 266 332 397
#
# _framework density 20.534846000000002
#
# number of rings (size 3 to 8) (size 9 to 14) (size 15 to 20)
#    0.000    1.538    0.769    2.769   10.769    0.000 
#    0.000    5.385    0.000    2.769    0.000    0.000 
#    0.000    0.000    0.000    0.000    0.000    0.000 
#
# Total GULP energy -144871.161902 kJ/mol
# GULP energy per Si atom -5571.967765 kJ/mol
# Density = 2.048811 g / cm^3
# Si number density = 20.534846 Si / 1000 Ang^3
#
#
#
# Elastic Constant Matrix: (Units=GPa)
#
#
# Indices 1 2 3 4 5 6 
#
# 1 65.5249 9.1333 11.5490 0.0000 2.8894 0.0000
# 2 9.1333 185.4503 24.6097 0.0000 -0.5100 0.0000
# 3 11.5490 24.6097 83.8414 0.0000 -7.7049 0.0000
# 4 0.0000 0.0000 0.0000 35.0283 0.0000 0.6676
# 5 2.8894 -0.5100 -7.7049 0.0000 27.1357 0.0000
# 6 0.0000 0.0000 0.0000 0.6676 0.0000 16.9843
#
#
#
# Elastic Compliance Matrix: (Units=1/GPa)
#
#
# Indices 1 2 3 4 5 6 
#
# 1 0.015829 -0.000487 -0.002252 0.000000 -0.002334 0.000000
# 2 -0.000487 0.005629 -0.001613 0.000000 -0.000300 0.000000
# 3 -0.002252 -0.001613 0.013071 0.000000 0.003921 0.000000
# 4 0.000000 0.000000 0.000000 0.028570 0.000000 -0.001123
# 5 -0.002334 -0.000300 0.003921 0.000000 0.038208 0.000000
# 6 0.000000 0.000000 0.000000 -0.001123 0.000000 0.058922
#
#
# Mechanical properties :
#
#
# Convention : Reuss Voigt Hill
#
# Bulk Modulus (GPa) = 38.72088 47.26675 42.99381
# Shear Modulus (GPa) = 28.16233 35.13130 31.64682
#
# Velocity S-wave (km/s) = 3.70731 4.14069 3.92998
# Velocity P-wave (km/s) = 6.10104 6.77703 6.44790
#
# Compressibility (1/GPa) = 0.02582586
#
# Stress axis : x y z
#
# Youngs Moduli (GPa) = 63.17477 177.63626 76.50393
#
# Poissons Ratio (x) = 0.08654 0.17228
# Poissons Ratio (y) = 0.03078 0.12339
# Poissons Ratio (z) = 0.14226 0.28651
#
# Static dielectric constant tensor:
#      x y z
#    x 1.613600 0.000000 -0.029800 
#    y 0.000000 1.747910 0.000000 
#    z -0.029800 0.000000 1.802260 
# 
# From -- ./inp_files/7658.got.cif
#   From: 2010.05.17/outbox.cif.g08.bks.cpg/sg10_4_cif.got.tgz:7658.got - 2010.06.03 11:33:40.
