data_PCOD9150297
_publ_section_title
;
Structure prediction by ZEFSAII (Michael W. Deem and Ramdas Pophale) SiO2 
 PCOD9150297
Probable space group: P 2/M
;
_chemical_formula_sum "Si O2"
_cell_formula_units_Z 20
_cell_length_a 11.877857
_cell_length_b 8.252740
_cell_length_c 7.962351
_cell_angle_alpha 90.000000
_cell_angle_beta 82.557762
_cell_angle_gamma 90.000000
_cell_volume 773.933342
_symmetry_space_group_name_H-M "P 2/M"
_symmetry_group_IT_number 10
_symmetry_cell_setting 'monoclinic'
loop_
_space_group_symop_operation_xyz
x,y,z
-x,y,-z
-x,-y,-z
x,-y,z
loop_
_atom_site_type_symbol
_atom_site_label
_atom_site_fract_x
_atom_site_fract_y
_atom_site_fract_z
Si Si1 0.162964 0.815895 0.508576
Si Si2 0.230663 0.187460 0.000566
Si Si3 0.579181 0.688537 0.817908
Si Si4 0.025681 0.314688 0.234842
Si Si5 0.366526 0.310536 0.660561
O O1 0.108860 0.697757 0.381801
O O2 0.290892 0.776955 0.536069
O O3 0.082401 0.790000 0.687579
O O4 0.150079 0.000000 0.451692
O O5 0.311840 0.209845 0.148522
O O6 0.106432 0.248862 0.072961
O O7 0.230589 0.000000 0.951771
O O8 0.290827 0.290068 0.843911
O O9 0.611012 0.500000 0.782348
O O10 0.492512 0.745636 0.689595
O O11 0.500000 0.689964 0.000000
O O12 0.992054 0.500000 0.213531
O O13 0.374425 0.500000 0.619286
#
# Coordination Sequence:
#
# PCOD9150297 Si02
#       5
#     4   4   4   4   4
#     4  11  22  38  58  82 110 139 177 225 274 319
#     4  11  21  34  55  84 113 141 179 227 272 312
#     4   8  16  32  53  77 108 144 179 216 263 321
#     4  11  22  39  59  78 106 146 184 217 266 328
#     4  10  20  36  57  82 111 145 183 219 263 322
#
# _framework density 25.842017999999999
#
# number of rings (size 3 to 8) (size 9 to 14) (size 15 to 20)
#    0.000    1.800    0.000    8.400    0.000    5.200 
#    0.000    5.000    0.000    6.000    0.000    0.000 
#    0.000    0.000    0.000    0.000    0.000    0.000 
#
# Total GULP energy -112093.524243 kJ/mol
# GULP energy per Si atom -5604.676212 kJ/mol
# Density = 2.578320 g / cm^3
# Si number density = 25.842018 Si / 1000 Ang^3
#
#
#
# Elastic Constant Matrix: (Units=GPa)
#
#
# Indices 1 2 3 4 5 6 
#
# 1 167.0020 23.0306 18.5225 0.0000 5.7059 0.0000
# 2 23.0306 97.4325 -6.6006 0.0000 -1.4821 0.0000
# 3 18.5225 -6.6006 89.2358 0.0000 1.5874 0.0000
# 4 0.0000 0.0000 0.0000 18.6313 0.0000 1.7370
# 5 5.7059 -1.4821 1.5874 0.0000 62.1947 0.0000
# 6 0.0000 0.0000 0.0000 1.7370 0.0000 38.4231
#
#
#
# Elastic Compliance Matrix: (Units=1/GPa)
#
#
# Indices 1 2 3 4 5 6 
#
# 1 0.006390 -0.001617 -0.001436 0.000000 -0.000588 0.000000
# 2 -0.001617 0.010727 0.001122 0.000000 0.000375 0.000000
# 3 -0.001436 0.001122 0.011590 0.000000 -0.000137 0.000000
# 4 0.000000 0.000000 0.000000 0.053900 0.000000 -0.002437
# 5 -0.000588 0.000375 -0.000137 0.000000 0.016145 0.000000
# 6 0.000000 0.000000 0.000000 -0.002437 0.000000 0.026136
#
#
# Mechanical properties :
#
#
# Convention : Reuss Voigt Hill
#
# Bulk Modulus (GPa) = 40.24524 47.06392 43.65458
# Shear Modulus (GPa) = 36.48815 45.09769 40.79292
#
# Velocity S-wave (km/s) = 3.76169 4.18201 3.97741
# Velocity P-wave (km/s) = 5.87150 6.44753 6.16624
#
# Compressibility (1/GPa) = 0.02484766
#
# Stress axis : x y z
#
# Youngs Moduli (GPa) = 156.48931 93.21920 86.28354
#
# Poissons Ratio (x) = 0.15071 0.12386
# Poissons Ratio (y) = 0.25299 -0.09684
# Poissons Ratio (z) = 0.22464 -0.10463
#
# Static dielectric constant tensor:
#      x y z
#    x 2.030720 0.000000 0.011160 
#    y 0.000000 1.864650 0.000000 
#    z 0.011160 0.000000 2.194820 
# 
# From -- ./inp_files/22297.got.cif
#   From: 2010.05.17/outbox.cif.g08.bks.cpg/sg10_12_cif.got.tgz:22297.got - 2010.06.03 11:33:40.
