data_PCOD9150213
_publ_section_title
;
Structure prediction by ZEFSAII (Michael W. Deem and Ramdas Pophale) SiO2 
 PCOD9150213
Probable space group: P 2/M
;
_chemical_formula_sum "Si O2"
_cell_formula_units_Z 28
_cell_length_a 12.155472
_cell_length_b 13.704498
_cell_length_c 8.781184
_cell_angle_alpha 90.000000
_cell_angle_beta 62.398156
_cell_angle_gamma 90.000000
_cell_volume 1296.325992
_symmetry_space_group_name_H-M "P 2/M"
_symmetry_group_IT_number 10
_symmetry_cell_setting 'monoclinic'
loop_
_space_group_symop_operation_xyz
x,y,z
-x,y,-z
-x,-y,-z
x,-y,z
loop_
_atom_site_type_symbol
_atom_site_label
_atom_site_fract_x
_atom_site_fract_y
_atom_site_fract_z
Si Si1 0.145471 0.390651 0.545242
Si Si2 0.086346 0.609685 0.087822
Si Si3 0.824831 0.754345 0.754382
Si Si4 0.373195 0.301443 0.533679
Si Si5 0.914981 0.111503 0.915508
Si Si6 0.357553 0.890296 0.760177
Si Si7 0.429366 0.200619 0.188459
O O1 0.172746 0.500000 0.469465
O O2 0.012951 0.393088 0.710858
O O3 0.149756 0.311295 0.408849
O O4 0.246897 0.361415 0.608388
O O5 0.132675 0.500000 0.028582
O O6 0.190751 0.681863 0.088226
O O7 0.000000 0.638505 0.000000
O O8 0.929869 0.824591 0.755061
O O9 0.707207 0.822576 0.788078
O O10 0.500000 0.353915 0.500000
O O11 0.361012 0.200310 0.638716
O O12 0.401208 0.273578 0.342091
O O13 0.948156 0.000000 0.862905
O O14 0.772795 0.115339 0.066269
O O15 0.000000 0.145514 0.000000
O O16 0.475296 0.876631 0.798247
O O17 0.363541 0.000000 0.687685
O O18 0.500000 0.245761 0.000000
#
# Coordination Sequence:
#
# PCOD9150213 Si02
#       7
#     4   4   4   4   4   4   4
#     4  10  22  40  61  89 124 157 195 247 305 359
#     4  10  22  38  61  92 118 154 206 251 299 362
#     4  11  21  36  62  87 118 160 192 247 300 357
#     4   9  21  36  58  89 119 158 201 245 296 356
#     4  10  22  38  60  92 123 159 202 248 300 356
#     4  10  21  39  61  85 122 161 201 248 293 349
#     4  10  20  36  55  86 117 154 198 244 289 346
#
# _framework density 21.599505000000001
#
# number of rings (size 3 to 8) (size 9 to 14) (size 15 to 20)
#    0.000    2.000    1.429    1.286    4.000    4.857 
#    0.000    2.143    0.000   12.429    0.000    0.000 
#    0.000    0.000    0.000    0.000    0.000    0.000 
#
# Total GULP energy -156014.347905 kJ/mol
# GULP energy per Si atom -5571.940997 kJ/mol
# Density = 2.155034 g / cm^3
# Si number density = 21.599505 Si / 1000 Ang^3
#
#
#
# Elastic Constant Matrix: (Units=GPa)
#
#
# Indices 1 2 3 4 5 6 
#
# 1 129.6363 30.0323 8.8650 0.0000 21.7147 0.0000
# 2 30.0323 103.9385 19.8427 0.0000 8.9180 0.0000
# 3 8.8650 19.8427 59.2443 0.0000 19.0405 0.0000
# 4 0.0000 0.0000 0.0000 17.4876 0.0000 7.1790
# 5 21.7147 8.9180 19.0405 0.0000 33.0826 0.0000
# 6 0.0000 0.0000 0.0000 7.1790 0.0000 15.6012
#
#
#
# Elastic Compliance Matrix: (Units=1/GPa)
#
#
# Indices 1 2 3 4 5 6 
#
# 1 0.009215 -0.002401 0.001425 0.000000 -0.006221 0.000000
# 2 -0.002401 0.010929 -0.003510 0.000000 0.000650 0.000000
# 3 0.001425 -0.003510 0.021887 0.000000 -0.012586 0.000000
# 4 0.000000 0.000000 0.000000 0.070501 0.000000 -0.032442
# 5 -0.006221 0.000650 -0.012586 0.000000 0.041379 0.000000
# 6 0.000000 0.000000 0.000000 -0.032442 0.000000 0.079026
#
#
# Mechanical properties :
#
#
# Convention : Reuss Voigt Hill
#
# Bulk Modulus (GPa) = 30.24983 45.58878 37.91930
# Shear Modulus (GPa) = 19.76841 28.83955 24.30398
#
# Velocity S-wave (km/s) = 3.02855 3.65800 3.35805
# Velocity P-wave (km/s) = 5.12492 6.24447 5.71219
#
# Compressibility (1/GPa) = 0.03305804
#
# Stress axis : x y z
#
# Youngs Moduli (GPa) = 108.52231 91.49893 45.68999
#
# Poissons Ratio (x) = 0.21966 -0.06509
# Poissons Ratio (y) = 0.26053 0.16038
# Poissons Ratio (z) = -0.15461 0.32117
#
# Static dielectric constant tensor:
#      x y z
#    x 1.880450 0.000000 0.000030 
#    y 0.000000 1.832020 0.000000 
#    z 0.000030 0.000000 1.794850 
# 
# From -- ./inp_files/24900.got.cif
#   From: 2010.05.17/outbox.cif.g08.bks.cpg/sg10_13_cif.got.tgz:24900.got - 2010.06.03 11:33:40.
