data_PCOD9150891
_publ_section_title
;
Structure prediction by ZEFSAII (Michael W. Deem and Ramdas Pophale) SiO2 
 PCOD9150891
Probable space group: P 2/M
;
_chemical_formula_sum "Si O2"
_cell_formula_units_Z 32
_cell_length_a 22.510077
_cell_length_b 8.796371
_cell_length_c 9.387181
_cell_angle_alpha 90.000000
_cell_angle_beta 89.305109
_cell_angle_gamma 90.000000
_cell_volume 1858.590741
_symmetry_space_group_name_H-M "P 2/M"
_symmetry_group_IT_number 10
_symmetry_cell_setting 'monoclinic'
loop_
_space_group_symop_operation_xyz
x,y,z
-x,y,-z
-x,-y,-z
x,-y,z
loop_
_atom_site_type_symbol
_atom_site_label
_atom_site_fract_x
_atom_site_fract_y
_atom_site_fract_z
Si Si1 0.989360 0.317230 0.835499
Si Si2 0.218571 0.684827 0.838481
Si Si3 0.677924 0.318112 0.368973
Si Si4 0.227706 0.318112 0.162059
Si Si5 0.119304 0.180795 0.335548
Si Si6 0.567543 0.818444 0.489786
Si Si7 0.892846 0.683189 0.350525
Si Si8 0.675967 0.179693 0.663095
O O1 0.979632 0.500000 0.832135
O O2 0.933056 0.237249 0.766937
O O3 0.047458 0.283184 0.739419
O O4 0.000000 0.274951 0.000000
O O5 0.216937 0.500000 0.840845
O O6 0.280547 0.728552 0.762528
O O7 0.163685 0.733603 0.741782
O O8 0.214488 0.734717 0.001657
O O9 0.679235 0.500000 0.382515
O O10 0.609860 0.260632 0.371584
O O11 0.703062 0.243341 0.513682
O O12 0.223099 0.500000 0.168035
O O13 0.180403 0.246425 0.270919
O O14 0.292864 0.266230 0.210211
O O15 0.107679 0.243554 0.494202
O O16 0.121612 0.000000 0.338603
O O17 0.500000 0.765148 0.500000
O O18 0.605849 0.793318 0.633791
O O19 0.567502 0.000000 0.464132
O O20 0.889497 0.500000 0.367599
O O21 0.685820 0.000000 0.674993
#
# Coordination Sequence:
#
# PCOD9150891 Si02
#       8
#     4   4   4   4   4   4   4   4
#     4  10  21  39  62  84 106 138 181 223 266 320
#     4   9  19  34  54  79 105 134 173 222 270 316
#     4   9  16  29  51  79 106 135 174 217 259 307
#     4  11  21  36  56  77 104 140 180 220 268 320
#     4  12  25  38  54  79 111 142 177 222 270 318
#     4   8  16  31  51  76 110 145 176 216 261 307
#     4  10  20  37  60  81 104 138 180 221 264 317
#     4   9  18  32  50  77 108 136 173 215 260 313
#
# _framework density 17.217345999999999
#
# number of rings (size 3 to 8) (size 9 to 14) (size 15 to 20)
#    0.750    1.500    0.000    3.750    0.000    5.500 
#    0.000    5.000    0.000    0.750    0.000    5.250 
#    0.000    0.000    0.000    0.000    0.000    0.000 
#
# Total GULP energy -178307.191194 kJ/mol
# GULP energy per Si atom -5572.099725 kJ/mol
# Density = 1.717816 g / cm^3
# Si number density = 17.217346 Si / 1000 Ang^3
#
#
#
# Elastic Constant Matrix: (Units=GPa)
#
#
# Indices 1 2 3 4 5 6 
#
# 1 106.6848 38.2206 39.5936 0.0000 10.6515 0.0000
# 2 38.2206 37.2935 30.0277 0.0000 5.4305 0.0000
# 3 39.5936 30.0277 101.6740 0.0000 17.2283 0.0000
# 4 0.0000 0.0000 0.0000 -13.3446 0.0000 19.9934
# 5 10.6515 5.4305 17.2283 0.0000 15.4774 0.0000
# 6 0.0000 0.0000 0.0000 19.9934 0.0000 14.7352
#
#
#
# Elastic Compliance Matrix: (Units=1/GPa)
#
#
# Indices 1 2 3 4 5 6 
#
# 1 0.015275 -0.014202 -0.001007 0.000000 -0.004408 0.000000
# 2 -0.014202 0.048396 -0.009294 0.000000 0.003139 0.000000
# 3 -0.001007 -0.009294 0.015162 0.000000 -0.012923 0.000000
# 4 0.000000 0.000000 0.000000 -0.024708 0.000000 0.033525
# 5 -0.004408 0.003139 -0.012923 0.000000 0.080928 0.000000
# 6 0.000000 0.000000 0.000000 0.033525 0.000000 0.022376
#
#
# Mechanical properties :
#
#
# Convention : Reuss Voigt Hill
#
# Bulk Modulus (GPa) = 33.52732 51.25958 42.39345
# Shear Modulus (GPa) = 23.10753 12.56094 17.83424
#
# Velocity S-wave (km/s) = 3.66745 2.70395 3.22192
# Velocity P-wave (km/s) = 6.11955 6.29167 6.20621
#
# Compressibility (1/GPa) = 0.02982642
#
# Stress axis : x y z
#
# Youngs Moduli (GPa) = 65.46482 20.66282 65.95317
#
# Poissons Ratio (x) = 0.29346 0.06642
# Poissons Ratio (y) = 0.92975 0.61299
# Poissons Ratio (z) = 0.06593 0.19205
#
# Static dielectric constant tensor:
#      x y z
#    x 1.598210 0.000000 0.009580 
#    y 0.000000 1.577400 0.000000 
#    z 0.009580 0.000000 1.570210 
# 
# From -- ./inp_files/35691.got.cif
#   From: 2010.05.17/outbox.cif.g08.bks.cpg/sg10_18_cif.got.tgz:35691.got - 2010.06.03 11:33:40.
