data_PCOD9150514
_publ_section_title
;
Structure prediction by ZEFSAII (Michael W. Deem and Ramdas Pophale) SiO2 
 PCOD9150514
Probable space group: P 2/M
;
_chemical_formula_sum "Si O2"
_cell_formula_units_Z 26
_cell_length_a 19.752176
_cell_length_b 8.775129
_cell_length_c 7.912002
_cell_angle_alpha 90.000000
_cell_angle_beta 127.516420
_cell_angle_gamma 90.000000
_cell_volume 1087.742176
_symmetry_space_group_name_H-M "P 2/M"
_symmetry_group_IT_number 10
_symmetry_cell_setting 'monoclinic'
loop_
_space_group_symop_operation_xyz
x,y,z
-x,y,-z
-x,-y,-z
x,-y,z
loop_
_atom_site_type_symbol
_atom_site_label
_atom_site_fract_x
_atom_site_fract_y
_atom_site_fract_z
Si Si1 0.178747 0.833407 0.388618
Si Si2 0.243448 0.317305 0.149986
Si Si3 0.560531 0.174460 0.257892
Si Si4 0.000000 0.746429 0.000000
Si Si5 0.929831 0.673291 0.263146
Si Si6 0.309511 0.673148 0.765562
Si Si7 0.397923 0.821119 0.209467
O O1 0.219291 0.782135 0.274307
O O2 0.212372 0.709287 0.571248
O O3 0.208237 0.000000 0.486985
O O4 0.079177 0.833635 0.200732
O O5 0.235382 0.500000 0.165971
O O6 0.339665 0.275656 0.246347
O O7 0.168334 0.269951 0.901989
O O8 0.633355 0.291788 0.313857
O O9 0.495632 0.218423 0.309472
O O10 0.591059 0.000000 0.332167
O O11 0.500000 0.168699 0.000000
O O12 0.037356 0.669890 0.884043
O O13 0.920382 0.500000 0.308159
O O14 0.000000 0.744839 0.500000
O O15 0.321059 0.500000 0.840088
O O16 0.345370 0.789257 0.956968
O O17 0.396127 0.000000 0.247624
#
# Coordination Sequence:
#
# PCOD9150514 Si02
#       7
#     4   4   4   2   4   4   4
#     4  11  23  41  61  82 116 155 195 244 302 361
#     4  10  21  37  57  85 117 152 195 243 296 354
#     4   8  16  33  55  81 115 153 192 235 291 353
#     4  10  22  38  62  86 117 160 209 254 303 364
#     4   9  19  35  56  85 122 159 199 250 308 366
#     4  11  22  35  57  88 117 150 197 246 291 349
#     4  10  20  36  59  86 119 157 193 237 295 353
#
# _framework density 23.902723000000002
#
# number of rings (size 3 to 8) (size 9 to 14) (size 15 to 20)
#    0.000    2.154    0.000    4.154    2.154    5.231 
#    0.000    0.769    0.000    7.385    0.000    0.000 
#    0.000    0.000    0.000    0.000    0.000    0.000 
#
# Total GULP energy -145038.882630 kJ/mol
# GULP energy per Si atom -5578.418563 kJ/mol
# Density = 2.384832 g / cm^3
# Si number density = 23.902723 Si / 1000 Ang^3
#
#
#
# Elastic Constant Matrix: (Units=GPa)
#
#
# Indices 1 2 3 4 5 6 
#
# 1 92.7415 13.5391 6.2793 0.0000 5.5346 0.0000
# 2 13.5391 63.2867 2.0298 0.0000 11.8575 0.0000
# 3 6.2793 2.0298 95.2965 0.0000 16.2172 0.0000
# 4 0.0000 0.0000 0.0000 14.6882 0.0000 -1.6840
# 5 5.5346 11.8575 16.2172 0.0000 46.0509 0.0000
# 6 0.0000 0.0000 0.0000 -1.6840 0.0000 7.3012
#
#
#
# Elastic Compliance Matrix: (Units=1/GPa)
#
#
# Indices 1 2 3 4 5 6 
#
# 1 0.011187 -0.002271 -0.000595 0.000000 -0.000550 0.000000
# 2 -0.002271 0.017077 0.000519 0.000000 -0.004307 0.000000
# 3 -0.000595 0.000519 0.011204 0.000000 -0.004008 0.000000
# 4 0.000000 0.000000 0.000000 0.069931 0.000000 0.016130
# 5 -0.000550 -0.004307 -0.004008 0.000000 0.024302 0.000000
# 6 0.000000 0.000000 0.000000 0.016130 0.000000 0.140685
#
#
# Mechanical properties :
#
#
# Convention : Reuss Voigt Hill
#
# Bulk Modulus (GPa) = 28.75761 32.78012 30.76886
# Shear Modulus (GPa) = 17.20150 28.90647 23.05399
#
# Velocity S-wave (km/s) = 2.68553 3.48133 3.10900
# Velocity P-wave (km/s) = 4.65546 5.46839 5.07822
#
# Compressibility (1/GPa) = 0.03477341
#
# Stress axis : x y z
#
# Youngs Moduli (GPa) = 89.38668 58.55730 89.25601
#
# Poissons Ratio (x) = 0.13299 0.05312
# Poissons Ratio (y) = 0.20301 -0.04631
# Poissons Ratio (z) = 0.05320 -0.03038
#
# Static dielectric constant tensor:
#      x y z
#    x 2.009420 0.000000 -0.038660 
#    y 0.000000 1.809710 0.000000 
#    z -0.038660 0.000000 2.056800 
# 
# From -- ./inp_files/34288.got.cif
#   From: 2010.05.17/outbox.cif.g08.bks.cpg/sg10_18_cif.got.tgz:34288.got - 2010.06.03 11:33:40.
