data_PCOD9150132
_publ_section_title
;
Structure prediction by ZEFSAII (Michael W. Deem and Ramdas Pophale) SiO2 
 PCOD9150132
Probable space group: P 2/M
;
_chemical_formula_sum "Si O2"
_cell_formula_units_Z 32
_cell_length_a 12.295715
_cell_length_b 16.902167
_cell_length_c 9.807218
_cell_angle_alpha 90.000000
_cell_angle_beta 45.265603
_cell_angle_gamma 90.000000
_cell_volume 1447.874568
_symmetry_space_group_name_H-M "P 2/M"
_symmetry_group_IT_number 10
_symmetry_cell_setting 'monoclinic'
loop_
_space_group_symop_operation_xyz
x,y,z
-x,y,-z
-x,-y,-z
x,-y,z
loop_
_atom_site_type_symbol
_atom_site_label
_atom_site_fract_x
_atom_site_fract_y
_atom_site_fract_z
Si Si1 0.901403 0.639811 0.296430
Si Si2 0.222387 0.365012 0.888210
Si Si3 0.880532 0.091182 0.231575
Si Si4 0.180712 0.588457 0.350384
Si Si5 0.407651 0.359562 0.959656
Si Si6 0.961628 0.198757 0.693194
Si Si7 0.357480 0.197953 0.710094
Si Si8 0.594826 0.181333 0.044300
O O1 0.801783 0.623954 0.249686
O O2 0.798358 0.606655 0.510114
O O3 0.957444 0.726864 0.297865
O O4 0.067955 0.606563 0.101387
O O5 0.250833 0.269269 0.862010
O O6 0.363853 0.396195 0.853961
O O7 0.739673 0.144476 0.305784
O O8 0.960483 0.125618 0.295845
O O9 0.837435 0.000000 0.287492
O O10 0.000000 0.096765 0.000000
O O11 0.228090 0.500000 0.271477
O O12 0.248710 0.648794 0.182854
O O13 0.000000 0.591577 0.500000
O O14 0.471650 0.271735 0.882589
O O15 0.500000 0.400829 0.000000
O O16 0.777503 0.185287 0.858760
O O17 0.000000 0.205886 0.500000
O O18 0.500000 0.232413 0.500000
O O19 0.417040 0.150220 0.790362
O O20 0.500000 0.146610 0.000000
#
# Coordination Sequence:
#
# PCOD9150132 Si02
#       8
#     4   4   4   4   4   4   4   4
#     4  11  19  36  62  90 120 150 205 260 304 346
#     4  10  20  35  60  90 120 151 198 259 304 357
#     4  11  23  43  66  89 123 168 210 252 304 366
#     4  11  22  38  59  87 122 163 209 249 303 371
#     4  10  20  37  58  85 122 159 197 247 305 370
#     4  12  22  36  66  92 121 158 205 260 305 354
#     4  11  22  37  61  91 124 159 201 251 313 361
#     4  10  21  36  57  91 126 151 200 255 309 364
#
# _framework density 22.10136
#
# number of rings (size 3 to 8) (size 9 to 14) (size 15 to 20)
#    0.000    1.250    6.250    1.125    1.750    3.750 
#    0.000    1.875    0.000    1.500    0.000    0.000 
#    0.000    0.000    0.000    0.000    0.000    0.000 
#
# Total GULP energy -178143.170839 kJ/mol
# GULP energy per Si atom -5566.974089 kJ/mol
# Density = 2.205106 g / cm^3
# Si number density = 22.101360 Si / 1000 Ang^3
#
#
#
# Elastic Constant Matrix: (Units=GPa)
#
#
# Indices 1 2 3 4 5 6 
#
# 1 178.3479 6.2057 18.8251 0.0000 35.8490 0.0000
# 2 6.2057 44.4301 -6.2800 0.0000 -9.9609 0.0000
# 3 18.8251 -6.2800 58.9021 0.0000 17.5246 0.0000
# 4 0.0000 0.0000 0.0000 -63.4138 0.0000 -75.3607
# 5 35.8490 -9.9609 17.5246 0.0000 41.7124 0.0000
# 6 0.0000 0.0000 0.0000 -75.3607 0.0000 -50.9877
#
#
#
# Elastic Compliance Matrix: (Units=1/GPa)
#
#
# Indices 1 2 3 4 5 6 
#
# 1 0.007044 -0.002504 -0.000616 0.000000 -0.006393 0.000000
# 2 -0.002504 0.024719 0.001188 0.000000 0.007556 0.000000
# 3 -0.000616 0.001188 0.019496 0.000000 -0.007378 0.000000
# 4 0.000000 0.000000 0.000000 0.020846 0.000000 -0.030811
# 5 -0.006393 0.007556 -0.007378 0.000000 0.034372 0.000000
# 6 0.000000 0.000000 0.000000 -0.030811 0.000000 0.025926
#
#
# Mechanical properties :
#
#
# Convention : Reuss Voigt Hill
#
# Bulk Modulus (GPa) = 21.09992 35.46462 28.28227
# Shear Modulus (GPa) = 32.88020 2.99079 17.93549
#
# Velocity S-wave (km/s) = 3.86126 1.16454 2.85179
# Velocity P-wave (km/s) = 5.42648 4.22958 4.86498
#
# Compressibility (1/GPa) = 0.04739354
#
# Stress axis : x y z
#
# Youngs Moduli (GPa) = 141.95921 40.45475 51.29288
#
# Poissons Ratio (x) = 0.10131 0.03161
# Poissons Ratio (y) = 0.35551 -0.06092
# Poissons Ratio (z) = 0.08748 -0.04805
#
# Static dielectric constant tensor:
#      x y z
#    x 1.952400 0.000000 0.090590 
#    y 0.000000 1.833010 0.000000 
#    z 0.090590 0.000000 1.112410 
# 
# From -- ./inp_files/26076.got.cif
#   From: 2010.05.17/outbox.cif.g08.bks.cpg/sg10_14_cif.got.tgz:26076.got - 2010.06.03 11:33:40.
