data_PCOD9150841
_publ_section_title
;
Structure prediction by ZEFSAII (Michael W. Deem and Ramdas Pophale) SiO2 
 PCOD9150841
Probable space group: P 2/M
;
_chemical_formula_sum "Si O2"
_cell_formula_units_Z 28
_cell_length_a 15.132361
_cell_length_b 7.657351
_cell_length_c 21.556732
_cell_angle_alpha 90.000000
_cell_angle_beta 147.551202
_cell_angle_gamma 90.000000
_cell_volume 1340.216287
_symmetry_space_group_name_H-M "P 2/M"
_symmetry_group_IT_number 10
_symmetry_cell_setting 'monoclinic'
loop_
_space_group_symop_operation_xyz
x,y,z
-x,y,-z
-x,-y,-z
x,-y,z
loop_
_atom_site_type_symbol
_atom_site_label
_atom_site_fract_x
_atom_site_fract_y
_atom_site_fract_z
Si Si1 0.558868 0.790094 0.605720
Si Si2 0.314027 0.786850 0.900036
Si Si3 0.928676 0.210195 0.351581
Si Si4 0.350671 0.299483 0.728197
Si Si5 0.188838 0.500000 0.046684
Si Si6 0.301222 0.210477 0.560053
Si Si7 0.313016 0.804530 0.035869
Si Si8 0.796313 0.500000 0.798229
O O1 0.500000 0.759525 0.500000
O O2 0.412892 0.740031 0.567621
O O3 0.712929 0.669241 0.716527
O O4 0.591355 0.000000 0.631230
O O5 0.191117 0.726868 0.774127
O O6 0.317407 0.000000 0.900759
O O7 0.500000 0.724635 0.000000
O O8 0.257228 0.740190 0.935439
O O9 0.833063 0.255275 0.358167
O O10 0.112977 0.276233 0.449879
O O11 0.936209 0.000000 0.353566
O O12 0.381687 0.500000 0.760698
O O13 0.373262 0.266308 0.668870
O O14 0.487574 0.191742 0.846321
O O15 0.261747 0.671568 0.058028
O O16 0.235655 0.500000 0.146678
O O17 0.994378 0.500000 0.915672
O O18 0.296231 0.000000 0.556708
O O19 0.251520 0.000000 0.010694
#
# Coordination Sequence:
#
# PCOD9150841 Si02
#       8
#     4   4   4   4   2   4   4   2
#     4  10  23  45  73 100 127 165 216 271 333 398
#     4   9  17  33  58  84 117 165 210 249 300 358
#     4  10  20  37  58  86 125 168 215 260 306 367
#     4  12  23  36  56  87 130 170 214 260 304 372
#     4  11  26  44  63 101 131 164 219 265 318 401
#     4  10  22  38  61  91 121 161 211 260 315 378
#     4  11  22  40  65  91 127 170 212 260 312 369
#     4  11  25  46  70  93 134 169 203 269 339 390
#
# _framework density 20.892150000000001
#
# number of rings (size 3 to 8) (size 9 to 14) (size 15 to 20)
#    0.000    1.571    2.143    2.786    1.000    5.714 
#    1.286    5.357    0.000    0.000    0.000    0.000 
#    0.000    0.000    0.000    0.000    0.000    0.000 
#
# Total GULP energy -156450.428257 kJ/mol
# GULP energy per Si atom -5587.515295 kJ/mol
# Density = 2.084460 g / cm^3
# Si number density = 20.892150 Si / 1000 Ang^3
#
#
#
# Elastic Constant Matrix: (Units=GPa)
#
#
# Indices 1 2 3 4 5 6 
#
# 1 86.6386 26.1949 51.6641 0.0000 -13.8953 0.0000
# 2 26.1949 76.5594 26.6475 0.0000 -3.9355 0.0000
# 3 51.6641 26.6475 96.3394 0.0000 -10.7831 0.0000
# 4 0.0000 0.0000 0.0000 26.2885 0.0000 -10.9898
# 5 -13.8953 -3.9355 -10.7831 0.0000 32.2593 0.0000
# 6 0.0000 0.0000 0.0000 -10.9898 0.0000 30.8808
#
#
#
# Elastic Compliance Matrix: (Units=1/GPa)
#
#
# Indices 1 2 3 4 5 6 
#
# 1 0.018232 -0.003073 -0.008405 0.000000 0.004669 0.000000
# 2 -0.003073 0.014977 -0.002533 0.000000 -0.000343 0.000000
# 3 -0.008405 -0.002533 0.015737 0.000000 0.001331 0.000000
# 4 0.000000 0.000000 0.000000 0.044688 0.000000 0.015903
# 5 0.004669 -0.000343 0.001331 0.000000 0.033413 0.000000
# 6 0.000000 0.000000 0.000000 0.015903 0.000000 0.038042
#
#
# Mechanical properties :
#
#
# Convention : Reuss Voigt Hill
#
# Bulk Modulus (GPa) = 47.79095 52.06116 49.92606
# Shear Modulus (GPa) = 24.98931 28.22111 26.60521
#
# Velocity S-wave (km/s) = 3.46223 3.67931 3.57242
# Velocity P-wave (km/s) = 6.23759 6.55918 6.40040
#
# Compressibility (1/GPa) = 0.02092446
#
# Stress axis : x y z
#
# Youngs Moduli (GPa) = 54.84869 66.76821 63.54482
#
# Poissons Ratio (x) = 0.20516 0.53408
# Poissons Ratio (y) = 0.16853 0.16098
# Poissons Ratio (z) = 0.46099 0.16914
#
# Static dielectric constant tensor:
#      x y z
#    x 1.748280 0.000000 0.018450 
#    y 0.000000 1.755760 0.000000 
#    z 0.018450 0.000000 1.739990 
# 
# From -- ./inp_files/85039.got.cif
#   From: 2010.05.17/outbox.cif.g08.bks.cpg/sg10_43_cif.got.tgz:85039.got - 2010.06.03 11:33:40.
