data_PCOD9150125
_publ_section_title
;
Structure prediction by ZEFSAII (Michael W. Deem and Ramdas Pophale) SiO2 
 PCOD9150125
Probable space group: P 2/M
;
_chemical_formula_sum "Si O2"
_cell_formula_units_Z 20
_cell_length_a 7.702984
_cell_length_b 13.720580
_cell_length_c 11.999661
_cell_angle_alpha 90.000000
_cell_angle_beta 37.213244
_cell_angle_gamma 90.000000
_cell_volume 767.008496
_symmetry_space_group_name_H-M "P 2/M"
_symmetry_group_IT_number 10
_symmetry_cell_setting 'monoclinic'
loop_
_space_group_symop_operation_xyz
x,y,z
-x,y,-z
-x,-y,-z
x,-y,z
loop_
_atom_site_type_symbol
_atom_site_label
_atom_site_fract_x
_atom_site_fract_y
_atom_site_fract_z
Si Si1 0.186847 0.117410 0.047832
Si Si2 0.544034 0.822137 0.309907
Si Si3 0.620532 0.612295 0.287032
Si Si4 0.969736 0.110845 0.635112
Si Si5 0.256296 0.388637 0.041216
O O1 0.866956 0.150045 0.177763
O O2 0.193491 0.146879 0.173528
O O3 0.203853 0.000000 0.031774
O O4 0.415811 0.162446 0.844918
O O5 0.450119 0.712379 0.391173
O O6 0.310576 0.890714 0.485347
O O7 0.534947 0.500000 0.358693
O O8 0.653242 0.611821 0.135447
O O9 0.919902 0.637650 0.197762
O O10 0.000000 0.163307 0.500000
O O11 0.866288 0.000000 0.669807
O O12 0.230733 0.500000 0.093049
O O13 0.500000 0.346288 0.000000
#
# Coordination Sequence:
#
# PCOD9150125 Si02
#       5
#     4   4   4   4   4
#     4  10  20  35  60  89 116 151 196 245 301 368
#     4  11  20  36  60  89 119 155 203 247 298 363
#     4   9  18  32  50  81 122 158 200 251 296 352
#     4  10  22  40  60  86 122 158 194 247 310 367
#     4   8  13  25  46  71 106 149 191 239 294 345
#
# _framework density 26.075330000000001
#
# number of rings (size 3 to 8) (size 9 to 14) (size 15 to 20)
#    0.000    2.400    0.000    6.600    0.000    2.400 
#    7.200    3.000    0.000    4.200    0.000    0.000 
#    0.000    0.000    0.000    0.000    0.000    0.000 
#
# Total GULP energy -111450.167548 kJ/mol
# GULP energy per Si atom -5572.508377 kJ/mol
# Density = 2.601598 g / cm^3
# Si number density = 26.075330 Si / 1000 Ang^3
#
#
#
# Elastic Constant Matrix: (Units=GPa)
#
#
# Indices 1 2 3 4 5 6 
#
# 1 152.1094 25.6467 42.3552 0.0000 38.3981 0.0000
# 2 25.6467 176.0484 21.3814 0.0000 -8.7270 0.0000
# 3 42.3552 21.3814 174.2059 0.0000 28.7434 0.0000
# 4 0.0000 0.0000 0.0000 -12.3484 0.0000 -23.2736
# 5 38.3981 -8.7270 28.7434 0.0000 44.3899 0.0000
# 6 0.0000 0.0000 0.0000 -23.2736 0.0000 14.0034
#
#
#
# Elastic Compliance Matrix: (Units=1/GPa)
#
#
# Indices 1 2 3 4 5 6 
#
# 1 0.008963 -0.001593 -0.000731 0.000000 -0.007593 0.000000
# 2 -0.001593 0.006178 -0.000894 0.000000 0.003172 0.000000
# 3 -0.000731 -0.000894 0.006665 0.000000 -0.003859 0.000000
# 4 0.000000 0.000000 0.000000 -0.019597 0.000000 -0.032570
# 5 -0.007593 0.003172 -0.003859 0.000000 0.032219 0.000000
# 6 0.000000 0.000000 0.000000 -0.032570 0.000000 0.017281
#
#
# Mechanical properties :
#
#
# Convention : Reuss Voigt Hill
#
# Bulk Modulus (GPa) = 65.06595 75.68115 70.37355
# Shear Modulus (GPa) = 79.02844 36.74102 57.88473
#
# Velocity S-wave (km/s) = 5.51122 3.75778 4.71670
# Velocity P-wave (km/s) = 8.09353 6.92206 7.53061
#
# Compressibility (1/GPa) = 0.01536902
#
# Stress axis : x y z
#
# Youngs Moduli (GPa) = 111.56692 161.85842 150.04868
#
# Poissons Ratio (x) = 0.25791 0.10966
# Poissons Ratio (y) = 0.17777 0.13418
# Poissons Ratio (z) = 0.08153 0.14474
#
# Static dielectric constant tensor:
#      x y z
#    x 2.430270 0.000000 0.066530 
#    y 0.000000 2.045210 0.000000 
#    z 0.066530 0.000000 2.035750 
# 
# From -- ./inp_files/42368.got.cif
#   From: 2010.05.17/outbox.cif.g08.bks.cpg/sg10_22_cif.got.tgz:42368.got - 2010.06.03 11:33:40.
