data_PCOD9150843
_publ_section_title
;
Structure prediction by ZEFSAII (Michael W. Deem and Ramdas Pophale) SiO2 
 PCOD9150843
Probable space group: P 2/M
;
_chemical_formula_sum "Si O2"
_cell_formula_units_Z 24
_cell_length_a 11.965191
_cell_length_b 14.203077
_cell_length_c 14.170627
_cell_angle_alpha 90.000000
_cell_angle_beta 149.995807
_cell_angle_gamma 90.000000
_cell_volume 1204.248717
_symmetry_space_group_name_H-M "P 2/M"
_symmetry_group_IT_number 10
_symmetry_cell_setting 'monoclinic'
loop_
_space_group_symop_operation_xyz
x,y,z
-x,y,-z
-x,-y,-z
x,-y,z
loop_
_atom_site_type_symbol
_atom_site_label
_atom_site_fract_x
_atom_site_fract_y
_atom_site_fract_z
Si Si1 0.763421 0.392620 0.382183
Si Si2 0.711478 0.809750 0.724178
Si Si3 0.821780 0.890533 0.997081
Si Si4 0.727574 0.398571 0.726807
Si Si5 0.588195 0.750745 0.962378
Si Si6 0.984647 0.394927 0.247411
O O1 0.680325 0.500000 0.305953
O O2 0.596203 0.313764 0.223922
O O3 0.000000 0.384948 0.500000
O O4 0.815831 0.381382 0.531540
O O5 0.500000 0.815654 0.500000
O O6 0.707652 0.877626 0.811095
O O7 0.728244 0.702460 0.776835
O O8 0.938941 0.837364 0.835971
O O9 0.667253 0.838750 0.959209
O O10 0.858240 0.000000 0.043543
O O11 0.500000 0.401278 0.500000
O O12 0.742584 0.500000 0.789158
O O13 0.921065 0.393285 0.789376
O O14 0.500000 0.779152 0.000000
O O15 0.800674 0.682651 0.129853
O O16 0.894759 0.500000 0.201017
#
# Coordination Sequence:
#
# PCOD9150843 Si02
#       6
#     4   4   4   4   4   4
#     4  10  21  36  59  88 121 161 203 244 288 351
#     4  10  21  42  71  93 122 159 197 249 308 369
#     4  11  26  44  63  92 119 152 212 266 311 364
#     4   9  18  33  57  92 131 161 187 230 293 366
#     4  12  24  39  62  88 123 165 207 252 306 360
#     4  10  20  37  58  88 128 166 202 239 287 361
#
# _framework density 19.929438000000001
#
# number of rings (size 3 to 8) (size 9 to 14) (size 15 to 20)
#    0.000    1.667    3.333    1.500    4.667    2.333 
#    0.000    2.500    0.000    0.500    0.000    0.000 
#    0.000    0.000    0.000    0.000    0.000    0.000 
#
# Total GULP energy -134110.018877 kJ/mol
# GULP energy per Si atom -5587.917453 kJ/mol
# Density = 1.988408 g / cm^3
# Si number density = 19.929438 Si / 1000 Ang^3
#
#
#
# Elastic Constant Matrix: (Units=GPa)
#
#
# Indices 1 2 3 4 5 6 
#
# 1 64.0053 25.3826 16.5079 0.0000 15.5833 0.0000
# 2 25.3826 140.4142 38.5986 0.0000 13.2710 0.0000
# 3 16.5079 38.5986 89.0203 0.0000 0.5009 0.0000
# 4 0.0000 0.0000 0.0000 20.1286 0.0000 1.7322
# 5 15.5833 13.2710 0.5009 0.0000 18.6384 0.0000
# 6 0.0000 0.0000 0.0000 1.7322 0.0000 11.1584
#
#
#
# Elastic Compliance Matrix: (Units=1/GPa)
#
#
# Indices 1 2 3 4 5 6 
#
# 1 0.021011 -0.001353 -0.003217 0.000000 -0.016518 0.000000
# 2 -0.001353 0.008818 -0.003544 0.000000 -0.005052 0.000000
# 3 -0.003217 -0.003544 0.013339 0.000000 0.004855 0.000000
# 4 0.000000 0.000000 0.000000 0.050353 0.000000 -0.007817
# 5 -0.016518 -0.005052 0.004855 0.000000 0.070930 0.000000
# 6 0.000000 0.000000 0.000000 -0.007817 0.000000 0.090832
#
#
# Mechanical properties :
#
#
# Convention : Reuss Voigt Hill
#
# Bulk Modulus (GPa) = 37.11791 50.49089 43.80440
# Shear Modulus (GPa) = 17.82584 24.18180 21.00382
#
# Velocity S-wave (km/s) = 2.99398 3.48713 3.24992
# Velocity P-wave (km/s) = 5.53326 6.45006 6.00917
#
# Compressibility (1/GPa) = 0.02694117
#
# Stress axis : x y z
#
# Youngs Moduli (GPa) = 47.59329 113.40283 74.96620
#
# Poissons Ratio (x) = 0.15341 0.24116
# Poissons Ratio (y) = 0.06438 0.26569
# Poissons Ratio (z) = 0.15310 0.40192
#
# Static dielectric constant tensor:
#      x y z
#    x 1.714220 0.000000 -0.005500 
#    y 0.000000 1.695190 0.000000 
#    z -0.005500 0.000000 1.714320 
# 
# From -- ./inp_files/65016.got.cif
#   From: 2010.05.17/outbox.cif.g08.bks.cpg/sg10_33_cif.got.tgz:65016.got - 2010.06.03 11:33:40.
