data_PCOD9150556
_publ_section_title
;
Structure prediction by ZEFSAII (Michael W. Deem and Ramdas Pophale) SiO2 
 PCOD9150556
Probable space group: P 2/M
;
_chemical_formula_sum "Si O2"
_cell_formula_units_Z 28
_cell_length_a 25.271704
_cell_length_b 7.713284
_cell_length_c 22.178525
_cell_angle_alpha 90.000000
_cell_angle_beta 162.439109
_cell_angle_gamma 90.000000
_cell_volume 1304.395951
_symmetry_space_group_name_H-M "P 2/M"
_symmetry_group_IT_number 10
_symmetry_cell_setting 'monoclinic'
loop_
_space_group_symop_operation_xyz
x,y,z
-x,y,-z
-x,-y,-z
x,-y,z
loop_
_atom_site_type_symbol
_atom_site_label
_atom_site_fract_x
_atom_site_fract_y
_atom_site_fract_z
Si Si1 0.661764 0.204200 0.506710
Si Si2 0.735013 0.210704 0.120563
Si Si3 0.597908 0.290501 0.668097
Si Si4 0.374733 0.787191 0.668594
Si Si5 0.298525 0.703939 0.780640
Si Si6 0.026503 0.295746 0.961632
Si Si7 0.928909 0.199190 0.578541
O O1 0.510957 0.232624 0.392172
O O2 0.612744 0.269138 0.386949
O O3 0.845701 0.278874 0.729708
O O4 0.690703 0.000000 0.532581
O O5 0.771688 0.270753 0.228197
O O6 0.884168 0.275729 0.236784
O O7 0.739719 0.000000 0.126228
O O8 0.543174 0.267306 0.890362
O O9 0.500000 0.236697 0.500000
O O10 0.593748 0.500000 0.665325
O O11 0.799037 0.227835 0.881791
O O12 0.195697 0.724539 0.505403
O O13 0.374630 0.000000 0.670486
O O14 0.298878 0.500000 0.766157
O O15 0.185581 0.796581 0.607069
O O16 0.500000 0.767052 0.000000
O O17 0.062609 0.500000 0.009192
O O18 0.000000 0.220147 0.000000
O O19 0.962314 0.000000 0.632514
#
# Coordination Sequence:
#
# PCOD9150556 Si02
#       7
#     4   4   4   4   4   4   4
#     4  11  23  37  58  90 123 150 184 238 298 345
#     4  10  20  36  60  83 105 144 194 231 269 330
#     4  10  20  38  62  84 111 152 195 233 277 338
#     4   9  20  38  56  79 114 152 184 226 278 332
#     4  11  22  35  54  83 115 146 179 230 293 331
#     4  10  20  38  62  84 111 152 195 233 277 338
#     4  10  20  36  60  83 105 144 194 231 269 330
#
# _framework density 21.465876000000002
#
# number of rings (size 3 to 8) (size 9 to 14) (size 15 to 20)
#    0.000    1.857    2.857    1.286    0.000    5.143 
#    0.000    5.714    0.000    0.000    0.000    0.000 
#    0.000    0.000    0.000    0.000    0.000    0.000 
#
# Total GULP energy -156423.107298 kJ/mol
# GULP energy per Si atom -5586.539546 kJ/mol
# Density = 2.141702 g / cm^3
# Si number density = 21.465876 Si / 1000 Ang^3
#
#
#
# Elastic Constant Matrix: (Units=GPa)
#
#
# Indices 1 2 3 4 5 6 
#
# 1 142.9044 -17.7462 25.8703 0.0000 17.2830 0.0000
# 2 -17.7462 27.4187 -13.8480 0.0000 1.4988 0.0000
# 3 25.8703 -13.8480 49.3873 0.0000 25.6690 0.0000
# 4 0.0000 0.0000 0.0000 -5.2620 0.0000 4.7332
# 5 17.2830 1.4988 25.6690 0.0000 45.5706 0.0000
# 6 0.0000 0.0000 0.0000 4.7332 0.0000 26.3940
#
#
#
# Elastic Compliance Matrix: (Units=1/GPa)
#
#
# Indices 1 2 3 4 5 6 
#
# 1 0.008155 0.004437 -0.001901 0.000000 -0.002168 0.000000
# 2 0.004437 0.049607 0.018817 0.000000 -0.013913 0.000000
# 3 -0.001901 0.018817 0.037423 0.000000 -0.020978 0.000000
# 4 0.000000 0.000000 0.000000 -0.163645 0.000000 0.029346
# 5 -0.002168 -0.013913 -0.020978 0.000000 0.035040 0.000000
# 6 0.000000 0.000000 0.000000 0.029346 0.000000 0.032625
#
#
# Mechanical properties :
#
#
# Convention : Reuss Voigt Hill
#
# Bulk Modulus (GPa) = 7.25211 23.14030 15.19620
# Shear Modulus (GPa) = 2029.80555 28.36949 1029.08752
#
# Velocity S-wave (km/s) = 30.78391 3.63934 21.91910
# Velocity P-wave (km/s) = 35.59379 5.33509 25.44977
#
# Compressibility (1/GPa) = 0.13789093
#
# Stress axis : x y z
#
# Youngs Moduli (GPa) = 122.62485 20.15839 26.72131
#
# Poissons Ratio (x) = -0.08943 0.05080
# Poissons Ratio (y) = -0.54403 -0.50282
# Poissons Ratio (z) = 0.23311 -0.37932
#
# Static dielectric constant tensor:
#      x y z
#    x 1.769540 0.000000 0.034220 
#    y 0.000000 1.807840 0.000000 
#    z 0.034220 0.000000 1.766100 
# 
# From -- ./inp_files/86526.got.cif
#   From: 2010.05.17/outbox.cif.g08.bks.cpg/sg10_44_cif.got.tgz:86526.got - 2010.06.03 11:33:40.
