data_PCOD9150091
_publ_section_title
;
Structure prediction by ZEFSAII (Michael W. Deem and Ramdas Pophale) SiO2 
 PCOD9150091
Probable space group: P 2/M
;
_chemical_formula_sum "Si O2"
_cell_formula_units_Z 28
_cell_length_a 10.256907
_cell_length_b 7.592025
_cell_length_c 27.335518
_cell_angle_alpha 90.000000
_cell_angle_beta 142.300328
_cell_angle_gamma 90.000000
_cell_volume 1301.708689
_symmetry_space_group_name_H-M "P 2/M"
_symmetry_group_IT_number 10
_symmetry_cell_setting 'monoclinic'
loop_
_space_group_symop_operation_xyz
x,y,z
-x,y,-z
-x,-y,-z
x,-y,z
loop_
_atom_site_type_symbol
_atom_site_label
_atom_site_fract_x
_atom_site_fract_y
_atom_site_fract_z
Si Si1 0.185543 0.213857 0.517351
Si Si2 0.484807 0.295179 0.941311
Si Si3 0.645382 0.293385 0.697786
Si Si4 0.058042 0.797344 0.761399
Si Si5 0.497158 0.285862 0.758660
Si Si6 0.981267 0.204618 0.359323
Si Si7 0.756052 0.715676 0.931556
O O1 0.417298 0.269737 0.604190
O O2 0.000000 0.271809 0.500000
O O3 0.131340 0.278590 0.446545
O O4 0.180043 0.000000 0.515229
O O5 0.548265 0.500000 0.965131
O O6 0.247573 0.288329 0.848654
O O7 0.642108 0.220024 0.946929
O O8 0.500000 0.216049 0.000000
O O9 0.696470 0.500000 0.715425
O O10 0.613995 0.227740 0.743895
O O11 0.837071 0.208424 0.724867
O O12 0.026039 0.718101 0.697528
O O13 0.125967 0.000000 0.774917
O O14 0.484807 0.500000 0.754005
O O15 0.257309 0.216105 0.690197
O O16 0.621933 0.231111 0.844247
O O17 0.043848 0.000000 0.371854
O O18 0.752339 0.500000 0.930771
O O19 0.000000 0.770839 0.000000
#
# Coordination Sequence:
#
# PCOD9150091 Si02
#       7
#     4   4   4   4   4   4   4
#     4  10  20  37  61  86 116 153 194 240 294 349
#     4  10  21  37  61  88 117 153 193 238 288 346
#     4  11  24  38  58  89 121 152 196 245 291 347
#     4  11  24  41  60  83 119 160 197 238 290 349
#     4  10  20  35  59  87 115 150 192 241 289 343
#     4  10  21  38  61  85 113 154 197 238 286 351
#     4   9  18  33  56  86 116 146 185 232 285 340
#
# _framework density 21.510190000000001
#
# number of rings (size 3 to 8) (size 9 to 14) (size 15 to 20)
#    0.000    1.857    2.857    0.857    2.000    2.857 
#    0.000    2.857    0.000    0.857    0.000    0.000 
#    0.000    0.000    0.000    0.000    0.000    0.000 
#
# Total GULP energy -156453.344964 kJ/mol
# GULP energy per Si atom -5587.619463 kJ/mol
# Density = 2.146123 g / cm^3
# Si number density = 21.510190 Si / 1000 Ang^3
#
#
#
# Elastic Constant Matrix: (Units=GPa)
#
#
# Indices 1 2 3 4 5 6 
#
# 1 163.7915 -1.7339 71.2406 0.0000 -20.1880 0.0000
# 2 -1.7339 47.5701 -6.2065 0.0000 -9.0302 0.0000
# 3 71.2406 -6.2065 111.9163 0.0000 -22.0366 0.0000
# 4 0.0000 0.0000 0.0000 27.3361 0.0000 18.2511
# 5 -20.1880 -9.0302 -22.0366 0.0000 48.5499 0.0000
# 6 0.0000 0.0000 0.0000 18.2511 0.0000 15.7075
#
#
#
# Elastic Compliance Matrix: (Units=1/GPa)
#
#
# Indices 1 2 3 4 5 6 
#
# 1 0.008506 -0.000149 -0.005196 0.000000 0.001151 0.000000
# 2 -0.000149 0.022300 0.002346 0.000000 0.005150 0.000000
# 3 -0.005196 0.002346 0.013214 0.000000 0.004274 0.000000
# 4 0.000000 0.000000 0.000000 0.163144 0.000000 -0.189562
# 5 0.001151 0.005150 0.004274 0.000000 0.023974 0.000000
# 6 0.000000 0.000000 0.000000 -0.189562 0.000000 0.283922
#
#
# Mechanical properties :
#
#
# Convention : Reuss Voigt Hill
#
# Bulk Modulus (GPa) = 26.30135 49.98646 38.14390
# Shear Modulus (GPa) = 9.36800 35.65054 22.50927
#
# Velocity S-wave (km/s) = 2.08916 4.07551 3.23839
# Velocity P-wave (km/s) = 4.25128 6.74057 5.63510
#
# Compressibility (1/GPa) = 0.03802087
#
# Stress axis : x y z
#
# Youngs Moduli (GPa) = 117.57087 44.84313 75.67533
#
# Poissons Ratio (x) = 0.00670 0.39321
# Poissons Ratio (y) = 0.01758 -0.17753
# Poissons Ratio (z) = 0.61089 -0.10520
#
# Static dielectric constant tensor:
#      x y z
#    x 1.763660 0.000000 -0.041250 
#    y 0.000000 2.067760 0.000000 
#    z -0.041250 0.000000 1.740680 
# 
# From -- ./inp_files/91951.got.cif
#   From: 2010.05.17/outbox.cif.g08.bks.cpg/sg10_46_cif.got.tgz:91951.got - 2010.06.03 11:33:40.
