data_PCOD9150905
_publ_section_title
;
Structure prediction by ZEFSAII (Michael W. Deem and Ramdas Pophale) SiO2 
 PCOD9150905
Probable space group: P 2/M
;
_chemical_formula_sum "Si O2"
_cell_formula_units_Z 28
_cell_length_a 7.387796
_cell_length_b 15.669031
_cell_length_c 13.019838
_cell_angle_alpha 90.000000
_cell_angle_beta 54.608118
_cell_angle_gamma 90.000000
_cell_volume 1228.660908
_symmetry_space_group_name_H-M "P 2/M"
_symmetry_group_IT_number 10
_symmetry_cell_setting 'monoclinic'
loop_
_space_group_symop_operation_xyz
x,y,z
-x,y,-z
-x,-y,-z
x,-y,z
loop_
_atom_site_type_symbol
_atom_site_label
_atom_site_fract_x
_atom_site_fract_y
_atom_site_fract_z
Si Si1 0.580876 0.409710 0.731077
Si Si2 0.001677 0.904985 0.828405
Si Si3 0.698450 0.154550 0.084911
Si Si4 0.973704 0.404293 0.275050
Si Si5 0.331462 0.776993 0.345305
Si Si6 0.858205 0.228214 0.388908
Si Si7 0.285436 0.342379 0.996244
O O1 0.575499 0.500000 0.675594
O O2 0.812861 0.408275 0.718327
O O3 0.572640 0.319098 0.678553
O O4 0.381468 0.405060 0.878821
O O5 0.159326 0.893203 0.875366
O O6 0.090278 0.834302 0.721364
O O7 0.015204 0.000000 0.781128
O O8 0.756410 0.888716 0.956971
O O9 0.465182 0.166912 0.219064
O O10 0.768774 0.252311 0.037824
O O11 0.879281 0.500000 0.302712
O O12 0.823596 0.325357 0.361641
O O13 0.085671 0.378453 0.129576
O O14 0.313250 0.805886 0.469244
O O15 0.090736 0.768623 0.373951
O O16 0.500000 0.326167 0.000000
#
# Coordination Sequence:
#
# PCOD9150905 Si02
#       7
#     4   4   4   4   4   4   4
#     4   8  14  24  44  79 117 147 184 226 269 318
#     4  11  24  42  62  83 109 141 186 237 289 341
#     4  10  20  37  60  83 111 141 186 232 280 335
#     4   9  15  25  47  80 115 151 184 222 268 322
#     4   9  20  35  59  85 116 152 186 229 278 331
#     4  10  20  38  57  85 120 151 186 229 278 327
#     4   9  15  26  50  82 114 145 183 229 277 323
#
# _framework density 22.789038999999999
#
# number of rings (size 3 to 8) (size 9 to 14) (size 15 to 20)
#    0.000    2.571    1.429    2.143    0.000    2.857 
#    0.000    8.571    0.000    5.143    0.000    5.000 
#    0.000    0.000    0.000    0.000    0.000    0.000 
#
# Total GULP energy -156145.178862 kJ/mol
# GULP energy per Si atom -5576.613531 kJ/mol
# Density = 2.273717 g / cm^3
# Si number density = 22.789039 Si / 1000 Ang^3
#
#
#
# Elastic Constant Matrix: (Units=GPa)
#
#
# Indices 1 2 3 4 5 6 
#
# 1 39.2228 -3.2848 -1.5160 0.0000 0.8410 0.0000
# 2 -3.2848 109.3689 27.5881 0.0000 6.5366 0.0000
# 3 -1.5160 27.5881 115.2046 0.0000 16.0089 0.0000
# 4 0.0000 0.0000 0.0000 -0.3587 0.0000 -2.7991
# 5 0.8410 6.5366 16.0089 0.0000 16.1877 0.0000
# 6 0.0000 0.0000 0.0000 -2.7991 0.0000 10.5678
#
#
#
# Elastic Compliance Matrix: (Units=1/GPa)
#
#
# Indices 1 2 3 4 5 6 
#
# 1 0.025623 0.000783 0.000439 0.000000 -0.002081 0.000000
# 2 0.000783 0.009805 -0.002066 0.000000 -0.001957 0.000000
# 3 0.000439 -0.002066 0.010513 0.000000 -0.009585 0.000000
# 4 0.000000 0.000000 0.000000 -0.908969 0.000000 -0.240759
# 5 -0.002081 -0.001957 -0.009585 0.000000 0.072153 0.000000
# 6 0.000000 0.000000 0.000000 -0.240759 0.000000 0.030857
#
#
# Mechanical properties :
#
#
# Convention : Reuss Voigt Hill
#
# Bulk Modulus (GPa) = 22.59742 34.37454 28.48598
# Shear Modulus (GPa) = -6.72422 21.34663 7.31121
#
# Velocity S-wave (km/s) = -1.71961 3.06389 1.79309
# Velocity P-wave (km/s) = 2.44841 5.25672 4.10048
#
# Compressibility (1/GPa) = 0.04425285
#
# Stress axis : x y z
#
# Youngs Moduli (GPa) = 39.02811 101.98947 95.12378
#
# Poissons Ratio (x) = -0.07988 -0.04175
# Poissons Ratio (y) = -0.03057 0.19650
# Poissons Ratio (z) = -0.01713 0.21068
#
# Static dielectric constant tensor:
#      x y z
#    x 1.944080 0.000000 -0.022090 
#    y 0.000000 1.813640 0.000000 
#    z -0.022090 0.000000 1.911820 
# 
# From -- ./inp_files/61757.got.cif
#   From: 2010.05.17/outbox.cif.g08.bks.cpg/sg10_31_cif.got.tgz:61757.got - 2010.06.03 11:33:40.
