data_PCOD9150778
_publ_section_title
;
Structure prediction by ZEFSAII (Michael W. Deem and Ramdas Pophale) SiO2 
 PCOD9150778
Probable space group: P 2/M
;
_chemical_formula_sum "Si O2"
_cell_formula_units_Z 32
_cell_length_a 15.329178
_cell_length_b 9.617113
_cell_length_c 23.492675
_cell_angle_alpha 90.000000
_cell_angle_beta 30.415639
_cell_angle_gamma 90.000000
_cell_volume 1753.386014
_symmetry_space_group_name_H-M "P 2/M"
_symmetry_group_IT_number 10
_symmetry_cell_setting 'monoclinic'
loop_
_space_group_symop_operation_xyz
x,y,z
-x,y,-z
-x,-y,-z
x,-y,z
loop_
_atom_site_type_symbol
_atom_site_label
_atom_site_fract_x
_atom_site_fract_y
_atom_site_fract_z
Si Si1 0.029658 0.160848 0.416442
Si Si2 0.027294 0.668487 0.159418
Si Si3 0.510366 0.838743 0.244331
Si Si4 0.087190 0.162985 0.010562
Si Si5 0.317210 0.161699 0.461221
Si Si6 0.618127 0.336486 0.984437
Si Si7 0.684196 0.666074 0.423713
Si Si8 0.346455 0.661509 0.238582
O O1 0.853141 0.176538 0.481599
O O2 0.000000 0.189762 0.500000
O O3 0.176736 0.262584 0.311241
O O4 0.085640 0.000000 0.380073
O O5 0.040457 0.500000 0.144727
O O6 0.038675 0.744034 0.092077
O O7 0.847338 0.700323 0.291892
O O8 0.191309 0.715600 0.106006
O O9 0.474839 0.803646 0.330085
O O10 0.402484 0.740346 0.264005
O O11 0.453333 0.000000 0.269198
O O12 0.708251 0.828964 0.115230
O O13 0.042360 0.000000 0.046113
O O14 0.000000 0.205777 0.000000
O O15 0.303160 0.256955 0.523614
O O16 0.332447 0.000000 0.469564
O O17 0.643750 0.500000 0.955538
O O18 0.501420 0.327190 0.106438
O O19 0.500000 0.275430 0.000000
O O20 0.500000 0.702744 0.500000
O O21 0.687478 0.500000 0.430430
O O22 0.312501 0.500000 0.268300
#
# Coordination Sequence:
#
# PCOD9150778 Si02
#       8
#     4   4   4   4   4   4   4   4
#     4  10  20  37  56  78 116 156 187 227 285 347
#     4  10  21  40  62  84 118 156 191 237 294 349
#     4  10  20  38  59  82 118 155 187 237 302 348
#     4  10  22  38  61  90 117 147 189 242 295 347
#     4  10  22  39  61  85 112 157 204 237 285 350
#     4   9  19  35  55  80 111 150 190 229 282 344
#     4  10  24  43  61  85 118 156 197 246 299 343
#     4  11  21  33  56  86 114 147 194 239 284 346
#
# _framework density 18.250402000000001
#
# number of rings (size 3 to 8) (size 9 to 14) (size 15 to 20)
#    0.000    2.000    2.500    0.375    3.500    2.250 
#    0.000    0.000    0.000    1.875    0.000    0.000 
#    0.000    0.000    0.000    0.000    0.000    0.000 
#
# Total GULP energy -178545.935072 kJ/mol
# GULP energy per Si atom -5579.560471 kJ/mol
# Density = 1.820886 g / cm^3
# Si number density = 18.250402 Si / 1000 Ang^3
#
#
#
# Elastic Constant Matrix: (Units=GPa)
#
#
# Indices 1 2 3 4 5 6 
#
# 1 121.7202 46.2339 56.8977 0.0000 9.9230 0.0000
# 2 46.2339 45.7404 52.6513 0.0000 5.3012 0.0000
# 3 56.8977 52.6513 105.1999 0.0000 5.6238 0.0000
# 4 0.0000 0.0000 0.0000 24.5748 0.0000 2.9066
# 5 9.9230 5.3012 5.6238 0.0000 21.3992 0.0000
# 6 0.0000 0.0000 0.0000 2.9066 0.0000 25.9317
#
#
#
# Elastic Compliance Matrix: (Units=1/GPa)
#
#
# Indices 1 2 3 4 5 6 
#
# 1 0.013575 -0.012047 -0.001152 0.000000 -0.003008 0.000000
# 2 -0.012047 0.063058 -0.024857 0.000000 -0.003502 0.000000
# 3 -0.001152 -0.024857 0.022528 0.000000 0.000771 0.000000
# 4 0.000000 0.000000 0.000000 0.041239 0.000000 -0.004622
# 5 -0.003008 -0.003502 0.000771 0.000000 0.048790 0.000000
# 6 0.000000 0.000000 0.000000 -0.004622 0.000000 0.039081
#
#
# Mechanical properties :
#
#
# Convention : Reuss Voigt Hill
#
# Bulk Modulus (GPa) = 43.38496 64.91402 54.14949
# Shear Modulus (GPa) = 16.02228 22.17298 19.09763
#
# Velocity S-wave (km/s) = 2.96618 3.48937 3.23835
# Velocity P-wave (km/s) = 5.96277 7.20278 6.61191
#
# Compressibility (1/GPa) = 0.02304946
#
# Stress axis : x y z
#
# Youngs Moduli (GPa) = 73.66402 15.85852 44.38916
#
# Poissons Ratio (x) = 0.19105 0.05114
# Poissons Ratio (y) = 0.88742 1.10337
# Poissons Ratio (z) = 0.08486 0.39419
#
# Static dielectric constant tensor:
#      x y z
#    x 1.622870 0.000000 -0.022170 
#    y 0.000000 1.610460 0.000000 
#    z -0.022170 0.000000 1.636260 
# 
# From -- ./inp_files/89517.got.cif
#   From: 2010.05.17/outbox.cif.g08.bks.cpg/sg10_45_cif.got.tgz:89517.got - 2010.06.03 11:33:40.
