data_PCOD9150969
_publ_section_title
;
Structure prediction by ZEFSAII (Michael W. Deem and Ramdas Pophale) SiO2 
 PCOD9150969
Probable space group: P 2/M
;
_chemical_formula_sum "Si O2"
_cell_formula_units_Z 32
_cell_length_a 32.530498
_cell_length_b 7.605162
_cell_length_c 12.616464
_cell_angle_alpha 90.000000
_cell_angle_beta 28.296639
_cell_angle_gamma 90.000000
_cell_volume 1479.614815
_symmetry_space_group_name_H-M "P 2/M"
_symmetry_group_IT_number 10
_symmetry_cell_setting 'monoclinic'
loop_
_space_group_symop_operation_xyz
x,y,z
-x,y,-z
-x,-y,-z
x,-y,z
loop_
_atom_site_type_symbol
_atom_site_label
_atom_site_fract_x
_atom_site_fract_y
_atom_site_fract_z
Si Si1 0.677132 0.797007 0.121746
Si Si2 0.640082 0.702186 0.976617
Si Si3 0.064288 0.284458 0.948154
Si Si4 0.742983 0.290919 0.542320
Si Si5 0.138588 0.286930 0.208318
Si Si6 0.020593 0.285848 0.283683
Si Si7 0.557417 0.795865 0.574127
Si Si8 0.413266 0.787231 0.258482
O O1 0.683119 0.708230 0.994002
O O2 0.603071 0.719140 0.366541
O O3 0.656051 0.000000 0.145911
O O4 0.767284 0.784310 0.979177
O O5 0.622329 0.500000 0.988068
O O6 0.546036 0.789201 0.196373
O O7 0.700843 0.779248 0.746786
O O8 0.064189 0.500000 0.950501
O O9 0.162081 0.223084 0.702575
O O10 0.033419 0.226303 0.134609
O O11 0.000000 0.230955 0.000000
O O12 0.754369 0.500000 0.531343
O O13 0.672384 0.262076 0.611091
O O14 0.143315 0.500000 0.198448
O O15 0.098100 0.233114 0.187271
O O16 0.068920 0.232938 0.456296
O O17 0.020315 0.500000 0.283808
O O18 0.585871 0.720385 0.622885
O O19 0.585013 0.000000 0.511985
O O20 0.418100 0.000000 0.250844
O O21 0.500000 0.726522 0.000000
#
# Coordination Sequence:
#
# PCOD9150969 Si02
#       8
#     4   4   4   4   4   4   4   4
#     4  11  24  38  56  81 111 148 189 231 279 334
#     4  11  23  38  57  83 114 146 186 235 282 326
#     4   9  18  32  54  83 116 149 180 222 281 340
#     4  10  22  36  56  89 117 144 187 237 282 329
#     4   9  18  34  57  83 108 140 185 233 276 325
#     4   8  16  32  54  80 111 145 180 223 278 332
#     4  10  22  40  58  80 112 150 190 227 274 335
#     4  10  20  37  61  83 110 153 192 224 276 342
#
# _framework density 21.627248999999999
#
# number of rings (size 3 to 8) (size 9 to 14) (size 15 to 20)
#    0.000    2.250    1.250    1.875    3.500    3.750 
#    0.000    1.250    0.000    1.125    0.000    0.000 
#    0.000    0.000    0.000    0.000    0.000    0.000 
#
# Total GULP energy -178763.806703 kJ/mol
# GULP energy per Si atom -5586.368959 kJ/mol
# Density = 2.157802 g / cm^3
# Si number density = 21.627249 Si / 1000 Ang^3
#
#
#
# Elastic Constant Matrix: (Units=GPa)
#
#
# Indices 1 2 3 4 5 6 
#
# 1 126.1798 0.8011 64.6402 0.0000 11.5438 0.0000
# 2 0.8011 42.8515 6.7303 0.0000 8.3077 0.0000
# 3 64.6402 6.7303 99.0245 0.0000 -2.0988 0.0000
# 4 0.0000 0.0000 0.0000 17.9115 0.0000 -14.7779
# 5 11.5438 8.3077 -2.0988 0.0000 31.1829 0.0000
# 6 0.0000 0.0000 0.0000 -14.7779 0.0000 23.1051
#
#
#
# Elastic Compliance Matrix: (Units=1/GPa)
#
#
# Indices 1 2 3 4 5 6 
#
# 1 0.012924 0.002287 -0.008719 0.000000 -0.005981 0.000000
# 2 0.002287 0.025342 -0.003381 0.000000 -0.007826 0.000000
# 3 -0.008719 -0.003381 0.016130 0.000000 0.005214 0.000000
# 4 0.000000 0.000000 0.000000 0.118208 0.000000 0.075605
# 5 -0.005981 -0.007826 0.005214 0.000000 0.036719 0.000000
# 6 0.000000 0.000000 0.000000 0.075605 0.000000 0.091637
#
#
# Mechanical properties :
#
#
# Convention : Reuss Voigt Hill
#
# Bulk Modulus (GPa) = 28.75978 45.82210 37.29094
# Shear Modulus (GPa) = 15.05224 27.49887 21.27555
#
# Velocity S-wave (km/s) = 2.64101 3.56967 3.13986
# Velocity P-wave (km/s) = 4.75676 6.18249 5.51589
#
# Compressibility (1/GPa) = 0.03477078
#
# Stress axis : x y z
#
# Youngs Moduli (GPa) = 77.37303 39.46026 61.99530
#
# Poissons Ratio (x) = -0.09026 0.54053
# Poissons Ratio (y) = -0.17697 0.20963
# Poissons Ratio (z) = 0.67461 0.13343
#
# Static dielectric constant tensor:
#      x y z
#    x 1.752560 0.000000 0.033590 
#    y 0.000000 1.825920 0.000000 
#    z 0.033590 0.000000 1.767900 
# 
# From -- ./inp_files/58134.got.cif
#   From: 2010.05.17/outbox.cif.g08.bks.cpg/sg10_30_cif.got.tgz:58134.got - 2010.06.03 11:33:40.
