data_PCOD9150309
_publ_section_title
;
Structure prediction by ZEFSAII (Michael W. Deem and Ramdas Pophale) SiO2 
 PCOD9150309
Probable space group: P 2/M
;
_chemical_formula_sum "Si O2"
_cell_formula_units_Z 32
_cell_length_a 12.198357
_cell_length_b 8.172557
_cell_length_c 31.991680
_cell_angle_alpha 90.000000
_cell_angle_beta 152.146543
_cell_angle_gamma 90.000000
_cell_volume 1490.081775
_symmetry_space_group_name_H-M "P 2/M"
_symmetry_group_IT_number 10
_symmetry_cell_setting 'monoclinic'
loop_
_space_group_symop_operation_xyz
x,y,z
-x,y,-z
-x,-y,-z
x,-y,z
loop_
_atom_site_type_symbol
_atom_site_label
_atom_site_fract_x
_atom_site_fract_y
_atom_site_fract_z
Si Si1 0.112548 0.197645 0.809706
Si Si2 0.097928 0.198206 0.175536
Si Si3 0.629712 0.184638 0.487747
Si Si4 0.626453 0.804267 0.970501
Si Si5 0.157204 0.685194 0.360473
Si Si6 0.273430 0.697986 0.088320
Si Si7 0.490735 0.303048 0.746304
Si Si8 0.988539 0.697182 0.544835
O O1 0.942570 0.250674 0.790144
O O2 0.380623 0.253670 0.907094
O O3 0.026557 0.256811 0.735742
O O4 0.111559 0.000000 0.809274
O O5 0.328072 0.257808 0.229311
O O6 0.102214 0.000000 0.176212
O O7 0.866235 0.257239 0.072269
O O8 0.811470 0.208860 0.587282
O O9 0.411113 0.300967 0.423695
O O10 0.764703 0.225004 0.491319
O O11 0.537693 0.000000 0.456789
O O12 0.629010 0.763932 0.922329
O O13 0.630526 0.000000 0.977295
O O14 0.107007 0.500000 0.356427
O O15 0.283655 0.500000 0.090453
O O16 0.410545 0.755767 0.175801
O O17 0.000000 0.745559 0.000000
O O18 0.483089 0.500000 0.745716
O O19 0.229197 0.245870 0.647719
O O20 0.971861 0.500000 0.543640
O O21 0.000000 0.736172 0.500000
#
# Coordination Sequence:
#
# PCOD9150309 Si02
#       8
#     4   4   4   4   4   4   4   4
#     4  10  22  39  59  88 122 156 198 249 302 351
#     4  10  21  38  60  85 119 160 200 245 297 358
#     4  11  23  42  66  91 123 156 196 249 305 360
#     4  10  21  37  59  86 119 158 200 244 295 355
#     4  11  23  41  65  91 119 157 202 247 302 362
#     4  10  20  36  57  83 118 157 196 245 300 355
#     4  10  22  39  59  85 119 160 202 246 298 357
#     4  10  23  42  63  90 125 164 204 249 299 357
#
# _framework density 21.475331000000001
#
# number of rings (size 3 to 8) (size 9 to 14) (size 15 to 20)
#    0.000    1.750    1.250    3.375    3.500    4.000 
#    0.000    0.000    0.000    2.250    0.000    0.000 
#    0.000    0.000    0.000    0.000    0.000    0.000 
#
# Total GULP energy -178886.984886 kJ/mol
# GULP energy per Si atom -5590.218278 kJ/mol
# Density = 2.142645 g / cm^3
# Si number density = 21.475331 Si / 1000 Ang^3
#
#
#
# Elastic Constant Matrix: (Units=GPa)
#
#
# Indices 1 2 3 4 5 6 
#
# 1 49.7542 -3.1204 -26.8319 0.0000 0.7028 0.0000
# 2 -3.1204 15.1734 0.3404 0.0000 -2.3429 0.0000
# 3 -26.8319 0.3404 42.5137 0.0000 -2.5468 0.0000
# 4 0.0000 0.0000 0.0000 5.5741 0.0000 0.8015
# 5 0.7028 -2.3429 -2.5468 0.0000 23.6804 0.0000
# 6 0.0000 0.0000 0.0000 0.8015 0.0000 41.7659
#
#
#
# Elastic Compliance Matrix: (Units=1/GPa)
#
#
# Indices 1 2 3 4 5 6 
#
# 1 0.031071 0.006228 0.019668 0.000000 0.001809 0.000000
# 2 0.006228 0.068176 0.003802 0.000000 0.006969 0.000000
# 3 0.019668 0.003802 0.036125 0.000000 0.003678 0.000000
# 4 0.000000 0.000000 0.000000 0.179899 0.000000 -0.003452
# 5 0.001809 0.006969 0.003678 0.000000 0.043260 0.000000
# 6 0.000000 0.000000 0.000000 -0.003452 0.000000 0.024009
#
#
# Mechanical properties :
#
#
# Convention : Reuss Voigt Hill
#
# Bulk Modulus (GPa) = 5.13429 5.35751 5.24590
# Shear Modulus (GPa) = 12.88438 23.34095 18.11266
#
# Velocity S-wave (km/s) = 2.45207 3.30035 2.90732
# Velocity P-wave (km/s) = 3.22689 4.12592 3.70379
#
# Compressibility (1/GPa) = 0.19476889
#
# Stress axis : x y z
#
# Youngs Moduli (GPa) = 32.18463 14.66783 27.68159
#
# Poissons Ratio (x) = -0.09135 -0.54445
# Poissons Ratio (y) = -0.20044 -0.10525
# Poissons Ratio (z) = -0.63302 -0.05577
#
# Static dielectric constant tensor:
#      x y z
#    x 1.748940 0.000000 -0.001040 
#    y 0.000000 1.753190 0.000000 
#    z -0.001040 0.000000 1.787060 
# 
# From -- ./inp_files/95074.got.cif
#   From: 2010.05.17/outbox.cif.g08.bks.cpg/sg10_48_cif.got.tgz:95074.got - 2010.06.03 11:33:40.
