data_PCOD9150389
_publ_section_title
;
Structure prediction by ZEFSAII (Michael W. Deem and Ramdas Pophale) SiO2 
 PCOD9150389
Probable space group: P 2/M
;
_chemical_formula_sum "Si O2"
_cell_formula_units_Z 24
_cell_length_a 8.178022
_cell_length_b 20.328790
_cell_length_c 8.279016
_cell_angle_alpha 90.000000
_cell_angle_beta 121.147573
_cell_angle_gamma 90.000000
_cell_volume 1177.958650
_symmetry_space_group_name_H-M "P 2/M"
_symmetry_group_IT_number 10
_symmetry_cell_setting 'monoclinic'
loop_
_space_group_symop_operation_xyz
x,y,z
-x,y,-z
-x,-y,-z
x,-y,z
loop_
_atom_site_type_symbol
_atom_site_label
_atom_site_fract_x
_atom_site_fract_y
_atom_site_fract_z
Si Si1 0.781596 0.573653 0.948878
Si Si2 0.155710 0.000000 0.942474
Si Si3 0.446279 0.000000 0.662354
Si Si4 0.812794 0.109673 0.303827
Si Si5 0.826913 0.646822 0.297920
Si Si6 0.707898 0.238966 0.060853
Si Si7 0.452375 0.304974 0.295476
O O1 0.704656 0.500000 0.886357
O O2 0.673082 0.629511 0.793220
O O3 0.772217 0.593703 0.133840
O O4 0.000000 0.574185 0.000000
O O5 0.130137 0.061887 0.813090
O O6 0.000000 0.000000 0.000000
O O7 0.364081 0.000000 0.130430
O O8 0.500000 0.000000 0.500000
O O9 0.325218 0.935195 0.654099
O O10 0.721729 0.171983 0.166810
O O11 0.000000 0.128989 0.500000
O O12 0.868523 0.711769 0.208670
O O13 0.656116 0.671930 0.324682
O O14 0.000000 0.626475 0.500000
O O15 0.500000 0.268859 0.000000
O O16 0.674583 0.246350 0.853061
O O17 0.500000 0.285629 0.500000
#
# Coordination Sequence:
#
# PCOD9150389 Si02
#       7
#     4   2   2   4   4   4   4
#     4  10  21  37  58  85 116 151 194 242 292 350
#     4  11  22  39  58  86 120 153 194 237 286 340
#     4  11  22  39  64  90 120 159 196 239 292 346
#     4  11  21  38  62  87 119 155 192 240 291 345
#     4  10  20  36  58  83 115 152 191 238 292 349
#     4   9  19  37  58  83 114 151 193 238 291 343
#     4  10  21  38  60  85 116 153 193 241 291 348
#
# _framework density 20.374229
#
# number of rings (size 3 to 8) (size 9 to 14) (size 15 to 20)
#    0.000    1.833    0.000    7.000    0.000    2.000 
#    0.000   15.833    0.000    6.000    0.000    0.000 
#    0.000    0.000    0.000    0.000    0.000    0.000 
#
# Total GULP energy -133674.493231 kJ/mol
# GULP energy per Si atom -5569.770551 kJ/mol
# Density = 2.032786 g / cm^3
# Si number density = 20.374229 Si / 1000 Ang^3
#
#
#
# Elastic Constant Matrix: (Units=GPa)
#
#
# Indices 1 2 3 4 5 6 
#
# 1 66.3939 5.3613 22.6422 0.0000 -13.4124 0.0000
# 2 5.3613 70.0745 41.0623 0.0000 -5.7837 0.0000
# 3 22.6422 41.0623 144.1827 0.0000 -9.0709 0.0000
# 4 0.0000 0.0000 0.0000 1.3844 0.0000 -2.5114
# 5 -13.4124 -5.7837 -9.0709 0.0000 35.5765 0.0000
# 6 0.0000 0.0000 0.0000 -2.5114 0.0000 3.6313
#
#
#
# Elastic Compliance Matrix: (Units=1/GPa)
#
#
# Indices 1 2 3 4 5 6 
#
# 1 0.017050 0.000641 -0.002489 0.000000 0.005897 0.000000
# 2 0.000641 0.017239 -0.004897 0.000000 0.001796 0.000000
# 3 -0.002489 -0.004897 0.008753 0.000000 0.000497 0.000000
# 4 0.000000 0.000000 0.000000 -2.837638 0.000000 -1.962477
# 5 0.005897 0.001796 0.000497 0.000000 0.030750 0.000000
# 6 0.000000 0.000000 0.000000 -1.962477 0.000000 -1.081841
#
#
# Mechanical properties :
#
#
# Convention : Reuss Voigt Hill
#
# Bulk Modulus (GPa) = 33.83987 46.53140 40.18563
# Shear Modulus (GPa) = -1.30810 22.22412 10.45801
#
# Velocity S-wave (km/s) = -0.80214 3.30630 2.26806
# Velocity P-wave (km/s) = 3.97332 6.12074 5.15998
#
# Compressibility (1/GPa) = 0.02955094
#
# Stress axis : x y z
#
# Youngs Moduli (GPa) = 58.65083 58.00645 114.25283
#
# Poissons Ratio (x) = -0.03717 0.28437
# Poissons Ratio (y) = -0.03758 0.55954
# Poissons Ratio (z) = 0.14598 0.28408
#
# Static dielectric constant tensor:
#      x y z
#    x 1.815060 0.000000 -0.072050 
#    y 0.000000 1.850470 0.000000 
#    z -0.072050 0.000000 1.830270 
# 
# From -- ./inp_files/20299.got.cif
#   From: 2010.05.17/outbox.cif.g08.bks.cpg/sg10_11_cif.got.tgz:20299.got - 2010.06.03 11:33:40.
