data_PCOD9150642
_publ_section_title
;
Structure prediction by ZEFSAII (Michael W. Deem and Ramdas Pophale) SiO2 
 PCOD9150642
Probable space group: P 2/M
;
_chemical_formula_sum "Si O2"
_cell_formula_units_Z 32
_cell_length_a 19.869752
_cell_length_b 15.185634
_cell_length_c 14.156968
_cell_angle_alpha 90.000000
_cell_angle_beta 158.248483
_cell_angle_gamma 90.000000
_cell_volume 1582.996594
_symmetry_space_group_name_H-M "P 2/M"
_symmetry_group_IT_number 10
_symmetry_cell_setting 'monoclinic'
loop_
_space_group_symop_operation_xyz
x,y,z
-x,y,-z
-x,-y,-z
x,-y,z
loop_
_atom_site_type_symbol
_atom_site_label
_atom_site_fract_x
_atom_site_fract_y
_atom_site_fract_z
Si Si1 0.434683 0.896867 0.651029
Si Si2 0.024573 0.851470 0.136549
Si Si3 0.662047 0.902584 0.137182
Si Si4 0.880831 0.345203 0.922661
Si Si5 0.514330 0.399738 0.404504
Si Si6 0.888440 0.399559 0.144507
Si Si7 0.224953 0.102507 0.011122
Si Si8 0.031447 0.763841 0.432034
O O1 0.243147 0.854130 0.432569
O O2 0.559212 0.873562 0.720783
O O3 0.388935 0.000000 0.581487
O O4 0.573237 0.887429 0.919270
O O5 0.000000 0.891308 0.000000
O O6 0.959909 0.750546 0.047199
O O7 0.888824 0.891368 0.038572
O O8 0.790082 0.823756 0.336140
O O9 0.754194 0.000000 0.256564
O O10 0.500000 0.907595 0.000000
O O11 0.684693 0.336531 0.617229
O O12 0.887298 0.395633 0.029494
O O13 0.000000 0.392086 0.000000
O O14 0.500000 0.402721 0.500000
O O15 0.557261 0.500000 0.430468
O O16 0.322769 0.374708 0.109059
O O17 0.922057 0.500000 0.219025
O O18 0.020171 0.326220 0.358409
O O19 0.212779 0.000000 0.965263
O O20 0.119970 0.171031 0.807935
O O21 0.000000 0.741588 0.500000
#
# Coordination Sequence:
#
# PCOD9150642 Si02
#       8
#     4   4   4   4   4   4   4   4
#     4  10  22  40  61  89 127 173 223 266 315 380
#     4  11  24  41  60  95 135 173 209 262 324 392
#     4  10  21  38  63  92 122 163 217 277 327 371
#     4  10  20  36  60  95 125 162 206 258 314 375
#     4   8  16  34  59  86 117 155 201 255 307 364
#     4  10  22  41  64  92 127 164 205 256 322 392
#     4  11  23  41  66  93 128 173 221 267 318 380
#     4  12  23  39  64  93 123 162 211 276 323 380
#
# _framework density 20.214825999999999
#
# number of rings (size 3 to 8) (size 9 to 14) (size 15 to 20)
#    0.000    1.750    2.500    2.625    0.000    6.250 
#    4.500    1.250    0.000    0.375    0.000    0.000 
#    0.000    0.000    0.000    0.000    0.000    0.000 
#
# Total GULP energy -178232.831026 kJ/mol
# GULP energy per Si atom -5569.775970 kJ/mol
# Density = 2.016882 g / cm^3
# Si number density = 20.214826 Si / 1000 Ang^3
#
#
#
# Elastic Constant Matrix: (Units=GPa)
#
#
# Indices 1 2 3 4 5 6 
#
# 1 102.9428 14.3254 26.6712 0.0000 13.4094 0.0000
# 2 14.3254 103.0639 62.6063 0.0000 8.3707 0.0000
# 3 26.6712 62.6063 94.7087 0.0000 21.6169 0.0000
# 4 0.0000 0.0000 0.0000 32.0576 0.0000 -3.7325
# 5 13.4094 8.3707 21.6169 0.0000 31.8325 0.0000
# 6 0.0000 0.0000 0.0000 -3.7325 0.0000 38.6783
#
#
#
# Elastic Compliance Matrix: (Units=1/GPa)
#
#
# Indices 1 2 3 4 5 6 
#
# 1 0.010708 0.000300 -0.002564 0.000000 -0.002849 0.000000
# 2 0.000300 0.016571 -0.011852 0.000000 0.003565 0.000000
# 3 -0.002564 -0.011852 0.021488 0.000000 -0.010396 0.000000
# 4 0.000000 0.000000 0.000000 0.031548 0.000000 0.003044
# 5 -0.002849 0.003565 -0.010396 0.000000 0.038736 0.000000
# 6 0.000000 0.000000 0.000000 0.003044 0.000000 0.026148
#
#
# Mechanical properties :
#
#
# Convention : Reuss Voigt Hill
#
# Bulk Modulus (GPa) = 48.69603 56.43568 52.56586
# Shear Modulus (GPa) = 27.73507 33.65453 30.69480
#
# Velocity S-wave (km/s) = 3.70809 4.08468 3.90093
# Velocity P-wave (km/s) = 6.51727 7.08694 6.80807
#
# Compressibility (1/GPa) = 0.02053555
#
# Stress axis : x y z
#
# Youngs Moduli (GPa) = 93.39126 60.34551 46.53660
#
# Poissons Ratio (x) = -0.01813 0.11931
# Poissons Ratio (y) = -0.02806 0.55157
# Poissons Ratio (z) = 0.23944 0.71524
#
# Static dielectric constant tensor:
#      x y z
#    x 1.788080 0.000000 0.030340 
#    y 0.000000 1.736430 0.000000 
#    z 0.030340 0.000000 1.760570 
# 
# From -- ./inp_files/70809.got.cif
#   From: 2010.05.17/outbox.cif.g08.bks.cpg/sg10_36_cif.got.tgz:70809.got - 2010.06.03 11:33:40.
