data_PCOD9150348
_publ_section_title
;
Structure prediction by ZEFSAII (Michael W. Deem and Ramdas Pophale) SiO2 
 PCOD9150348
Probable space group: P 2/M
;
_chemical_formula_sum "Si O2"
_cell_formula_units_Z 28
_cell_length_a 30.802490
_cell_length_b 7.610266
_cell_length_c 10.418004
_cell_angle_alpha 90.000000
_cell_angle_beta 146.164046
_cell_angle_gamma 90.000000
_cell_volume 1359.823800
_symmetry_space_group_name_H-M "P 2/M"
_symmetry_group_IT_number 10
_symmetry_cell_setting 'monoclinic'
loop_
_space_group_symop_operation_xyz
x,y,z
-x,y,-z
-x,-y,-z
x,-y,z
loop_
_atom_site_type_symbol
_atom_site_label
_atom_site_fract_x
_atom_site_fract_y
_atom_site_fract_z
Si Si1 0.754311 0.296529 0.132354
Si Si2 0.342233 0.702316 0.338895
Si Si3 0.247790 0.795010 0.351491
Si Si4 0.500166 0.712959 0.851992
Si Si5 0.085977 0.287799 0.059699
Si Si6 0.089325 0.285100 0.364769
Si Si7 0.327594 0.792906 0.808547
O O1 0.768078 0.500000 0.129155
O O2 0.839546 0.220646 0.373787
O O3 0.706959 0.291820 0.148935
O O4 0.702373 0.215646 0.891705
O O5 0.360167 0.500000 0.347347
O O6 0.284132 0.704974 0.317090
O O7 0.423988 0.778821 0.589456
O O8 0.155315 0.777079 0.140787
O O9 0.286373 0.724281 0.577639
O O10 0.268670 0.000000 0.392714
O O11 0.496731 0.500000 0.847331
O O12 0.500000 0.773692 0.000000
O O13 0.580538 0.765558 0.982889
O O14 0.087561 0.500000 0.061764
O O15 0.101224 0.232271 0.245075
O O16 0.997937 0.232049 0.810209
O O17 0.090931 0.500000 0.368561
O O18 0.310488 0.000000 0.775582
#
# Coordination Sequence:
#
# PCOD9150348 Si02
#       7
#     4   4   4   4   4   4   4
#     4  10  20  37  59  82 110 141 177 222 271 319
#     4  10  22  38  58  82 106 140 182 223 271 321
#     4  11  22  35  53  81 112 144 181 220 265 319
#     4  10  20  36  58  81 106 138 181 229 269 307
#     4   9  16  30  55  82 106 136 180 224 263 310
#     4   8  15  29  53  83 108 135 173 223 270 308
#     4  11  23  36  55  82 111 144 181 218 266 325
#
# _framework density 20.590900999999999
#
# number of rings (size 3 to 8) (size 9 to 14) (size 15 to 20)
#    0.000    2.143    2.857    1.714    0.000    3.143 
#    0.000    5.714    0.000    4.286    0.000    0.000 
#    0.000    0.000    0.000    0.000    0.000    0.000 
#
# Total GULP energy -156330.429484 kJ/mol
# GULP energy per Si atom -5583.229624 kJ/mol
# Density = 2.054404 g / cm^3
# Si number density = 20.590901 Si / 1000 Ang^3
#
#
#
# Elastic Constant Matrix: (Units=GPa)
#
#
# Indices 1 2 3 4 5 6 
#
# 1 71.7752 -15.2239 57.1853 0.0000 12.2696 0.0000
# 2 -15.2239 47.0505 3.3120 0.0000 -5.2833 0.0000
# 3 57.1853 3.3120 182.4607 0.0000 5.0103 0.0000
# 4 0.0000 0.0000 0.0000 16.6703 0.0000 23.7864
# 5 12.2696 -5.2833 5.0103 0.0000 37.9301 0.0000
# 6 0.0000 0.0000 0.0000 23.7864 0.0000 68.7234
#
#
#
# Elastic Compliance Matrix: (Units=1/GPa)
#
#
# Indices 1 2 3 4 5 6 
#
# 1 0.021681 0.006914 -0.006779 0.000000 -0.005155 0.000000
# 2 0.006914 0.023837 -0.002639 0.000000 0.001432 0.000000
# 3 -0.006779 -0.002639 0.007631 0.000000 0.000817 0.000000
# 4 0.000000 0.000000 0.000000 0.118520 0.000000 -0.041022
# 5 -0.005155 0.001432 0.000817 0.000000 0.028123 0.000000
# 6 0.000000 0.000000 0.000000 -0.041022 0.000000 0.028749
#
#
# Mechanical properties :
#
#
# Convention : Reuss Voigt Hill
#
# Bulk Modulus (GPa) = 20.77249 43.53703 32.15476
# Shear Modulus (GPa) = 20.03228 41.73227 30.88228
#
# Velocity S-wave (km/s) = 3.12247 4.50681 3.87693
# Velocity P-wave (km/s) = 4.80727 6.94777 5.97417
#
# Compressibility (1/GPa) = 0.04814059
#
# Stress axis : x y z
#
# Youngs Moduli (GPa) = 46.12320 41.95092 131.04924
#
# Poissons Ratio (x) = -0.29003 0.88839
# Poissons Ratio (y) = -0.31888 0.34582
# Poissons Ratio (z) = 0.31267 0.11070
#
# Static dielectric constant tensor:
#      x y z
#    x 1.677910 0.000000 0.004730 
#    y 0.000000 1.763810 0.000000 
#    z 0.004730 0.000000 1.765560 
# 
# From -- ./inp_files/37352.got.cif
#   From: 2010.05.17/outbox.cif.g08.bks.cpg/sg10_19_cif.got.tgz:37352.got - 2010.06.03 11:33:40.
