data_PCOD9150538
_publ_section_title
;
Structure prediction by ZEFSAII (Michael W. Deem and Ramdas Pophale) SiO2 
 PCOD9150538
Probable space group: P 2/M
;
_chemical_formula_sum "Si O2"
_cell_formula_units_Z 32
_cell_length_a 8.903618
_cell_length_b 23.779250
_cell_length_c 15.756893
_cell_angle_alpha 90.000000
_cell_angle_beta 152.731506
_cell_angle_gamma 90.000000
_cell_volume 1528.457026
_symmetry_space_group_name_H-M "P 2/M"
_symmetry_group_IT_number 10
_symmetry_cell_setting 'monoclinic'
loop_
_space_group_symop_operation_xyz
x,y,z
-x,y,-z
-x,-y,-z
x,-y,z
loop_
_atom_site_type_symbol
_atom_site_label
_atom_site_fract_x
_atom_site_fract_y
_atom_site_fract_z
Si Si1 0.089443 0.755705 0.404979
Si Si2 0.896111 0.131784 0.212108
Si Si3 0.181641 0.144392 0.009570
Si Si4 0.114359 0.341591 0.812148
Si Si5 0.227519 0.369021 0.180251
Si Si6 0.517289 0.744451 0.774963
Si Si7 0.748270 0.563874 0.544082
Si Si8 0.204026 0.936770 0.688913
O O1 0.386121 0.767717 0.618575
O O2 0.004550 0.811599 0.312016
O O3 0.108004 0.705363 0.346692
O O4 0.789210 0.738463 0.315832
O O5 0.981594 0.080720 0.317627
O O6 0.500000 0.133371 0.000000
O O7 0.013898 0.132080 0.174590
O O8 0.253160 0.210632 0.061545
O O9 0.522862 0.111143 0.180425
O O10 0.000000 0.122453 0.000000
O O11 0.976286 0.350611 0.837947
O O12 0.051901 0.398779 0.728113
O O13 0.500000 0.325884 0.000000
O O14 0.340830 0.315078 0.182263
O O15 0.543120 0.403513 0.369421
O O16 0.000000 0.402661 0.000000
O O17 0.500000 0.562397 0.500000
O O18 0.831277 0.500000 0.562938
O O19 0.000000 0.934603 0.500000
O O20 0.336863 0.000000 0.765146
#
# Coordination Sequence:
#
# PCOD9150538 Si02
#       8
#     4   4   4   4   4   4   4   4
#     4  11  21  36  59  86 122 161 204 254 309 372
#     4  10  20  36  59  88 122 161 206 249 309 372
#     4  11  24  38  57  93 128 161 204 256 317 370
#     4  11  23  38  62  92 122 164 212 255 315 379
#     4  11  23  39  60  91 124 162 210 255 319 381
#     4  11  22  37  58  84 127 162 197 257 313 375
#     4   9  20  42  64  87 123 164 211 261 313 375
#     4  10  21  42  68  88 117 165 218 261 307 374
#
# _framework density 20.936146000000001
#
# number of rings (size 3 to 8) (size 9 to 14) (size 15 to 20)
#    0.000    1.500    3.750    2.250    3.500    3.000 
#    0.000    1.875    0.000    6.750    0.000    0.000 
#    0.000    0.000    0.000    0.000    0.000    0.000 
#
# Total GULP energy -178598.345777 kJ/mol
# GULP energy per Si atom -5581.198306 kJ/mol
# Density = 2.088849 g / cm^3
# Si number density = 20.936146 Si / 1000 Ang^3
#
#
#
# Elastic Constant Matrix: (Units=GPa)
#
#
# Indices 1 2 3 4 5 6 
#
# 1 75.0089 8.9212 24.9011 0.0000 -30.8799 0.0000
# 2 8.9212 93.9891 11.7808 0.0000 -19.3721 0.0000
# 3 24.9011 11.7808 63.4799 0.0000 -37.2789 0.0000
# 4 0.0000 0.0000 0.0000 -184.7139 0.0000 8.9011
# 5 -30.8799 -19.3721 -37.2789 0.0000 36.9440 0.0000
# 6 0.0000 0.0000 0.0000 8.9011 0.0000 11.7262
#
#
#
# Elastic Compliance Matrix: (Units=1/GPa)
#
#
# Indices 1 2 3 4 5 6 
#
# 1 0.021434 0.002407 0.005910 0.000000 0.025141 0.000000
# 2 0.002407 0.012540 0.004348 0.000000 0.012975 0.000000
# 3 0.005910 0.004348 0.041401 0.000000 0.048996 0.000000
# 4 0.000000 0.000000 0.000000 -0.005223 0.000000 0.003964
# 5 0.025141 0.012975 0.048996 0.000000 0.104326 0.000000
# 6 0.000000 0.000000 0.000000 0.003964 0.000000 0.082270
#
#
# Mechanical properties :
#
#
# Convention : Reuss Voigt Hill
#
# Bulk Modulus (GPa) = 9.93004 35.96488 22.94746
# Shear Modulus (GPa) = 18.86880 -14.75043 2.05919
#
# Velocity S-wave (km/s) = 3.00535 -2.65720 0.99282
# Velocity P-wave (km/s) = 4.09831 2.79309 3.50696
#
# Compressibility (1/GPa) = 0.10070457
#
# Stress axis : x y z
#
# Youngs Moduli (GPa) = 46.65552 79.74252 24.15384
#
# Poissons Ratio (x) = -0.19191 -0.14274
# Poissons Ratio (y) = -0.11228 -0.10503
# Poissons Ratio (z) = -0.27572 -0.34675
#
# Static dielectric constant tensor:
#      x y z
#    x 1.852320 0.000000 0.013140 
#    y 0.000000 1.728480 0.000000 
#    z 0.013140 0.000000 1.812720 
# 
# From -- ./inp_files/62723.got.cif
#   From: 2010.05.17/outbox.cif.g08.bks.cpg/sg10_32_cif.got.tgz:62723.got - 2010.06.03 11:33:40.
