data_PCOD9150677
_publ_section_title
;
Structure prediction by ZEFSAII (Michael W. Deem and Ramdas Pophale) SiO2 
 PCOD9150677
Probable space group: P 2/M
;
_chemical_formula_sum "Si O2"
_cell_formula_units_Z 32
_cell_length_a 20.037932
_cell_length_b 8.768406
_cell_length_c 26.020576
_cell_angle_alpha 90.000000
_cell_angle_beta 159.545166
_cell_angle_gamma 90.000000
_cell_volume 1597.713798
_symmetry_space_group_name_H-M "P 2/M"
_symmetry_group_IT_number 10
_symmetry_cell_setting 'monoclinic'
loop_
_space_group_symop_operation_xyz
x,y,z
-x,y,-z
-x,-y,-z
x,-y,z
loop_
_atom_site_type_symbol
_atom_site_label
_atom_site_fract_x
_atom_site_fract_y
_atom_site_fract_z
Si Si1 0.405366 0.819637 0.686291
Si Si2 0.130108 0.680059 0.311023
Si Si3 0.225903 0.317819 0.658263
Si Si4 0.267907 0.320473 0.140511
Si Si5 0.037695 0.180545 0.351010
Si Si6 0.078781 0.820156 0.165878
Si Si7 0.696226 0.317348 0.170048
Si Si8 0.546035 0.820154 0.624034
O O1 0.321971 0.770998 0.680994
O O2 0.589914 0.724238 0.803306
O O3 0.239478 0.788152 0.524661
O O4 0.447883 0.000000 0.715794
O O5 0.112773 0.500000 0.292239
O O6 0.030782 0.733751 0.291868
O O7 0.049462 0.762762 0.202461
O O8 0.352078 0.727935 0.476690
O O9 0.245154 0.500000 0.662958
O O10 0.314014 0.279339 0.777160
O O11 0.000000 0.284749 0.500000
O O12 0.272906 0.500000 0.154412
O O13 0.348313 0.229843 0.247540
O O14 0.058538 0.267627 0.972415
O O15 0.871307 0.234811 0.268798
O O16 0.025595 0.000000 0.333566
O O17 0.299229 0.795496 0.309134
O O18 0.039695 0.000000 0.133497
O O19 0.729192 0.500000 0.190426
O O20 0.500000 0.280628 0.000000
O O21 0.498480 0.000000 0.592084
#
# Coordination Sequence:
#
# PCOD9150677 Si02
#       8
#     4   4   4   4   4   4   4   4
#     4  11  23  39  63  91 123 163 210 261 312 371
#     4  12  25  41  66  96 128 167 213 265 316 375
#     4  10  20  36  61  89 119 156 200 252 307 364
#     4  12  25  41  65  95 128 166 212 265 319 376
#     4  11  23  40  64  90 123 165 209 258 310 373
#     4  11  25  44  65  91 130 170 208 261 320 381
#     4  10  22  40  62  90 125 161 199 251 314 374
#     4  11  23  42  67  94 126 169 214 258 316 380
#
# _framework density 20.028618999999999
#
# number of rings (size 3 to 8) (size 9 to 14) (size 15 to 20)
#    0.000    1.000    2.500    4.500    0.000    8.000 
#    0.000    3.750    0.000    0.000    0.000    0.000 
#    0.000    0.000    0.000    0.000    0.000    0.000 
#
# Total GULP energy -179093.118151 kJ/mol
# GULP energy per Si atom -5596.659942 kJ/mol
# Density = 1.998303 g / cm^3
# Si number density = 20.028619 Si / 1000 Ang^3
#
#
#
# Elastic Constant Matrix: (Units=GPa)
#
#
# Indices 1 2 3 4 5 6 
#
# 1 74.0609 10.1918 -17.2068 0.0000 -8.3612 0.0000
# 2 10.1918 38.0876 -4.4314 0.0000 9.8844 0.0000
# 3 -17.2068 -4.4314 31.7722 0.0000 -9.0881 0.0000
# 4 0.0000 0.0000 0.0000 34.0981 0.0000 -0.9182
# 5 -8.3612 9.8844 -9.0881 0.0000 32.9142 0.0000
# 6 0.0000 0.0000 0.0000 -0.9182 0.0000 36.8092
#
#
#
# Elastic Compliance Matrix: (Units=1/GPa)
#
#
# Indices 1 2 3 4 5 6 
#
# 1 0.018148 -0.005995 0.011755 0.000000 0.009656 0.000000
# 2 -0.005995 0.030535 -0.002222 0.000000 -0.011306 0.000000
# 3 0.011755 -0.002222 0.041883 0.000000 0.015218 0.000000
# 4 0.000000 0.000000 0.000000 0.029347 0.000000 0.000732
# 5 0.009656 -0.011306 0.015218 0.000000 0.040432 0.000000
# 6 0.000000 0.000000 0.000000 0.000732 0.000000 0.027185
#
#
# Mechanical properties :
#
#
# Convention : Reuss Voigt Hill
#
# Bulk Modulus (GPa) = 10.24141 13.44755 11.84448
# Shear Modulus (GPa) = 23.47396 31.12209 27.29803
#
# Velocity S-wave (km/s) = 3.42719 3.94621 3.69582
# Velocity P-wave (km/s) = 4.55910 5.24329 4.91312
#
# Compressibility (1/GPa) = 0.09764282
#
# Stress axis : x y z
#
# Youngs Moduli (GPa) = 55.10109 32.74926 23.87608
#
# Poissons Ratio (x) = 0.19632 -0.28065
# Poissons Ratio (y) = 0.33031 0.05305
# Poissons Ratio (z) = -0.64769 0.07276
#
# Static dielectric constant tensor:
#      x y z
#    x 1.698060 0.000000 -0.000150 
#    y 0.000000 1.667440 0.000000 
#    z -0.000150 0.000000 1.688930 
# 
# From -- ./inp_files/93821.got.cif
#   From: 2010.05.17/outbox.cif.g08.bks.cpg/sg10_47_cif.got.tgz:93821.got - 2010.06.03 11:33:40.
