data_PCOD9150198
_publ_section_title
;
Structure prediction by ZEFSAII (Michael W. Deem and Ramdas Pophale) SiO2 
 PCOD9150198
Probable space group: P 2/M
;
_chemical_formula_sum "Si O2"
_cell_formula_units_Z 32
_cell_length_a 11.359569
_cell_length_b 13.028549
_cell_length_c 12.207216
_cell_angle_alpha 90.000000
_cell_angle_beta 114.045050
_cell_angle_gamma 90.000000
_cell_volume 1649.880546
_symmetry_space_group_name_H-M "P 2/M"
_symmetry_group_IT_number 10
_symmetry_cell_setting 'monoclinic'
loop_
_space_group_symop_operation_xyz
x,y,z
-x,y,-z
-x,-y,-z
x,-y,z
loop_
_atom_site_type_symbol
_atom_site_label
_atom_site_fract_x
_atom_site_fract_y
_atom_site_fract_z
Si Si1 0.487030 0.781049 0.745728
Si Si2 0.213450 0.683163 0.425761
Si Si3 0.366820 0.119451 0.017313
Si Si4 0.048437 0.381719 0.738671
Si Si5 0.127924 0.261861 0.984611
Si Si6 0.690923 0.615117 0.299295
Si Si7 0.695604 0.618225 0.770735
Si Si8 0.359816 0.884000 0.503420
O O1 0.582046 0.858011 0.841300
O O2 0.399654 0.703941 0.783528
O O3 0.572919 0.694792 0.717480
O O4 0.391470 0.849660 0.638555
O O5 0.278139 0.640557 0.561299
O O6 0.248794 0.620765 0.330378
O O7 0.263028 0.798447 0.423810
O O8 0.060319 0.676251 0.371858
O O9 0.233584 0.185081 0.967933
O O10 0.339916 0.000000 0.985050
O O11 0.500000 0.145601 0.000000
O O12 0.009325 0.500000 0.738229
O O13 0.178284 0.381475 0.718359
O O14 0.072749 0.330827 0.865237
O O15 0.208523 0.330442 0.103361
O O16 0.000000 0.218687 0.000000
O O17 0.637077 0.500000 0.271178
O O18 0.667783 0.500000 0.790425
O O19 0.500000 0.876317 0.500000
O O20 0.313593 0.000000 0.475825
#
# Coordination Sequence:
#
# PCOD9150198 Si02
#       8
#     4   4   4   4   4   4   4   4
#     4  10  20  36  57  84 113 145 184 236 283 341
#     4  11  21  35  55  83 113 147 189 233 280 338
#     4  10  22  41  63  85 112 151 195 241 292 341
#     4  11  22  38  58  80 114 155 192 227 276 342
#     4  11  23  38  59  87 117 151 194 239 284 338
#     4  10  21  35  56  84 114 152 188 228 280 339
#     4  11  21  34  55  86 119 151 184 230 286 343
#     4  10  20  36  55  79 109 142 184 229 282 336
#
# _framework density 19.395344000000001
#
# number of rings (size 3 to 8) (size 9 to 14) (size 15 to 20)
#    0.000    1.500    2.500    3.375    0.000    1.750 
#    0.000    2.500    0.000   12.750    0.000    0.000 
#    0.000    0.000    0.000    0.000    0.000    0.000 
#
# Total GULP energy -178250.797877 kJ/mol
# GULP energy per Si atom -5570.337434 kJ/mol
# Density = 1.935120 g / cm^3
# Si number density = 19.395344 Si / 1000 Ang^3
#
#
#
# Elastic Constant Matrix: (Units=GPa)
#
#
# Indices 1 2 3 4 5 6 
#
# 1 94.3770 42.4492 -5.0720 0.0000 -1.8331 0.0000
# 2 42.4492 117.1221 14.2026 0.0000 3.8481 0.0000
# 3 -5.0720 14.2026 36.6478 0.0000 5.5751 0.0000
# 4 0.0000 0.0000 0.0000 16.5792 0.0000 0.8013
# 5 -1.8331 3.8481 5.5751 0.0000 27.5631 0.0000
# 6 0.0000 0.0000 0.0000 0.8013 0.0000 33.2225
#
#
#
# Elastic Compliance Matrix: (Units=1/GPa)
#
#
# Indices 1 2 3 4 5 6 
#
# 1 0.013177 -0.005256 0.003731 0.000000 0.000856 0.000000
# 2 -0.005256 0.011064 -0.004877 0.000000 -0.000908 0.000000
# 3 0.003731 -0.004877 0.030490 0.000000 -0.005238 0.000000
# 4 0.000000 0.000000 0.000000 0.060387 0.000000 -0.001457
# 5 0.000856 -0.000908 -0.005238 0.000000 0.037524 0.000000
# 6 0.000000 0.000000 0.000000 -0.001457 0.000000 0.030135
#
#
# Mechanical properties :
#
#
# Convention : Reuss Voigt Hill
#
# Bulk Modulus (GPa) = 23.85184 39.03406 31.44295
# Shear Modulus (GPa) = 23.85966 28.57744 26.21855
#
# Velocity S-wave (km/s) = 3.51119 3.84268 3.68067
# Velocity P-wave (km/s) = 5.36305 6.31327 5.85746
#
# Compressibility (1/GPa) = 0.04192549
#
# Stress axis : x y z
#
# Youngs Moduli (GPa) = 75.88909 90.37960 32.79755
#
# Poissons Ratio (x) = 0.47507 -0.12235
# Poissons Ratio (y) = 0.39890 0.15996
# Poissons Ratio (z) = -0.28311 0.44081
#
# Static dielectric constant tensor:
#      x y z
#    x 1.766850 0.000000 -0.010820 
#    y 0.000000 1.664350 0.000000 
#    z -0.010820 0.000000 1.688510 
# 
# From -- ./inp_files/47032.got.cif
#   From: 2010.05.17/outbox.cif.g08.bks.cpg/sg10_24_cif.got.tgz:47032.got - 2010.06.03 11:33:40.
