data_PCOD9150076
_publ_section_title
;
Structure prediction by ZEFSAII (Michael W. Deem and Ramdas Pophale) SiO2 
 PCOD9150076
Probable space group: P 2/M
;
_chemical_formula_sum "Si O2"
_cell_formula_units_Z 32
_cell_length_a 22.029114
_cell_length_b 17.916854
_cell_length_c 11.072881
_cell_angle_alpha 90.000000
_cell_angle_beta 23.231632
_cell_angle_gamma 90.000000
_cell_volume 1723.894144
_symmetry_space_group_name_H-M "P 2/M"
_symmetry_group_IT_number 10
_symmetry_cell_setting 'monoclinic'
loop_
_space_group_symop_operation_xyz
x,y,z
-x,y,-z
-x,-y,-z
x,-y,z
loop_
_atom_site_type_symbol
_atom_site_label
_atom_site_fract_x
_atom_site_fract_y
_atom_site_fract_z
Si Si1 0.652552 0.633149 0.647187
Si Si2 0.677805 0.720203 0.198711
Si Si3 0.949910 0.086306 0.450672
Si Si4 0.927601 0.680451 0.301599
Si Si5 0.849547 0.184095 0.089342
Si Si6 0.426000 0.194834 0.257498
Si Si7 0.729584 0.776873 0.846132
Si Si8 0.222695 0.586650 0.835856
O O1 0.818339 0.633860 0.410984
O O2 0.626116 0.721315 0.678560
O O3 0.678257 0.597571 0.468693
O O4 0.500000 0.605790 0.000000
O O5 0.500000 0.735696 0.500000
O O6 0.750708 0.768258 0.173033
O O7 0.701327 0.635231 0.196817
O O8 0.754399 0.744072 0.933672
O O9 0.810764 0.143427 0.689798
O O10 0.000000 0.091919 0.500000
O O11 0.915540 0.000000 0.489272
O O12 0.072808 0.118844 0.130291
O O13 0.808339 0.716837 0.614033
O O14 0.027596 0.755037 0.083732
O O15 0.056054 0.624427 0.117779
O O16 0.727440 0.156599 0.411502
O O17 0.500000 0.162215 0.000000
O O18 0.556603 0.207516 0.119240
O O19 0.210021 0.500000 0.886744
#
# Coordination Sequence:
#
# PCOD9150076 Si02
#       8
#     4   4   4   4   4   4   4   4
#     4  11  20  36  59  88 111 145 203 256 291 340
#     4  11  20  36  62  87 114 150 194 246 301 352
#     4  10  21  37  59  92 129 161 192 233 295 361
#     4  10  21  34  59  85 114 151 197 245 298 339
#     4  10  20  35  58  92 119 153 195 249 291 346
#     4  11  20  35  60  93 112 146 205 257 289 337
#     4  11  20  36  62  89 119 150 193 251 293 344
#     4  11  25  40  55  82 121 159 193 240 304 366
#
# _framework density 18.562622999999999
#
# number of rings (size 3 to 8) (size 9 to 14) (size 15 to 20)
#    0.000    1.375    7.500    0.375    0.000    1.500 
#    0.000    1.875    0.000    4.500    0.000    0.000 
#    0.000    0.000    0.000    0.000    0.000    0.000 
#
# Total GULP energy -178368.177422 kJ/mol
# GULP energy per Si atom -5574.005544 kJ/mol
# Density = 1.852037 g / cm^3
# Si number density = 18.562623 Si / 1000 Ang^3
#
#
#
# Elastic Constant Matrix: (Units=GPa)
#
#
# Indices 1 2 3 4 5 6 
#
# 1 66.7248 15.3443 26.2290 0.0000 4.2880 0.0000
# 2 15.3443 55.5682 14.5139 0.0000 28.4982 0.0000
# 3 26.2290 14.5139 97.2610 0.0000 16.1130 0.0000
# 4 0.0000 0.0000 0.0000 9.9530 0.0000 4.7432
# 5 4.2880 28.4982 16.1130 0.0000 24.0085 0.0000
# 6 0.0000 0.0000 0.0000 4.7432 0.0000 13.1322
#
#
#
# Elastic Compliance Matrix: (Units=1/GPa)
#
#
# Indices 1 2 3 4 5 6 
#
# 1 0.018692 -0.010001 -0.005583 0.000000 0.012279 0.000000
# 2 -0.010001 0.051874 0.005469 0.000000 -0.063459 0.000000
# 3 -0.005583 0.005469 0.013368 0.000000 -0.014466 0.000000
# 4 0.000000 0.000000 0.000000 0.121363 0.000000 -0.043835
# 5 0.012279 -0.063459 -0.014466 0.000000 0.124494 0.000000
# 6 0.000000 0.000000 0.000000 -0.043835 0.000000 0.091982
#
#
# Mechanical properties :
#
#
# Convention : Reuss Voigt Hill
#
# Bulk Modulus (GPa) = 15.69735 36.85870 26.27803
# Shear Modulus (GPa) = 10.79361 20.31652 15.55507
#
# Velocity S-wave (km/s) = 2.41398 3.31189 2.89792
# Velocity P-wave (km/s) = 4.03045 5.87574 5.03830
#
# Compressibility (1/GPa) = 0.06370500
#
# Stress axis : x y z
#
# Youngs Moduli (GPa) = 53.49832 19.27739 74.80775
#
# Poissons Ratio (x) = 0.19279 0.41763
# Poissons Ratio (y) = 0.53503 -0.40914
# Poissons Ratio (z) = 0.29867 -0.10543
#
# Static dielectric constant tensor:
#      x y z
#    x 1.686300 0.000000 0.025960 
#    y 0.000000 1.589440 0.000000 
#    z 0.025960 0.000000 1.710210 
# 
# From -- ./inp_files/57084.got.cif
#   From: 2010.05.17/outbox.cif.g08.bks.cpg/sg10_29_cif.got.tgz:57084.got - 2010.06.03 11:33:40.
