data_PCOD9150865
_publ_section_title
;
Structure prediction by ZEFSAII (Michael W. Deem and Ramdas Pophale) SiO2 
 PCOD9150865
Probable space group: P 2/M
;
_chemical_formula_sum "Si O2"
_cell_formula_units_Z 28
_cell_length_a 10.495471
_cell_length_b 7.808552
_cell_length_c 28.606391
_cell_angle_alpha 90.000000
_cell_angle_beta 35.053569
_cell_angle_gamma 90.000000
_cell_volume 1346.499290
_symmetry_space_group_name_H-M "P 2/M"
_symmetry_group_IT_number 10
_symmetry_cell_setting 'monoclinic'
loop_
_space_group_symop_operation_xyz
x,y,z
-x,y,-z
-x,-y,-z
x,-y,z
loop_
_atom_site_type_symbol
_atom_site_label
_atom_site_fract_x
_atom_site_fract_y
_atom_site_fract_z
Si Si1 0.098708 0.797769 0.343262
Si Si2 0.389919 0.298116 0.485908
Si Si3 0.983342 0.793642 0.058084
Si Si4 0.135851 0.292470 0.223417
Si Si5 0.676897 0.292587 0.313428
Si Si6 0.548392 0.293646 0.037903
Si Si7 0.436583 0.796213 0.758011
O O1 0.112559 0.769055 0.283449
O O2 0.323438 0.727022 0.298997
O O3 0.872775 0.720485 0.431222
O O4 0.085140 0.000000 0.356329
O O5 0.500000 0.223469 0.500000
O O6 0.444902 0.500000 0.469314
O O7 0.501994 0.230392 0.405080
O O8 0.765370 0.726762 0.149994
O O9 0.966695 0.000000 0.061148
O O10 0.206759 0.751660 0.018725
O O11 0.000000 0.729146 0.000000
O O12 0.136998 0.500000 0.224641
O O13 0.360774 0.232651 0.130643
O O14 0.921337 0.240422 0.257599
O O15 0.674082 0.500000 0.312498
O O16 0.617619 0.230825 0.279810
O O17 0.531777 0.500000 0.041807
O O18 0.500000 0.230519 0.000000
O O19 0.445926 0.000000 0.763974
#
# Coordination Sequence:
#
# PCOD9150865 Si02
#       7
#     4   4   4   4   4   4   4
#     4  11  23  38  59  86 116 150 191 234 280 336
#     4  10  20  39  63  86 115 148 188 234 283 338
#     4  10  21  39  60  80 112 156 197 235 281 338
#     4  10  20  37  59  84 114 149 190 237 287 337
#     4  10  21  38  62  86 112 151 191 233 283 341
#     4  10  21  36  57  85 115 146 187 240 290 337
#     4  10  23  40  56  82 119 155 189 234 287 337
#
# _framework density 20.794664999999998
#
# number of rings (size 3 to 8) (size 9 to 14) (size 15 to 20)
#    0.000    1.857    1.429    2.143    0.000    7.143 
#    0.000    2.857    0.000    0.000    0.000    0.000 
#    0.000    0.000    0.000    0.000    0.000    0.000 
#
# Total GULP energy -156479.493081 kJ/mol
# GULP energy per Si atom -5588.553324 kJ/mol
# Density = 2.074734 g / cm^3
# Si number density = 20.794665 Si / 1000 Ang^3
#
#
#
# Elastic Constant Matrix: (Units=GPa)
#
#
# Indices 1 2 3 4 5 6 
#
# 1 129.8093 -16.8397 46.6646 0.0000 -12.1668 0.0000
# 2 -16.8397 16.6451 -10.3796 0.0000 3.2568 0.0000
# 3 46.6646 -10.3796 142.1067 0.0000 -9.1180 0.0000
# 4 0.0000 0.0000 0.0000 18.1701 0.0000 -0.4723
# 5 -12.1668 3.2568 -9.1180 0.0000 38.6774 0.0000
# 6 0.0000 0.0000 0.0000 -0.4723 0.0000 30.8603
#
#
#
# Elastic Compliance Matrix: (Units=1/GPa)
#
#
# Indices 1 2 3 4 5 6 
#
# 1 0.009820 0.008005 -0.002523 0.000000 0.001820 0.000000
# 2 0.008005 0.070176 0.002315 0.000000 -0.002845 0.000000
# 3 -0.002523 0.002315 0.008094 0.000000 0.000919 0.000000
# 4 0.000000 0.000000 0.000000 0.055057 0.000000 0.000843
# 5 0.001820 -0.002845 0.000919 0.000000 0.026884 0.000000
# 6 0.000000 0.000000 0.000000 0.000843 0.000000 0.032417
#
#
# Mechanical properties :
#
#
# Convention : Reuss Voigt Hill
#
# Bulk Modulus (GPa) = 9.64483 36.38353 23.01418
# Shear Modulus (GPa) = 22.58196 35.48260 29.03228
#
# Velocity S-wave (km/s) = 3.29895 4.13526 3.74055
# Velocity P-wave (km/s) = 4.37709 6.35099 5.45408
#
# Compressibility (1/GPa) = 0.10368252
#
# Stress axis : x y z
#
# Youngs Moduli (GPa) = 101.83632 14.24980 123.55533
#
# Poissons Ratio (x) = -0.11407 0.31174
# Poissons Ratio (y) = -0.81520 -0.28597
# Poissons Ratio (z) = 0.25694 -0.03298
#
# Static dielectric constant tensor:
#      x y z
#    x 1.690060 0.000000 -0.004950 
#    y 0.000000 1.781370 0.000000 
#    z -0.004950 0.000000 1.729630 
# 
# From -- ./inp_files/70264.got.cif
#   From: 2010.05.17/outbox.cif.g08.bks.cpg/sg10_36_cif.got.tgz:70264.got - 2010.06.03 11:33:40.
