data_PCOD9150641
_publ_section_title
;
Structure prediction by ZEFSAII (Michael W. Deem and Ramdas Pophale) SiO2 
 PCOD9150641
Probable space group: P 2/M
;
_chemical_formula_sum "Si O2"
_cell_formula_units_Z 20
_cell_length_a 16.872158
_cell_length_b 7.673235
_cell_length_c 24.495905
_cell_angle_alpha 90.000000
_cell_angle_beta 19.217596
_cell_angle_gamma 90.000000
_cell_volume 1043.867231
_symmetry_space_group_name_H-M "P 2/M"
_symmetry_group_IT_number 10
_symmetry_cell_setting 'monoclinic'
loop_
_space_group_symop_operation_xyz
x,y,z
-x,y,-z
-x,-y,-z
x,-y,z
loop_
_atom_site_type_symbol
_atom_site_label
_atom_site_fract_x
_atom_site_fract_y
_atom_site_fract_z
Si Si1 0.771204 0.000000 0.803410
Si Si2 0.343779 0.701107 0.937824
Si Si3 0.733034 0.000000 0.698697
Si Si4 0.010382 0.799715 0.054153
Si Si5 0.970327 0.294649 0.748962
Si Si6 0.484592 0.291552 0.572142
O O1 0.887008 0.171263 0.754702
O O2 0.771825 0.000000 0.738349
O O3 0.500000 0.000000 0.000000
O O4 0.419773 0.500000 0.894781
O O5 0.567976 0.832887 0.790526
O O6 0.175107 0.746175 0.100211
O O7 0.181770 0.715962 0.988497
O O8 0.000000 0.000000 0.500000
O O9 0.738497 0.793675 0.252839
O O10 0.093070 0.000000 0.995360
O O11 0.000000 0.721589 0.000000
O O12 0.932083 0.500000 0.762944
O O13 0.253565 0.264197 0.573142
O O14 0.500000 0.230602 0.500000
O O15 0.436847 0.500000 0.602533
#
# Coordination Sequence:
#
# PCOD9150641 Si02
#       6
#     2   4   2   4   4   4
#     4  12  24  42  68  93 120 169 215 267 335 367
#     4  11  22  43  71  94 126 172 213 261 327 383
#     4  12  28  48  66  94 132 161 216 281 320 382
#     4  11  24  39  61  95 136 175 209 253 307 381
#     4  10  22  39  66 101 131 161 217 271 311 380
#     4  10  20  36  60  94 128 165 209 255 306 372
#
# _framework density 19.159524999999999
#
# number of rings (size 3 to 8) (size 9 to 14) (size 15 to 20)
#    0.000    1.200    5.000    0.600    1.400    5.200 
#    0.000    2.000    0.000    0.000    0.000    0.000 
#    0.000    0.000    0.000    0.000    0.000    0.000 
#
# Total GULP energy -111734.084055 kJ/mol
# GULP energy per Si atom -5586.704203 kJ/mol
# Density = 1.911592 g / cm^3
# Si number density = 19.159525 Si / 1000 Ang^3
#
#
#
# Elastic Constant Matrix: (Units=GPa)
#
#
# Indices 1 2 3 4 5 6 
#
# 1 138.8214 46.6429 69.2606 0.0000 2.8346 0.0000
# 2 46.6429 82.6350 59.2923 0.0000 -19.9651 0.0000
# 3 69.2606 59.2923 124.5403 0.0000 3.5907 0.0000
# 4 0.0000 0.0000 0.0000 30.0934 0.0000 -5.3728
# 5 2.8346 -19.9651 3.5907 0.0000 27.9046 0.0000
# 6 0.0000 0.0000 0.0000 -5.3728 0.0000 51.2683
#
#
#
# Elastic Compliance Matrix: (Units=1/GPa)
#
#
# Indices 1 2 3 4 5 6 
#
# 1 0.010547 -0.004027 -0.003849 0.000000 -0.003458 0.000000
# 2 -0.004027 0.028199 -0.011823 0.000000 0.022106 0.000000
# 3 -0.003849 -0.011823 0.016091 0.000000 -0.010138 0.000000
# 4 0.000000 0.000000 0.000000 0.033863 0.000000 0.003549
# 5 -0.003458 0.022106 -0.010138 0.000000 0.053308 0.000000
# 6 0.000000 0.000000 0.000000 0.003549 0.000000 0.019877
#
#
# Mechanical properties :
#
#
# Convention : Reuss Voigt Hill
#
# Bulk Modulus (GPa) = 64.76900 77.37647 71.07274
# Shear Modulus (GPa) = 24.22134 33.24000 28.73067
#
# Velocity S-wave (km/s) = 3.55941 4.16974 3.87660
# Velocity P-wave (km/s) = 7.12538 7.97843 7.56394
#
# Compressibility (1/GPa) = 0.01543949
#
# Stress axis : x y z
#
# Youngs Moduli (GPa) = 94.80977 35.46286 62.14715
#
# Poissons Ratio (x) = 0.14282 0.23919
# Poissons Ratio (y) = 0.38183 0.73474
# Poissons Ratio (z) = 0.36489 0.41926
#
# Static dielectric constant tensor:
#      x y z
#    x 1.652650 0.000000 -0.002750 
#    y 0.000000 1.689490 0.000000 
#    z -0.002750 0.000000 1.711660 
# 
# From -- ./inp_files/89318.got.cif
#   From: 2010.05.17/outbox.cif.g08.bks.cpg/sg10_45_cif.got.tgz:89318.got - 2010.06.03 11:33:40.
