data_PCOD9150382
_publ_section_title
;
Structure prediction by ZEFSAII (Michael W. Deem and Ramdas Pophale) SiO2 
 PCOD9150382
Probable space group: P 2/M
;
_chemical_formula_sum "Si O2"
_cell_formula_units_Z 32
_cell_length_a 20.281200
_cell_length_b 9.504409
_cell_length_c 20.688795
_cell_angle_alpha 90.000000
_cell_angle_beta 22.714332
_cell_angle_gamma 90.000000
_cell_volume 1539.909322
_symmetry_space_group_name_H-M "P 2/M"
_symmetry_group_IT_number 10
_symmetry_cell_setting 'monoclinic'
loop_
_space_group_symop_operation_xyz
x,y,z
-x,y,-z
-x,-y,-z
x,-y,z
loop_
_atom_site_type_symbol
_atom_site_label
_atom_site_fract_x
_atom_site_fract_y
_atom_site_fract_z
Si Si1 0.432674 0.330385 0.350198
Si Si2 0.604385 0.670851 0.468535
Si Si3 0.085772 0.833430 0.638525
Si Si4 0.486879 0.656484 0.091056
Si Si5 0.978615 0.669819 0.091809
Si Si6 0.810707 0.668609 0.975443
Si Si7 0.817429 0.158021 0.649977
Si Si8 0.784469 0.847310 0.828993
O O1 0.404481 0.500000 0.372263
O O2 0.457324 0.292344 0.404011
O O3 0.609684 0.298245 0.153712
O O4 0.263968 0.248252 0.479905
O O5 0.500000 0.720031 0.500000
O O6 0.599951 0.500000 0.470401
O O7 0.800085 0.717909 0.283698
O O8 0.983260 0.821864 0.663349
O O9 0.108230 0.000000 0.632377
O O10 0.944000 0.759335 0.812960
O O11 0.463343 0.500000 0.136749
O O12 0.325352 0.751471 0.255211
O O13 0.500000 0.648710 0.000000
O O14 0.659584 0.723704 0.962085
O O15 0.966066 0.500000 0.098354
O O16 0.000000 0.724823 0.000000
O O17 0.131381 0.696253 0.002818
O O18 0.834553 0.500000 0.941505
O O19 0.750719 0.140448 0.783638
O O20 0.000000 0.227125 0.500000
O O21 0.840148 0.000000 0.602830
O O22 0.741784 0.000000 0.897454
#
# Coordination Sequence:
#
# PCOD9150382 Si02
#       8
#     4   4   4   4   4   4   4   4
#     4  10  20  36  58  83 111 144 185 236 290 341
#     4   9  15  25  46  79 111 136 172 227 286 337
#     4  11  23  39  58  79 112 155 195 232 274 333
#     4   9  17  30  51  78 106 135 166 209 265 316
#     4   9  15  25  46  79 111 136 173 230 287 337
#     4  10  20  36  58  83 111 144 187 236 288 341
#     4   9  17  32  55  80 108 140 176 220 266 315
#     4   9  19  36  55  76 102 141 186 220 257 317
#
# _framework density 20.780445
#
# number of rings (size 3 to 8) (size 9 to 14) (size 15 to 20)
#    0.000    2.500    1.250    1.500    0.000    6.250 
#    2.250    0.000    0.000    0.750    0.000    0.000 
#    0.000    0.000    0.000    0.000    0.000    0.000 
#
# Total GULP energy -178363.208883 kJ/mol
# GULP energy per Si atom -5573.850278 kJ/mol
# Density = 2.073315 g / cm^3
# Si number density = 20.780445 Si / 1000 Ang^3
#
#
#
# Elastic Constant Matrix: (Units=GPa)
#
#
# Indices 1 2 3 4 5 6 
#
# 1 69.9357 33.2591 33.1301 0.0000 -13.0302 0.0000
# 2 33.2591 70.2197 51.5519 0.0000 -25.6455 0.0000
# 3 33.1301 51.5519 122.8041 0.0000 -28.3239 0.0000
# 4 0.0000 0.0000 0.0000 25.2137 0.0000 -3.7295
# 5 -13.0302 -25.6455 -28.3239 0.0000 45.1917 0.0000
# 6 0.0000 0.0000 0.0000 -3.7295 0.0000 23.0704
#
#
#
# Elastic Compliance Matrix: (Units=1/GPa)
#
#
# Indices 1 2 3 4 5 6 
#
# 1 0.018766 -0.007489 -0.001930 0.000000 -0.000049 0.000000
# 2 -0.007489 0.025880 -0.006961 0.000000 0.008165 0.000000
# 3 -0.001930 -0.006961 0.012329 0.000000 0.003220 0.000000
# 4 0.000000 0.000000 0.000000 0.040633 0.000000 0.006569
# 5 -0.000049 0.008165 0.003220 0.000000 0.028765 0.000000
# 6 0.000000 0.000000 0.000000 0.006569 0.000000 0.044407
#
#
# Mechanical properties :
#
#
# Convention : Reuss Voigt Hill
#
# Bulk Modulus (GPa) = 41.29728 55.42683 48.36205
# Shear Modulus (GPa) = 23.62823 28.36305 25.99564
#
# Velocity S-wave (km/s) = 3.37566 3.69845 3.54074
# Velocity P-wave (km/s) = 5.92535 6.70586 6.32765
#
# Compressibility (1/GPa) = 0.02421467
#
# Stress axis : x y z
#
# Youngs Moduli (GPa) = 53.28898 38.63942 81.11280
#
# Poissons Ratio (x) = 0.28938 0.15655
# Poissons Ratio (y) = 0.39909 0.56461
# Poissons Ratio (z) = 0.10285 0.26896
#
# Static dielectric constant tensor:
#      x y z
#    x 1.820580 0.000000 0.045040 
#    y 0.000000 1.729680 0.000000 
#    z 0.045040 0.000000 1.759480 
# 
# From -- ./inp_files/90629.got.cif
#   From: 2010.05.17/outbox.cif.g08.bks.cpg/sg10_46_cif.got.tgz:90629.got - 2010.06.03 11:33:40.
