data_PCOD9150812
_publ_section_title
;
Structure prediction by ZEFSAII (Michael W. Deem and Ramdas Pophale) SiO2 
 PCOD9150812
Probable space group: P 2/M
;
_chemical_formula_sum "Si O2"
_cell_formula_units_Z 32
_cell_length_a 23.116365
_cell_length_b 8.756054
_cell_length_c 28.912483
_cell_angle_alpha 90.000000
_cell_angle_beta 161.818236
_cell_angle_gamma 90.000000
_cell_volume 1826.052507
_symmetry_space_group_name_H-M "P 2/M"
_symmetry_group_IT_number 10
_symmetry_cell_setting 'monoclinic'
loop_
_space_group_symop_operation_xyz
x,y,z
-x,y,-z
-x,-y,-z
x,-y,z
loop_
_atom_site_type_symbol
_atom_site_label
_atom_site_fract_x
_atom_site_fract_y
_atom_site_fract_z
Si Si1 0.291652 0.817942 0.473206
Si Si2 0.984019 0.315852 0.416953
Si Si3 0.020011 0.182812 0.837761
Si Si4 0.010351 0.684371 0.083533
Si Si5 0.301220 0.683723 0.227429
Si Si6 0.304285 0.316929 0.983235
Si Si7 0.990594 0.316598 0.670976
Si Si8 0.712459 0.817311 0.284254
O O1 0.159277 0.774570 0.329448
O O2 0.496506 0.753226 0.622989
O O3 0.187260 0.755441 0.439230
O O4 0.298870 0.000000 0.480940
O O5 0.980990 0.500000 0.418517
O O6 0.987766 0.272889 0.365960
O O7 0.163261 0.251431 0.579833
O O8 0.808363 0.247429 0.310652
O O9 0.996335 0.239035 0.871853
O O10 0.195206 0.260493 0.945795
O O11 0.040961 0.000000 0.852008
O O12 0.011909 0.500000 0.089660
O O13 0.189657 0.728261 0.189122
O O14 0.831454 0.725178 0.916464
O O15 0.315097 0.500000 0.238217
O O16 0.325293 0.500000 0.000221
O O17 0.169896 0.275440 0.838075
O O18 0.502672 0.238751 0.129245
O O19 0.972022 0.500000 0.658921
O O20 0.724340 0.000000 0.293874
#
# Coordination Sequence:
#
# PCOD9150812 Si02
#       8
#     4   4   4   4   4   4   4   4
#     4  10  21  35  53  78 109 140 172 212 263 315
#     4  10  20  37  58  80 106 139 178 220 262 308
#     4  10  21  36  53  78 109 139 172 215 262 313
#     4   9  19  36  56  78 103 137 177 219 261 307
#     4   9  19  36  56  77 104 136 177 220 259 307
#     4  10  20  37  58  79 104 138 178 219 260 309
#     4   9  20  37  58  80 103 135 178 221 261 307
#     4  11  22  36  54  80 111 142 175 214 261 314
#
# _framework density 17.524139999999999
#
# number of rings (size 3 to 8) (size 9 to 14) (size 15 to 20)
#    0.000    2.250    0.000    4.125    0.000    6.000 
#    0.000    7.500    0.000    0.000    0.000    0.000 
#    0.000    0.000    0.000    0.000    0.000    0.000 
#
# Total GULP energy -178639.261519 kJ/mol
# GULP energy per Si atom -5582.476922 kJ/mol
# Density = 1.748425 g / cm^3
# Si number density = 17.524140 Si / 1000 Ang^3
#
#
#
# Elastic Constant Matrix: (Units=GPa)
#
#
# Indices 1 2 3 4 5 6 
#
# 1 198.8920 65.1300 108.1975 0.0000 2.7188 0.0000
# 2 65.1300 63.4779 54.8241 0.0000 7.1788 0.0000
# 3 108.1975 54.8241 144.6230 0.0000 35.2059 0.0000
# 4 0.0000 0.0000 0.0000 8.5727 0.0000 -38.0554
# 5 2.7188 7.1788 35.2059 0.0000 21.3207 0.0000
# 6 0.0000 0.0000 0.0000 -38.0554 0.0000 -66.6009
#
#
#
# Elastic Compliance Matrix: (Units=1/GPa)
#
#
# Indices 1 2 3 4 5 6 
#
# 1 0.014258 -0.004556 -0.014833 0.000000 0.024209 0.000000
# 2 -0.004556 0.026637 -0.007771 0.000000 0.004444 0.000000
# 3 -0.014833 -0.007771 0.033209 0.000000 -0.050329 0.000000
# 4 0.000000 0.000000 0.000000 0.032984 0.000000 -0.018847
# 5 0.024209 0.004444 -0.050329 0.000000 0.125426 0.000000
# 6 0.000000 0.000000 0.000000 -0.018847 0.000000 -0.004246
#
#
# Mechanical properties :
#
#
# Convention : Reuss Voigt Hill
#
# Bulk Modulus (GPa) = 50.54529 95.92179 73.23354
# Shear Modulus (GPa) = 17.28997 4.58124 10.93560
#
# Velocity S-wave (km/s) = 3.14449 1.61862 2.50077
# Velocity P-wave (km/s) = 6.48765 7.63865 7.08656
#
# Compressibility (1/GPa) = 0.01978424
#
# Stress axis : x y z
#
# Youngs Moduli (GPa) = 70.13508 37.54166 30.11192
#
# Poissons Ratio (x) = 0.17104 0.44666
# Poissons Ratio (y) = 0.31954 0.23400
# Poissons Ratio (z) = 1.04033 0.29173
#
# Static dielectric constant tensor:
#      x y z
#    x 1.574570 0.000000 -0.008870 
#    y 0.000000 1.584610 0.000000 
#    z -0.008870 0.000000 1.575430 
# 
# From -- ./inp_files/93702.got.cif
#   From: 2010.05.17/outbox.cif.g08.bks.cpg/sg10_47_cif.got.tgz:93702.got - 2010.06.03 11:33:40.
