data_PCOD9150726
_publ_section_title
;
Structure prediction by ZEFSAII (Michael W. Deem and Ramdas Pophale) SiO2 
 PCOD9150726
Probable space group: P 2/M
;
_chemical_formula_sum "Si O2"
_cell_formula_units_Z 22
_cell_length_a 10.091520
_cell_length_b 12.387018
_cell_length_c 19.747914
_cell_angle_alpha 90.000000
_cell_angle_beta 27.217056
_cell_angle_gamma 90.000000
_cell_volume 1129.029519
_symmetry_space_group_name_H-M "P 2/M"
_symmetry_group_IT_number 10
_symmetry_cell_setting 'monoclinic'
loop_
_space_group_symop_operation_xyz
x,y,z
-x,y,-z
-x,-y,-z
x,-y,z
loop_
_atom_site_type_symbol
_atom_site_label
_atom_site_fract_x
_atom_site_fract_y
_atom_site_fract_z
Si Si1 0.499291 0.161089 0.144908
Si Si2 0.686808 0.794341 0.625197
Si Si3 0.896609 0.000000 0.754763
Si Si4 0.393726 0.623102 0.971383
Si Si5 0.949616 0.000000 0.888364
Si Si6 0.175593 0.625694 0.849813
Si Si7 0.365209 0.000000 0.440139
O O1 0.429629 0.146680 0.254583
O O2 0.270256 0.100462 0.202005
O O3 0.479772 0.286152 0.134836
O O4 0.807166 0.104985 0.988056
O O5 0.443694 0.706000 0.718071
O O6 0.000000 0.744486 0.500000
O O7 0.737371 0.888999 0.548142
O O8 0.224208 0.000000 0.578623
O O9 0.857732 0.000000 0.851945
O O10 0.476376 0.500000 0.916795
O O11 0.050871 0.632084 0.109982
O O12 0.500000 0.643356 0.000000
O O13 0.292500 0.000000 0.728248
O O14 0.265547 0.500000 0.815478
O O15 0.000000 0.651775 0.000000
#
# Coordination Sequence:
#
# PCOD9150726 Si02
#       7
#     4   4   2   4   2   4   2
#     4  11  21  38  61  88 116 157 208 251 300 361
#     4  12  24  39  60  87 126 165 201 254 313 362
#     4  11  22  41  57  81 126 162 196 247 306 365
#     4  10  20  36  62  94 123 152 195 256 312 358
#     4  11  24  36  61  88 113 160 208 252 300 366
#     4  10  21  39  63  91 122 157 207 259 299 357
#     4  12  24  38  58  87 124 159 198 250 310 369
#
# _framework density 19.485761
#
# number of rings (size 3 to 8) (size 9 to 14) (size 15 to 20)
#    0.000    1.091    3.636    4.909    0.000    1.091 
#    0.000    0.000    0.000    0.000    0.000    3.818 
#    0.000    0.000    0.000    0.000    0.000    0.000 
#
# Total GULP energy -122798.057216 kJ/mol
# GULP energy per Si atom -5581.729873 kJ/mol
# Density = 1.944141 g / cm^3
# Si number density = 19.485761 Si / 1000 Ang^3
#
#
#
# Elastic Constant Matrix: (Units=GPa)
#
#
# Indices 1 2 3 4 5 6 
#
# 1 58.9036 5.1236 12.5054 0.0000 -17.1175 0.0000
# 2 5.1236 81.2463 18.3641 0.0000 -11.0924 0.0000
# 3 12.5054 18.3641 97.6394 0.0000 -13.3035 0.0000
# 4 0.0000 0.0000 0.0000 10.2379 0.0000 -6.4552
# 5 -17.1175 -11.0924 -13.3035 0.0000 37.1200 0.0000
# 6 0.0000 0.0000 0.0000 -6.4552 0.0000 18.3427
#
#
#
# Elastic Compliance Matrix: (Units=1/GPa)
#
#
# Indices 1 2 3 4 5 6 
#
# 1 0.019778 0.000256 -0.001396 0.000000 0.008697 0.000000
# 2 0.000256 0.013213 -0.002065 0.000000 0.003326 0.000000
# 3 -0.001396 -0.002065 0.011183 0.000000 0.002747 0.000000
# 4 0.000000 0.000000 0.000000 0.125530 0.000000 0.044176
# 5 0.008697 0.003326 0.002747 0.000000 0.032928 0.000000
# 6 0.000000 0.000000 0.000000 0.044176 0.000000 0.070064
#
#
# Mechanical properties :
#
#
# Convention : Reuss Voigt Hill
#
# Bulk Modulus (GPa) = 26.48034 34.41949 30.44992
# Shear Modulus (GPa) = 17.14117 26.59321 21.86719
#
# Velocity S-wave (km/s) = 2.96915 3.69826 3.35358
# Velocity P-wave (km/s) = 5.03722 5.99487 5.53679
#
# Compressibility (1/GPa) = 0.03776387
#
# Stress axis : x y z
#
# Youngs Moduli (GPa) = 50.56041 75.68339 89.41968
#
# Poissons Ratio (x) = -0.01935 0.12486
# Poissons Ratio (y) = -0.01293 0.18462
# Poissons Ratio (z) = 0.07060 0.15626
#
# Static dielectric constant tensor:
#      x y z
#    x 1.711140 0.000000 -0.041480 
#    y 0.000000 2.033700 0.000000 
#    z -0.041480 0.000000 1.685890 
# 
# From -- ./inp_files/88889.got.cif
#   From: 2010.05.17/outbox.cif.g08.bks.cpg/sg10_45_cif.got.tgz:88889.got - 2010.06.03 11:33:40.
