data_PCOD9150440
_publ_section_title
;
Structure prediction by ZEFSAII (Michael W. Deem and Ramdas Pophale) SiO2 
 PCOD9150440
Probable space group: P 2/M
;
_chemical_formula_sum "Si O2"
_cell_formula_units_Z 26
_cell_length_a 11.701115
_cell_length_b 8.004422
_cell_length_c 23.878801
_cell_angle_alpha 90.000000
_cell_angle_beta 36.451512
_cell_angle_gamma 90.000000
_cell_volume 1328.801796
_symmetry_space_group_name_H-M "P 2/M"
_symmetry_group_IT_number 10
_symmetry_cell_setting 'monoclinic'
loop_
_space_group_symop_operation_xyz
x,y,z
-x,y,-z
-x,-y,-z
x,-y,z
loop_
_atom_site_type_symbol
_atom_site_label
_atom_site_fract_x
_atom_site_fract_y
_atom_site_fract_z
Si Si1 0.970419 0.500000 0.735362
Si Si2 0.945636 0.808279 0.097039
Si Si3 0.373383 0.807051 0.911568
Si Si4 0.335271 0.500000 0.515653
Si Si5 0.913438 0.184042 0.237691
Si Si6 0.470364 0.690625 0.756147
Si Si7 0.522913 0.500000 0.923656
Si Si8 0.544421 0.187408 0.605458
O O1 0.743504 0.500000 0.816125
O O2 0.122471 0.500000 0.625162
O O3 0.018532 0.335046 0.751896
O O4 0.998999 0.801274 0.141794
O O5 0.760805 0.693805 0.162900
O O6 0.880940 0.000000 0.111466
O O7 0.146403 0.777970 0.987277
O O8 0.491868 0.778662 0.807589
O O9 0.430510 0.666841 0.933593
O O10 0.391286 0.000000 0.922947
O O11 0.500000 0.500000 0.500000
O O12 0.364080 0.335398 0.466507
O O13 0.683102 0.191867 0.319875
O O14 0.961422 0.000000 0.241571
O O15 0.536625 0.500000 0.733307
O O16 0.557661 0.777615 0.666814
O O17 0.500000 0.500000 0.000000
O O18 0.614663 0.000000 0.564949
#
# Coordination Sequence:
#
# PCOD9150440 Si02
#       8
#     2   4   4   2   4   4   2   4
#     4  12  24  38  59  82 117 155 205 256 288 339
#     4   9  19  32  53  88 124 156 193 239 297 360
#     4  11  23  41  61  84 118 159 205 254 296 347
#     4  12  22  37  59  90 122 158 192 243 307 356
#     4   9  18  33  54  83 118 157 191 232 294 357
#     4  11  20  33  60  92 125 156 191 241 305 367
#     4  12  28  45  61  87 115 162 216 250 287 339
#     4  10  20  36  58  90 127 157 185 230 300 376
#
# _framework density 19.566500999999999
#
# number of rings (size 3 to 8) (size 9 to 14) (size 15 to 20)
#    0.000    1.538    3.077    3.692    4.308    3.692 
#    0.000    0.000    0.000    1.846    0.000    2.154 
#    0.000    0.000    0.000    0.000    0.000    0.000 
#
# Total GULP energy -145146.342277 kJ/mol
# GULP energy per Si atom -5582.551626 kJ/mol
# Density = 1.952197 g / cm^3
# Si number density = 19.566501 Si / 1000 Ang^3
#
#
#
# Elastic Constant Matrix: (Units=GPa)
#
#
# Indices 1 2 3 4 5 6 
#
# 1 46.5767 40.4243 17.1801 0.0000 12.8323 0.0000
# 2 40.4243 150.9642 39.6922 0.0000 18.5865 0.0000
# 3 17.1801 39.6922 88.9752 0.0000 11.7095 0.0000
# 4 0.0000 0.0000 0.0000 -6.9893 0.0000 -90.3080
# 5 12.8323 18.5865 11.7095 0.0000 27.1126 0.0000
# 6 0.0000 0.0000 0.0000 -90.3080 0.0000 -277.4844
#
#
#
# Elastic Compliance Matrix: (Units=1/GPa)
#
#
# Indices 1 2 3 4 5 6 
#
# 1 0.030289 -0.006533 -0.001735 0.000000 -0.009108 0.000000
# 2 -0.006533 0.009328 -0.002614 0.000000 -0.002174 0.000000
# 3 -0.001735 -0.002614 0.013143 0.000000 -0.003063 0.000000
# 4 0.000000 0.000000 0.000000 0.044640 0.000000 -0.014528
# 5 -0.009108 -0.002174 -0.003063 0.000000 0.044007 0.000000
# 6 0.000000 0.000000 0.000000 -0.014528 0.000000 0.001124
#
#
# Mechanical properties :
#
#
# Convention : Reuss Voigt Hill
#
# Bulk Modulus (GPa) = 32.26192 53.45659 42.85925
# Shear Modulus (GPa) = 28.63211 -38.85757 -5.11273
#
# Velocity S-wave (km/s) = 3.82949 -4.46120 -1.61823
# Velocity P-wave (km/s) = 6.00645 0.91832 4.29656
#
# Compressibility (1/GPa) = 0.03099630
#
# Stress axis : x y z
#
# Youngs Moduli (GPa) = 33.01478 107.19970 76.08404
#
# Poissons Ratio (x) = 0.70035 0.13204
# Poissons Ratio (y) = 0.21569 0.19887
# Poissons Ratio (z) = 0.05730 0.28021
#
# Static dielectric constant tensor:
#      x y z
#    x 1.692320 0.000000 0.018250 
#    y 0.000000 1.232520 0.000000 
#    z 0.018250 0.000000 1.720810 
# 
# From -- ./inp_files/83519.got.cif
#   From: 2010.05.17/outbox.cif.g08.bks.cpg/sg10_42_cif.got.tgz:83519.got - 2010.06.03 11:33:40.
