data_PCOD9150423
_publ_section_title
;
Structure prediction by ZEFSAII (Michael W. Deem and Ramdas Pophale) SiO2 
 PCOD9150423
Probable space group: P 2/M
;
_chemical_formula_sum "Si O2"
_cell_formula_units_Z 28
_cell_length_a 13.183880
_cell_length_b 7.860165
_cell_length_c 13.851073
_cell_angle_alpha 90.000000
_cell_angle_beta 61.534475
_cell_angle_gamma 90.000000
_cell_volume 1261.823492
_symmetry_space_group_name_H-M "P 2/M"
_symmetry_group_IT_number 10
_symmetry_cell_setting 'monoclinic'
loop_
_space_group_symop_operation_xyz
x,y,z
-x,y,-z
-x,-y,-z
x,-y,z
loop_
_atom_site_type_symbol
_atom_site_label
_atom_site_fract_x
_atom_site_fract_y
_atom_site_fract_z
Si Si1 0.683527 0.698758 0.172017
Si Si2 0.124377 0.196345 0.171306
Si Si3 0.117285 0.306855 0.388063
Si Si4 0.228449 0.303629 0.520724
Si Si5 0.621542 0.198846 0.988938
Si Si6 0.520865 0.808913 0.602940
Si Si7 0.873975 0.297449 0.229305
O O1 0.699938 0.500000 0.140311
O O2 0.633185 0.786452 0.099229
O O3 0.585970 0.720866 0.297190
O O4 0.801208 0.767007 0.169596
O O5 0.100501 0.212407 0.295917
O O6 0.011735 0.270820 0.168896
O O7 0.130193 0.000000 0.138553
O O8 0.253202 0.272539 0.099803
O O9 0.157892 0.500000 0.345972
O O10 0.193668 0.219196 0.435242
O O11 0.000000 0.320779 0.500000
O O12 0.185793 0.500000 0.537165
O O13 0.364491 0.300711 0.449810
O O14 0.179968 0.231052 0.643949
O O15 0.622664 0.000000 0.958875
O O16 0.500000 0.268723 0.000000
O O17 0.500000 0.829205 0.500000
O O18 0.537362 0.000000 0.636838
O O19 0.852569 0.500000 0.239349
#
# Coordination Sequence:
#
# PCOD9150423 Si02
#       7
#     4   4   4   4   4   4   4
#     4  11  24  42  67  95 122 162 214 262 310 368
#     4  11  24  40  63  93 124 164 210 258 312 372
#     4  10  20  37  60  88 124 166 204 247 308 366
#     4  10  20  36  58  86 125 169 208 250 303 368
#     4  10  25  49  68  87 123 165 205 257 317 374
#     4  11  23  37  58  91 130 168 203 248 310 372
#     4  10  21  40  64  91 128 164 202 257 310 366
#
# _framework density 22.190110000000001
#
# number of rings (size 3 to 8) (size 9 to 14) (size 15 to 20)
#    0.000    1.571    2.857    1.286    2.000    5.143 
#    0.000    2.857    0.000    0.000    0.000    0.000 
#    0.000    0.000    0.000    0.000    0.000    0.000 
#
# Total GULP energy -156030.491530 kJ/mol
# GULP energy per Si atom -5572.517555 kJ/mol
# Density = 2.213960 g / cm^3
# Si number density = 22.190110 Si / 1000 Ang^3
#
#
#
# Elastic Constant Matrix: (Units=GPa)
#
#
# Indices 1 2 3 4 5 6 
#
# 1 191.3578 1.6131 52.5561 0.0000 -6.5521 0.0000
# 2 1.6131 31.9344 -10.6595 0.0000 0.4997 0.0000
# 3 52.5561 -10.6595 75.2376 0.0000 -9.5572 0.0000
# 4 0.0000 0.0000 0.0000 758.4187 0.0000 334.1705
# 5 -6.5521 0.4997 -9.5572 0.0000 34.6957 0.0000
# 6 0.0000 0.0000 0.0000 334.1705 0.0000 173.8981
#
#
#
# Elastic Compliance Matrix: (Units=1/GPa)
#
#
# Indices 1 2 3 4 5 6 
#
# 1 0.006581 -0.001962 -0.004885 0.000000 -0.000074 0.000000
# 2 -0.001962 0.033477 0.006223 0.000000 0.000862 0.000000
# 3 -0.004885 0.006223 0.018089 0.000000 0.003971 0.000000
# 4 0.000000 0.000000 0.000000 0.008601 0.000000 -0.016529
# 5 -0.000074 0.000862 0.003971 0.000000 0.029889 0.000000
# 6 0.000000 0.000000 0.000000 -0.016529 0.000000 0.037513
#
#
# Mechanical properties :
#
#
# Convention : Reuss Voigt Hill
#
# Bulk Modulus (GPa) = 17.57465 42.83881 30.20673
# Shear Modulus (GPa) = 32.39073 210.40384 121.39728
#
# Velocity S-wave (km/s) = 3.82474 9.74806 7.40450
# Velocity P-wave (km/s) = 5.23852 12.08498 9.31367
#
# Compressibility (1/GPa) = 0.05690014
#
# Stress axis : x y z
#
# Youngs Moduli (GPa) = 151.94376 29.87138 55.28099
#
# Poissons Ratio (x) = 0.05860 0.27003
# Poissons Ratio (y) = 0.29808 -0.34400
# Poissons Ratio (z) = 0.74220 -0.18588
#
# Static dielectric constant tensor:
#      x y z
#    x 2.056850 0.000000 0.078550 
#    y 0.000000 1.865760 0.000000 
#    z 0.078550 0.000000 1.813340 
# 
# From -- ./inp_files/63619.got.cif
#   From: 2010.05.17/outbox.cif.g08.bks.cpg/sg10_32_cif.got.tgz:63619.got - 2010.06.03 11:33:40.
