data_PCOD9150018
_publ_section_title
;
Structure prediction by ZEFSAII (Michael W. Deem and Ramdas Pophale) SiO2 
 PCOD9150018
Probable space group: P 2/M
;
_chemical_formula_sum "Si O2"
_cell_formula_units_Z 32
_cell_length_a 16.513622
_cell_length_b 7.670310
_cell_length_c 10.940505
_cell_angle_alpha 90.000000
_cell_angle_beta 86.701256
_cell_angle_gamma 90.000000
_cell_volume 1383.478569
_symmetry_space_group_name_H-M "P 2/M"
_symmetry_group_IT_number 10
_symmetry_cell_setting 'monoclinic'
loop_
_space_group_symop_operation_xyz
x,y,z
-x,y,-z
-x,-y,-z
x,-y,z
loop_
_atom_site_type_symbol
_atom_site_label
_atom_site_fract_x
_atom_site_fract_y
_atom_site_fract_z
Si Si1 0.776292 0.794721 0.162077
Si Si2 0.766080 0.292594 0.658742
Si Si3 0.954005 0.209208 0.625100
Si Si4 0.375524 0.795395 0.693117
Si Si5 0.524606 0.302175 0.823683
Si Si6 0.960457 0.786117 0.132170
Si Si7 0.604948 0.800114 0.568809
Si Si8 0.314305 0.711385 0.078202
O O1 0.711012 0.717815 0.262408
O O2 0.867262 0.725135 0.149876
O O3 0.784165 0.000000 0.189454
O O4 0.732093 0.777224 0.035771
O O5 0.755082 0.500000 0.650091
O O6 0.858954 0.249025 0.627712
O O7 0.702364 0.204300 0.573417
O O8 0.737762 0.238901 0.797576
O O9 0.000000 0.275734 0.500000
O O10 0.991020 0.271481 0.751143
O O11 0.963708 0.000000 0.625107
O O12 0.438862 0.780700 0.798281
O O13 0.412541 0.725594 0.563616
O O14 0.364447 0.000000 0.669198
O O15 0.507451 0.500000 0.860414
O O16 0.571487 0.298758 0.689199
O O17 0.592557 0.227149 0.909129
O O18 0.960914 0.000000 0.130417
O O19 0.000000 0.730660 0.000000
O O20 0.575349 0.000000 0.584122
O O21 0.317710 0.500000 0.072896
#
# Coordination Sequence:
#
# PCOD9150018 Si02
#       8
#     4   4   4   4   4   4   4   4
#     4  10  21  36  57  82 111 145 184 236 287 336
#     4  10  21  37  57  82 114 149 187 232 282 338
#     4  10  21  35  58  87 114 149 192 239 293 348
#     4  10  22  36  53  81 115 148 185 234 286 335
#     4  10  21  37  57  81 112 149 188 232 281 335
#     4   9  18  34  57  84 113 146 189 238 288 343
#     4  10  20  35  58  83 112 148 189 233 279 336
#     4   9  20  38  56  78 108 144 187 231 277 335
#
# _framework density 23.130102000000001
#
# number of rings (size 3 to 8) (size 9 to 14) (size 15 to 20)
#    0.000    2.250    0.000    3.000    1.750    7.750 
#    0.000    3.125    0.000    2.250    0.000    0.000 
#    0.000    0.000    0.000    0.000    0.000    0.000 
#
# Total GULP energy -178816.411754 kJ/mol
# GULP energy per Si atom -5588.012867 kJ/mol
# Density = 2.307746 g / cm^3
# Si number density = 23.130102 Si / 1000 Ang^3
#
#
#
# Elastic Constant Matrix: (Units=GPa)
#
#
# Indices 1 2 3 4 5 6 
#
# 1 140.8773 -4.1369 38.7563 0.0000 3.8171 0.0000
# 2 -4.1369 44.4515 11.3967 0.0000 -1.7479 0.0000
# 3 38.7563 11.3967 109.4096 0.0000 -1.7976 0.0000
# 4 0.0000 0.0000 0.0000 -121.7718 0.0000 208.1385
# 5 3.8171 -1.7479 -1.7976 0.0000 36.2377 0.0000
# 6 0.0000 0.0000 0.0000 208.1385 0.0000 -264.0885
#
#
#
# Elastic Compliance Matrix: (Units=1/GPa)
#
#
# Indices 1 2 3 4 5 6 
#
# 1 0.007992 0.001477 -0.003000 0.000000 -0.000919 0.000000
# 2 0.001477 0.023423 -0.002949 0.000000 0.000828 0.000000
# 3 -0.003000 -0.002949 0.010521 0.000000 0.000696 0.000000
# 4 0.000000 0.000000 0.000000 0.023657 0.000000 0.018645
# 5 -0.000919 0.000828 0.000696 0.000000 0.027767 0.000000
# 6 0.000000 0.000000 0.000000 0.018645 0.000000 0.010908
#
#
# Mechanical properties :
#
#
# Convention : Reuss Voigt Hill
#
# Bulk Modulus (GPa) = 30.31146 42.97450 36.64298
# Shear Modulus (GPa) = 40.25430 -53.34302 -6.54436
#
# Velocity S-wave (km/s) = 4.17627 -4.80752 -1.68390
# Velocity P-wave (km/s) = 6.03226 3.49235 3.47791
#
# Compressibility (1/GPa) = 0.03299082
#
# Stress axis : x y z
#
# Youngs Moduli (GPa) = 125.12577 42.69385 95.04549
#
# Poissons Ratio (x) = -0.06305 0.28513
# Poissons Ratio (y) = -0.18478 0.28032
# Poissons Ratio (z) = 0.37537 0.12592
#
# Static dielectric constant tensor:
#      x y z
#    x 1.861640 0.000000 -0.022870 
#    y 0.000000 1.848250 0.000000 
#    z -0.022870 0.000000 1.877600 
# 
# From -- ./inp_files/49800.got.cif
#   From: 2010.05.17/outbox.cif.g08.bks.cpg/sg10_25_cif.got.tgz:49800.got - 2010.06.03 11:33:40.
