data_PCOD9150011
_publ_section_title
;
Structure prediction by ZEFSAII (Michael W. Deem and Ramdas Pophale) SiO2 
 PCOD9150011
Probable space group: P 2/M
;
_chemical_formula_sum "Si O2"
_cell_formula_units_Z 32
_cell_length_a 15.793362
_cell_length_b 14.375714
_cell_length_c 8.837065
_cell_angle_alpha 90.000000
_cell_angle_beta 73.658955
_cell_angle_gamma 90.000000
_cell_volume 1925.325248
_symmetry_space_group_name_H-M "P 2/M"
_symmetry_group_IT_number 10
_symmetry_cell_setting 'monoclinic'
loop_
_space_group_symop_operation_xyz
x,y,z
-x,y,-z
-x,-y,-z
x,-y,z
loop_
_atom_site_type_symbol
_atom_site_label
_atom_site_fract_x
_atom_site_fract_y
_atom_site_fract_z
Si Si1 0.606052 0.391674 0.769304
Si Si2 0.789574 0.892322 0.328876
Si Si3 0.923792 0.729798 0.662458
Si Si4 0.002101 0.891725 0.819416
Si Si5 0.398891 0.607723 0.866211
Si Si6 0.241567 0.286635 0.798746
Si Si7 0.910469 0.607517 0.950056
Si Si8 0.752090 0.733730 0.544890
O O1 0.627792 0.500000 0.721885
O O2 0.502700 0.377186 0.785152
O O3 0.668011 0.318930 0.653279
O O4 0.615955 0.381263 0.945912
O O5 0.762492 0.825579 0.203301
O O6 0.744383 0.841473 0.495031
O O7 0.896155 0.882772 0.286792
O O8 0.768437 0.000000 0.322849
O O9 0.942418 0.821293 0.754799
O O10 0.927952 0.643103 0.773178
O O11 0.830836 0.729271 0.624270
O O12 0.000000 0.725704 0.500000
O O13 0.976043 0.000000 0.814453
O O14 0.000000 0.870104 0.000000
O O15 0.378808 0.500000 0.838690
O O16 0.334615 0.674295 0.806737
O O17 0.224519 0.311753 0.630547
O O18 0.165841 0.330126 0.938939
O O19 0.883393 0.500000 0.966844
O O20 0.000000 0.618330 0.000000
#
# Coordination Sequence:
#
# PCOD9150011 Si02
#       8
#     4   4   4   4   4   4   4   4
#     4   9  19  36  57  84 112 138 176 225 277 330
#     4   9  19  36  53  77 110 140 177 226 274 325
#     4  12  21  35  53  77 110 145 187 229 267 320
#     4  10  20  35  58  81 105 142 189 239 284 323
#     4   9  18  35  60  84 109 141 177 224 278 327
#     4  10  20  36  55  80 106 144 183 224 271 329
#     4  11  23  37  53  73 108 152 188 220 266 329
#     4  10  22  33  52  82 108 143 176 226 272 332
#
# _framework density 16.620569
#
# number of rings (size 3 to 8) (size 9 to 14) (size 15 to 20)
#    0.750    1.250    1.250    4.500    0.000    4.000 
#    0.000    1.250    0.000    3.750    0.000    1.750 
#    0.000    0.000    0.000    0.000    0.000    0.000 
#
# Total GULP energy -178351.979286 kJ/mol
# GULP energy per Si atom -5573.499353 kJ/mol
# Density = 1.658274 g / cm^3
# Si number density = 16.620569 Si / 1000 Ang^3
#
#
#
# Elastic Constant Matrix: (Units=GPa)
#
#
# Indices 1 2 3 4 5 6 
#
# 1 70.4616 61.1659 32.5793 0.0000 8.7675 0.0000
# 2 61.1659 120.2386 46.7907 0.0000 -0.1321 0.0000
# 3 32.5793 46.7907 76.1264 0.0000 -5.1048 0.0000
# 4 0.0000 0.0000 0.0000 17.4308 0.0000 -12.3811
# 5 8.7675 -0.1321 -5.1048 0.0000 30.4301 0.0000
# 6 0.0000 0.0000 0.0000 -12.3811 0.0000 5.9580
#
#
#
# Elastic Compliance Matrix: (Units=1/GPa)
#
#
# Indices 1 2 3 4 5 6 
#
# 1 0.028618 -0.012570 -0.005136 0.000000 -0.009162 0.000000
# 2 -0.012570 0.016488 -0.004559 0.000000 0.002928 0.000000
# 3 -0.005136 -0.004559 0.018441 0.000000 0.004554 0.000000
# 4 0.000000 0.000000 0.000000 -0.120509 0.000000 -0.250427
# 5 -0.009162 0.002928 0.004554 0.000000 0.036278 0.000000
# 6 0.000000 0.000000 0.000000 -0.250427 0.000000 -0.352566
#
#
# Mechanical properties :
#
#
# Convention : Reuss Voigt Hill
#
# Bulk Modulus (GPa) = 52.57861 60.87761 56.72811
# Shear Modulus (GPa) = -15.50964 19.18316 1.83676
#
# Velocity S-wave (km/s) = -3.05808 3.40101 1.05238
# Velocity P-wave (km/s) = 4.38568 7.22010 5.97345
#
# Compressibility (1/GPa) = 0.01901914
#
# Stress axis : x y z
#
# Youngs Moduli (GPa) = 34.94287 60.64933 54.22567
#
# Poissons Ratio (x) = 0.76233 0.27851
# Poissons Ratio (y) = 0.43922 0.24720
# Poissons Ratio (z) = 0.17947 0.27648
#
# Static dielectric constant tensor:
#      x y z
#    x 1.540510 0.000000 0.003970 
#    y 0.000000 1.566040 0.000000 
#    z 0.003970 0.000000 1.570550 
# 
# From -- ./inp_files/29072.got.cif
#   From: 2010.05.17/outbox.cif.g08.bks.cpg/sg10_15_cif.got.tgz:29072.got - 2010.06.03 11:33:40.
