data_PCOD9150462
_publ_section_title
;
Structure prediction by ZEFSAII (Michael W. Deem and Ramdas Pophale) SiO2 
 PCOD9150462
Probable space group: P 2/M
;
_chemical_formula_sum "Si O2"
_cell_formula_units_Z 28
_cell_length_a 12.819793
_cell_length_b 9.159146
_cell_length_c 14.654787
_cell_angle_alpha 90.000000
_cell_angle_beta 124.211194
_cell_angle_gamma 90.000000
_cell_volume 1423.002458
_symmetry_space_group_name_H-M "P 2/M"
_symmetry_group_IT_number 10
_symmetry_cell_setting 'monoclinic'
loop_
_space_group_symop_operation_xyz
x,y,z
-x,y,-z
-x,-y,-z
x,-y,z
loop_
_atom_site_type_symbol
_atom_site_label
_atom_site_fract_x
_atom_site_fract_y
_atom_site_fract_z
Si Si1 0.473427 0.829996 0.881948
Si Si2 0.761491 0.170686 0.535976
Si Si3 0.218017 0.673449 0.267043
Si Si4 0.278441 0.169911 0.119067
Si Si5 0.050990 0.827403 0.871294
Si Si6 0.269032 0.327818 0.662910
Si Si7 0.935100 0.832791 0.329434
O O1 0.601947 0.818170 0.887930
O O2 0.370059 0.727634 0.785935
O O3 0.430665 0.000000 0.856653
O O4 0.500000 0.794947 0.000000
O O5 0.732137 0.251303 0.616112
O O6 0.704468 0.247418 0.419530
O O7 0.913845 0.181101 0.598391
O O8 0.728835 0.000000 0.524495
O O9 0.219904 0.500000 0.276402
O O10 0.289508 0.729564 0.212694
O O11 0.074469 0.731890 0.183378
O O12 0.266838 0.000000 0.142139
O O13 0.153837 0.205827 0.998581
O O14 0.106047 0.808809 0.796100
O O15 0.016668 0.000000 0.861577
O O16 0.271118 0.500000 0.651788
O O17 0.134956 0.274592 0.637145
O O18 0.904435 0.000000 0.340750
#
# Coordination Sequence:
#
# PCOD9150462 Si02
#       7
#     4   4   4   4   4   4   4
#     4  10  22  42  65  85 108 145 194 237 270 318
#     4  10  21  39  61  82 109 148 193 235 273 325
#     4  11  22  35  54  84 120 150 180 227 286 341
#     4  10  20  36  59  83 109 148 195 236 274 323
#     4   9  18  34  57  84 114 149 191 234 274 325
#     4  12  24  36  55  85 119 150 181 227 287 341
#     4   9  18  34  57  84 113 149 191 232 274 325
#
# _framework density 19.676704000000001
#
# number of rings (size 3 to 8) (size 9 to 14) (size 15 to 20)
#    0.000    1.857    0.000    5.571    0.000   10.000 
#    0.000    2.143    0.000    4.286    0.000    0.000 
#    0.000    0.000    0.000    0.000    0.000    0.000 
#
# Total GULP energy -156540.720319 kJ/mol
# GULP energy per Si atom -5590.740011 kJ/mol
# Density = 1.963192 g / cm^3
# Si number density = 19.676704 Si / 1000 Ang^3
#
#
#
# Elastic Constant Matrix: (Units=GPa)
#
#
# Indices 1 2 3 4 5 6 
#
# 1 46.2134 36.4695 25.9802 0.0000 -24.8137 0.0000
# 2 36.4695 125.1398 66.4896 0.0000 -29.3711 0.0000
# 3 25.9802 66.4896 89.6128 0.0000 -33.0267 0.0000
# 4 0.0000 0.0000 0.0000 13.3641 0.0000 -10.7888
# 5 -24.8137 -29.3711 -33.0267 0.0000 27.6032 0.0000
# 6 0.0000 0.0000 0.0000 -10.7888 0.0000 -42.0881
#
#
#
# Elastic Compliance Matrix: (Units=1/GPa)
#
#
# Indices 1 2 3 4 5 6 
#
# 1 0.046368 -0.007733 0.008272 0.000000 0.043350 0.000000
# 2 -0.007733 0.014754 -0.009805 0.000000 -0.002984 0.000000
# 3 0.008272 -0.009805 0.026709 0.000000 0.028960 0.000000
# 4 0.000000 0.000000 0.000000 0.061998 0.000000 -0.015892
# 5 0.043350 -0.002984 0.028960 0.000000 0.106672 0.000000
# 6 0.000000 0.000000 0.000000 -0.015892 0.000000 -0.019686
#
#
# Mechanical properties :
#
#
# Convention : Reuss Voigt Hill
#
# Bulk Modulus (GPa) = 14.43042 57.64940 36.03991
# Shear Modulus (GPa) = 17.95685 8.57763 13.26724
#
# Velocity S-wave (km/s) = 3.02419 2.09015 2.59947
# Velocity P-wave (km/s) = 4.42086 5.93185 5.23120
#
# Compressibility (1/GPa) = 0.06929807
#
# Stress axis : x y z
#
# Youngs Moduli (GPa) = 21.56675 67.77914 37.44083
#
# Poissons Ratio (x) = 0.52416 -0.30971
# Poissons Ratio (y) = 0.16678 0.36709
# Poissons Ratio (z) = -0.17840 0.66455
#
# Static dielectric constant tensor:
#      x y z
#    x 1.696200 0.000000 -0.002540 
#    y 0.000000 1.653120 0.000000 
#    z -0.002540 0.000000 1.697670 
# 
# From -- ./inp_files/63893.got.cif
#   From: 2010.05.17/outbox.cif.g08.bks.cpg/sg10_32_cif.got.tgz:63893.got - 2010.06.03 11:33:40.
