data_PCOD9150347
_publ_section_title
;
Structure prediction by ZEFSAII (Michael W. Deem and Ramdas Pophale) SiO2 
 PCOD9150347
Probable space group: P 2/M
;
_chemical_formula_sum "Si O2"
_cell_formula_units_Z 28
_cell_length_a 29.644402
_cell_length_b 9.095758
_cell_length_c 9.205022
_cell_angle_alpha 90.000000
_cell_angle_beta 38.874031
_cell_angle_gamma 90.000000
_cell_volume 1557.745322
_symmetry_space_group_name_H-M "P 2/M"
_symmetry_group_IT_number 10
_symmetry_cell_setting 'monoclinic'
loop_
_space_group_symop_operation_xyz
x,y,z
-x,y,-z
-x,-y,-z
x,-y,z
loop_
_atom_site_type_symbol
_atom_site_label
_atom_site_fract_x
_atom_site_fract_y
_atom_site_fract_z
Si Si1 0.647635 0.324272 0.464314
Si Si2 0.072300 0.175561 0.228653
Si Si3 0.498840 0.169501 0.179745
Si Si4 0.210226 0.678692 0.386694
Si Si5 0.204204 0.322181 0.065879
Si Si6 0.645870 0.323334 0.811026
Si Si7 0.929658 0.676595 0.079615
O O1 0.637676 0.500000 0.478820
O O2 0.575430 0.246453 0.590358
O O3 0.657558 0.289190 0.610701
O O4 0.719068 0.284257 0.197643
O O5 0.140037 0.247558 0.139331
O O6 0.000000 0.208850 0.500000
O O7 0.080749 0.000000 0.200350
O O8 0.066117 0.242805 0.084014
O O9 0.499866 0.000000 0.220940
O O10 0.500000 0.176159 0.000000
O O11 0.571118 0.251324 0.047011
O O12 0.211145 0.500000 0.385811
O O13 0.202793 0.722982 0.238029
O O14 0.285116 0.726813 0.270800
O O15 0.141669 0.723166 0.653996
O O16 0.196442 0.500000 0.077091
O O17 0.639710 0.500000 0.838328
O O18 0.925728 0.500000 0.065360
O O19 0.000000 0.705501 0.000000
#
# Coordination Sequence:
#
# PCOD9150347 Si02
#       7
#     4   4   4   4   4   4   4
#     4   9  17  30  51  77 102 132 170 214 266 317
#     4  11  24  39  55  79 112 146 178 214 260 314
#     4   9  17  29  47  72 100 131 172 218 260 308
#     4   9  18  33  54  81 108 135 173 222 270 314
#     4  10  20  36  58  81 106 138 178 221 264 313
#     4   9  16  29  49  72 101 134 170 214 263 315
#     4  10  20  36  60  86 109 137 177 222 265 311
#
# _framework density 17.974699000000001
#
# number of rings (size 3 to 8) (size 9 to 14) (size 15 to 20)
#    0.000    2.429    0.000    2.571    0.000    7.143 
#    0.000    5.714    0.000    4.286    0.000    0.000 
#    0.000    0.000    0.000    0.000    0.000    0.000 
#
# Total GULP energy -156264.459110 kJ/mol
# GULP energy per Si atom -5580.873540 kJ/mol
# Density = 1.793379 g / cm^3
# Si number density = 17.974699 Si / 1000 Ang^3
#
#
#
# Elastic Constant Matrix: (Units=GPa)
#
#
# Indices 1 2 3 4 5 6 
#
# 1 149.1038 56.3478 108.0554 0.0000 -16.6476 0.0000
# 2 56.3478 35.7423 66.9603 0.0000 -8.1491 0.0000
# 3 108.0554 66.9603 176.3054 0.0000 -18.1815 0.0000
# 4 0.0000 0.0000 0.0000 18.3775 0.0000 0.9257
# 5 -16.6476 -8.1491 -18.1815 0.0000 32.6205 0.0000
# 6 0.0000 0.0000 0.0000 0.9257 0.0000 4.1976
#
#
#
# Elastic Compliance Matrix: (Units=1/GPa)
#
#
# Indices 1 2 3 4 5 6 
#
# 1 0.016747 -0.024623 -0.000706 0.000000 0.002002 0.000000
# 2 -0.024623 0.133661 -0.035570 0.000000 0.000999 0.000000
# 3 -0.000706 -0.035570 0.019799 0.000000 0.001789 0.000000
# 4 0.000000 0.000000 0.000000 0.055026 0.000000 -0.012135
# 5 0.002002 0.000999 0.001789 0.000000 0.032924 0.000000
# 6 0.000000 0.000000 0.000000 -0.012135 0.000000 0.240905
#
#
# Mechanical properties :
#
#
# Convention : Reuss Voigt Hill
#
# Bulk Modulus (GPa) = 20.65724 91.54204 56.09964
# Shear Modulus (GPa) = 7.84935 19.69166 13.77051
#
# Velocity S-wave (km/s) = 2.09198 3.31346 2.77086
# Velocity P-wave (km/s) = 4.16563 8.10417 6.44321
#
# Compressibility (1/GPa) = 0.04840918
#
# Stress axis : x y z
#
# Youngs Moduli (GPa) = 59.71201 7.48161 50.50874
#
# Poissons Ratio (x) = 0.18422 0.03566
# Poissons Ratio (y) = 1.47027 1.79660
# Poissons Ratio (z) = 0.04215 0.26612
#
# Static dielectric constant tensor:
#      x y z
#    x 1.592900 0.000000 0.002680 
#    y 0.000000 1.597260 0.000000 
#    z 0.002680 0.000000 1.600320 
# 
# From -- ./inp_files/36991.got.cif
#   From: 2010.05.17/outbox.cif.g08.bks.cpg/sg10_19_cif.got.tgz:36991.got - 2010.06.03 11:33:40.
