data_PCOD9150660
_publ_section_title
;
Structure prediction by ZEFSAII (Michael W. Deem and Ramdas Pophale) SiO2 
 PCOD9150660
Probable space group: P 2/M
;
_chemical_formula_sum "Si O2"
_cell_formula_units_Z 28
_cell_length_a 9.353970
_cell_length_b 8.585541
_cell_length_c 26.709544
_cell_angle_alpha 90.000000
_cell_angle_beta 136.909841
_cell_angle_gamma 90.000000
_cell_volume 1465.362719
_symmetry_space_group_name_H-M "P 2/M"
_symmetry_group_IT_number 10
_symmetry_cell_setting 'monoclinic'
loop_
_space_group_symop_operation_xyz
x,y,z
-x,y,-z
-x,-y,-z
x,-y,z
loop_
_atom_site_type_symbol
_atom_site_label
_atom_site_fract_x
_atom_site_fract_y
_atom_site_fract_z
Si Si1 0.066162 0.252567 0.312507
Si Si2 0.476913 0.185852 0.732584
Si Si3 0.031904 0.326025 0.602089
Si Si4 0.118560 0.323777 0.212694
Si Si5 0.863022 0.000000 0.513993
Si Si6 0.649154 0.687017 0.082387
Si Si7 0.591890 0.825808 0.173394
Si Si8 0.412833 0.000000 0.421110
O O1 0.026910 0.339232 0.354429
O O2 0.110463 0.332335 0.270956
O O3 0.263550 0.144174 0.373025
O O4 0.842408 0.169492 0.246967
O O5 0.687308 0.223337 0.756593
O O6 0.500899 0.231135 0.797528
O O7 0.277527 0.281198 0.661009
O O8 0.429123 0.000000 0.719095
O O9 0.991258 0.500000 0.569192
O O10 0.915289 0.166512 0.554143
O O11 0.142769 0.500000 0.199264
O O12 0.890142 0.258245 0.139107
O O13 0.617578 0.000000 0.439525
O O14 0.000000 0.000000 0.500000
O O15 0.659377 0.500000 0.082136
O O16 0.564680 0.729503 0.115839
O O17 0.500000 0.745157 0.000000
O O18 0.513961 0.000000 0.144557
O O19 0.500000 0.000000 0.500000
#
# Coordination Sequence:
#
# PCOD9150660 Si02
#       8
#     4   4   4   4   2   4   4   2
#     4  10  20  36  61  88 113 150 198 246 297 352
#     4  10  21  36  58  86 119 153 198 244 298 358
#     4  11  22  42  65  85 117 159 200 250 304 360
#     4  10  21  35  57  89 117 147 198 249 294 351
#     4  12  28  44  60  88 124 159 200 243 307 375
#     4   9  19  36  57  83 118 156 195 244 298 353
#     4   9  18  34  57  84 113 149 196 241 290 352
#     4  12  22  40  64  86 117 161 195 241 308 366
#
# _framework density 19.107897999999999
#
# number of rings (size 3 to 8) (size 9 to 14) (size 15 to 20)
#    0.000    1.857    2.857    0.857    3.000    5.143 
#    0.000    2.857    0.000    4.286    0.000    0.000 
#    0.000    0.000    0.000    0.000    0.000    0.000 
#
# Total GULP energy -155977.843598 kJ/mol
# GULP energy per Si atom -5570.637271 kJ/mol
# Density = 1.906441 g / cm^3
# Si number density = 19.107898 Si / 1000 Ang^3
#
#
#
# Elastic Constant Matrix: (Units=GPa)
#
#
# Indices 1 2 3 4 5 6 
#
# 1 108.5829 20.6025 22.1462 0.0000 8.8082 0.0000
# 2 20.6025 85.0133 29.4836 0.0000 1.4318 0.0000
# 3 22.1462 29.4836 82.5862 0.0000 3.1571 0.0000
# 4 0.0000 0.0000 0.0000 13.4199 0.0000 4.6893
# 5 8.8082 1.4318 3.1571 0.0000 22.4977 0.0000
# 6 0.0000 0.0000 0.0000 4.6893 0.0000 16.9796
#
#
#
# Elastic Compliance Matrix: (Units=1/GPa)
#
#
# Indices 1 2 3 4 5 6 
#
# 1 0.010237 -0.001730 -0.001989 0.000000 -0.003619 0.000000
# 2 -0.001730 0.013718 -0.004450 0.000000 0.000429 0.000000
# 3 -0.001989 -0.004450 0.014267 0.000000 -0.000940 0.000000
# 4 0.000000 0.000000 0.000000 0.082475 0.000000 -0.022778
# 5 -0.003619 0.000429 -0.000940 0.000000 0.045970 0.000000
# 6 0.000000 0.000000 0.000000 -0.022778 0.000000 0.065185
#
#
# Mechanical properties :
#
#
# Convention : Reuss Voigt Hill
#
# Bulk Modulus (GPa) = 45.69654 46.73854 46.21754
# Shear Modulus (GPa) = 19.57060 24.17611 21.87336
#
# Velocity S-wave (km/s) = 3.20381 3.56088 3.38705
# Velocity P-wave (km/s) = 6.13619 6.43583 6.28779
#
# Compressibility (1/GPa) = 0.02188350
#
# Stress axis : x y z
#
# Youngs Moduli (GPa) = 97.68415 72.89588 70.09407
#
# Poissons Ratio (x) = 0.12612 0.13943
# Poissons Ratio (y) = 0.16900 0.31191
# Poissons Ratio (z) = 0.19431 0.32438
#
# Static dielectric constant tensor:
#      x y z
#    x 1.663180 0.000000 -0.019360 
#    y 0.000000 1.714200 0.000000 
#    z -0.019360 0.000000 1.663280 
# 
# From -- ./inp_files/92177.got.cif
#   From: 2010.05.17/outbox.cif.g08.bks.cpg/sg10_47_cif.got.tgz:92177.got - 2010.06.03 11:33:40.
