data_PCOD9150754
_publ_section_title
;
Structure prediction by ZEFSAII (Michael W. Deem and Ramdas Pophale) SiO2 
 PCOD9150754
Probable space group: P 2/M
;
_chemical_formula_sum "Si O2"
_cell_formula_units_Z 20
_cell_length_a 10.131676
_cell_length_b 12.950797
_cell_length_c 9.321817
_cell_angle_alpha 90.000000
_cell_angle_beta 42.326453
_cell_angle_gamma 90.000000
_cell_volume 823.610277
_symmetry_space_group_name_H-M "P 2/M"
_symmetry_group_IT_number 10
_symmetry_cell_setting 'monoclinic'
loop_
_space_group_symop_operation_xyz
x,y,z
-x,y,-z
-x,-y,-z
x,-y,z
loop_
_atom_site_type_symbol
_atom_site_label
_atom_site_fract_x
_atom_site_fract_y
_atom_site_fract_z
Si Si1 0.049299 0.113367 0.292887
Si Si2 0.733713 0.110357 0.300892
Si Si3 0.138422 0.659928 0.177014
Si Si4 0.369106 0.320550 0.741054
Si Si5 0.293664 0.616138 0.361569
O O1 0.854099 0.113206 0.351633
O O2 0.000000 0.125462 0.500000
O O3 0.163483 0.215810 0.157680
O O4 0.143534 0.000000 0.200051
O O5 0.500000 0.106331 0.500000
O O6 0.753966 0.220953 0.210852
O O7 0.789657 0.000000 0.184845
O O8 0.252796 0.621077 0.225269
O O9 0.911733 0.635962 0.392611
O O10 0.216617 0.618312 0.963279
O O11 0.500000 0.359181 0.500000
O O12 0.545582 0.303175 0.713579
O O13 0.361325 0.500000 0.342326
#
# Coordination Sequence:
#
# PCOD9150754 Si02
#       5
#     4   4   4   4   4
#     4  10  20  36  64 101 136 174 223 272 322 391
#     4   9  19  36  60  92 137 182 214 257 322 392
#     4  11  22  42  69  97 130 178 223 268 333 401
#     4  11  25  41  64  99 136 172 221 274 329 396
#     4  11  25  46  69  94 128 174 226 280 341 401
#
# _framework density 24.283328000000001
#
# number of rings (size 3 to 8) (size 9 to 14) (size 15 to 20)
#    0.000    1.600    2.000    4.200    0.000    6.800 
#    0.000    3.000    0.000    2.400    0.000    0.000 
#    0.000    0.000    0.000    0.000    0.000    0.000 
#
# Total GULP energy -111589.282278 kJ/mol
# GULP energy per Si atom -5579.464114 kJ/mol
# Density = 2.422806 g / cm^3
# Si number density = 24.283328 Si / 1000 Ang^3
#
#
#
# Elastic Constant Matrix: (Units=GPa)
#
#
# Indices 1 2 3 4 5 6 
#
# 1 119.8057 31.3342 32.1226 0.0000 10.0743 0.0000
# 2 31.3342 139.2271 32.5440 0.0000 9.9290 0.0000
# 3 32.1226 32.5440 173.3436 0.0000 21.4422 0.0000
# 4 0.0000 0.0000 0.0000 -9.8042 0.0000 18.6409
# 5 10.0743 9.9290 21.4422 0.0000 35.2118 0.0000
# 6 0.0000 0.0000 0.0000 18.6409 0.0000 39.0756
#
#
#
# Elastic Compliance Matrix: (Units=1/GPa)
#
#
# Indices 1 2 3 4 5 6 
#
# 1 0.009236 -0.001692 -0.001218 0.000000 -0.001424 0.000000
# 2 -0.001692 0.007883 -0.001029 0.000000 -0.001112 0.000000
# 3 -0.001218 -0.001029 0.006606 0.000000 -0.003384 0.000000
# 4 0.000000 0.000000 0.000000 -0.053485 0.000000 0.025515
# 5 -0.001424 -0.001112 -0.003384 0.000000 0.031181 0.000000
# 6 0.000000 0.000000 0.000000 0.025515 0.000000 0.013420
#
#
# Mechanical properties :
#
#
# Convention : Reuss Voigt Hill
#
# Bulk Modulus (GPa) = 63.10150 69.37533 66.23842
# Shear Modulus (GPa) = 178.56314 35.32170 106.94242
#
# Velocity S-wave (km/s) = 8.58445 3.81801 6.64342
# Velocity P-wave (km/s) = 11.14895 6.93307 9.28349
#
# Compressibility (1/GPa) = 0.01584748
#
# Stress axis : x y z
#
# Youngs Moduli (GPa) = 108.27574 126.85207 151.36987
#
# Poissons Ratio (x) = 0.21469 0.18431
# Poissons Ratio (y) = 0.18325 0.15573
# Poissons Ratio (z) = 0.13184 0.13051
#
# Static dielectric constant tensor:
#      x y z
#    x 1.884900 0.000000 0.015680 
#    y 0.000000 2.021720 0.000000 
#    z 0.015680 0.000000 1.981860 
# 
# From -- ./inp_files/24333.got.cif
#   From: 2010.05.17/outbox.cif.g08.bks.cpg/sg10_13_cif.got.tgz:24333.got - 2010.06.03 11:33:40.
