data_PCOD9150139
_publ_section_title
;
Structure prediction by ZEFSAII (Michael W. Deem and Ramdas Pophale) SiO2 
 PCOD9150139
Probable space group: P 2/M
;
_chemical_formula_sum "Si O2"
_cell_formula_units_Z 28
_cell_length_a 8.947409
_cell_length_b 21.707988
_cell_length_c 15.311755
_cell_angle_alpha 90.000000
_cell_angle_beta 149.743255
_cell_angle_gamma 90.000000
_cell_volume 1498.529234
_symmetry_space_group_name_H-M "P 2/M"
_symmetry_group_IT_number 10
_symmetry_cell_setting 'monoclinic'
loop_
_space_group_symop_operation_xyz
x,y,z
-x,y,-z
-x,-y,-z
x,-y,z
loop_
_atom_site_type_symbol
_atom_site_label
_atom_site_fract_x
_atom_site_fract_y
_atom_site_fract_z
Si Si1 0.984820 0.070014 0.780248
Si Si2 0.648081 0.590102 0.669361
Si Si3 0.126523 0.500000 0.964857
Si Si4 0.325393 0.263981 0.322064
Si Si5 0.298613 0.195599 0.979086
Si Si6 0.662598 0.193252 0.339322
Si Si7 0.653631 0.500000 0.346085
Si Si8 0.367752 0.069624 0.575472
O O1 0.691643 0.074368 0.693336
O O2 0.866491 0.078968 0.621607
O O3 0.100773 0.000000 0.846961
O O4 0.202501 0.124555 0.915583
O O5 0.500000 0.577927 0.500000
O O6 0.676600 0.662962 0.695041
O O7 0.451460 0.557833 0.646322
O O8 0.971822 0.558132 0.840319
O O9 0.472388 0.500000 0.162494
O O10 0.000000 0.500000 0.000000
O O11 0.500000 0.251806 0.500000
O O12 0.497286 0.230063 0.331696
O O13 0.999032 0.235567 0.164972
O O14 0.485114 0.200760 0.160929
O O15 0.500000 0.215603 0.000000
O O16 0.664459 0.121921 0.369517
O O17 0.000000 0.214452 0.500000
O O18 0.000000 0.500000 0.500000
O O19 0.335223 0.000000 0.592483
#
# Coordination Sequence:
#
# PCOD9150139 Si02
#       8
#     4   4   2   4   4   4   2   4
#     4   9  18  35  60  85 113 149 190 245 308 369
#     4   9  19  38  63  86 118 162 201 234 290 353
#     4   8  16  33  58  87 118 155 189 228 272 328
#     4  11  23  42  64  87 120 162 201 253 303 353
#     4  12  25  40  60  87 118 155 201 251 303 367
#     4  12  25  39  59  86 116 156 200 249 303 364
#     4  10  20  35  60  95 130 159 196 246 286 326
#     4   9  18  35  59  84 112 149 191 242 305 367
#
# _framework density 18.684989000000002
#
# number of rings (size 3 to 8) (size 9 to 14) (size 15 to 20)
#    0.000    2.000    1.429    4.714    0.000    5.143 
#    0.000    5.714    0.000    0.000    0.000    0.000 
#    0.000    0.000    0.000    0.000    0.000    0.000 
#
# Total GULP energy -156370.344621 kJ/mol
# GULP energy per Si atom -5584.655165 kJ/mol
# Density = 1.864246 g / cm^3
# Si number density = 18.684989 Si / 1000 Ang^3
#
#
#
# Elastic Constant Matrix: (Units=GPa)
#
#
# Indices 1 2 3 4 5 6 
#
# 1 118.2252 67.8376 80.0574 0.0000 3.1945 0.0000
# 2 67.8376 117.0403 82.4189 0.0000 -5.2414 0.0000
# 3 80.0574 82.4189 171.6124 0.0000 2.6708 0.0000
# 4 0.0000 0.0000 0.0000 11.6341 0.0000 -1.8788
# 5 3.1945 -5.2414 2.6708 0.0000 33.3747 0.0000
# 6 0.0000 0.0000 0.0000 -1.8788 0.0000 -25.7407
#
#
#
# Elastic Compliance Matrix: (Units=1/GPa)
#
#
# Indices 1 2 3 4 5 6 
#
# 1 0.014465 -0.005653 -0.004003 0.000000 -0.001952 0.000000
# 2 -0.005653 0.015336 -0.004780 0.000000 0.003332 0.000000
# 3 -0.004003 -0.004780 0.010008 0.000000 -0.001168 0.000000
# 4 0.000000 0.000000 0.000000 0.084953 0.000000 -0.006201
# 5 -0.001952 0.003332 -0.001168 0.000000 0.030766 0.000000
# 6 0.000000 0.000000 0.000000 -0.006201 0.000000 -0.038396
#
#
# Mechanical properties :
#
#
# Convention : Reuss Voigt Hill
#
# Bulk Modulus (GPa) = 91.42479 96.38952 93.90715
# Shear Modulus (GPa) = 33.41127 15.62454 24.51791
#
# Velocity S-wave (km/s) = 4.23322 2.89486 3.62632
# Velocity P-wave (km/s) = 8.53987 7.92920 8.24019
#
# Compressibility (1/GPa) = 0.01093795
#
# Stress axis : x y z
#
# Youngs Moduli (GPa) = 69.13054 65.20709 99.91756
#
# Poissons Ratio (x) = 0.36861 0.39996
# Poissons Ratio (y) = 0.39079 0.47760
# Poissons Ratio (z) = 0.27672 0.31169
#
# Static dielectric constant tensor:
#      x y z
#    x 1.632390 0.000000 0.013580 
#    y 0.000000 1.641260 0.000000 
#    z 0.013580 0.000000 1.648920 
# 
# From -- ./inp_files/62633.got.cif
#   From: 2010.05.17/outbox.cif.g08.bks.cpg/sg10_32_cif.got.tgz:62633.got - 2010.06.03 11:33:40.
