data_PCOD9150746
_publ_section_title
;
Structure prediction by ZEFSAII (Michael W. Deem and Ramdas Pophale) SiO2 
 PCOD9150746
Probable space group: P 2/M
;
_chemical_formula_sum "Si O2"
_cell_formula_units_Z 12
_cell_length_a 9.291203
_cell_length_b 14.166632
_cell_length_c 5.013122
_cell_angle_alpha 90.000000
_cell_angle_beta 120.918898
_cell_angle_gamma 90.000000
_cell_volume 566.084434
_symmetry_space_group_name_H-M "P 2/M"
_symmetry_group_IT_number 10
_symmetry_cell_setting 'monoclinic'
loop_
_space_group_symop_operation_xyz
x,y,z
-x,y,-z
-x,-y,-z
x,-y,z
loop_
_atom_site_type_symbol
_atom_site_label
_atom_site_fract_x
_atom_site_fract_y
_atom_site_fract_z
Si Si1 0.622557 0.500000 0.866898
Si Si2 0.812676 0.690299 0.927743
Si Si3 0.311689 0.204194 0.699257
Si Si4 0.375639 0.000000 0.632483
O O1 0.500000 0.500000 0.500000
O O2 0.736020 0.593113 0.962316
O O3 0.500000 0.500000 0.000000
O O4 0.707534 0.728511 0.574454
O O5 0.803367 0.763283 0.164784
O O6 0.000000 0.677502 0.000000
O O7 0.277225 0.098152 0.562156
O O8 0.500000 0.208842 0.000000
O O9 0.500000 0.000000 0.500000
O O10 0.500000 0.000000 0.000000
#
# Coordination Sequence:
#
# PCOD9150746 Si02
#       4
#     2   4   4   2
#     4  12  25  42  67  92 117 160 213 254 297 366
#     4  12  25  42  62  93 130 162 197 255 318 367
#     4  11  22  41  66  92 122 165 213 253 298 364
#     4  10  20  36  63  94 121 158 211 262 297 344
#
# _framework density 21.198253000000001
#
# number of rings (size 3 to 8) (size 9 to 14) (size 15 to 20)
#    0.000    0.667    0.000   11.500    0.000    0.000 
#    0.000   10.000    0.000    0.000    0.000    0.000 
#    0.000    0.000    0.000    0.000    0.000    0.000 
#
# Total GULP energy -67165.155431 kJ/mol
# GULP energy per Si atom -5597.096286 kJ/mol
# Density = 2.115001 g / cm^3
# Si number density = 21.198253 Si / 1000 Ang^3
#
#
#
# Elastic Constant Matrix: (Units=GPa)
#
#
# Indices 1 2 3 4 5 6 
#
# 1 213.4164 105.2651 45.5308 0.0000 -26.2871 0.0000
# 2 105.2651 175.4876 41.8371 0.0000 -6.4244 0.0000
# 3 45.5308 41.8371 78.6047 0.0000 -25.7851 0.0000
# 4 0.0000 0.0000 0.0000 3.5664 0.0000 -21.5771
# 5 -26.2871 -6.4244 -25.7851 0.0000 47.4620 0.0000
# 6 0.0000 0.0000 0.0000 -21.5771 0.0000 29.2868
#
#
#
# Elastic Compliance Matrix: (Units=1/GPa)
#
#
# Indices 1 2 3 4 5 6 
#
# 1 0.007236 -0.003962 -0.001148 0.000000 0.002847 0.000000
# 2 -0.003962 0.008755 -0.003281 0.000000 -0.002792 0.000000
# 3 -0.001148 -0.003281 0.017984 0.000000 0.008690 0.000000
# 4 0.000000 0.000000 0.000000 -0.081099 0.000000 -0.059750
# 5 0.002847 -0.002792 0.008690 0.000000 0.026990 0.000000
# 6 0.000000 0.000000 0.000000 -0.059750 0.000000 -0.009876
#
#
# Mechanical properties :
#
#
# Convention : Reuss Voigt Hill
#
# Bulk Modulus (GPa) = 58.16525 94.75275 76.45900
# Shear Modulus (GPa) = -666.85816 34.38807 -316.23504
#
# Velocity S-wave (km/s) = -17.75569 4.03204 -12.22717
# Velocity P-wave (km/s) = 19.82056 8.15303 12.77464
#
# Compressibility (1/GPa) = 0.01719239
#
# Stress axis : x y z
#
# Youngs Moduli (GPa) = 138.20286 114.21937 55.60586
#
# Poissons Ratio (x) = 0.45258 0.06385
# Poissons Ratio (y) = 0.54761 0.18242
# Poissons Ratio (z) = 0.15869 0.37470
#
# Static dielectric constant tensor:
#      x y z
#    x 1.725070 0.000000 0.017950 
#    y 0.000000 1.824210 0.000000 
#    z 0.017950 0.000000 1.743740 
# 
# From -- ./inp_files/3516.got.cif
#   From: 2010.05.17/outbox.cif.g08.bks.cpg/sg10_2_cif.got.tgz:3516.got - 2010.06.03 11:33:40.
