data_PCOD9150185
_publ_section_title
;
Structure prediction by ZEFSAII (Michael W. Deem and Ramdas Pophale) SiO2 
 PCOD9150185
Probable space group: P 2/M
;
_chemical_formula_sum "Si O2"
_cell_formula_units_Z 22
_cell_length_a 14.907058
_cell_length_b 11.327749
_cell_length_c 16.666607
_cell_angle_alpha 90.000000
_cell_angle_beta 154.381418
_cell_angle_gamma 90.000000
_cell_volume 1216.876624
_symmetry_space_group_name_H-M "P 2/M"
_symmetry_group_IT_number 10
_symmetry_cell_setting 'monoclinic'
loop_
_space_group_symop_operation_xyz
x,y,z
-x,y,-z
-x,-y,-z
x,-y,z
loop_
_atom_site_type_symbol
_atom_site_label
_atom_site_fract_x
_atom_site_fract_y
_atom_site_fract_z
Si Si1 0.914561 0.500000 0.686608
Si Si2 0.798445 0.500000 0.781411
Si Si3 0.310613 0.237757 0.292713
Si Si4 0.882560 0.860668 0.015487
Si Si5 0.234480 0.500000 0.710154
Si Si6 0.500000 0.305766 0.000000
Si Si7 0.254954 0.699406 0.961968
Si Si8 0.484256 0.500000 0.747687
O O1 0.868099 0.500000 0.744557
O O2 0.690930 0.500000 0.462059
O O3 0.058581 0.614196 0.781248
O O4 0.678735 0.379641 0.705126
O O5 0.000000 0.500000 0.000000
O O6 0.500000 0.195859 0.500000
O O7 0.093712 0.206171 0.160914
O O8 0.288575 0.177107 0.188605
O O9 0.915543 0.000000 0.038031
O O10 0.820289 0.813970 0.051905
O O11 0.309930 0.612607 0.819153
O O12 0.357407 0.500000 0.727466
O O13 0.000000 0.500000 0.500000
O O14 0.401982 0.260922 0.005711
O O15 0.374077 0.616349 0.124355
#
# Coordination Sequence:
#
# PCOD9150185 Si02
#       8
#     2   2   4   4   2   2   4   2
#     4  11  19  33  56  81 115 147 177 218 282 336
#     4  12  20  37  56  88 121 144 169 218 279 342
#     4  11  23  40  61  85 110 143 184 226 279 338
#     4  11  24  41  58  77 109 150 192 238 277 315
#     4   9  14  28  46  75 110 141 173 209 268 335
#     4   9  18  30  51  78 110 146 175 223 270 324
#     4  10  20  36  54  82 116 143 184 226 274 332
#     4   9  20  29  53  83 109 142 178 218 273 336
#
# _framework density 18.079070999999999
#
# number of rings (size 3 to 8) (size 9 to 14) (size 15 to 20)
#    0.000    1.636    3.636    4.091    2.545    2.182 
#    0.000    0.455    0.000    0.000    0.000    0.000 
#    0.000   10.909    0.000    0.000    0.000    0.000 
#
# Total GULP energy -122595.993303 kJ/mol
# GULP energy per Si atom -5572.545150 kJ/mol
# Density = 1.803792 g / cm^3
# Si number density = 18.079071 Si / 1000 Ang^3
#
#
#
# Elastic Constant Matrix: (Units=GPa)
#
#
# Indices 1 2 3 4 5 6 
#
# 1 80.6724 13.4096 0.7324 0.0000 -19.5285 0.0000
# 2 13.4096 80.0473 9.1282 0.0000 -1.3103 0.0000
# 3 0.7324 9.1282 127.6680 0.0000 -2.6128 0.0000
# 4 0.0000 0.0000 0.0000 2.2113 0.0000 -5.2133
# 5 -19.5285 -1.3103 -2.6128 0.0000 23.3842 0.0000
# 6 0.0000 0.0000 0.0000 -5.2133 0.0000 -3.0794
#
#
#
# Elastic Compliance Matrix: (Units=1/GPa)
#
#
# Indices 1 2 3 4 5 6 
#
# 1 0.016025 -0.002508 0.000359 0.000000 0.013282 0.000000
# 2 -0.002508 0.012996 -0.000945 0.000000 -0.001472 0.000000
# 3 0.000359 -0.000945 0.007921 0.000000 0.001132 0.000000
# 4 0.000000 0.000000 0.000000 0.090603 0.000000 -0.153387
# 5 0.013282 -0.001472 0.001132 0.000000 0.053900 0.000000
# 6 0.000000 0.000000 0.000000 -0.153387 0.000000 -0.065061
#
#
# Mechanical properties :
#
#
# Convention : Reuss Voigt Hill
#
# Bulk Modulus (GPa) = 32.51499 37.21423 34.86461
# Shear Modulus (GPa) = 37.64394 22.17773 29.91083
#
# Velocity S-wave (km/s) = 4.56805 3.50624 4.07190
# Velocity P-wave (km/s) = 6.77101 6.08444 6.43689
#
# Compressibility (1/GPa) = 0.03075505
#
# Stress axis : x y z
#
# Youngs Moduli (GPa) = 62.40388 76.94427 126.23888
#
# Poissons Ratio (x) = 0.19298 -0.04535
# Poissons Ratio (y) = 0.15651 0.11929
# Poissons Ratio (z) = -0.02242 0.07271
#
# Static dielectric constant tensor:
#      x y z
#    x 1.658050 0.000000 -0.022110 
#    y 0.000000 1.618120 0.000000 
#    z -0.022110 0.000000 1.616960 
# 
# From -- ./inp_files/67224.got.cif
#   From: 2010.05.17/outbox.cif.g08.bks.cpg/sg10_34_cif.got.tgz:67224.got - 2010.06.03 11:33:40.
