data_PCOD9150294
_publ_section_title
;
Structure prediction by ZEFSAII (Michael W. Deem and Ramdas Pophale) SiO2 
 PCOD9150294
Probable space group: P 2/M
;
_chemical_formula_sum "Si O2"
_cell_formula_units_Z 30
_cell_length_a 13.504214
_cell_length_b 12.139752
_cell_length_c 24.226048
_cell_angle_alpha 90.000000
_cell_angle_beta 157.455357
_cell_angle_gamma 90.000000
_cell_volume 1522.710710
_symmetry_space_group_name_H-M "P 2/M"
_symmetry_group_IT_number 10
_symmetry_cell_setting 'monoclinic'
loop_
_space_group_symop_operation_xyz
x,y,z
-x,y,-z
-x,-y,-z
x,-y,z
loop_
_atom_site_type_symbol
_atom_site_label
_atom_site_fract_x
_atom_site_fract_y
_atom_site_fract_z
Si Si1 0.774385 0.226017 0.040764
Si Si2 0.180540 0.624145 0.044533
Si Si3 0.799042 0.222378 0.262543
Si Si4 0.324832 0.124682 0.319994
Si Si5 0.500000 0.298067 0.500000
Si Si6 0.070013 0.627604 0.775457
Si Si7 0.735830 0.677918 0.349146
Si Si8 0.721067 0.125052 0.429632
O O1 0.802528 0.309001 0.107121
O O2 0.017646 0.143990 0.165496
O O3 0.810603 0.298529 0.004061
O O4 0.488018 0.173028 0.895121
O O5 0.095933 0.500000 0.985959
O O6 0.465839 0.619558 0.217033
O O7 0.000000 0.668334 0.000000
O O8 0.867593 0.300545 0.246607
O O9 0.758594 0.294104 0.296621
O O10 0.041188 0.146416 0.405033
O O11 0.451540 0.217100 0.423572
O O12 0.455505 0.137839 0.327238
O O13 0.386189 0.000000 0.369684
O O14 0.760656 0.366153 0.625283
O O15 0.150947 0.500000 0.812791
O O16 0.731455 0.787482 0.385407
O O17 0.000000 0.618754 0.500000
O O18 0.739279 0.000000 0.418293
#
# Coordination Sequence:
#
# PCOD9150294 Si02
#       8
#     4   4   4   4   2   4   4   4
#     4  10  22  37  58  85 122 154 194 242 288 347
#     4  10  20  36  57  81 113 154 192 235 290 344
#     4  10  21  37  55  85 117 151 186 244 291 343
#     4  10  20  36  61  86 115 154 194 239 292 344
#     4  10  20  38  60  84 120 146 194 248 288 346
#     4  11  22  38  61  87 116 156 201 242 292 347
#     4   9  20  36  57  81 114 146 189 241 289 342
#     4  10  20  38  63  86 113 155 199 242 294 349
#
# _framework density 19.701706000000001
#
# number of rings (size 3 to 8) (size 9 to 14) (size 15 to 20)
#    0.000    2.000    1.333    2.000    0.000    6.400 
#    0.000    4.000    0.000    9.600    0.000    0.000 
#    0.000    0.000    0.000    0.000    0.000    0.000 
#
# Total GULP energy -167278.261065 kJ/mol
# GULP energy per Si atom -5575.942035 kJ/mol
# Density = 1.965686 g / cm^3
# Si number density = 19.701706 Si / 1000 Ang^3
#
#
#
# Elastic Constant Matrix: (Units=GPa)
#
#
# Indices 1 2 3 4 5 6 
#
# 1 106.9539 34.0268 18.0275 0.0000 -2.3495 0.0000
# 2 34.0268 77.1269 -7.1528 0.0000 -7.6794 0.0000
# 3 18.0275 -7.1528 78.6438 0.0000 5.2742 0.0000
# 4 0.0000 0.0000 0.0000 -2.5824 0.0000 -11.0754
# 5 -2.3495 -7.6794 5.2742 0.0000 29.2107 0.0000
# 6 0.0000 0.0000 0.0000 -11.0754 0.0000 16.7053
#
#
#
# Elastic Compliance Matrix: (Units=1/GPa)
#
#
# Indices 1 2 3 4 5 6 
#
# 1 0.011603 -0.005403 -0.003157 0.000000 0.000083 0.000000
# 2 -0.005403 0.015907 0.002464 0.000000 0.003302 0.000000
# 3 -0.003157 0.002464 0.013804 0.000000 -0.002099 0.000000
# 4 0.000000 0.000000 0.000000 -0.100754 0.000000 -0.066798
# 5 0.000083 0.003302 -0.002099 0.000000 0.035488 0.000000
# 6 0.000000 0.000000 0.000000 -0.066798 0.000000 0.015575
#
#
# Mechanical properties :
#
#
# Convention : Reuss Voigt Hill
#
# Bulk Modulus (GPa) = 34.33923 39.16972 36.75447
# Shear Modulus (GPa) = 369.77587 23.18828 196.48208
#
# Velocity S-wave (km/s) = 13.71476 3.43442 9.99725
# Velocity P-wave (km/s) = 16.37865 5.97089 12.32704
#
# Compressibility (1/GPa) = 0.02912121
#
# Stress axis : x y z
#
# Youngs Moduli (GPa) = 86.18619 62.86605 72.44268
#
# Poissons Ratio (x) = 0.33969 0.22868
# Poissons Ratio (y) = 0.46570 -0.17849
# Poissons Ratio (z) = 0.27206 -0.15490
#
# Static dielectric constant tensor:
#      x y z
#    x 1.667080 0.000000 0.020490 
#    y 0.000000 1.644300 0.000000 
#    z 0.020490 0.000000 1.740720 
# 
# From -- ./inp_files/93289.got.cif
#   From: 2010.05.17/outbox.cif.g08.bks.cpg/sg10_47_cif.got.tgz:93289.got - 2010.06.03 11:33:40.
