data_PCOD9150951
_publ_section_title
;
Structure prediction by ZEFSAII (Michael W. Deem and Ramdas Pophale) SiO2 
 PCOD9150951
Probable space group: P 2/M
;
_chemical_formula_sum "Si O2"
_cell_formula_units_Z 28
_cell_length_a 30.785153
_cell_length_b 8.388858
_cell_length_c 7.993939
_cell_angle_alpha 90.000000
_cell_angle_beta 141.711877
_cell_angle_gamma 90.000000
_cell_volume 1279.168781
_symmetry_space_group_name_H-M "P 2/M"
_symmetry_group_IT_number 10
_symmetry_cell_setting 'monoclinic'
loop_
_space_group_symop_operation_xyz
x,y,z
-x,y,-z
-x,-y,-z
x,-y,z
loop_
_atom_site_type_symbol
_atom_site_label
_atom_site_fract_x
_atom_site_fract_y
_atom_site_fract_z
Si Si1 0.923994 0.194746 0.333970
Si Si2 0.519631 0.176815 0.869242
Si Si3 0.150171 0.193789 0.560041
Si Si4 0.302399 0.811030 0.159676
Si Si5 0.669466 0.688167 0.381279
Si Si6 0.819146 0.193442 0.719313
Si Si7 0.429722 0.322280 0.371227
O O1 0.905003 0.247336 0.465241
O O2 0.000000 0.246680 0.500000
O O3 0.923832 0.000000 0.335574
O O4 0.865606 0.242149 0.020347
O O5 0.465656 0.317359 0.660383
O O6 0.506614 0.000000 0.754751
O O7 0.500000 0.155258 0.000000
O O8 0.600568 0.226876 0.097524
O O9 0.147653 0.245083 0.358636
O O10 0.146701 0.000000 0.545578
O O11 0.226044 0.237721 0.864509
O O12 0.320794 0.733276 0.393331
O O13 0.358344 0.768803 0.184480
O O14 0.302789 0.000000 0.188460
O O15 0.660806 0.500000 0.339934
O O16 0.740541 0.743029 0.504434
O O17 0.816061 0.000000 0.710170
O O18 0.500000 0.249982 0.500000
O O19 0.418120 0.500000 0.272403
#
# Coordination Sequence:
#
# PCOD9150951 Si02
#       7
#     4   4   4   4   4   4   4
#     4   9  17  32  58  93 129 158 192 244 300 354
#     4  11  23  39  60  83 107 148 200 247 300 361
#     4   9  19  34  56  89 122 157 201 247 297 353
#     4  11  21  38  60  83 114 157 206 252 301 364
#     4  12  24  38  59  85 114 151 198 252 311 365
#     4  10  20  37  60  87 122 160 199 245 296 360
#     4  11  25  41  56  83 121 156 198 254 311 360
#
# _framework density 21.889216000000001
#
# number of rings (size 3 to 8) (size 9 to 14) (size 15 to 20)
#    0.000    1.571    2.857    2.571    2.000    2.286 
#    0.000    3.571    0.000    0.429    0.000    1.000 
#    0.000    0.000    0.000    0.000    0.000    0.000 
#
# Total GULP energy -156163.276264 kJ/mol
# GULP energy per Si atom -5577.259867 kJ/mol
# Density = 2.183939 g / cm^3
# Si number density = 21.889216 Si / 1000 Ang^3
#
#
#
# Elastic Constant Matrix: (Units=GPa)
#
#
# Indices 1 2 3 4 5 6 
#
# 1 158.4409 10.7731 19.0107 0.0000 15.1245 0.0000
# 2 10.7731 48.0119 4.4301 0.0000 -0.9310 0.0000
# 3 19.0107 4.4301 34.0154 0.0000 14.6573 0.0000
# 4 0.0000 0.0000 0.0000 -17.3651 0.0000 2.2297
# 5 15.1245 -0.9310 14.6573 0.0000 38.9124 0.0000
# 6 0.0000 0.0000 0.0000 2.2297 0.0000 -71.9049
#
#
#
# Elastic Compliance Matrix: (Units=1/GPa)
#
#
# Indices 1 2 3 4 5 6 
#
# 1 0.006913 -0.001304 -0.003011 0.000000 -0.001584 0.000000
# 2 -0.001304 0.021438 -0.002988 0.000000 0.002145 0.000000
# 3 -0.003011 -0.002988 0.037003 0.000000 -0.012839 0.000000
# 4 0.000000 0.000000 0.000000 -0.057817 0.000000 -0.001793
# 5 -0.001584 0.002145 -0.012839 0.000000 0.031202 0.000000
# 6 0.000000 0.000000 0.000000 -0.001793 0.000000 -0.013963
#
#
# Mechanical properties :
#
#
# Convention : Reuss Voigt Hill
#
# Bulk Modulus (GPa) = 19.70513 34.32178 27.01345
# Shear Modulus (GPa) = 88.81519 3.67876 46.24698
#
# Velocity S-wave (km/s) = 6.37675 1.29780 4.60148
# Velocity P-wave (km/s) = 7.95230 4.23787 6.37175
#
# Compressibility (1/GPa) = 0.05074822
#
# Stress axis : x y z
#
# Youngs Moduli (GPa) = 144.66247 46.64607 27.02499
#
# Poissons Ratio (x) = 0.06083 0.08137
# Poissons Ratio (y) = 0.18864 0.08074
# Poissons Ratio (z) = 0.43559 0.13936
#
# Static dielectric constant tensor:
#      x y z
#    x 1.862850 0.000000 -0.027990 
#    y 0.000000 1.791040 0.000000 
#    z -0.027990 0.000000 1.787250 
# 
# From -- ./inp_files/38050.got.cif
#   From: 2010.05.17/outbox.cif.g08.bks.cpg/sg10_20_cif.got.tgz:38050.got - 2010.06.03 11:33:40.
