data_PCOD9150043
_publ_section_title
;
Structure prediction by ZEFSAII (Michael W. Deem and Ramdas Pophale) SiO2 
 PCOD9150043
Probable space group: P 2/M
;
_chemical_formula_sum "Si O2"
_cell_formula_units_Z 28
_cell_length_a 14.095276
_cell_length_b 7.710348
_cell_length_c 13.810334
_cell_angle_alpha 90.000000
_cell_angle_beta 119.926264
_cell_angle_gamma 90.000000
_cell_volume 1300.782199
_symmetry_space_group_name_H-M "P 2/M"
_symmetry_group_IT_number 10
_symmetry_cell_setting 'monoclinic'
loop_
_space_group_symop_operation_xyz
x,y,z
-x,y,-z
-x,-y,-z
x,-y,z
loop_
_atom_site_type_symbol
_atom_site_label
_atom_site_fract_x
_atom_site_fract_y
_atom_site_fract_z
Si Si1 0.100463 0.797588 0.612345
Si Si2 0.034297 0.300328 0.790398
Si Si3 0.814659 0.296477 0.777890
Si Si4 0.530652 0.787916 0.906767
Si Si5 0.622192 0.789784 0.533479
Si Si6 0.227258 0.201025 0.025493
Si Si7 0.336587 0.787574 0.666374
O O1 0.072992 0.786990 0.711306
O O2 0.220275 0.725650 0.648819
O O3 0.000000 0.720055 0.500000
O O4 0.107282 0.000000 0.587435
O O5 0.011619 0.500000 0.753338
O O6 0.923372 0.225955 0.780457
O O7 0.130470 0.291839 0.917998
O O8 0.833541 0.500000 0.806798
O O9 0.712062 0.274751 0.654743
O O10 0.791797 0.212175 0.869689
O O11 0.652176 0.730334 0.939206
O O12 0.437998 0.730145 0.784194
O O13 0.531495 0.000000 0.904873
O O14 0.500000 0.735757 0.000000
O O15 0.500000 0.734475 0.500000
O O16 0.649390 0.735508 0.437921
O O17 0.624809 0.000000 0.537866
O O18 0.223430 0.000000 0.993047
O O19 0.338476 0.000000 0.669884
#
# Coordination Sequence:
#
# PCOD9150043 Si02
#       7
#     4   4   4   4   4   4   4
#     4  10  20  35  58  86 113 145 188 235 279 327
#     4  11  24  40  57  80 114 153 189 229 283 342
#     4  11  24  40  57  80 114 152 186 227 284 343
#     4   9  17  31  54  84 114 142 176 223 280 334
#     4  10  20  36  60  87 114 147 190 236 278 326
#     4  11  22  37  61  87 109 142 190 238 282 332
#     4   9  17  31  53  83 116 145 179 230 284 329
#
# _framework density 21.525507999999999
#
# number of rings (size 3 to 8) (size 9 to 14) (size 15 to 20)
#    0.000    1.857    0.000    4.286    0.000   10.286 
#    0.000    0.714    0.000    9.429    0.000    0.000 
#    0.000    0.000    0.000    0.000    0.000    0.000 
#
# Total GULP energy -156555.623936 kJ/mol
# GULP energy per Si atom -5591.272283 kJ/mol
# Density = 2.147651 g / cm^3
# Si number density = 21.525508 Si / 1000 Ang^3
#
#
#
# Elastic Constant Matrix: (Units=GPa)
#
#
# Indices 1 2 3 4 5 6 
#
# 1 202.7841 -5.4727 75.5720 0.0000 8.2418 0.0000
# 2 -5.4727 35.0440 -17.0261 0.0000 2.6078 0.0000
# 3 75.5720 -17.0261 147.9216 0.0000 7.2006 0.0000
# 4 0.0000 0.0000 0.0000 236.6522 0.0000 -189.7030
# 5 8.2418 2.6078 7.2006 0.0000 40.7508 0.0000
# 6 0.0000 0.0000 0.0000 -189.7030 0.0000 184.3559
#
#
#
# Elastic Compliance Matrix: (Units=1/GPa)
#
#
# Indices 1 2 3 4 5 6 
#
# 1 0.006119 -0.000530 -0.003156 0.000000 -0.000646 0.000000
# 2 -0.000530 0.030541 0.003909 0.000000 -0.002538 0.000000
# 3 -0.003156 0.003909 0.008880 0.000000 -0.001181 0.000000
# 4 0.000000 0.000000 0.000000 0.024127 0.000000 0.024827
# 5 -0.000646 -0.002538 -0.001181 0.000000 0.025041 0.000000
# 6 0.000000 0.000000 0.000000 0.024827 0.000000 0.030971
#
#
# Mechanical properties :
#
#
# Convention : Reuss Voigt Hill
#
# Bulk Modulus (GPa) = 21.74447 54.65511 38.19979
# Shear Modulus (GPa) = 35.57150 114.53021 75.05086
#
# Velocity S-wave (km/s) = 4.06954 7.30221 5.91115
# Velocity P-wave (km/s) = 5.67496 9.82559 8.02333
#
# Compressibility (1/GPa) = 0.04598871
#
# Stress axis : x y z
#
# Youngs Moduli (GPa) = 163.41400 32.74277 112.61105
#
# Poissons Ratio (x) = 0.01734 0.35539
# Poissons Ratio (y) = 0.08654 -0.44025
# Poissons Ratio (z) = 0.51571 -0.12801
#
# Static dielectric constant tensor:
#      x y z
#    x 1.759670 0.000000 0.011570 
#    y 0.000000 1.805300 0.000000 
#    z 0.011570 0.000000 1.707530 
# 
# From -- ./inp_files/50054.got.cif
#   From: 2010.05.17/outbox.cif.g08.bks.cpg/sg10_26_cif.got.tgz:50054.got - 2010.06.03 11:33:40.
