data_PCOD9150732
_publ_section_title
;
Structure prediction by ZEFSAII (Michael W. Deem and Ramdas Pophale) SiO2 
 PCOD9150732
Probable space group: P 2/M
;
_chemical_formula_sum "Si O2"
_cell_formula_units_Z 20
_cell_length_a 15.208067
_cell_length_b 14.966277
_cell_length_c 10.072792
_cell_angle_alpha 90.000000
_cell_angle_beta 153.795344
_cell_angle_gamma 90.000000
_cell_volume 1012.385328
_symmetry_space_group_name_H-M "P 2/M"
_symmetry_group_IT_number 10
_symmetry_cell_setting 'monoclinic'
loop_
_space_group_symop_operation_xyz
x,y,z
-x,y,-z
-x,-y,-z
x,-y,z
loop_
_atom_site_type_symbol
_atom_site_label
_atom_site_fract_x
_atom_site_fract_y
_atom_site_fract_z
Si Si1 0.341277 0.403842 0.163335
Si Si2 0.922051 0.601699 0.745247
Si Si3 0.566005 0.211167 0.741625
Si Si4 0.968643 0.898267 0.299868
Si Si5 0.683190 0.777487 0.351389
O O1 0.500000 0.406005 0.500000
O O2 0.360857 0.500000 0.119689
O O3 0.378070 0.312258 0.136718
O O4 0.120229 0.397449 0.923922
O O5 0.840738 0.500000 0.634066
O O6 0.772885 0.678737 0.498307
O O7 0.000000 0.620287 0.000000
O O8 0.500000 0.217343 0.500000
O O9 0.398263 0.183811 0.619156
O O10 0.755708 0.148039 0.995782
O O11 0.139847 0.838757 0.465259
O O12 0.000000 0.900553 0.500000
O O13 0.971647 0.000000 0.253369
O O14 0.500000 0.776519 0.000000
#
# Coordination Sequence:
#
# PCOD9150732 Si02
#       5
#     4   4   4   4   4
#     4   9  17  32  57  90 128 169 208 251 309 378
#     4  10  20  36  62  96 135 176 218 261 315 384
#     4  11  23  41  68  98 133 169 212 273 330 385
#     4  11  25  47  70  94 128 169 219 272 336 403
#     4  12  25  41  67  98 132 174 220 267 326 391
#
# _framework density 19.755323000000001
#
# number of rings (size 3 to 8) (size 9 to 14) (size 15 to 20)
#    0.000    1.400    4.000    2.400    0.000    4.400 
#    0.000    1.000    0.000    3.600    0.000    0.000 
#    0.000    0.000    0.000    0.000    0.000    0.000 
#
# Total GULP energy -111667.471356 kJ/mol
# GULP energy per Si atom -5583.373568 kJ/mol
# Density = 1.971036 g / cm^3
# Si number density = 19.755323 Si / 1000 Ang^3
#
#
#
# Elastic Constant Matrix: (Units=GPa)
#
#
# Indices 1 2 3 4 5 6 
#
# 1 109.3356 41.2727 36.1945 0.0000 24.7326 0.0000
# 2 41.2727 156.3221 64.9105 0.0000 13.1306 0.0000
# 3 36.1945 64.9105 90.5692 0.0000 23.8263 0.0000
# 4 0.0000 0.0000 0.0000 23.3148 0.0000 -7.3644
# 5 24.7326 13.1306 23.8263 0.0000 31.2799 0.0000
# 6 0.0000 0.0000 0.0000 -7.3644 0.0000 19.4187
#
#
#
# Elastic Compliance Matrix: (Units=1/GPa)
#
#
# Indices 1 2 3 4 5 6 
#
# 1 0.012086 -0.001963 -0.001408 0.000000 -0.007660 0.000000
# 2 -0.001963 0.009478 -0.006716 0.000000 0.002689 0.000000
# 3 -0.001408 -0.006716 0.019238 0.000000 -0.010721 0.000000
# 4 0.000000 0.000000 0.000000 0.048728 0.000000 0.018480
# 5 -0.007660 0.002689 -0.010721 0.000000 0.045063 0.000000
# 6 0.000000 0.000000 0.000000 0.018480 0.000000 0.058505
#
#
# Mechanical properties :
#
#
# Convention : Reuss Voigt Hill
#
# Bulk Modulus (GPa) = 48.47785 71.22026 59.84905
# Shear Modulus (GPa) = 22.71195 29.05929 25.88562
#
# Velocity S-wave (km/s) = 3.39435 3.83947 3.62375
# Velocity P-wave (km/s) = 6.32096 7.46892 6.91879
#
# Compressibility (1/GPa) = 0.02062798
#
# Stress axis : x y z
#
# Youngs Moduli (GPa) = 82.74085 105.50656 51.98150
#
# Poissons Ratio (x) = 0.20710 0.07320
# Poissons Ratio (y) = 0.16241 0.34910
# Poissons Ratio (z) = 0.11651 0.70856
#
# Static dielectric constant tensor:
#      x y z
#    x 1.711710 0.000000 0.000560 
#    y 0.000000 1.721720 0.000000 
#    z 0.000560 0.000000 1.679260 
# 
# From -- ./inp_files/53951.got.cif
#   From: 2010.05.17/outbox.cif.g08.bks.cpg/sg10_27_cif.got.tgz:53951.got - 2010.06.03 11:33:40.
