data_PCOD9150027
_publ_section_title
;
Structure prediction by ZEFSAII (Michael W. Deem and Ramdas Pophale) SiO2 
 PCOD9150027
Probable space group: P 2/M
;
_chemical_formula_sum "Si O2"
_cell_formula_units_Z 24
_cell_length_a 15.170569
_cell_length_b 8.667066
_cell_length_c 15.494207
_cell_angle_alpha 90.000000
_cell_angle_beta 139.998255
_cell_angle_gamma 90.000000
_cell_volume 1309.563576
_symmetry_space_group_name_H-M "P 2/M"
_symmetry_group_IT_number 10
_symmetry_cell_setting 'monoclinic'
loop_
_space_group_symop_operation_xyz
x,y,z
-x,y,-z
-x,-y,-z
x,-y,z
loop_
_atom_site_type_symbol
_atom_site_label
_atom_site_fract_x
_atom_site_fract_y
_atom_site_fract_z
Si Si1 0.153218 0.184923 0.585176
Si Si2 0.153705 0.314983 0.395240
Si Si3 0.151122 0.314106 0.893955
Si Si4 0.848086 0.185999 0.916434
Si Si5 0.658694 0.813450 0.614926
Si Si6 0.341226 0.686660 0.877376
O O1 0.179248 0.249195 0.509381
O O2 0.261960 0.247199 0.735607
O O3 0.000000 0.233466 0.500000
O O4 0.157420 0.000000 0.586722
O O5 0.155571 0.500000 0.399921
O O6 0.263403 0.255547 0.408618
O O7 0.001712 0.265065 0.249708
O O8 0.152277 0.500000 0.898516
O O9 0.259237 0.265187 0.902034
O O10 0.181960 0.250074 0.011574
O O11 0.739512 0.233652 0.762192
O O12 0.848335 0.000000 0.920924
O O13 0.000000 0.236032 0.000000
O O14 0.500000 0.767691 0.500000
O O15 0.665285 0.000000 0.614108
O O16 0.336156 0.500000 0.868956
O O17 0.500000 0.733702 0.000000
#
# Coordination Sequence:
#
# PCOD9150027 Si02
#       6
#     4   4   4   4   4   4
#     4  11  23  38  61  90 119 156 201 248 295 351
#     4  11  22  37  61  88 116 153 197 245 293 350
#     4  10  21  36  58  87 115 149 192 240 289 343
#     4  10  20  35  58  84 110 147 191 234 281 342
#     4  10  22  40  59  84 120 154 189 239 296 349
#     4  10  22  41  62  87 122 158 194 243 301 355
#
# _framework density 18.326716000000001
#
# number of rings (size 3 to 8) (size 9 to 14) (size 15 to 20)
#    0.000    1.667    3.333    1.000    0.000    5.000 
#    0.000    3.333    0.000    0.000    0.000    0.000 
#    0.000    0.000    0.000    0.000    0.000    0.000 
#
# Total GULP energy -134101.923114 kJ/mol
# GULP energy per Si atom -5587.580130 kJ/mol
# Density = 1.828500 g / cm^3
# Si number density = 18.326716 Si / 1000 Ang^3
#
#
#
# Elastic Constant Matrix: (Units=GPa)
#
#
# Indices 1 2 3 4 5 6 
#
# 1 200.6228 41.8620 129.8121 0.0000 -10.0944 0.0000
# 2 41.8620 17.2912 42.0325 0.0000 0.0357 0.0000
# 3 129.8121 42.0325 197.1585 0.0000 -6.9134 0.0000
# 4 0.0000 0.0000 0.0000 25.4946 0.0000 -12.8114
# 5 -10.0944 0.0357 -6.9134 0.0000 43.7766 0.0000
# 6 0.0000 0.0000 0.0000 -12.8114 0.0000 28.3719
#
#
#
# Elastic Compliance Matrix: (Units=1/GPa)
#
#
# Indices 1 2 3 4 5 6 
#
# 1 0.011177 -0.019415 -0.003146 0.000000 0.002096 0.000000
# 2 -0.019415 0.154530 -0.020436 0.000000 -0.007830 0.000000
# 3 -0.003146 -0.020436 0.011539 0.000000 0.001113 0.000000
# 4 0.000000 0.000000 0.000000 0.050737 0.000000 0.022910
# 5 0.002096 -0.007830 0.001113 0.000000 0.023509 0.000000
# 6 0.000000 0.000000 0.000000 0.022910 0.000000 0.045591
#
#
# Mechanical properties :
#
#
# Convention : Reuss Voigt Hill
#
# Bulk Modulus (GPa) = 10.95871 93.60953 52.28412
# Shear Modulus (GPa) = 12.09202 32.95303 22.52252
#
# Velocity S-wave (km/s) = 2.57145 4.24499 3.50943
# Velocity P-wave (km/s) = 3.84826 8.67269 6.70912
#
# Compressibility (1/GPa) = 0.09125159
#
# Stress axis : x y z
#
# Youngs Moduli (GPa) = 89.46885 6.47123 86.65915
#
# Poissons Ratio (x) = 0.12564 0.27267
# Poissons Ratio (y) = 1.73708 1.77093
# Poissons Ratio (z) = 0.28151 0.13224
#
# Static dielectric constant tensor:
#      x y z
#    x 1.601020 0.000000 0.015160 
#    y 0.000000 1.622780 0.000000 
#    z 0.015160 0.000000 1.604770 
# 
# From -- ./inp_files/66321.got.cif
#   From: 2010.05.17/outbox.cif.g08.bks.cpg/sg10_34_cif.got.tgz:66321.got - 2010.06.03 11:33:40.
