data_PCOD9150781
_publ_section_title
;
Structure prediction by ZEFSAII (Michael W. Deem and Ramdas Pophale) SiO2 
 PCOD9150781
Probable space group: P 2/M
;
_chemical_formula_sum "Si O2"
_cell_formula_units_Z 30
_cell_length_a 10.657571
_cell_length_b 7.398902
_cell_length_c 16.934609
_cell_angle_alpha 90.000000
_cell_angle_beta 68.429123
_cell_angle_gamma 90.000000
_cell_volume 1241.842668
_symmetry_space_group_name_H-M "P 2/M"
_symmetry_group_IT_number 10
_symmetry_cell_setting 'monoclinic'
loop_
_space_group_symop_operation_xyz
x,y,z
-x,y,-z
-x,-y,-z
x,-y,z
loop_
_atom_site_type_symbol
_atom_site_label
_atom_site_fract_x
_atom_site_fract_y
_atom_site_fract_z
Si Si1 0.498448 0.792267 0.301512
Si Si2 0.856764 0.216337 0.489136
Si Si3 0.718020 0.718414 0.942952
Si Si4 0.619796 0.500000 0.584388
Si Si5 0.023760 0.707513 0.880251
Si Si6 0.970560 0.782421 0.294754
Si Si7 0.276548 0.211156 0.233427
Si Si8 0.296141 0.719615 0.882955
O O1 0.497455 0.658377 0.374396
O O2 0.377049 0.710613 0.274498
O O3 0.620348 0.786475 0.210815
O O4 0.477733 0.000000 0.328583
O O5 0.736240 0.340553 0.546471
O O6 0.883230 0.259157 0.390988
O O7 0.000000 0.249879 0.500000
O O8 0.829967 0.000000 0.504631
O O9 0.715301 0.500000 0.942040
O O10 0.667911 0.773512 0.868375
O O11 0.873743 0.785371 0.910312
O O12 0.654360 0.774235 0.041078
O O13 0.003408 0.500000 0.908527
O O14 0.078331 0.713050 0.778074
O O15 0.140934 0.780907 0.908273
O O16 0.124860 0.714896 0.270650
O O17 0.977124 0.000000 0.286942
O O18 0.267634 0.000000 0.255016
O O19 0.298101 0.500000 0.879619
#
# Coordination Sequence:
#
# PCOD9150781 Si02
#       8
#     4   4   4   2   4   4   4   4
#     4  11  24  40  58  82 116 160 203 244 286 341
#     4  10  21  37  59  92 126 153 186 237 293 352
#     4   9  18  32  56  86 115 149 192 242 295 347
#     4  12  23  38  60  84 113 156 194 238 287 350
#     4   9  18  33  57  85 116 151 189 239 295 348
#     4   9  18  34  56  84 118 149 181 229 292 353
#     4   9  19  35  53  79 119 156 187 231 288 345
#     4  10  20  37  56  81 115 155 202 248 290 337
#
# _framework density 24.157647999999998
#
# number of rings (size 3 to 8) (size 9 to 14) (size 15 to 20)
#    0.000    2.267    0.667    1.800    1.867    5.333 
#    2.400    2.667    0.000    5.600    0.000    2.800 
#    0.000    0.000    0.000    0.000    0.000    0.000 
#
# Total GULP energy -167127.362065 kJ/mol
# GULP energy per Si atom -5570.912069 kJ/mol
# Density = 2.410266 g / cm^3
# Si number density = 24.157648 Si / 1000 Ang^3
#
#
#
# Elastic Constant Matrix: (Units=GPa)
#
#
# Indices 1 2 3 4 5 6 
#
# 1 18.6118 -8.0186 16.6194 0.0000 -3.4829 0.0000
# 2 -8.0186 125.3310 15.9912 0.0000 -9.7937 0.0000
# 3 16.6194 15.9912 90.5843 0.0000 -15.1273 0.0000
# 4 0.0000 0.0000 0.0000 52.4015 0.0000 -18.2574
# 5 -3.4829 -9.7937 -15.1273 0.0000 29.7751 0.0000
# 6 0.0000 0.0000 0.0000 -18.2574 0.0000 9.2991
#
#
#
# Elastic Compliance Matrix: (Units=1/GPa)
#
#
# Indices 1 2 3 4 5 6 
#
# 1 0.068889 0.006359 -0.013185 0.000000 0.003451 0.000000
# 2 0.006359 0.008876 -0.002319 0.000000 0.002485 0.000000
# 3 -0.013185 -0.002319 0.014733 0.000000 0.005180 0.000000
# 4 0.000000 0.000000 0.000000 0.060401 0.000000 0.118589
# 5 0.003451 0.002485 0.005180 0.000000 0.037438 0.000000
# 6 0.000000 0.000000 0.000000 0.118589 0.000000 0.340370
#
#
# Mechanical properties :
#
#
# Convention : Reuss Voigt Hill
#
# Bulk Modulus (GPa) = 13.47549 31.52345 22.49947
# Shear Modulus (GPa) = 8.71487 32.29080 20.50284
#
# Velocity S-wave (km/s) = 1.90140 3.66002 2.91642
# Velocity P-wave (km/s) = 3.22656 5.56222 4.54692
#
# Compressibility (1/GPa) = 0.07420880
#
# Stress axis : x y z
#
# Youngs Moduli (GPa) = 14.51613 112.66603 67.87538
#
# Poissons Ratio (x) = -0.71649 0.89495
# Poissons Ratio (y) = -0.09231 0.15737
# Poissons Ratio (z) = 0.19140 0.26123
#
# Static dielectric constant tensor:
#      x y z
#    x 1.945060 0.000000 0.018110 
#    y 0.000000 1.951530 0.000000 
#    z 0.018110 0.000000 1.990390 
# 
# From -- ./inp_files/76203.got.cif
#   From: 2010.05.17/outbox.cif.g08.bks.cpg/sg10_39_cif.got.tgz:76203.got - 2010.06.03 11:33:40.
