data_PCOD9150748
_publ_section_title
;
Structure prediction by ZEFSAII (Michael W. Deem and Ramdas Pophale) SiO2 
 PCOD9150748
Probable space group: P 2/M
;
_chemical_formula_sum "Si O2"
_cell_formula_units_Z 30
_cell_length_a 14.333645
_cell_length_b 7.909979
_cell_length_c 11.390025
_cell_angle_alpha 90.000000
_cell_angle_beta 95.751330
_cell_angle_gamma 90.000000
_cell_volume 1284.887122
_symmetry_space_group_name_H-M "P 2/M"
_symmetry_group_IT_number 10
_symmetry_cell_setting 'monoclinic'
loop_
_space_group_symop_operation_xyz
x,y,z
-x,y,-z
-x,-y,-z
x,-y,z
loop_
_atom_site_type_symbol
_atom_site_label
_atom_site_fract_x
_atom_site_fract_y
_atom_site_fract_z
Si Si1 0.216876 0.814352 0.953307
Si Si2 0.366477 0.794477 0.564425
Si Si3 0.955425 0.796240 0.215403
Si Si4 0.844615 0.797447 0.439785
Si Si5 0.409751 0.302934 0.054399
Si Si6 0.847698 0.316872 0.693465
Si Si7 0.210930 0.000000 0.193618
Si Si8 0.435913 0.797365 0.320926
O O1 0.123446 0.739259 0.886575
O O2 0.228666 0.000000 0.894111
O O3 0.316545 0.724488 0.965868
O O4 0.200760 0.857266 0.087248
O O5 0.263826 0.747505 0.596011
O O6 0.386001 0.732246 0.433388
O O7 0.455452 0.740230 0.653627
O O8 0.368732 0.000000 0.563448
O O9 0.908712 0.767605 0.335741
O O10 0.055175 0.708006 0.224255
O O11 0.974380 0.000000 0.201675
O O12 0.874305 0.699756 0.559829
O O13 0.849566 0.000000 0.462395
O O14 0.426127 0.500000 0.071243
O O15 0.398829 0.234954 0.185465
O O16 0.500000 0.225726 0.000000
O O17 0.805319 0.500000 0.713682
O O18 0.786243 0.151275 0.709144
O O19 0.433577 0.000000 0.331154
#
# Coordination Sequence:
#
# PCOD9150748 Si02
#       8
#     4   4   4   4   4   4   2   4
#     4   9  23  42  68  93 121 171 218 272 326 385
#     4   8  17  33  58  93 121 154 204 264 321 382
#     4  10  21  41  66  93 130 169 219 279 333 393
#     4  10  20  36  63  94 131 170 216 272 333 391
#     4  11  25  41  59  89 133 174 214 267 323 383
#     4  12  25  41  68 100 132 177 218 270 345 404
#     4  10  24  47  68  98 134 170 222 289 317 403
#     4   9  18  35  61  88 119 159 209 260 316 385
#
# _framework density 23.348355000000002
#
# number of rings (size 3 to 8) (size 9 to 14) (size 15 to 20)
#    0.400    1.733    1.333    1.600    3.733    5.333 
#    0.000    2.667    0.000    0.000    0.000    0.000 
#    0.000    0.000    0.000    0.000    0.000    0.000 
#
# Total GULP energy -167061.122257 kJ/mol
# GULP energy per Si atom -5568.704075 kJ/mol
# Density = 2.329521 g / cm^3
# Si number density = 23.348355 Si / 1000 Ang^3
#
#
#
# Elastic Constant Matrix: (Units=GPa)
#
#
# Indices 1 2 3 4 5 6 
#
# 1 83.0716 18.7436 10.8519 0.0000 17.5963 0.0000
# 2 18.7436 64.6457 8.1364 0.0000 -5.8242 0.0000
# 3 10.8519 8.1364 63.9197 0.0000 23.2397 0.0000
# 4 0.0000 0.0000 0.0000 -91.7021 0.0000 58.0426
# 5 17.5963 -5.8242 23.2397 0.0000 40.8813 0.0000
# 6 0.0000 0.0000 0.0000 58.0426 0.0000 -70.1568
#
#
#
# Elastic Compliance Matrix: (Units=1/GPa)
#
#
# Indices 1 2 3 4 5 6 
#
# 1 0.014654 -0.005040 0.000892 0.000000 -0.007533 0.000000
# 2 -0.005040 0.018065 -0.003994 0.000000 0.007013 0.000000
# 3 0.000892 -0.003994 0.020607 0.000000 -0.012668 0.000000
# 4 0.000000 0.000000 0.000000 -0.022893 0.000000 -0.018940
# 5 -0.007533 0.007013 -0.012668 0.000000 0.035904 0.000000
# 6 0.000000 0.000000 0.000000 -0.018940 0.000000 -0.029923
#
#
# Mechanical properties :
#
#
# Convention : Reuss Voigt Hill
#
# Bulk Modulus (GPa) = 26.99520 31.90009 29.44765
# Shear Modulus (GPa) = 76.87188 -12.60186 32.13501
#
# Velocity S-wave (km/s) = 5.74416 -2.32573 3.71392
# Velocity P-wave (km/s) = 7.45526 2.54564 5.57051
#
# Compressibility (1/GPa) = 0.03704362
#
# Stress axis : x y z
#
# Youngs Moduli (GPa) = 68.24093 55.35673 48.52693
#
# Poissons Ratio (x) = 0.27899 -0.04330
# Poissons Ratio (y) = 0.34392 0.19380
# Poissons Ratio (z) = -0.06090 0.22108
#
# Static dielectric constant tensor:
#      x y z
#    x 1.961590 0.000000 0.011480 
#    y 0.000000 1.906510 0.000000 
#    z 0.011480 0.000000 1.890280 
# 
# From -- ./inp_files/50007.got.cif
#   From: 2010.05.17/outbox.cif.g08.bks.cpg/sg10_26_cif.got.tgz:50007.got - 2010.06.03 11:33:40.
