data_PCOD9150669
_publ_section_title
;
Structure prediction by ZEFSAII (Michael W. Deem and Ramdas Pophale) SiO2 
 PCOD9150669
Probable space group: P 2/M
;
_chemical_formula_sum "Si O2"
_cell_formula_units_Z 24
_cell_length_a 19.523227
_cell_length_b 7.868249
_cell_length_c 17.825695
_cell_angle_alpha 90.000000
_cell_angle_beta 151.282819
_cell_angle_gamma 90.000000
_cell_volume 1315.701476
_symmetry_space_group_name_H-M "P 2/M"
_symmetry_group_IT_number 10
_symmetry_cell_setting 'monoclinic'
loop_
_space_group_symop_operation_xyz
x,y,z
-x,y,-z
-x,-y,-z
x,-y,z
loop_
_atom_site_type_symbol
_atom_site_label
_atom_site_fract_x
_atom_site_fract_y
_atom_site_fract_z
Si Si1 0.212785 0.500000 0.642542
Si Si2 0.565314 0.198457 0.146171
Si Si3 0.209359 0.693211 0.046118
Si Si4 0.659578 0.206074 0.668494
Si Si5 0.106522 0.500000 0.712647
Si Si6 0.930406 0.802825 0.849722
Si Si7 0.271478 0.190600 0.945716
O O1 0.309189 0.333179 0.721136
O O2 0.166965 0.500000 0.685973
O O3 0.064763 0.500000 0.454994
O O4 0.610196 0.000000 0.195086
O O5 0.500000 0.223733 0.000000
O O6 0.433281 0.227750 0.075648
O O7 0.243440 0.500000 0.060164
O O8 0.287335 0.742249 0.198230
O O9 0.255075 0.803304 0.019404
O O10 0.040826 0.711280 0.901693
O O11 0.500000 0.264080 0.500000
O O12 0.772765 0.266330 0.714421
O O13 0.663788 0.000000 0.669842
O O14 0.168689 0.332995 0.812654
O O15 0.923358 0.000000 0.819406
O O16 0.000000 0.799859 0.000000
O O17 0.237959 0.000000 0.885611
#
# Coordination Sequence:
#
# PCOD9150669 Si02
#       7
#     2   4   4   4   2   4   4
#     4  11  22  37  62  85 126 146 184 254 283 349
#     4  10  20  36  61  89 114 156 199 233 284 341
#     4  11  21  33  54  81 109 144 189 234 282 337
#     4   9  18  34  55  79 107 142 184 229 283 339
#     4  11  23  38  57  92 115 155 190 229 310 337
#     4   8  15  30  51  74 101 137 179 221 268 324
#     4  11  22  39  61  84 117 153 200 244 280 346
#
# _framework density 18.241220999999999
#
# number of rings (size 3 to 8) (size 9 to 14) (size 15 to 20)
#    0.000    2.000    2.500    3.250    0.000    4.000 
#    0.000    3.333    0.000    2.000    0.000    0.000 
#    0.000    0.000    0.000    0.000    0.000    0.000 
#
# Total GULP energy -133878.105675 kJ/mol
# GULP energy per Si atom -5578.254403 kJ/mol
# Density = 1.819970 g / cm^3
# Si number density = 18.241221 Si / 1000 Ang^3
#
#
#
# Elastic Constant Matrix: (Units=GPa)
#
#
# Indices 1 2 3 4 5 6 
#
# 1 102.5182 25.7540 45.0981 0.0000 20.7285 0.0000
# 2 25.7540 104.0686 62.4749 0.0000 16.0704 0.0000
# 3 45.0981 62.4749 121.8428 0.0000 31.6199 0.0000
# 4 0.0000 0.0000 0.0000 -30.3754 0.0000 -16.8528
# 5 20.7285 16.0704 31.6199 0.0000 24.8086 0.0000
# 6 0.0000 0.0000 0.0000 -16.8528 0.0000 14.6589
#
#
#
# Elastic Compliance Matrix: (Units=1/GPa)
#
#
# Indices 1 2 3 4 5 6 
#
# 1 0.012373 -0.000465 -0.002595 0.000000 -0.006730 0.000000
# 2 -0.000465 0.013900 -0.007052 0.000000 0.000372 0.000000
# 3 -0.002595 -0.007052 0.016490 0.000000 -0.014281 0.000000
# 4 0.000000 0.000000 0.000000 -0.020100 0.000000 -0.023109
# 5 -0.006730 0.000372 -0.014281 0.000000 0.063892 0.000000
# 6 0.000000 0.000000 0.000000 -0.023109 0.000000 0.041651
#
#
# Mechanical properties :
#
#
# Convention : Reuss Voigt Hill
#
# Bulk Modulus (GPa) = 44.36608 66.12040 55.24324
# Shear Modulus (GPa) = 32.06322 14.82527 23.44424
#
# Velocity S-wave (km/s) = 4.19708 2.85394 3.58891
# Velocity P-wave (km/s) = 6.91824 6.86924 6.89378
#
# Compressibility (1/GPa) = 0.02253974
#
# Stress axis : x y z
#
# Youngs Moduli (GPa) = 80.81832 71.94282 60.64459
#
# Poissons Ratio (x) = 0.03346 0.15736
# Poissons Ratio (y) = 0.03759 0.42764
# Poissons Ratio (z) = 0.20971 0.50731
#
# Static dielectric constant tensor:
#      x y z
#    x 1.625020 0.000000 0.021350 
#    y 0.000000 1.643280 0.000000 
#    z 0.021350 0.000000 1.614980 
# 
# From -- ./inp_files/78675.got.cif
#   From: 2010.05.17/outbox.cif.g08.bks.cpg/sg10_40_cif.got.tgz:78675.got - 2010.06.03 11:33:40.
