data_PCOD9150517
_publ_section_title
;
Structure prediction by ZEFSAII (Michael W. Deem and Ramdas Pophale) SiO2 
 PCOD9150517
Probable space group: P 2/M
;
_chemical_formula_sum "Si O2"
_cell_formula_units_Z 28
_cell_length_a 14.338467
_cell_length_b 7.916601
_cell_length_c 19.059367
_cell_angle_alpha 90.000000
_cell_angle_beta 143.531414
_cell_angle_gamma 90.000000
_cell_volume 1285.924796
_symmetry_space_group_name_H-M "P 2/M"
_symmetry_group_IT_number 10
_symmetry_cell_setting 'monoclinic'
loop_
_space_group_symop_operation_xyz
x,y,z
-x,y,-z
-x,-y,-z
x,-y,z
loop_
_atom_site_type_symbol
_atom_site_label
_atom_site_fract_x
_atom_site_fract_y
_atom_site_fract_z
Si Si1 0.862320 0.696788 0.463829
Si Si2 0.745468 0.801773 0.969321
Si Si3 0.333210 0.303483 0.925508
Si Si4 0.011064 0.196656 0.313593
Si Si5 0.472732 0.699601 0.707802
Si Si6 0.912350 0.794494 0.798225
Si Si7 0.432940 0.795423 0.383974
O O1 0.848287 0.500000 0.434347
O O2 0.686937 0.769531 0.354202
O O3 0.000000 0.775121 0.500000
O O4 0.917474 0.707212 0.577570
O O5 0.677483 0.710658 0.996832
O O6 0.628843 0.778693 0.834593
O O7 0.753758 0.000000 0.992587
O O8 0.924986 0.743696 0.066463
O O9 0.323449 0.500000 0.898554
O O10 0.500000 0.235456 0.000000
O O11 0.177514 0.214706 0.802123
O O12 0.070737 0.256028 0.273353
O O13 0.053910 0.000000 0.346620
O O14 0.480034 0.500000 0.725213
O O15 0.470172 0.730226 0.623234
O O16 0.747962 0.736568 0.730087
O O17 0.906339 0.000000 0.795480
O O18 0.500000 0.744124 0.500000
O O19 0.437238 0.000000 0.383987
#
# Coordination Sequence:
#
# PCOD9150517 Si02
#       7
#     4   4   4   4   4   4   4
#     4  10  23  41  58  77 110 156 195 234 296 363
#     4  10  21  38  59  84 118 155 198 246 290 342
#     4  10  21  36  57  83 116 157 194 233 289 352
#     4  10  20  36  59  87 114 143 191 246 288 336
#     4  11  24  40  58  85 120 154 194 245 299 356
#     4   8  17  35  58  85 116 150 186 233 292 348
#     4  10  20  37  63  89 115 152 196 240 292 353
#
# _framework density 21.774213
#
# number of rings (size 3 to 8) (size 9 to 14) (size 15 to 20)
#    0.000    2.143    0.000    3.429    2.000    4.571 
#    0.000    7.143    0.000    0.000    0.000    0.000 
#    0.000    0.000    0.000    0.000    0.000    0.000 
#
# Total GULP energy -156408.398778 kJ/mol
# GULP energy per Si atom -5586.014242 kJ/mol
# Density = 2.172465 g / cm^3
# Si number density = 21.774213 Si / 1000 Ang^3
#
#
#
# Elastic Constant Matrix: (Units=GPa)
#
#
# Indices 1 2 3 4 5 6 
#
# 1 75.9227 1.5726 38.9442 0.0000 32.9279 0.0000
# 2 1.5726 28.7050 -1.6308 0.0000 7.8738 0.0000
# 3 38.9442 -1.6308 89.6371 0.0000 10.9074 0.0000
# 4 0.0000 0.0000 0.0000 20.9535 0.0000 -7.6854
# 5 32.9279 7.8738 10.9074 0.0000 34.1121 0.0000
# 6 0.0000 0.0000 0.0000 -7.6854 0.0000 19.7451
#
#
#
# Elastic Compliance Matrix: (Units=1/GPa)
#
#
# Indices 1 2 3 4 5 6 
#
# 1 0.029453 0.005142 -0.009467 0.000000 -0.026591 0.000000
# 2 0.005142 0.038368 0.000151 0.000000 -0.013869 0.000000
# 3 -0.009467 0.000151 0.014738 0.000000 0.004391 0.000000
# 4 0.000000 0.000000 0.000000 0.055673 0.000000 0.021669
# 5 -0.026591 -0.013869 0.004391 0.000000 0.056780 0.000000
# 6 0.000000 0.000000 0.000000 0.021669 0.000000 0.059080
#
#
# Mechanical properties :
#
#
# Convention : Reuss Voigt Hill
#
# Bulk Modulus (GPa) = 13.47481 30.22631 21.85056
# Shear Modulus (GPa) = 17.41092 25.32073 21.36583
#
# Velocity S-wave (km/s) = 2.83081 3.41380 3.13588
# Velocity P-wave (km/s) = 4.10932 5.42683 4.81337
#
# Compressibility (1/GPa) = 0.07421254
#
# Stress axis : x y z
#
# Youngs Moduli (GPa) = 33.95187 26.06324 67.85321
#
# Poissons Ratio (x) = -0.13403 0.64238
# Poissons Ratio (y) = -0.17459 -0.01028
# Poissons Ratio (z) = 0.32143 -0.00395
#
# Static dielectric constant tensor:
#      x y z
#    x 1.780100 0.000000 0.036000 
#    y 0.000000 1.808770 0.000000 
#    z 0.036000 0.000000 1.799250 
# 
# From -- ./inp_files/84966.got.cif
#   From: 2010.05.17/outbox.cif.g08.bks.cpg/sg10_43_cif.got.tgz:84966.got - 2010.06.03 11:33:40.
