data_PCOD9150344
_publ_section_title
;
Structure prediction by ZEFSAII (Michael W. Deem and Ramdas Pophale) SiO2 
 PCOD9150344
Probable space group: P 2/M
;
_chemical_formula_sum "Si O2"
_cell_formula_units_Z 32
_cell_length_a 21.430928
_cell_length_b 7.531743
_cell_length_c 27.292649
_cell_angle_alpha 90.000000
_cell_angle_beta 18.894654
_cell_angle_gamma 90.000000
_cell_volume 1426.586431
_symmetry_space_group_name_H-M "P 2/M"
_symmetry_group_IT_number 10
_symmetry_cell_setting 'monoclinic'
loop_
_space_group_symop_operation_xyz
x,y,z
-x,y,-z
-x,-y,-z
x,-y,z
loop_
_atom_site_type_symbol
_atom_site_label
_atom_site_fract_x
_atom_site_fract_y
_atom_site_fract_z
Si Si1 0.533991 0.282897 0.530966
Si Si2 0.969016 0.717073 0.219576
Si Si3 0.942316 0.801586 0.668454
Si Si4 0.778804 0.283017 0.156607
Si Si5 0.687946 0.284419 0.764712
Si Si6 0.670769 0.713202 0.667432
Si Si7 0.273799 0.283617 0.915082
Si Si8 0.254915 0.699638 0.090301
O O1 0.500000 0.229080 0.500000
O O2 0.530992 0.500000 0.533769
O O3 0.368205 0.224499 0.691811
O O4 0.748629 0.224636 0.386686
O O5 0.962337 0.500000 0.225962
O O6 0.106363 0.779173 0.161742
O O7 0.078141 0.767731 0.088394
O O8 0.830114 0.781621 0.700757
O O9 0.845374 0.688604 0.782791
O O10 0.164362 0.762075 0.493227
O O11 0.920216 0.000000 0.703239
O O12 0.777219 0.500000 0.158593
O O13 0.716732 0.226880 0.148216
O O14 0.000000 0.228223 0.000000
O O15 0.700564 0.500000 0.757929
O O16 0.729979 0.227300 0.677880
O O17 0.468224 0.223756 0.937485
O O18 0.662387 0.500000 0.675813
O O19 0.460467 0.776158 0.807058
O O20 0.276774 0.500000 0.912825
O O21 0.292880 0.500000 0.042695
#
# Coordination Sequence:
#
# PCOD9150344 Si02
#       8
#     4   4   4   4   4   4   4   4
#     4   9  16  24  37  63 102 146 179 206 251 311
#     4   9  16  28  47  71  99 134 177 222 265 313
#     4  12  26  38  52  78 111 144 178 220 275 330
#     4   9  16  24  37  63 102 146 179 206 251 311
#     4  10  20  38  60  82 103 134 182 228 277 326
#     4  10  20  36  58  81 105 138 181 229 275 321
#     4   9  16  28  47  71  99 134 177 222 265 313
#     4  10  20  36  58  81 105 138 181 229 275 321
#
# _framework density 22.431169000000001
#
# number of rings (size 3 to 8) (size 9 to 14) (size 15 to 20)
#    0.000    2.250    1.250    2.625    1.750    7.000 
#    0.000    0.000    0.000    0.000    0.000    0.000 
#    0.000    1.000    0.000    0.000    0.500    0.000 
#
# Total GULP energy -178793.420670 kJ/mol
# GULP energy per Si atom -5587.294396 kJ/mol
# Density = 2.238012 g / cm^3
# Si number density = 22.431169 Si / 1000 Ang^3
#
#
#
# Elastic Constant Matrix: (Units=GPa)
#
#
# Indices 1 2 3 4 5 6 
#
# 1 105.7253 -1.5831 46.3997 0.0000 8.3579 0.0000
# 2 -1.5831 58.1765 1.9473 0.0000 1.3188 0.0000
# 3 46.3997 1.9473 162.5006 0.0000 4.0938 0.0000
# 4 0.0000 0.0000 0.0000 34.3401 0.0000 -44.8203
# 5 8.3579 1.3188 4.0938 0.0000 37.3593 0.0000
# 6 0.0000 0.0000 0.0000 -44.8203 0.0000 -20.4514
#
#
#
# Elastic Compliance Matrix: (Units=1/GPa)
#
#
# Indices 1 2 3 4 5 6 
#
# 1 0.010990 0.000451 -0.003090 0.000000 -0.002136 0.000000
# 2 0.000451 0.017227 -0.000318 0.000000 -0.000674 0.000000
# 3 -0.003090 -0.000318 0.007042 0.000000 -0.000069 0.000000
# 4 0.000000 0.000000 0.000000 0.007543 0.000000 -0.016532
# 5 -0.002136 -0.000674 -0.000069 0.000000 0.027276 0.000000
# 6 0.000000 0.000000 0.000000 -0.016532 0.000000 -0.012666
#
#
# Mechanical properties :
#
#
# Convention : Reuss Voigt Hill
#
# Bulk Modulus (GPa) = 34.07734 46.65892 40.36813
# Shear Modulus (GPa) = 68.39197 28.89217 48.64207
#
# Velocity S-wave (km/s) = 5.52774 3.59282 4.66177
# Velocity P-wave (km/s) = 7.48105 6.16905 6.85650
#
# Compressibility (1/GPa) = 0.02934501
#
# Stress axis : x y z
#
# Youngs Moduli (GPa) = 90.99155 58.04745 142.01356
#
# Poissons Ratio (x) = -0.02617 0.43877
# Poissons Ratio (y) = -0.04103 0.04519
# Poissons Ratio (z) = 0.28113 0.01847
#
# Static dielectric constant tensor:
#      x y z
#    x 1.790220 0.000000 -0.004460 
#    y 0.000000 1.878910 0.000000 
#    z -0.004460 0.000000 1.789020 
# 
# From -- ./inp_files/93631.got.cif
#   From: 2010.05.17/outbox.cif.g08.bks.cpg/sg10_47_cif.got.tgz:93631.got - 2010.06.03 11:33:40.
