data_PCOD9150900
_publ_section_title
;
Structure prediction by ZEFSAII (Michael W. Deem and Ramdas Pophale) SiO2 
 PCOD9150900
Probable space group: P 2/M
;
_chemical_formula_sum "Si O2"
_cell_formula_units_Z 24
_cell_length_a 7.627912
_cell_length_b 8.164680
_cell_length_c 15.268229
_cell_angle_alpha 90.000000
_cell_angle_beta 87.924879
_cell_angle_gamma 90.000000
_cell_volume 950.273478
_symmetry_space_group_name_H-M "P 2/M"
_symmetry_group_IT_number 10
_symmetry_cell_setting 'monoclinic'
loop_
_space_group_symop_operation_xyz
x,y,z
-x,y,-z
-x,-y,-z
x,-y,z
loop_
_atom_site_type_symbol
_atom_site_label
_atom_site_fract_x
_atom_site_fract_y
_atom_site_fract_z
Si Si1 0.680813 0.813307 0.445947
Si Si2 0.826041 0.318069 0.285109
Si Si3 0.996370 0.812868 0.117964
Si Si4 0.152691 0.194866 0.380369
Si Si5 0.658323 0.692293 0.790459
Si Si6 0.367803 0.802125 0.925581
O O1 0.500000 0.821127 0.500000
O O2 0.672422 0.715152 0.356125
O O3 0.800871 0.750176 0.522909
O O4 0.731532 0.000000 0.421283
O O5 0.819686 0.500000 0.247054
O O6 0.876811 0.192195 0.208685
O O7 0.990495 0.296906 0.347284
O O8 0.837173 0.748286 0.058053
O O9 0.177091 0.729076 0.145886
O O10 0.041415 0.000000 0.095280
O O11 0.296406 0.217282 0.300938
O O12 0.119039 0.000000 0.385931
O O13 0.655722 0.500000 0.774228
O O14 0.475120 0.744789 0.837802
O O15 0.362354 0.000000 0.926344
O O16 0.500000 0.747230 0.000000
#
# Coordination Sequence:
#
# PCOD9150900 Si02
#       6
#     4   4   4   4   4   4
#     4  10  22  37  54  80 112 151 198 244 289 340
#     4  11  22  36  56  83 116 152 192 241 297 350
#     4  10  21  40  66  90 119 160 206 249 293 355
#     4  10  20  37  60  82 110 153 202 244 285 343
#     4  11  23  39  62  92 128 161 196 246 304 363
#     4  10  23  43  67  93 120 156 202 249 297 356
#
# _framework density 25.255886
#
# number of rings (size 3 to 8) (size 9 to 14) (size 15 to 20)
#    0.000    1.667    0.000    6.500    2.333    6.000 
#    0.000    3.333    0.000    0.000    0.000    0.000 
#    0.000    0.000    0.000    0.000    0.000    0.000 
#
# Total GULP energy -134110.846255 kJ/mol
# GULP energy per Si atom -5587.951927 kJ/mol
# Density = 2.519840 g / cm^3
# Si number density = 25.255886 Si / 1000 Ang^3
#
#
#
# Elastic Constant Matrix: (Units=GPa)
#
#
# Indices 1 2 3 4 5 6 
#
# 1 141.7216 2.9354 -20.1224 0.0000 0.8918 0.0000
# 2 2.9354 64.2787 6.0305 0.0000 -6.0960 0.0000
# 3 -20.1224 6.0305 55.7456 0.0000 -7.1207 0.0000
# 4 0.0000 0.0000 0.0000 -23.3503 0.0000 9.9831
# 5 0.8918 -6.0960 -7.1207 0.0000 46.3656 0.0000
# 6 0.0000 0.0000 0.0000 9.9831 0.0000 25.9356
#
#
#
# Elastic Compliance Matrix: (Units=1/GPa)
#
#
# Indices 1 2 3 4 5 6 
#
# 1 0.007462 -0.000582 0.002783 0.000000 0.000207 0.000000
# 2 -0.000582 0.015918 -0.001697 0.000000 0.001843 0.000000
# 3 0.002783 -0.001697 0.019473 0.000000 0.002714 0.000000
# 4 0.000000 0.000000 0.000000 -0.036774 0.000000 0.014155
# 5 0.000207 0.001843 0.002714 0.000000 0.022223 0.000000
# 6 0.000000 0.000000 0.000000 0.014155 0.000000 0.033109
#
#
# Mechanical properties :
#
#
# Convention : Reuss Voigt Hill
#
# Bulk Modulus (GPa) = 22.79898 26.60365 24.70131
# Shear Modulus (GPa) = 66.64641 27.98366 47.31503
#
# Velocity S-wave (km/s) = 5.14254 3.33228 4.33300
# Velocity P-wave (km/s) = 6.65641 5.03607 5.90211
#
# Compressibility (1/GPa) = 0.04386161
#
# Stress axis : x y z
#
# Youngs Moduli (GPa) = 134.01247 62.82263 51.35194
#
# Poissons Ratio (x) = 0.03658 -0.14291
# Poissons Ratio (y) = 0.07802 0.08713
# Poissons Ratio (z) = -0.37296 0.10659
#
# Static dielectric constant tensor:
#      x y z
#    x 2.183980 0.000000 0.008560 
#    y 0.000000 1.898240 0.000000 
#    z 0.008560 0.000000 2.120090 
# 
# From -- ./inp_files/74185.got.cif
#   From: 2010.05.17/outbox.cif.g08.bks.cpg/sg10_38_cif.got.tgz:74185.got - 2010.06.03 11:33:40.
