data_PCOD9150196
_publ_section_title
;
Structure prediction by ZEFSAII (Michael W. Deem and Ramdas Pophale) SiO2 
 PCOD9150196
Probable space group: P 2/M
;
_chemical_formula_sum "Si O2"
_cell_formula_units_Z 30
_cell_length_a 25.165310
_cell_length_b 11.326644
_cell_length_c 20.496323
_cell_angle_alpha 90.000000
_cell_angle_beta 166.081044
_cell_angle_gamma 90.000000
_cell_volume 1405.346391
_symmetry_space_group_name_H-M "P 2/M"
_symmetry_group_IT_number 10
_symmetry_cell_setting 'monoclinic'
loop_
_space_group_symop_operation_xyz
x,y,z
-x,y,-z
-x,-y,-z
x,-y,z
loop_
_atom_site_type_symbol
_atom_site_label
_atom_site_fract_x
_atom_site_fract_y
_atom_site_fract_z
Si Si1 0.399312 0.372109 0.086823
Si Si2 0.614644 0.368677 0.206605
Si Si3 0.625233 0.868736 0.540708
Si Si4 0.897329 0.375636 0.738259
Si Si5 0.541475 0.868294 0.805447
Si Si6 0.797521 0.128761 0.474045
Si Si7 0.000000 0.308184 0.000000
Si Si8 0.878582 0.869321 0.032647
O O1 0.297173 0.500000 0.981773
O O2 0.436674 0.366876 0.053616
O O3 0.308205 0.247148 0.003060
O O4 0.647645 0.372808 0.413828
O O5 0.723256 0.500000 0.341696
O O6 0.755500 0.249825 0.385677
O O7 0.500000 0.362733 0.000000
O O8 0.584586 0.854155 0.414164
O O9 0.383307 0.860895 0.283126
O O10 0.711921 0.000000 0.654677
O O11 0.794482 0.776504 0.771428
O O12 0.995619 0.500000 0.829491
O O13 0.914699 0.378573 0.836642
O O14 0.016694 0.253290 0.864824
O O15 0.367704 0.868014 0.659329
O O16 0.640619 0.000000 0.924036
O O17 0.758706 0.000000 0.395356
O O18 0.038732 0.126686 0.793916
O O19 0.945698 0.000000 0.085231
#
# Coordination Sequence:
#
# PCOD9150196 Si02
#       8
#     4   4   4   4   4   4   2   4
#     4   9  16  29  49  71  97 131 165 200 247 298
#     4   9  16  26  45  76 107 131 161 203 250 301
#     4  10  21  34  53  79 104 133 174 220 264 309
#     4  11  22  37  56  76 102 138 174 214 262 310
#     4   9  15  29  49  72  96 127 169 208 247 295
#     4   9  16  28  49  73 102 135 166 208 254 299
#     4  12  22  38  54  76 103 134 173 224 265 306
#     4  10  20  36  55  77 104 137 175 214 258 311
#
# _framework density 21.347049999999999
#
# number of rings (size 3 to 8) (size 9 to 14) (size 15 to 20)
#    0.000    2.267    4.000    0.400    0.000    1.867 
#    0.000    4.000    0.000    0.000    0.000    3.733 
#    0.000   27.733    0.000    0.000    0.000    0.000 
#
# Total GULP energy -167125.093221 kJ/mol
# GULP energy per Si atom -5570.836441 kJ/mol
# Density = 2.129846 g / cm^3
# Si number density = 21.347050 Si / 1000 Ang^3
#
#
#
# Elastic Constant Matrix: (Units=GPa)
#
#
# Indices 1 2 3 4 5 6 
#
# 1 63.3489 27.3912 9.4136 0.0000 -20.2087 0.0000
# 2 27.3912 227.3405 21.2769 0.0000 -2.8662 0.0000
# 3 9.4136 21.2769 20.9230 0.0000 -0.3446 0.0000
# 4 0.0000 0.0000 0.0000 27.8750 0.0000 -23.1756
# 5 -20.2087 -2.8662 -0.3446 0.0000 28.3580 0.0000
# 6 0.0000 0.0000 0.0000 -23.1756 0.0000 37.6330
#
#
#
# Elastic Compliance Matrix: (Units=1/GPa)
#
#
# Indices 1 2 3 4 5 6 
#
# 1 0.022895 -0.001787 -0.008219 0.000000 0.016035 0.000000
# 2 -0.001787 0.005006 -0.004300 0.000000 -0.000820 0.000000
# 3 -0.008219 -0.004300 0.055773 0.000000 -0.005614 0.000000
# 4 0.000000 0.000000 0.000000 0.073514 0.000000 0.045272
# 5 0.016035 -0.000820 -0.005614 0.000000 0.046539 0.000000
# 6 0.000000 0.000000 0.000000 0.045272 0.000000 0.054453
#
#
# Mechanical properties :
#
#
# Convention : Reuss Voigt Hill
#
# Bulk Modulus (GPa) = 18.16187 47.53064 32.84626
# Shear Modulus (GPa) = 16.38552 35.67525 26.03038
#
# Velocity S-wave (km/s) = 2.77352 4.09247 3.49577
# Velocity P-wave (km/s) = 4.33393 6.68170 5.63152
#
# Compressibility (1/GPa) = 0.05506041
#
# Stress axis : x y z
#
# Youngs Moduli (GPa) = 43.67757 199.75484 17.92984
#
# Poissons Ratio (x) = 0.35698 0.14737
# Poissons Ratio (y) = 0.07806 0.07710
# Poissons Ratio (z) = 0.35901 0.85900
#
# Static dielectric constant tensor:
#      x y z
#    x 1.814940 0.000000 0.027540 
#    y 0.000000 1.889530 0.000000 
#    z 0.027540 0.000000 1.744860 
# 
# From -- ./inp_files/91475.got.cif
#   From: 2010.05.17/outbox.cif.g08.bks.cpg/sg10_46_cif.got.tgz:91475.got - 2010.06.03 11:33:40.
