data_PCOD9150623
_publ_section_title
;
Structure prediction by ZEFSAII (Michael W. Deem and Ramdas Pophale) SiO2 
 PCOD9150623
Probable space group: P 2/M
;
_chemical_formula_sum "Si O2"
_cell_formula_units_Z 28
_cell_length_a 8.725646
_cell_length_b 16.073601
_cell_length_c 12.418903
_cell_angle_alpha 90.000000
_cell_angle_beta 126.687980
_cell_angle_gamma 90.000000
_cell_volume 1396.737406
_symmetry_space_group_name_H-M "P 2/M"
_symmetry_group_IT_number 10
_symmetry_cell_setting 'monoclinic'
loop_
_space_group_symop_operation_xyz
x,y,z
-x,y,-z
-x,-y,-z
x,-y,z
loop_
_atom_site_type_symbol
_atom_site_label
_atom_site_fract_x
_atom_site_fract_y
_atom_site_fract_z
Si Si1 0.548047 0.905022 0.753448
Si Si2 0.871948 0.500000 0.100356
Si Si3 0.854130 0.902586 0.536501
Si Si4 0.537279 0.335099 0.638913
Si Si5 0.557681 0.260255 0.192881
Si Si6 0.202094 0.310064 0.905376
Si Si7 0.855221 0.807292 0.759737
Si Si8 0.300085 0.500000 0.190830
O O1 0.368606 0.898031 0.594427
O O2 0.495960 0.836489 0.820212
O O3 0.751287 0.878192 0.787407
O O4 0.553015 0.000000 0.792630
O O5 0.855674 0.406427 0.141299
O O6 0.082109 0.500000 0.138307
O O7 0.708307 0.500000 0.940859
O O8 0.884338 0.845910 0.653634
O O9 0.000000 0.880845 0.500000
O O10 0.891438 0.000000 0.578364
O O11 0.500000 0.356588 0.500000
O O12 0.394780 0.294250 0.667454
O O13 0.696014 0.264266 0.694073
O O14 0.603958 0.418624 0.723031
O O15 0.718958 0.275972 0.173966
O O16 0.369591 0.305549 0.064898
O O17 0.040059 0.244774 0.874484
#
# Coordination Sequence:
#
# PCOD9150623 Si02
#       8
#     4   2   4   4   4   4   4   2
#     4  10  21  38  60  88 125 164 208 253 303 370
#     4  11  22  40  68  91 120 165 210 271 299 373
#     4  10  20  36  60  89 122 163 208 253 306 369
#     4  11  22  37  59  87 122 159 201 252 309 368
#     4  10  23  41  62  93 119 163 210 262 307 380
#     4  11  23  41  64  89 123 159 214 261 318 364
#     4  11  21  35  58  87 120 161 207 257 303 365
#     4  11  21  37  61  92 120 153 208 254 310 368
#
# _framework density 20.046717000000001
#
# number of rings (size 3 to 8) (size 9 to 14) (size 15 to 20)
#    0.000    1.429    2.857    3.643    0.000    5.143 
#    0.000    4.286    0.000    0.857    0.000    0.000 
#    0.000    0.000    0.000    0.000    0.000    0.000 
#
# Total GULP energy -156056.816446 kJ/mol
# GULP energy per Si atom -5573.457730 kJ/mol
# Density = 2.000109 g / cm^3
# Si number density = 20.046717 Si / 1000 Ang^3
#
#
#
# Elastic Constant Matrix: (Units=GPa)
#
#
# Indices 1 2 3 4 5 6 
#
# 1 80.2403 41.0136 17.0037 0.0000 -15.0523 0.0000
# 2 41.0136 157.8306 11.2895 0.0000 -17.2070 0.0000
# 3 17.0037 11.2895 28.4562 0.0000 -15.9499 0.0000
# 4 0.0000 0.0000 0.0000 32.4635 0.0000 -8.4928
# 5 -15.0523 -17.2070 -15.9499 0.0000 29.3714 0.0000
# 6 0.0000 0.0000 0.0000 -8.4928 0.0000 11.3614
#
#
#
# Elastic Compliance Matrix: (Units=1/GPa)
#
#
# Indices 1 2 3 4 5 6 
#
# 1 0.016146 -0.003428 -0.006865 0.000000 0.002538 0.000000
# 2 -0.003428 0.007505 0.000791 0.000000 0.003070 0.000000
# 3 -0.006865 0.000791 0.053503 0.000000 0.026000 0.000000
# 4 0.000000 0.000000 0.000000 0.038292 0.000000 0.028624
# 5 0.002538 0.003070 0.026000 0.000000 0.051265 0.000000
# 6 0.000000 0.000000 0.000000 0.028624 0.000000 0.109414
#
#
# Mechanical properties :
#
#
# Convention : Reuss Voigt Hill
#
# Bulk Modulus (GPa) = 17.19677 45.01563 31.10620
# Shear Modulus (GPa) = 15.89772 27.78726 21.84249
#
# Velocity S-wave (km/s) = 2.81914 3.72711 3.30446
# Velocity P-wave (km/s) = 4.38106 6.40515 5.48724
#
# Compressibility (1/GPa) = 0.05815044
#
# Stress axis : x y z
#
# Youngs Moduli (GPa) = 61.93662 133.24983 18.69057
#
# Poissons Ratio (x) = 0.45675 0.12831
# Poissons Ratio (y) = 0.21231 -0.01479
# Poissons Ratio (z) = 0.42520 -0.10546
#
# Static dielectric constant tensor:
#      x y z
#    x 1.750830 0.000000 -0.011490 
#    y 0.000000 1.719190 0.000000 
#    z -0.011490 0.000000 1.776280 
# 
# From -- ./inp_files/25445.got.cif
#   From: 2010.05.17/outbox.cif.g08.bks.cpg/sg10_13_cif.got.tgz:25445.got - 2010.06.03 11:33:40.
