data_PCOD9150434
_publ_section_title
;
Structure prediction by ZEFSAII (Michael W. Deem and Ramdas Pophale) SiO2 
 PCOD9150434
Probable space group: P 2/M
;
_chemical_formula_sum "Si O2"
_cell_formula_units_Z 25
_cell_length_a 20.883653
_cell_length_b 11.894027
_cell_length_c 15.201057
_cell_angle_alpha 90.000000
_cell_angle_beta 20.762519
_cell_angle_gamma 90.000000
_cell_volume 1338.504157
_symmetry_space_group_name_H-M "P 2/M"
_symmetry_group_IT_number 10
_symmetry_cell_setting 'monoclinic'
loop_
_space_group_symop_operation_xyz
x,y,z
-x,y,-z
-x,-y,-z
x,-y,z
loop_
_atom_site_type_symbol
_atom_site_label
_atom_site_fract_x
_atom_site_fract_y
_atom_site_fract_z
Si Si1 0.000000 0.712060 0.000000
Si Si2 0.814552 0.375489 0.066262
Si Si3 0.701915 0.128920 0.970806
Si Si4 0.500000 0.798552 0.500000
Si Si5 0.002617 0.693870 0.343797
Si Si6 0.288973 0.125688 0.250612
Si Si7 0.331068 0.127124 0.537748
Si Si8 0.000000 0.500000 0.500000
O O1 0.838072 0.789844 0.245066
O O2 0.081992 0.641790 0.974800
O O3 0.734299 0.500000 0.165432
O O4 0.947670 0.359415 0.813429
O O5 0.659614 0.281780 0.260697
O O6 0.731736 0.129329 0.828131
O O7 0.836928 0.219005 0.837855
O O8 0.733965 0.000000 0.961087
O O9 0.494549 0.156565 0.261687
O O10 0.580184 0.866402 0.478901
O O11 0.826304 0.772335 0.563603
O O12 0.988576 0.599500 0.437272
O O13 0.230900 0.000000 0.355405
O O14 0.500000 0.136916 0.000000
O O15 0.271939 0.000000 0.594876
#
# Coordination Sequence:
#
# PCOD9150434 Si02
#       8
#     2   4   4   2   4   4   4   1
#     4  10  24  40  58  82 124 160 196 244 290 352
#     4  11  23  40  62  85 116 158 205 244 291 342
#     4  10  20  37  62  88 119 156 199 247 294 355
#     4  10  20  38  60  86 116 152 196 250 284 346
#     4  12  22  40  64  89 121 156 201 244 301 348
#     4  10  22  39  62  90 122 155 193 243 299 365
#     4  10  20  36  58  89 120 153 190 240 302 353
#     4  12  24  40  64  88 124 158 194 256 286 350
#
# _framework density 18.677567
#
# number of rings (size 3 to 8) (size 9 to 14) (size 15 to 20)
#    0.000    1.440    4.000    1.440    2.240    1.280 
#    0.000    2.000    5.280    0.000    0.000    0.000 
#    0.000    0.000    0.000    0.000    0.000    0.000 
#
# Total GULP energy -139315.296965 kJ/mol
# GULP energy per Si atom -5572.611879 kJ/mol
# Density = 1.863506 g / cm^3
# Si number density = 18.677567 Si / 1000 Ang^3
#
#
#
# Elastic Constant Matrix: (Units=GPa)
#
#
# Indices 1 2 3 4 5 6 
#
# 1 37.3004 10.5083 1.9916 0.0000 4.4834 0.0000
# 2 10.5083 104.0347 35.4640 0.0000 -2.5206 0.0000
# 3 1.9916 35.4640 61.3453 0.0000 2.1622 0.0000
# 4 0.0000 0.0000 0.0000 9.3713 0.0000 6.7359
# 5 4.4834 -2.5206 2.1622 0.0000 23.6000 0.0000
# 6 0.0000 0.0000 0.0000 6.7359 0.0000 7.0581
#
#
#
# Elastic Compliance Matrix: (Units=1/GPa)
#
#
# Indices 1 2 3 4 5 6 
#
# 1 0.028420 -0.003449 0.001279 0.000000 -0.005885 0.000000
# 2 -0.003449 0.012477 -0.007194 0.000000 0.002647 0.000000
# 3 0.001279 -0.007194 0.020521 0.000000 -0.002891 0.000000
# 4 0.000000 0.000000 0.000000 0.339795 0.000000 -0.324284
# 5 -0.005885 0.002647 -0.002891 0.000000 0.044038 0.000000
# 6 0.000000 0.000000 0.000000 -0.324284 0.000000 0.451162
#
#
# Mechanical properties :
#
#
# Convention : Reuss Voigt Hill
#
# Bulk Modulus (GPa) = 23.42566 33.17869 28.30218
# Shear Modulus (GPa) = 5.37997 18.32033 11.85015
#
# Velocity S-wave (km/s) = 1.69903 3.13529 2.52158
# Velocity P-wave (km/s) = 4.05195 5.55960 4.86454
#
# Compressibility (1/GPa) = 0.04268824
#
# Stress axis : x y z
#
# Youngs Moduli (GPa) = 35.18641 80.14638 48.73132
#
# Poissons Ratio (x) = 0.27643 -0.06231
# Poissons Ratio (y) = 0.12136 0.35059
# Poissons Ratio (z) = -0.04499 0.57661
#
# Static dielectric constant tensor:
#      x y z
#    x 1.632380 0.000000 0.009650 
#    y 0.000000 1.628330 0.000000 
#    z 0.009650 0.000000 1.640750 
# 
# From -- ./inp_files/70555.got.cif
#   From: 2010.05.17/outbox.cif.g08.bks.cpg/sg10_36_cif.got.tgz:70555.got - 2010.06.03 11:33:40.
