data_PCOD9150166
_publ_section_title
;
Structure prediction by ZEFSAII (Michael W. Deem and Ramdas Pophale) SiO2 
 PCOD9150166
Probable space group: P 2/M
;
_chemical_formula_sum "Si O2"
_cell_formula_units_Z 32
_cell_length_a 13.014031
_cell_length_b 12.995378
_cell_length_c 7.798325
_cell_angle_alpha 90.000000
_cell_angle_beta 98.412624
_cell_angle_gamma 90.000000
_cell_volume 1304.679404
_symmetry_space_group_name_H-M "P 2/M"
_symmetry_group_IT_number 10
_symmetry_cell_setting 'monoclinic'
loop_
_space_group_symop_operation_xyz
x,y,z
-x,y,-z
-x,-y,-z
x,-y,z
loop_
_atom_site_type_symbol
_atom_site_label
_atom_site_fract_x
_atom_site_fract_y
_atom_site_fract_z
Si Si1 0.646892 0.382639 0.838201
Si Si2 0.111238 0.388719 0.057835
Si Si3 0.103814 0.335909 0.440430
Si Si4 0.399803 0.111839 0.596038
Si Si5 0.834325 0.880913 0.077849
Si Si6 0.675480 0.327267 0.455497
Si Si7 0.932038 0.880667 0.725190
Si Si8 0.623821 0.239337 0.115021
O O1 0.617599 0.500000 0.874094
O O2 0.766538 0.365709 0.933964
O O3 0.639874 0.372490 0.628898
O O4 0.592825 0.290283 0.928317
O O5 0.098260 0.500000 0.968784
O O6 0.111015 0.389505 0.261112
O O7 0.000000 0.331316 0.000000
O O8 0.209314 0.362373 0.559751
O O9 0.097294 0.212740 0.405548
O O10 0.000000 0.370328 0.500000
O O11 0.500000 0.113062 0.500000
O O12 0.327385 0.203832 0.513668
O O13 0.429234 0.144148 0.797306
O O14 0.350889 0.000000 0.577153
O O15 0.741334 0.809143 0.121261
O O16 0.944899 0.868702 0.201403
O O17 0.802577 0.000000 0.088543
O O18 0.865281 0.865309 0.884635
O O19 0.617123 0.329589 0.259969
O O20 0.916785 0.000000 0.665700
#
# Coordination Sequence:
#
# PCOD9150166 Si02
#       8
#     4   4   4   4   4   4   4   4
#     4  10  21  39  59  86 119 155 202 250 301 355
#     4   9  20  34  50  72 103 147 196 248 294 338
#     4  11  21  31  48  76 111 149 192 241 287 344
#     4   9  20  41  67  93 124 156 191 243 300 356
#     4   9  16  29  48  74 107 147 192 237 278 341
#     4   9  22  37  57  88 119 157 198 248 296 357
#     4   9  19  29  42  68 109 152 186 226 282 335
#     4  10  20  35  63  86 112 153 199 237 299 353
#
# _framework density 24.527099
#
# number of rings (size 3 to 8) (size 9 to 14) (size 15 to 20)
#    0.750    1.750    0.000    3.375    5.250    1.500 
#    0.000    1.875    0.000    3.750    0.000    0.000 
#    0.000    0.000    0.000    0.000    0.000    0.000 
#
# Total GULP energy -178224.106473 kJ/mol
# GULP energy per Si atom -5569.503327 kJ/mol
# Density = 2.447127 g / cm^3
# Si number density = 24.527099 Si / 1000 Ang^3
#
#
#
# Elastic Constant Matrix: (Units=GPa)
#
#
# Indices 1 2 3 4 5 6 
#
# 1 71.2638 1.7110 24.0493 0.0000 -7.1034 0.0000
# 2 1.7110 110.0476 14.3574 0.0000 -13.1618 0.0000
# 3 24.0493 14.3574 67.1633 0.0000 -12.5033 0.0000
# 4 0.0000 0.0000 0.0000 34.0381 0.0000 9.6340
# 5 -7.1034 -13.1618 -12.5033 0.0000 41.0680 0.0000
# 6 0.0000 0.0000 0.0000 9.6340 0.0000 6.3300
#
#
#
# Elastic Compliance Matrix: (Units=1/GPa)
#
#
# Indices 1 2 3 4 5 6 
#
# 1 0.016049 0.000638 -0.005648 0.000000 0.001261 0.000000
# 2 0.000638 0.009628 -0.001793 0.000000 0.002650 0.000000
# 3 -0.005648 -0.001793 0.018028 0.000000 0.003937 0.000000
# 4 0.000000 0.000000 0.000000 0.051611 0.000000 -0.078549
# 5 0.001261 0.002650 0.003937 0.000000 0.026616 0.000000
# 6 0.000000 0.000000 0.000000 -0.078549 0.000000 0.277525
#
#
# Mechanical properties :
#
#
# Convention : Reuss Voigt Hill
#
# Bulk Modulus (GPa) = 33.22518 36.52336 34.87427
# Shear Modulus (GPa) = 11.81765 30.17769 20.99767
#
# Velocity S-wave (km/s) = 2.19742 3.51149 2.92909
# Velocity P-wave (km/s) = 4.47369 5.60036 5.06843
#
# Compressibility (1/GPa) = 0.03009766
#
# Stress axis : x y z
#
# Youngs Moduli (GPa) = 62.30974 103.86409 55.46972
#
# Poissons Ratio (x) = -0.06628 0.31331
# Poissons Ratio (y) = -0.03976 0.09948
# Poissons Ratio (z) = 0.35195 0.18626
#
# Static dielectric constant tensor:
#      x y z
#    x 2.876860 0.000000 0.026070 
#    y 0.000000 1.995600 0.000000 
#    z 0.026070 0.000000 1.952780 
# 
# From -- ./inp_files/29130.got.cif
#   From: 2010.05.17/outbox.cif.g08.bks.cpg/sg10_15_cif.got.tgz:29130.got - 2010.06.03 11:33:40.
