data_PCOD9150407
_publ_section_title
;
Structure prediction by ZEFSAII (Michael W. Deem and Ramdas Pophale) SiO2 
 PCOD9150407
Probable space group: P 2/M
;
_chemical_formula_sum "Si O2"
_cell_formula_units_Z 28
_cell_length_a 9.647020
_cell_length_b 14.681301
_cell_length_c 11.656042
_cell_angle_alpha 90.000000
_cell_angle_beta 119.318805
_cell_angle_gamma 90.000000
_cell_volume 1439.394336
_symmetry_space_group_name_H-M "P 2/M"
_symmetry_group_IT_number 10
_symmetry_cell_setting 'monoclinic'
loop_
_space_group_symop_operation_xyz
x,y,z
-x,y,-z
-x,-y,-z
x,-y,z
loop_
_atom_site_type_symbol
_atom_site_label
_atom_site_fract_x
_atom_site_fract_y
_atom_site_fract_z
Si Si1 0.971749 0.108944 0.801006
Si Si2 0.653199 0.682581 0.602326
Si Si3 0.843673 0.394724 0.885510
Si Si4 0.539436 0.783929 0.284298
Si Si5 0.745601 0.109387 0.929082
Si Si6 0.510726 0.395463 0.868928
Si Si7 0.149826 0.202840 0.480541
O O1 0.849064 0.128080 0.855516
O O2 0.911198 0.148629 0.656271
O O3 0.978754 0.000000 0.792880
O O4 0.144653 0.139282 0.918918
O O5 0.500000 0.624430 0.500000
O O6 0.776198 0.642873 0.741133
O O7 0.561511 0.761078 0.640095
O O8 0.758446 0.711980 0.537960
O O9 0.880351 0.500000 0.878514
O O10 0.696754 0.388566 0.912251
O O11 0.000000 0.348858 0.000000
O O12 0.421038 0.840272 0.154859
O O13 0.570359 0.686368 0.234779
O O14 0.702024 0.835601 0.384067
O O15 0.724701 0.000000 0.927207
O O16 0.459752 0.500000 0.819500
O O17 0.500000 0.382873 0.000000
O O18 0.000000 0.220956 0.500000
#
# Coordination Sequence:
#
# PCOD9150407 Si02
#       7
#     4   4   4   4   4   4   4
#     4   9  19  36  57  84 116 148 190 238 289 338
#     4   9  19  35  51  72 104 141 184 224 271 333
#     4   9  18  32  53  80 104 132 177 232 281 329
#     4  10  20  36  58  85 113 149 196 237 281 343
#     4   9  18  35  61  89 113 146 195 243 280 334
#     4   9  19  36  57  83 116 151 190 238 291 345
#     4  11  23  36  53  80 117 151 187 235 290 344
#
# _framework density 19.452625999999999
#
# number of rings (size 3 to 8) (size 9 to 14) (size 15 to 20)
#    0.000    2.571    1.429    0.857    0.000    5.714 
#    0.000    3.571    0.000    3.000    0.000    1.000 
#    0.000    0.000    0.000    0.000    0.000    0.000 
#
# Total GULP energy -155889.341722 kJ/mol
# GULP energy per Si atom -5567.476490 kJ/mol
# Density = 1.940835 g / cm^3
# Si number density = 19.452626 Si / 1000 Ang^3
#
#
#
# Elastic Constant Matrix: (Units=GPa)
#
#
# Indices 1 2 3 4 5 6 
#
# 1 60.6677 21.8470 54.0913 0.0000 10.9952 0.0000
# 2 21.8470 43.9463 50.2064 0.0000 5.4650 0.0000
# 3 54.0913 50.2064 174.1029 0.0000 34.3716 0.0000
# 4 0.0000 0.0000 0.0000 33.7249 0.0000 0.8849
# 5 10.9952 5.4650 34.3716 0.0000 36.9551 0.0000
# 6 0.0000 0.0000 0.0000 0.8849 0.0000 10.0851
#
#
#
# Elastic Compliance Matrix: (Units=1/GPa)
#
#
# Indices 1 2 3 4 5 6 
#
# 1 0.023539 -0.005143 -0.005632 0.000000 -0.001005 0.000000
# 2 -0.005143 0.035831 -0.009788 0.000000 0.005335 0.000000
# 3 -0.005632 -0.009788 0.011881 0.000000 -0.007927 0.000000
# 4 0.000000 0.000000 0.000000 0.029720 0.000000 -0.002608
# 5 -0.001005 0.005335 -0.007927 0.000000 0.033943 0.000000
# 6 0.000000 0.000000 0.000000 -0.002608 0.000000 0.099385
#
#
# Mechanical properties :
#
#
# Convention : Reuss Voigt Hill
#
# Bulk Modulus (GPa) = 33.19493 59.00069 46.09781
# Shear Modulus (GPa) = 17.51530 26.32451 21.91991
#
# Velocity S-wave (km/s) = 3.00394 3.68266 3.36048
# Velocity P-wave (km/s) = 5.39750 6.96268 6.22945
#
# Compressibility (1/GPa) = 0.03012508
#
# Stress axis : x y z
#
# Youngs Moduli (GPa) = 42.48358 27.90917 84.16807
#
# Poissons Ratio (x) = 0.14353 0.47400
# Poissons Ratio (y) = 0.21849 0.82383
# Poissons Ratio (z) = 0.23925 0.27317
#
# Static dielectric constant tensor:
#      x y z
#    x 1.678510 0.000000 0.031820 
#    y 0.000000 1.724020 0.000000 
#    z 0.031820 0.000000 1.795490 
# 
# From -- ./inp_files/43058.got.cif
#   From: 2010.05.17/outbox.cif.g08.bks.cpg/sg10_22_cif.got.tgz:43058.got - 2010.06.03 11:33:40.
