data_PCOD9150921
_publ_section_title
;
Structure prediction by ZEFSAII (Michael W. Deem and Ramdas Pophale) SiO2 
 PCOD9150921
Probable space group: P 2/M
;
_chemical_formula_sum "Si O2"
_cell_formula_units_Z 28
_cell_length_a 14.656996
_cell_length_b 8.603281
_cell_length_c 21.036066
_cell_angle_alpha 90.000000
_cell_angle_beta 28.281166
_cell_angle_gamma 90.000000
_cell_volume 1256.803898
_symmetry_space_group_name_H-M "P 2/M"
_symmetry_group_IT_number 10
_symmetry_cell_setting 'monoclinic'
loop_
_space_group_symop_operation_xyz
x,y,z
-x,y,-z
-x,-y,-z
x,-y,z
loop_
_atom_site_type_symbol
_atom_site_label
_atom_site_fract_x
_atom_site_fract_y
_atom_site_fract_z
Si Si1 0.342731 0.817382 0.504090
Si Si2 0.152633 0.316872 0.997085
Si Si3 0.771455 0.820541 0.679175
Si Si4 0.972506 0.312189 0.790783
Si Si5 0.711697 0.682482 0.219812
Si Si6 0.816638 0.316849 0.528346
Si Si7 0.301560 0.674488 0.156678
O O1 0.193118 0.742278 0.645906
O O2 0.561301 0.759043 0.360582
O O3 0.257822 0.771682 0.487046
O O4 0.342012 0.000000 0.514948
O O5 0.204663 0.500000 0.969481
O O6 0.139370 0.253805 0.077381
O O7 0.928803 0.308971 0.112534
O O8 0.274289 0.253690 0.861834
O O9 0.698504 0.721922 0.664510
O O10 0.652462 0.791319 0.814915
O O11 0.975773 0.751759 0.579017
O O12 0.786433 0.000000 0.652613
O O13 0.974031 0.500000 0.793484
O O14 0.857353 0.271899 0.796846
O O15 0.658115 0.500000 0.248506
O O16 0.820211 0.500000 0.514536
O O17 0.245815 0.500000 0.214609
O O18 0.500000 0.656205 0.000000
#
# Coordination Sequence:
#
# PCOD9150921 Si02
#       7
#     4   4   4   4   4   4   4
#     4  12  24  37  55  87 124 155 194 243 298 356
#     4   8  17  36  63  90 114 150 201 247 290 350
#     4  11  21  35  55  81 113 146 184 235 292 343
#     4  10  20  37  60  84 115 155 198 246 297 350
#     4   9  18  37  63  89 117 151 195 246 296 351
#     4  11  21  36  58  80 106 146 192 236 282 338
#     4  10  21  36  55  81 114 155 203 245 285 344
#
# _framework density 22.278734
#
# number of rings (size 3 to 8) (size 9 to 14) (size 15 to 20)
#    0.000    1.857    1.429    5.571    0.000    2.000 
#    0.000    8.571    0.000    0.000    0.000    0.000 
#    0.000    0.000    0.000    0.000    0.000    0.000 
#
# Total GULP energy -156187.143656 kJ/mol
# GULP energy per Si atom -5578.112273 kJ/mol
# Density = 2.222803 g / cm^3
# Si number density = 22.278734 Si / 1000 Ang^3
#
#
#
# Elastic Constant Matrix: (Units=GPa)
#
#
# Indices 1 2 3 4 5 6 
#
# 1 41.1243 -9.3802 6.3324 0.0000 11.1208 0.0000
# 2 -9.3802 30.9154 15.3263 0.0000 -0.1007 0.0000
# 3 6.3324 15.3263 71.0680 0.0000 8.0783 0.0000
# 4 0.0000 0.0000 0.0000 26.4362 0.0000 -0.8715
# 5 11.1208 -0.1007 8.0783 0.0000 34.9187 0.0000
# 6 0.0000 0.0000 0.0000 -0.8715 0.0000 12.0151
#
#
#
# Elastic Compliance Matrix: (Units=1/GPa)
#
#
# Indices 1 2 3 4 5 6 
#
# 1 0.029753 0.011012 -0.004059 0.000000 -0.008505 0.000000
# 2 0.011012 0.040426 -0.009565 0.000000 -0.001178 0.000000
# 3 -0.004059 -0.009565 0.016793 0.000000 -0.002620 0.000000
# 4 0.000000 0.000000 0.000000 0.037918 0.000000 0.002750
# 5 -0.008505 -0.001178 -0.002620 0.000000 0.031949 0.000000
# 6 0.000000 0.000000 0.000000 0.002750 0.000000 0.083428
#
#
# Mechanical properties :
#
#
# Convention : Reuss Voigt Hill
#
# Bulk Modulus (GPa) = 12.23276 18.62939 15.43108
# Shear Modulus (GPa) = 18.33236 23.39593 20.86414
#
# Velocity S-wave (km/s) = 2.87167 3.24411 3.06356
# Velocity P-wave (km/s) = 4.06178 4.73418 4.41081
#
# Compressibility (1/GPa) = 0.08174771
#
# Stress axis : x y z
#
# Youngs Moduli (GPa) = 33.60971 24.73661 59.54726
#
# Poissons Ratio (x) = -0.27241 0.24172
# Poissons Ratio (y) = -0.37012 0.56960
# Poissons Ratio (z) = 0.13643 0.23662
#
# Static dielectric constant tensor:
#      x y z
#    x 1.876050 0.000000 0.055930 
#    y 0.000000 1.805650 0.000000 
#    z 0.055930 0.000000 2.048360 
# 
# From -- ./inp_files/84888.got.cif
#   From: 2010.05.17/outbox.cif.g08.bks.cpg/sg10_43_cif.got.tgz:84888.got - 2010.06.03 11:33:40.
