data_PCOD9150498
_publ_section_title
;
Structure prediction by ZEFSAII (Michael W. Deem and Ramdas Pophale) SiO2 
 PCOD9150498
Probable space group: P 2/M
;
_chemical_formula_sum "Si O2"
_cell_formula_units_Z 32
_cell_length_a 30.827144
_cell_length_b 8.020345
_cell_length_c 12.194199
_cell_angle_alpha 90.000000
_cell_angle_beta 28.107037
_cell_angle_gamma 90.000000
_cell_volume 1420.402287
_symmetry_space_group_name_H-M "P 2/M"
_symmetry_group_IT_number 10
_symmetry_cell_setting 'monoclinic'
loop_
_space_group_symop_operation_xyz
x,y,z
-x,y,-z
-x,-y,-z
x,-y,z
loop_
_atom_site_type_symbol
_atom_site_label
_atom_site_fract_x
_atom_site_fract_y
_atom_site_fract_z
Si Si1 0.550933 0.689220 0.553258
Si Si2 0.076955 0.196716 0.688992
Si Si3 0.181223 0.699666 0.254858
Si Si4 0.249922 0.798401 0.447540
Si Si5 0.120631 0.800241 0.921088
Si Si6 0.378881 0.187765 0.821618
Si Si7 0.093325 0.700196 0.231746
Si Si8 0.538203 0.299103 0.031392
O O1 0.586452 0.500000 0.481752
O O2 0.611295 0.787962 0.330931
O O3 0.450306 0.690377 0.720165
O O4 0.528233 0.762172 0.722704
O O5 0.101105 0.224625 0.507566
O O6 0.166418 0.262593 0.554549
O O7 0.972778 0.263796 0.931407
O O8 0.073155 0.000000 0.723266
O O9 0.179254 0.500000 0.270333
O O10 0.169495 0.740432 0.153184
O O11 0.276369 0.773139 0.084791
O O12 0.353839 0.741155 0.193551
O O13 0.252520 0.000000 0.434264
O O14 0.211954 0.746118 0.652522
O O15 0.115260 0.760480 0.061349
O O16 0.117499 0.000000 0.918042
O O17 0.404947 0.000000 0.793181
O O18 0.084972 0.500000 0.242132
O O19 0.000000 0.760948 0.500000
O O20 0.530909 0.500000 0.050769
O O21 0.500000 0.238898 0.000000
#
# Coordination Sequence:
#
# PCOD9150498 Si02
#       8
#     4   4   4   4   4   4   4   4
#     4  10  20  38  62  85 114 149 188 233 290 345
#     4  10  20  36  59  85 118 155 191 235 287 341
#     4  11  22  36  56  82 116 153 194 237 284 337
#     4  10  22  39  59  87 118 150 191 237 286 341
#     4  10  21  37  59  86 118 155 193 235 285 342
#     4  11  22  36  57  87 119 148 188 237 288 342
#     4  10  21  38  56  78 111 151 191 234 280 330
#     4  10  23  42  62  84 113 150 192 238 289 344
#
# _framework density 22.528828000000001
#
# number of rings (size 3 to 8) (size 9 to 14) (size 15 to 20)
#    0.000    1.750    1.250    3.750    0.000    8.000 
#    0.000    3.750    0.000    2.250    0.000    0.000 
#    0.000    0.000    0.000    0.000    0.000    0.000 
#
# Total GULP energy -178669.579173 kJ/mol
# GULP energy per Si atom -5583.424349 kJ/mol
# Density = 2.247755 g / cm^3
# Si number density = 22.528828 Si / 1000 Ang^3
#
#
#
# Elastic Constant Matrix: (Units=GPa)
#
#
# Indices 1 2 3 4 5 6 
#
# 1 67.5271 -0.0375 -6.9861 0.0000 23.0150 0.0000
# 2 -0.0375 26.2776 -6.4127 0.0000 -0.7863 0.0000
# 3 -6.9861 -6.4127 56.6094 0.0000 11.0109 0.0000
# 4 0.0000 0.0000 0.0000 26.1127 0.0000 -3.9538
# 5 23.0150 -0.7863 11.0109 0.0000 40.3282 0.0000
# 6 0.0000 0.0000 0.0000 -3.9538 0.0000 11.2295
#
#
#
# Elastic Compliance Matrix: (Units=1/GPa)
#
#
# Indices 1 2 3 4 5 6 
#
# 1 0.019586 0.000861 0.004948 0.000000 -0.012512 0.000000
# 2 0.000861 0.039184 0.004744 0.000000 -0.001023 0.000000
# 3 0.004948 0.004744 0.020429 0.000000 -0.008309 0.000000
# 4 0.000000 0.000000 0.000000 0.040452 0.000000 0.014243
# 5 -0.012512 -0.001023 -0.008309 0.000000 0.034186 0.000000
# 6 0.000000 0.000000 0.000000 0.014243 0.000000 0.094066
#
#
# Mechanical properties :
#
#
# Convention : Reuss Voigt Hill
#
# Bulk Modulus (GPa) = 9.96964 13.72682 11.84823
# Shear Modulus (GPa) = 19.21376 26.45744 22.83560
#
# Velocity S-wave (km/s) = 2.92353 3.43064 3.18719
# Velocity P-wave (km/s) = 3.97881 4.66890 4.33760
#
# Compressibility (1/GPa) = 0.10030450
#
# Stress axis : x y z
#
# Youngs Moduli (GPa) = 51.05810 25.52090 48.94963
#
# Poissons Ratio (x) = -0.02198 -0.24221
# Poissons Ratio (y) = -0.04397 -0.23221
# Poissons Ratio (z) = -0.25264 -0.12107
#
# Static dielectric constant tensor:
#      x y z
#    x 1.877560 0.000000 0.019730 
#    y 0.000000 1.799920 0.000000 
#    z 0.019730 0.000000 1.877230 
# 
# From -- ./inp_files/58128.got.cif
#   From: 2010.05.17/outbox.cif.g08.bks.cpg/sg10_30_cif.got.tgz:58128.got - 2010.06.03 11:33:40.
