data_PCOD9150620
_publ_section_title
;
Structure prediction by ZEFSAII (Michael W. Deem and Ramdas Pophale) SiO2 
 PCOD9150620
Probable space group: P 2/M
;
_chemical_formula_sum "Si O2"
_cell_formula_units_Z 32
_cell_length_a 24.255563
_cell_length_b 8.872891
_cell_length_c 24.287437
_cell_angle_alpha 90.000000
_cell_angle_beta 18.799251
_cell_angle_gamma 90.000000
_cell_volume 1684.440185
_symmetry_space_group_name_H-M "P 2/M"
_symmetry_group_IT_number 10
_symmetry_cell_setting 'monoclinic'
loop_
_space_group_symop_operation_xyz
x,y,z
-x,y,-z
-x,-y,-z
x,-y,z
loop_
_atom_site_type_symbol
_atom_site_label
_atom_site_fract_x
_atom_site_fract_y
_atom_site_fract_z
Si Si1 0.128717 0.679399 0.128669
Si Si2 0.069210 0.820654 0.065330
Si Si3 0.728227 0.319575 0.337783
Si Si4 0.527493 0.819858 0.146655
Si Si5 0.587464 0.321308 0.975173
Si Si6 0.340706 0.680417 0.725661
Si Si7 0.847190 0.821013 0.473625
Si Si8 0.947079 0.821499 0.612252
O O1 0.135432 0.500000 0.120194
O O2 0.099287 0.746796 0.096193
O O3 0.974785 0.732506 0.313641
O O4 0.305947 0.742750 0.985494
O O5 0.887015 0.765485 0.214002
O O6 0.071619 0.000000 0.067654
O O7 0.218268 0.765481 0.883275
O O8 0.751601 0.500000 0.322389
O O9 0.715844 0.290195 0.283963
O O10 0.542123 0.280016 0.538778
O O11 0.351343 0.779076 0.343813
O O12 0.547643 0.000000 0.129450
O O13 0.512154 0.767484 0.098006
O O14 0.568724 0.500000 0.001711
O O15 0.785099 0.275479 0.783391
O O16 0.500000 0.280929 0.000000
O O17 0.325692 0.500000 0.748658
O O18 0.906218 0.798201 0.481098
O O19 0.865064 0.000000 0.445371
O O20 0.000000 0.783916 0.500000
O O21 0.901705 0.000000 0.656412
#
# Coordination Sequence:
#
# PCOD9150620 Si02
#       8
#     4   4   4   4   4   4   4   4
#     4  12  26  44  65  88 120 163 209 259 311 368
#     4  12  25  39  60  90 126 166 210 258 310 366
#     4   9  19  38  64  93 127 167 209 256 309 365
#     4  11  23  42  67  91 120 157 199 249 308 372
#     4  11  23  37  56  88 126 161 198 245 300 359
#     4   9  19  38  64  93 127 167 210 256 308 365
#     4  10  22  41  65  91 120 156 198 249 307 368
#     4  10  20  36  60  89 120 156 198 244 301 366
#
# _framework density 18.997409999999999
#
# number of rings (size 3 to 8) (size 9 to 14) (size 15 to 20)
#    0.000    1.500    1.250    4.875    0.000    6.750 
#    0.000    1.250    0.000    0.000    0.000    0.000 
#    0.000    0.000    0.000    0.000    0.000    0.000 
#
# Total GULP energy -178893.816740 kJ/mol
# GULP energy per Si atom -5590.431773 kJ/mol
# Density = 1.895417 g / cm^3
# Si number density = 18.997410 Si / 1000 Ang^3
#
#
#
# Elastic Constant Matrix: (Units=GPa)
#
#
# Indices 1 2 3 4 5 6 
#
# 1 106.6616 72.5268 91.9503 0.0000 8.6717 0.0000
# 2 72.5268 95.7673 91.9496 0.0000 -0.6262 0.0000
# 3 91.9503 91.9496 162.3512 0.0000 -13.0019 0.0000
# 4 0.0000 0.0000 0.0000 -9.7482 0.0000 21.0444
# 5 8.6717 -0.6262 -13.0019 0.0000 -5.1538 0.0000
# 6 0.0000 0.0000 0.0000 21.0444 0.0000 22.0763
#
#
#
# Elastic Compliance Matrix: (Units=1/GPa)
#
#
# Indices 1 2 3 4 5 6 
#
# 1 0.014716 -0.010929 -0.000046 0.000000 0.026206 0.000000
# 2 -0.010929 0.027718 -0.009360 0.000000 0.001855 0.000000
# 3 -0.000046 -0.009360 0.009627 0.000000 -0.023226 0.000000
# 4 0.000000 0.000000 0.000000 -0.033547 0.000000 0.031979
# 5 0.026206 0.001855 -0.023226 0.000000 -0.091569 0.000000
# 6 0.000000 0.000000 0.000000 0.031979 0.000000 0.014813
#
#
# Mechanical properties :
#
#
# Convention : Reuss Voigt Hill
#
# Bulk Modulus (GPa) = 87.79475 97.51484 92.65480
# Shear Modulus (GPa) = -362.98907 8.65839 -177.16534
#
# Velocity S-wave (km/s) = -13.83791 2.13719 -9.66748
# Velocity P-wave (km/s) = 14.45692 7.58499 8.70260
#
# Compressibility (1/GPa) = 0.01139020
#
# Stress axis : x y z
#
# Youngs Moduli (GPa) = 67.95159 36.07801 103.87891
#
# Poissons Ratio (x) = 0.39431 0.00480
# Poissons Ratio (y) = 0.74266 0.97228
# Poissons Ratio (z) = 0.00314 0.33768
#
# Static dielectric constant tensor:
#      x y z
#    x 1.648630 0.000000 -0.003410 
#    y 0.000000 1.631430 0.000000 
#    z -0.003410 0.000000 1.635070 
# 
# From -- ./inp_files/90586.got.cif
#   From: 2010.05.17/outbox.cif.g08.bks.cpg/sg10_46_cif.got.tgz:90586.got - 2010.06.03 11:33:40.
