data_PCOD9150129
_publ_section_title
;
Structure prediction by ZEFSAII (Michael W. Deem and Ramdas Pophale) SiO2 
 PCOD9150129
Probable space group: P 2/M
;
_chemical_formula_sum "Si O2"
_cell_formula_units_Z 18
_cell_length_a 5.529313
_cell_length_b 18.617233
_cell_length_c 7.286697
_cell_angle_alpha 90.000000
_cell_angle_beta 71.679265
_cell_angle_gamma 90.000000
_cell_volume 712.075251
_symmetry_space_group_name_H-M "P 2/M"
_symmetry_group_IT_number 10
_symmetry_cell_setting 'monoclinic'
loop_
_space_group_symop_operation_xyz
x,y,z
-x,y,-z
-x,-y,-z
x,-y,z
loop_
_atom_site_type_symbol
_atom_site_label
_atom_site_fract_x
_atom_site_fract_y
_atom_site_fract_z
Si Si1 0.981787 0.863250 0.707355
Si Si2 0.012898 0.419393 0.277456
Si Si3 0.500000 0.336507 0.000000
Si Si4 0.797373 0.723752 0.212411
Si Si5 0.470998 0.083204 0.728654
O O1 0.113677 0.783974 0.668323
O O2 0.170890 0.898864 0.809803
O O3 0.000000 0.898187 0.500000
O O4 0.677336 0.871748 0.796670
O O5 0.959342 0.500000 0.223218
O O6 0.000000 0.422811 0.500000
O O7 0.815276 0.357029 0.279294
O O8 0.269685 0.388343 0.120629
O O9 0.463124 0.282177 0.836684
O O10 0.000000 0.734039 0.000000
O O11 0.500000 0.095233 0.500000
O O12 0.516262 0.000000 0.759202
#
# Coordination Sequence:
#
# PCOD9150129 Si02
#       5
#     4   4   2   4   4
#     4  10  20  35  60  89 121 160 210 269 325 392
#     4  10  22  41  64  93 127 165 218 275 328 393
#     4  10  23  40  62  90 125 178 214 270 329 392
#     4  10  23  39  59  85 123 166 214 264 325 392
#     4   9  18  33  57  90 123 157 203 264 331 393
#
# _framework density 25.278226
#
# number of rings (size 3 to 8) (size 9 to 14) (size 15 to 20)
#    0.000    2.222    0.000    1.667    6.222    8.444 
#    4.000    2.222    0.000    4.000    0.000    0.000 
#    0.000    0.000    0.000    0.000    0.000    0.000 
#
# Total GULP energy -100223.640317 kJ/mol
# GULP energy per Si atom -5567.980018 kJ/mol
# Density = 2.522069 g / cm^3
# Si number density = 25.278226 Si / 1000 Ang^3
#
#
#
# Elastic Constant Matrix: (Units=GPa)
#
#
# Indices 1 2 3 4 5 6 
#
# 1 132.5428 90.8579 26.7434 0.0000 42.8397 0.0000
# 2 90.8579 184.4710 12.0163 0.0000 29.5011 0.0000
# 3 26.7434 12.0163 81.4554 0.0000 -2.8801 0.0000
# 4 0.0000 0.0000 0.0000 59.9127 0.0000 23.8092
# 5 42.8397 29.5011 -2.8801 0.0000 46.3037 0.0000
# 6 0.0000 0.0000 0.0000 23.8092 0.0000 33.9791
#
#
#
# Elastic Compliance Matrix: (Units=1/GPa)
#
#
# Indices 1 2 3 4 5 6 
#
# 1 0.016320 -0.005851 -0.004908 0.000000 -0.011676 0.000000
# 2 -0.005851 0.008221 0.000716 0.000000 0.000220 0.000000
# 3 -0.004908 0.000716 0.013957 0.000000 0.004953 0.000000
# 4 0.000000 0.000000 0.000000 0.023132 0.000000 -0.016209
# 5 -0.011676 0.000220 0.004953 0.000000 0.032567 0.000000
# 6 0.000000 0.000000 0.000000 -0.016209 0.000000 0.040787
#
#
# Mechanical properties :
#
#
# Convention : Reuss Voigt Hill
#
# Bulk Modulus (GPa) = 54.31074 73.07826 63.69450
# Shear Modulus (GPa) = 31.01576 45.96252 38.48914
#
# Velocity S-wave (km/s) = 3.50662 4.26874 3.90631
# Velocity P-wave (km/s) = 6.15849 7.29853 6.75261
#
# Compressibility (1/GPa) = 0.01841257
#
# Stress axis : x y z
#
# Youngs Moduli (GPa) = 61.27513 121.64146 71.64616
#
# Poissons Ratio (x) = 0.71173 0.35163
# Poissons Ratio (y) = 0.35852 -0.05130
# Poissons Ratio (z) = 0.30073 -0.08710
#
# Static dielectric constant tensor:
#      x y z
#    x 2.215120 0.000000 0.042440 
#    y 0.000000 2.017010 0.000000 
#    z 0.042440 0.000000 2.097810 
# 
# From -- ./inp_files/14764.got.cif
#   From: 2010.05.17/outbox.cif.g08.bks.cpg/sg10_8_cif.got.tgz:14764.got - 2010.06.03 11:33:40.
