data_PCOD9150571
_publ_section_title
;
Structure prediction by ZEFSAII (Michael W. Deem and Ramdas Pophale) SiO2 
 PCOD9150571
Probable space group: P 2/M
;
_chemical_formula_sum "Si O2"
_cell_formula_units_Z 32
_cell_length_a 12.005138
_cell_length_b 8.870207
_cell_length_c 15.225734
_cell_angle_alpha 90.000000
_cell_angle_beta 93.018183
_cell_angle_gamma 90.000000
_cell_volume 1619.109836
_symmetry_space_group_name_H-M "P 2/M"
_symmetry_group_IT_number 10
_symmetry_cell_setting 'monoclinic'
loop_
_space_group_symop_operation_xyz
x,y,z
-x,y,-z
-x,-y,-z
x,-y,z
loop_
_atom_site_type_symbol
_atom_site_label
_atom_site_fract_x
_atom_site_fract_y
_atom_site_fract_z
Si Si1 0.281344 0.821605 0.161262
Si Si2 0.241594 0.683196 0.824074
Si Si3 0.508539 0.319181 0.215515
Si Si4 0.209330 0.823246 0.516686
Si Si5 0.819111 0.324320 0.671561
Si Si6 0.080640 0.322751 0.659054
Si Si7 0.130287 0.317490 0.002713
Si Si8 0.569438 0.322003 0.413715
O O1 0.407203 0.759350 0.161919
O O2 0.236762 0.771456 0.254644
O O3 0.200728 0.747735 0.085905
O O4 0.280005 0.000000 0.152119
O O5 0.241186 0.500000 0.823456
O O6 0.369325 0.729053 0.813525
O O7 0.162210 0.728971 0.740336
O O8 0.188119 0.730735 0.913925
O O9 0.498835 0.500000 0.204403
O O10 0.505522 0.287805 0.320480
O O11 0.213156 0.732858 0.425988
O O12 0.107302 0.769582 0.572884
O O13 0.319939 0.776664 0.574558
O O14 0.204918 0.000000 0.499504
O O15 0.787808 0.500000 0.680565
O O16 0.952977 0.310852 0.682906
O O17 0.102992 0.500000 0.641573
O O18 0.133636 0.500000 0.007528
O O19 0.000000 0.272990 0.000000
O O20 0.500000 0.298892 0.500000
O O21 0.600239 0.500000 0.410566
#
# Coordination Sequence:
#
# PCOD9150571 Si02
#       8
#     4   4   4   4   4   4   4   4
#     4  12  26  42  61  90 130 163 197 250 316 381
#     4   9  18  36  65  94 118 153 205 263 307 350
#     4  10  20  38  63  88 120 160 210 261 302 357
#     4  12  24  36  55  88 129 165 200 248 312 380
#     4  11  23  40  64  88 117 162 215 263 304 359
#     4  10  20  39  64  90 119 157 209 260 305 359
#     4  10  21  41  69  97 123 157 208 256 301 365
#     4  10  20  36  60  85 114 160 215 263 304 354
#
# _framework density 19.763946000000001
#
# number of rings (size 3 to 8) (size 9 to 14) (size 15 to 20)
#    0.000    1.500    1.250    4.500    0.000    7.000 
#    0.000    3.750    0.000    0.000    0.000    0.000 
#    0.000    0.000    0.000    0.000    0.000    0.000 
#
# Total GULP energy -178927.250602 kJ/mol
# GULP energy per Si atom -5591.476581 kJ/mol
# Density = 1.971896 g / cm^3
# Si number density = 19.763946 Si / 1000 Ang^3
#
#
#
# Elastic Constant Matrix: (Units=GPa)
#
#
# Indices 1 2 3 4 5 6 
#
# 1 97.3433 38.0507 47.1244 0.0000 18.5737 0.0000
# 2 38.0507 39.6226 17.3672 0.0000 5.9092 0.0000
# 3 47.1244 17.3672 108.7272 0.0000 7.3097 0.0000
# 4 0.0000 0.0000 0.0000 10.6371 0.0000 -0.1922
# 5 18.5737 5.9092 7.3097 0.0000 35.3589 0.0000
# 6 0.0000 0.0000 0.0000 -0.1922 0.0000 -10.2476
#
#
#
# Elastic Compliance Matrix: (Units=1/GPa)
#
#
# Indices 1 2 3 4 5 6 
#
# 1 0.020925 -0.016431 -0.005973 0.000000 -0.007011 0.000000
# 2 -0.016431 0.040524 0.000531 0.000000 0.001749 0.000000
# 3 -0.005973 0.000531 0.011659 0.000000 0.000639 0.000000
# 4 0.000000 0.000000 0.000000 0.093978 0.000000 -0.001763
# 5 -0.007011 0.001749 0.000639 0.000000 0.031540 0.000000
# 6 0.000000 0.000000 0.000000 -0.001763 0.000000 -0.097551
#
#
# Mechanical properties :
#
#
# Convention : Reuss Voigt Hill
#
# Bulk Modulus (GPa) = 34.05947 50.08641 42.07294
# Shear Modulus (GPa) = 32.33959 16.69308 24.51633
#
# Velocity S-wave (km/s) = 4.04950 2.90939 3.52583
# Velocity P-wave (km/s) = 6.25581 6.05668 6.15705
#
# Compressibility (1/GPa) = 0.02936041
#
# Stress axis : x y z
#
# Youngs Moduli (GPa) = 47.78909 24.67680 85.77390
#
# Poissons Ratio (x) = 0.40547 0.51237
# Poissons Ratio (y) = 0.78524 -0.04555
# Poissons Ratio (z) = 0.28547 -0.01310
#
# Static dielectric constant tensor:
#      x y z
#    x 1.705760 0.000000 -0.009240 
#    y 0.000000 1.657420 0.000000 
#    z -0.009240 0.000000 1.675480 
# 
# From -- ./inp_files/63809.got.cif
#   From: 2010.05.17/outbox.cif.g08.bks.cpg/sg10_32_cif.got.tgz:63809.got - 2010.06.03 11:33:40.
