data_PCOD9150885
_publ_section_title
;
Structure prediction by ZEFSAII (Michael W. Deem and Ramdas Pophale) SiO2 
 PCOD9150885
Probable space group: P 2/M
;
_chemical_formula_sum "Si O2"
_cell_formula_units_Z 25
_cell_length_a 11.974775
_cell_length_b 7.303775
_cell_length_c 24.826777
_cell_angle_alpha 90.000000
_cell_angle_beta 31.940182
_cell_angle_gamma 90.000000
_cell_volume 1148.731006
_symmetry_space_group_name_H-M "P 2/M"
_symmetry_group_IT_number 10
_symmetry_cell_setting 'monoclinic'
loop_
_space_group_symop_operation_xyz
x,y,z
-x,y,-z
-x,-y,-z
x,-y,z
loop_
_atom_site_type_symbol
_atom_site_label
_atom_site_fract_x
_atom_site_fract_y
_atom_site_fract_z
Si Si1 0.155741 0.000000 0.144983
Si Si2 0.000000 0.000000 0.000000
Si Si3 0.504414 0.278568 0.376764
Si Si4 0.843266 0.719016 0.320786
Si Si5 0.465235 0.000000 0.923881
Si Si6 0.411915 0.285295 0.214652
Si Si7 0.751311 0.283650 0.170150
Si Si8 0.067063 0.277855 0.592447
O O1 0.342623 0.000000 0.112572
O O2 0.014885 0.823151 0.214876
O O3 0.256747 0.000000 0.044955
O O4 0.934094 0.159885 0.071114
O O5 0.497152 0.500000 0.375662
O O6 0.617592 0.235344 0.386991
O O7 0.654950 0.220799 0.266537
O O8 0.262774 0.214402 0.475981
O O9 0.868992 0.500000 0.307025
O O10 0.879167 0.772717 0.367909
O O11 0.488809 0.827888 0.874755
O O12 0.404155 0.500000 0.204119
O O13 0.558745 0.262635 0.206349
O O14 0.171256 0.220968 0.322977
O O15 0.807380 0.500000 0.150216
O O16 0.067290 0.500000 0.589770
#
# Coordination Sequence:
#
# PCOD9150885 Si02
#       8
#     2   1   4   4   2   4   4   4
#     4  11  24  38  58  85 115 151 200 251 293 351
#     4  12  24  44  66  82 116 162 196 248 296 342
#     4   9  19  36  60  90 124 155 196 243 286 350
#     4  10  20  37  59  87 121 158 196 239 295 352
#     4  11  23  40  58  84 117 153 198 249 301 345
#     4  10  21  39  63  88 120 156 196 240 294 357
#     4  10  23  41  63  93 119 154 201 243 290 348
#     4   9  17  34  61  88 119 161 192 234 299 350
#
# _framework density 21.763144
#
# number of rings (size 3 to 8) (size 9 to 14) (size 15 to 20)
#    0.000    2.080    1.600    1.200    0.000    6.400 
#    0.000   12.000    0.000    1.920    0.000    0.000 
#    0.000    0.000    0.000    0.000    0.000    0.000 
#
# Total GULP energy -139461.884468 kJ/mol
# GULP energy per Si atom -5578.475379 kJ/mol
# Density = 2.171361 g / cm^3
# Si number density = 21.763144 Si / 1000 Ang^3
#
#
#
# Elastic Constant Matrix: (Units=GPa)
#
#
# Indices 1 2 3 4 5 6 
#
# 1 48.7620 17.1878 -0.8301 0.0000 4.8255 0.0000
# 2 17.1878 84.4772 11.0801 0.0000 1.6737 0.0000
# 3 -0.8301 11.0801 81.2890 0.0000 13.4257 0.0000
# 4 0.0000 0.0000 0.0000 17.6979 0.0000 14.8216
# 5 4.8255 1.6737 13.4257 0.0000 21.7765 0.0000
# 6 0.0000 0.0000 0.0000 14.8216 0.0000 6.4401
#
#
#
# Elastic Compliance Matrix: (Units=1/GPa)
#
#
# Indices 1 2 3 4 5 6 
#
# 1 0.022795 -0.004764 0.001844 0.000000 -0.005822 0.000000
# 2 -0.004764 0.013049 -0.002044 0.000000 0.001313 0.000000
# 3 0.001844 -0.002044 0.014074 0.000000 -0.008928 0.000000
# 4 0.000000 0.000000 0.000000 -0.060928 0.000000 0.140221
# 5 -0.005822 0.001313 -0.008928 0.000000 0.052615 0.000000
# 6 0.000000 0.000000 0.000000 0.140221 0.000000 -0.167433
#
#
# Mechanical properties :
#
#
# Convention : Reuss Voigt Hill
#
# Bulk Modulus (GPa) = 25.00755 29.93373 27.47064
# Shear Modulus (GPa) = -48.74748 21.65560 -13.54594
#
# Velocity S-wave (km/s) = -4.73790 3.15788 -2.49755
# Velocity P-wave (km/s) = 4.29122 5.20389 2.08157
#
# Compressibility (1/GPa) = 0.03998792
#
# Stress axis : x y z
#
# Youngs Moduli (GPa) = 43.86998 76.63445 71.05379
#
# Poissons Ratio (x) = 0.36511 -0.13100
# Poissons Ratio (y) = 0.20901 0.14525
# Poissons Ratio (z) = -0.08088 0.15665
#
# Static dielectric constant tensor:
#      x y z
#    x 1.792730 0.000000 -0.027070 
#    y 0.000000 1.762140 0.000000 
#    z -0.027070 0.000000 1.782700 
# 
# From -- ./inp_files/88646.got.cif
#   From: 2010.05.17/outbox.cif.g08.bks.cpg/sg10_45_cif.got.tgz:88646.got - 2010.06.03 11:33:40.
