data_PCOD9150254
_publ_section_title
;
Structure prediction by ZEFSAII (Michael W. Deem and Ramdas Pophale) SiO2 
 PCOD9150254
Probable space group: P 2/M
;
_chemical_formula_sum "Si O2"
_cell_formula_units_Z 28
_cell_length_a 5.228922
_cell_length_b 12.394354
_cell_length_c 18.947633
_cell_angle_alpha 90.000000
_cell_angle_beta 98.514943
_cell_angle_gamma 90.000000
_cell_volume 1214.443566
_symmetry_space_group_name_H-M "P 2/M"
_symmetry_group_IT_number 10
_symmetry_cell_setting 'monoclinic'
loop_
_space_group_symop_operation_xyz
x,y,z
-x,y,-z
-x,-y,-z
x,-y,z
loop_
_atom_site_type_symbol
_atom_site_label
_atom_site_fract_x
_atom_site_fract_y
_atom_site_fract_z
Si Si1 0.000355 0.626046 0.273333
Si Si2 0.321365 0.188589 0.341203
Si Si3 0.119169 0.623237 0.113945
Si Si4 0.641556 0.177489 0.229529
Si Si5 0.274265 0.500000 0.549504
Si Si6 0.599278 0.246615 0.077396
Si Si7 0.726161 0.265641 0.450700
Si Si8 0.988853 0.000000 0.321112
O O1 0.962406 0.500000 0.290809
O O2 0.182045 0.695120 0.333908
O O3 0.127453 0.626602 0.200014
O O4 0.747588 0.701324 0.251516
O O5 0.379281 0.158469 0.262219
O O6 0.604357 0.187201 0.388260
O O7 0.153447 0.095679 0.368149
O O8 0.069113 0.500000 0.091618
O O9 0.385929 0.664539 0.092086
O O10 0.878895 0.697684 0.081513
O O11 0.610868 0.168523 0.145010
O O12 0.843101 0.093700 0.268681
O O13 0.500000 0.500000 0.500000
O O14 0.278586 0.384196 0.586054
O O15 0.000000 0.500000 0.500000
O O16 0.500000 0.199286 0.000000
O O17 0.500000 0.267173 0.500000
O O18 0.000000 0.247479 0.500000
#
# Coordination Sequence:
#
# PCOD9150254 Si02
#       8
#     4   4   4   4   2   4   4   2
#     4   9  20  36  59  95 131 164 210 264 315 379
#     4  11  22  41  69  89 122 170 215 265 320 379
#     4  10  20  36  56  86 130 173 215 255 308 382
#     4  10  22  42  64  92 123 166 217 267 323 382
#     4   8  16  36  56  84 126 172 197 235 295 375
#     4  11  22  37  59  89 127 167 210 264 319 378
#     4  10  23  40  62  94 134 165 208 253 312 380
#     4  10  24  44  69  90 118 162 226 270 328 378
#
# _framework density 23.055827000000001
#
# number of rings (size 3 to 8) (size 9 to 14) (size 15 to 20)
#    0.000    2.000    1.429    1.286    5.000    2.857 
#    0.000    1.071    0.000    0.857    0.000    0.000 
#    0.000    0.000    0.000    0.000    0.000    0.000 
#
# Total GULP energy -155905.079118 kJ/mol
# GULP energy per Si atom -5568.038540 kJ/mol
# Density = 2.300335 g / cm^3
# Si number density = 23.055827 Si / 1000 Ang^3
#
#
#
# Elastic Constant Matrix: (Units=GPa)
#
#
# Indices 1 2 3 4 5 6 
#
# 1 109.7583 22.5437 21.9102 0.0000 12.9390 0.0000
# 2 22.5437 96.7202 34.7432 0.0000 15.2632 0.0000
# 3 21.9102 34.7432 92.4985 0.0000 12.7050 0.0000
# 4 0.0000 0.0000 0.0000 2.3740 0.0000 17.1406
# 5 12.9390 15.2632 12.7050 0.0000 37.6275 0.0000
# 6 0.0000 0.0000 0.0000 17.1406 0.0000 -40.4380
#
#
#
# Elastic Compliance Matrix: (Units=1/GPa)
#
#
# Indices 1 2 3 4 5 6 
#
# 1 0.009980 -0.001413 -0.001511 0.000000 -0.002349 0.000000
# 2 -0.001413 0.012606 -0.003948 0.000000 -0.003295 0.000000
# 3 -0.001511 -0.003948 0.012961 0.000000 -0.002256 0.000000
# 4 0.000000 0.000000 0.000000 0.103741 0.000000 0.043973
# 5 -0.002349 -0.003295 -0.002256 0.000000 0.029482 0.000000
# 6 0.000000 0.000000 0.000000 0.043973 0.000000 -0.006090
#
#
# Mechanical properties :
#
#
# Convention : Reuss Voigt Hill
#
# Bulk Modulus (GPa) = 45.86128 50.81901 48.34015
# Shear Modulus (GPa) = 27.21960 14.56468 20.89214
#
# Velocity S-wave (km/s) = 3.43971 2.51612 3.01351
# Velocity P-wave (km/s) = 5.97579 5.52546 5.75503
#
# Compressibility (1/GPa) = 0.02180489
#
# Stress axis : x y z
#
# Youngs Moduli (GPa) = 100.20522 79.32423 77.15169
#
# Poissons Ratio (x) = 0.11207 0.11655
# Poissons Ratio (y) = 0.14157 0.30459
# Poissons Ratio (z) = 0.15137 0.31316
#
# Static dielectric constant tensor:
#      x y z
#    x 1.948980 0.000000 -0.032200 
#    y 0.000000 1.846670 0.000000 
#    z -0.032200 0.000000 1.922760 
# 
# From -- ./inp_files/81229.got.cif
#   From: 2010.05.17/outbox.cif.g08.bks.cpg/sg10_41_cif.got.tgz:81229.got - 2010.06.03 11:33:40.
