data_PCOD9150636
_publ_section_title
;
Structure prediction by ZEFSAII (Michael W. Deem and Ramdas Pophale) SiO2 
 PCOD9150636
Probable space group: P 2/M
;
_chemical_formula_sum "Si O2"
_cell_formula_units_Z 32
_cell_length_a 8.388150
_cell_length_b 14.764874
_cell_length_c 12.361788
_cell_angle_alpha 90.000000
_cell_angle_beta 91.866566
_cell_angle_gamma 90.000000
_cell_volume 1530.194807
_symmetry_space_group_name_H-M "P 2/M"
_symmetry_group_IT_number 10
_symmetry_cell_setting 'monoclinic'
loop_
_space_group_symop_operation_xyz
x,y,z
-x,y,-z
-x,-y,-z
x,-y,z
loop_
_atom_site_type_symbol
_atom_site_label
_atom_site_fract_x
_atom_site_fract_y
_atom_site_fract_z
Si Si1 0.229320 0.897406 0.257699
Si Si2 0.271589 0.717460 0.583650
Si Si3 0.320341 0.712583 0.953827
Si Si4 0.361838 0.714927 0.345849
Si Si5 0.834449 0.604554 0.234113
Si Si6 0.809065 0.100410 0.998038
Si Si7 0.808060 0.394030 0.847169
Si Si8 0.910902 0.897811 0.381667
O O1 0.335476 0.818557 0.308988
O O2 0.241161 0.893078 0.128665
O O3 0.047117 0.881122 0.294043
O O4 0.269076 0.000000 0.294087
O O5 0.263765 0.704178 0.455023
O O6 0.453785 0.700423 0.622639
O O7 0.163706 0.648556 0.648090
O O8 0.217322 0.818397 0.615639
O O9 0.288210 0.659795 0.843031
O O10 0.500000 0.708526 0.000000
O O11 0.267147 0.816449 0.940961
O O12 0.217973 0.663505 0.045063
O O13 0.297299 0.650162 0.250285
O O14 0.788424 0.500000 0.237270
O O15 0.008354 0.612148 0.184625
O O16 0.767339 0.000000 0.038686
O O17 0.000000 0.108252 0.000000
O O18 0.768488 0.500000 0.863942
O O19 0.000000 0.896080 0.500000
O O20 0.847661 0.000000 0.364382
#
# Coordination Sequence:
#
# PCOD9150636 Si02
#       8
#     4   4   4   4   4   4   4   4
#     4  10  20  37  62  88 124 167 210 259 308 369
#     4  11  25  39  63  91 131 170 206 261 320 376
#     4  12  25  41  67  98 132 165 203 256 319 378
#     4  11  23  41  60  94 129 167 208 256 324 381
#     4  11  26  45  67  95 123 163 216 263 312 375
#     4  10  22  40  63  93 128 169 210 253 308 371
#     4  11  24  44  69  92 120 161 212 266 316 373
#     4  10  20  36  60  91 121 160 212 258 302 362
#
# _framework density 20.912369000000002
#
# number of rings (size 3 to 8) (size 9 to 14) (size 15 to 20)
#    0.000    1.250    2.500    3.000    1.750    4.750 
#    0.000    3.750    0.000    0.000    0.000    0.000 
#    0.000    0.000    0.000    0.000    0.000    0.000 
#
# Total GULP energy -179031.232056 kJ/mol
# GULP energy per Si atom -5594.726002 kJ/mol
# Density = 2.086477 g / cm^3
# Si number density = 20.912369 Si / 1000 Ang^3
#
#
#
# Elastic Constant Matrix: (Units=GPa)
#
#
# Indices 1 2 3 4 5 6 
#
# 1 24.5963 22.3834 -8.6107 0.0000 2.8411 0.0000
# 2 22.3834 117.8452 33.1518 0.0000 -7.2896 0.0000
# 3 -8.6107 33.1518 51.5422 0.0000 1.1617 0.0000
# 4 0.0000 0.0000 0.0000 -53.7704 0.0000 54.0303
# 5 2.8411 -7.2896 1.1617 0.0000 30.0515 0.0000
# 6 0.0000 0.0000 0.0000 54.0303 0.0000 -45.4993
#
#
#
# Elastic Compliance Matrix: (Units=1/GPa)
#
#
# Indices 1 2 3 4 5 6 
#
# 1 0.070912 -0.021591 0.026026 0.000000 -0.012948 0.000000
# 2 -0.021591 0.017171 -0.014804 0.000000 0.006779 0.000000
# 3 0.026026 -0.014804 0.033437 0.000000 -0.007344 0.000000
# 4 0.000000 0.000000 0.000000 0.096242 0.000000 0.114287
# 5 -0.012948 0.006779 -0.007344 0.000000 0.036429 0.000000
# 6 0.000000 0.000000 0.000000 0.114287 0.000000 0.113738
#
#
# Mechanical properties :
#
#
# Convention : Reuss Voigt Hill
#
# Bulk Modulus (GPa) = 9.92252 31.98144 20.95198
# Shear Modulus (GPa) = 11.84103 -4.03971 3.90066
#
# Velocity S-wave (km/s) = 2.38212 -1.39138 1.36722
# Velocity P-wave (km/s) = 3.51014 3.57002 3.54021
#
# Compressibility (1/GPa) = 0.10078090
#
# Stress axis : x y z
#
# Youngs Moduli (GPa) = 14.10195 58.23869 29.90702
#
# Poissons Ratio (x) = 1.25746 -0.77836
# Poissons Ratio (y) = 0.30448 0.44274
# Poissons Ratio (z) = -0.36702 0.86217
#
# Static dielectric constant tensor:
#      x y z
#    x 1.735170 0.000000 -0.013750 
#    y 0.000000 1.732440 0.000000 
#    z -0.013750 0.000000 1.746800 
# 
# From -- ./inp_files/42957.got.cif
#   From: 2010.05.17/outbox.cif.g08.bks.cpg/sg10_22_cif.got.tgz:42957.got - 2010.06.03 11:33:40.
