data_PCOD9150460
_publ_section_title
;
Structure prediction by ZEFSAII (Michael W. Deem and Ramdas Pophale) SiO2 
 PCOD9150460
Probable space group: P 2/M
;
_chemical_formula_sum "Si O2"
_cell_formula_units_Z 29
_cell_length_a 8.986924
_cell_length_b 9.599211
_cell_length_c 24.880577
_cell_angle_alpha 90.000000
_cell_angle_beta 136.033161
_cell_angle_gamma 90.000000
_cell_volume 1490.108494
_symmetry_space_group_name_H-M "P 2/M"
_symmetry_group_IT_number 10
_symmetry_cell_setting 'monoclinic'
loop_
_space_group_symop_operation_xyz
x,y,z
-x,y,-z
-x,-y,-z
x,-y,z
loop_
_atom_site_type_symbol
_atom_site_label
_atom_site_fract_x
_atom_site_fract_y
_atom_site_fract_z
Si Si1 0.084380 0.332370 0.104338
Si Si2 0.654151 0.668884 0.933524
Si Si3 0.625860 0.270761 0.390036
Si Si4 0.239267 0.167582 0.806024
Si Si5 0.702155 0.160019 0.522047
Si Si6 0.177126 0.166444 0.666468
Si Si7 0.144094 0.337031 0.242689
Si Si8 0.000000 0.500000 0.500000
O O1 0.090697 0.500000 0.104342
O O2 0.244860 0.289892 0.098337
O O3 0.144044 0.291849 0.179969
O O4 0.841810 0.294943 0.024586
O O5 0.619892 0.500000 0.925654
O O6 0.437513 0.753966 0.885546
O O7 0.656375 0.163334 0.446795
O O8 0.673788 0.217080 0.342713
O O9 0.383509 0.325177 0.327745
O O10 0.810553 0.381686 0.448966
O O11 0.254319 0.199666 0.746225
O O12 0.020038 0.236680 0.769551
O O13 0.241867 0.000000 0.813940
O O14 0.500000 0.227194 0.500000
O O15 0.934826 0.223699 0.595036
O O16 0.715069 0.000000 0.544524
O O17 0.166519 0.000000 0.659136
O O18 0.075759 0.500000 0.227892
#
# Coordination Sequence:
#
# PCOD9150460 Si02
#       8
#     4   4   4   4   4   4   4   1
#     4   8  17  35  63  91 117 150 204 245 281 347
#     4   9  17  37  64  90 116 154 197 247 292 343
#     4  12  22  40  60  85 117 149 186 244 296 350
#     4  11  24  40  57  86 123 156 198 248 294 347
#     4  10  20  36  59  83 108 143 187 232 282 343
#     4  10  21  38  59  81 107 148 196 236 281 344
#     4  11  23  39  58  85 116 158 196 236 293 358
#     4  12  24  40  56  92 120 144 190 246 304 342
#
# _framework density 19.461669000000001
#
# number of rings (size 3 to 8) (size 9 to 14) (size 15 to 20)
#    0.000    1.793    2.069    3.310    0.000    3.862 
#    2.483    5.862    0.000    0.000    0.000    0.000 
#    0.000    0.000    0.000    0.000    0.000    0.000 
#
# Total GULP energy -161476.678973 kJ/mol
# GULP energy per Si atom -5568.161344 kJ/mol
# Density = 1.941737 g / cm^3
# Si number density = 19.461669 Si / 1000 Ang^3
#
#
#
# Elastic Constant Matrix: (Units=GPa)
#
#
# Indices 1 2 3 4 5 6 
#
# 1 53.7566 13.1002 29.3870 0.0000 26.2021 0.0000
# 2 13.1002 39.0836 32.6451 0.0000 12.9609 0.0000
# 3 29.3870 32.6451 100.3078 0.0000 28.9527 0.0000
# 4 0.0000 0.0000 0.0000 16.0620 0.0000 1.0701
# 5 26.2021 12.9609 28.9527 0.0000 34.3221 0.0000
# 6 0.0000 0.0000 0.0000 1.0701 0.0000 48.8975
#
#
#
# Elastic Compliance Matrix: (Units=1/GPa)
#
#
# Indices 1 2 3 4 5 6 
#
# 1 0.030294 -0.001214 -0.002560 0.000000 -0.020509 0.000000
# 2 -0.001214 0.035792 -0.010124 0.000000 -0.004049 0.000000
# 3 -0.002560 -0.010124 0.016320 0.000000 -0.007989 0.000000
# 4 0.000000 0.000000 0.000000 0.062349 0.000000 -0.001364
# 5 -0.020509 -0.004049 -0.007989 0.000000 0.053061 0.000000
# 6 0.000000 0.000000 0.000000 -0.001364 0.000000 0.020481
#
#
# Mechanical properties :
#
#
# Convention : Reuss Voigt Hill
#
# Bulk Modulus (GPa) = 18.31200 38.15696 28.23448
# Shear Modulus (GPa) = 18.91794 27.72404 23.32099
#
# Velocity S-wave (km/s) = 3.12117 3.77841 3.46541
# Velocity P-wave (km/s) = 4.73483 6.21964 5.52732
#
# Compressibility (1/GPa) = 0.05460901
#
# Stress axis : x y z
#
# Youngs Moduli (GPa) = 33.00937 27.93903 61.27303
#
# Poissons Ratio (x) = 0.03393 0.15689
# Poissons Ratio (y) = 0.04009 0.62034
# Poissons Ratio (z) = 0.08452 0.28286
#
# Static dielectric constant tensor:
#      x y z
#    x 1.707250 0.000000 -0.002650 
#    y 0.000000 1.663160 0.000000 
#    z -0.002650 0.000000 1.699040 
# 
# From -- ./inp_files/92182.got.cif
#   From: 2010.05.17/outbox.cif.g08.bks.cpg/sg10_47_cif.got.tgz:92182.got - 2010.06.03 11:33:40.
