data_PCOD9150739
_publ_section_title
;
Structure prediction by ZEFSAII (Michael W. Deem and Ramdas Pophale) SiO2 
 PCOD9150739
Probable space group: P 2/M
;
_chemical_formula_sum "Si O2"
_cell_formula_units_Z 20
_cell_length_a 10.018739
_cell_length_b 12.030209
_cell_length_c 19.223034
_cell_angle_alpha 90.000000
_cell_angle_beta 156.050991
_cell_angle_gamma 90.000000
_cell_volume 940.485975
_symmetry_space_group_name_H-M "P 2/M"
_symmetry_group_IT_number 10
_symmetry_cell_setting 'monoclinic'
loop_
_space_group_symop_operation_xyz
x,y,z
-x,y,-z
-x,-y,-z
x,-y,z
loop_
_atom_site_type_symbol
_atom_site_label
_atom_site_fract_x
_atom_site_fract_y
_atom_site_fract_z
Si Si1 0.602830 0.245182 0.391779
Si Si2 0.867240 0.000000 0.203829
Si Si3 0.825562 0.368832 0.249910
Si Si4 0.848197 0.765054 0.705336
Si Si5 0.123465 0.000000 0.478801
Si Si6 0.621850 0.628611 0.842587
O O1 0.256210 0.262585 0.266255
O O2 0.571632 0.286736 0.298729
O O3 0.890411 0.314988 0.566123
O O4 0.679631 0.114916 0.434798
O O5 0.046203 0.890869 0.259554
O O6 0.883983 0.000000 0.296623
O O7 0.500000 0.000000 0.000000
O O8 0.875494 0.500000 0.266807
O O9 0.486763 0.348897 0.129961
O O10 0.881969 0.311455 0.202821
O O11 0.500000 0.747465 0.500000
O O12 0.000000 0.000000 0.500000
O O13 0.520233 0.500000 0.780052
O O14 0.000000 0.636674 0.000000
#
# Coordination Sequence:
#
# PCOD9150739 Si02
#       6
#     4   2   4   4   2   4
#     4  11  22  38  65  89 126 166 217 265 317 385
#     4  12  24  42  67  93 130 174 215 261 330 389
#     4  10  20  36  63  91 119 163 218 261 315 390
#     4  10  21  39  63  89 126 166 215 263 316 383
#     4  12  23  41  67  99 127 169 221 271 313 382
#     4  10  22  40  60  89 130 168 206 264 332 385
#
# _framework density 21.265601
#
# number of rings (size 3 to 8) (size 9 to 14) (size 15 to 20)
#    0.000    1.400    4.000    3.300    0.000    7.600 
#    0.000    0.500    0.000    4.200    0.000    0.000 
#    0.000    0.000    0.000    0.000    0.000    0.000 
#
# Total GULP energy -111682.725206 kJ/mol
# GULP energy per Si atom -5584.136260 kJ/mol
# Density = 2.121720 g / cm^3
# Si number density = 21.265601 Si / 1000 Ang^3
#
#
#
# Elastic Constant Matrix: (Units=GPa)
#
#
# Indices 1 2 3 4 5 6 
#
# 1 177.3677 56.9931 37.1453 0.0000 22.6165 0.0000
# 2 56.9931 103.3749 30.8392 0.0000 16.9134 0.0000
# 3 37.1453 30.8392 62.1100 0.0000 7.9659 0.0000
# 4 0.0000 0.0000 0.0000 -88.6036 0.0000 69.3989
# 5 22.6165 16.9134 7.9659 0.0000 33.7510 0.0000
# 6 0.0000 0.0000 0.0000 69.3989 0.0000 -24.7875
#
#
#
# Elastic Compliance Matrix: (Units=1/GPa)
#
#
# Indices 1 2 3 4 5 6 
#
# 1 0.007493 -0.002844 -0.002689 0.000000 -0.002961 0.000000
# 2 -0.002844 0.013138 -0.004354 0.000000 -0.003650 0.000000
# 3 -0.002689 -0.004354 0.019964 0.000000 -0.000728 0.000000
# 4 0.000000 0.000000 0.000000 0.009461 0.000000 0.026489
# 5 -0.002961 -0.003650 -0.000728 0.000000 0.033614 0.000000
# 6 0.000000 0.000000 0.000000 0.026489 0.000000 0.033819
#
#
# Mechanical properties :
#
#
# Convention : Reuss Voigt Hill
#
# Bulk Modulus (GPa) = 48.03161 65.86754 56.94957
# Shear Modulus (GPa) = 34.67350 -1.40300 16.63525
#
# Velocity S-wave (km/s) = 4.04232 -0.81313 2.79993
# Velocity P-wave (km/s) = 6.66504 5.49176 6.10664
#
# Compressibility (1/GPa) = 0.02081962
#
# Stress axis : x y z
#
# Youngs Moduli (GPa) = 133.46446 76.11660 50.09033
#
# Poissons Ratio (x) = 0.21649 0.13469
# Poissons Ratio (y) = 0.37960 0.21810
# Poissons Ratio (z) = 0.35889 0.33142
#
# Static dielectric constant tensor:
#      x y z
#    x 1.814830 0.000000 0.013240 
#    y 0.000000 1.718950 0.000000 
#    z 0.013240 0.000000 1.758940 
# 
# From -- ./inp_files/75032.got.cif
#   From: 2010.05.17/outbox.cif.g08.bks.cpg/sg10_38_cif.got.tgz:75032.got - 2010.06.03 11:33:40.
