data_PCOD9150542
_publ_section_title
;
Structure prediction by ZEFSAII (Michael W. Deem and Ramdas Pophale) SiO2 
 PCOD9150542
Probable space group: P 2/M
;
_chemical_formula_sum "Si O2"
_cell_formula_units_Z 22
_cell_length_a 13.562556
_cell_length_b 16.377629
_cell_length_c 5.473259
_cell_angle_alpha 90.000000
_cell_angle_beta 60.238244
_cell_angle_gamma 90.000000
_cell_volume 1055.375042
_symmetry_space_group_name_H-M "P 2/M"
_symmetry_group_IT_number 10
_symmetry_cell_setting 'monoclinic'
loop_
_space_group_symop_operation_xyz
x,y,z
-x,y,-z
-x,-y,-z
x,-y,z
loop_
_atom_site_type_symbol
_atom_site_label
_atom_site_fract_x
_atom_site_fract_y
_atom_site_fract_z
Si Si1 0.175238 0.590229 0.629148
Si Si2 0.000000 0.654825 0.500000
Si Si3 0.368591 0.315155 0.138813
Si Si4 0.747307 0.089408 0.115993
Si Si5 0.803878 0.734191 0.019196
Si Si6 0.627786 0.131613 0.750442
O O1 0.189126 0.500000 0.718441
O O2 0.057846 0.596926 0.627551
O O3 0.284725 0.613317 0.328129
O O4 0.171269 0.665344 0.816587
O O5 0.103405 0.713524 0.299685
O O6 0.355439 0.229612 0.302087
O O7 0.500000 0.338359 0.000000
O O8 0.321747 0.285493 0.932767
O O9 0.817148 0.172192 0.077490
O O10 0.656558 0.092969 0.452341
O O11 0.802197 0.000000 0.061952
O O12 0.701042 0.101204 0.894532
O O13 0.500000 0.118138 0.000000
#
# Coordination Sequence:
#
# PCOD9150542 Si02
#       6
#     4   2   4   4   4   4
#     4  11  22  39  64  92 119 154 205 261 321 379
#     4  10  23  42  65  86 118 154 203 270 329 372
#     4   9  20  38  59  86 128 171 203 245 308 379
#     4  11  22  37  59  89 127 167 211 261 313 373
#     4  10  22  40  61  89 122 163 207 262 316 373
#     4  10  20  36  59  88 126 171 215 260 308 365
#
# _framework density 20.845669999999998
#
# number of rings (size 3 to 8) (size 9 to 14) (size 15 to 20)
#    0.000    1.818    1.818    1.909    0.000    7.636 
#    0.000    1.364    0.000    2.182    0.000    0.000 
#    0.000    0.000    0.000    0.000    0.000    0.000 
#
# Total GULP energy -122565.468903 kJ/mol
# GULP energy per Si atom -5571.157677 kJ/mol
# Density = 2.079822 g / cm^3
# Si number density = 20.845670 Si / 1000 Ang^3
#
#
#
# Elastic Constant Matrix: (Units=GPa)
#
#
# Indices 1 2 3 4 5 6 
#
# 1 91.8283 23.1972 8.0420 0.0000 -1.0596 0.0000
# 2 23.1972 164.5463 18.6924 0.0000 -2.4603 0.0000
# 3 8.0420 18.6924 53.0057 0.0000 3.8935 0.0000
# 4 0.0000 0.0000 0.0000 -42.5838 0.0000 22.3122
# 5 -1.0596 -2.4603 3.8935 0.0000 21.2597 0.0000
# 6 0.0000 0.0000 0.0000 22.3122 0.0000 7.2184
#
#
#
# Elastic Compliance Matrix: (Units=1/GPa)
#
#
# Indices 1 2 3 4 5 6 
#
# 1 0.011374 -0.001451 -0.001260 0.000000 0.000630 0.000000
# 2 -0.001451 0.006544 -0.002167 0.000000 0.001082 0.000000
# 3 -0.001260 -0.002167 0.020115 0.000000 -0.003997 0.000000
# 4 0.000000 0.000000 0.000000 -0.008965 0.000000 0.027709
# 5 0.000630 0.001082 -0.003997 0.000000 0.047926 0.000000
# 6 0.000000 0.000000 0.000000 0.027709 0.000000 0.052885
#
#
# Mechanical properties :
#
#
# Convention : Reuss Voigt Hill
#
# Bulk Modulus (GPa) = 35.36492 45.47150 40.41821
# Shear Modulus (GPa) = 33.54318 14.47545 24.00931
#
# Velocity S-wave (km/s) = 4.01574 2.63803 3.39745
# Velocity P-wave (km/s) = 6.20511 5.58029 5.90098
#
# Compressibility (1/GPa) = 0.02827661
#
# Stress axis : x y z
#
# Youngs Moduli (GPa) = 87.91952 152.80652 49.71417
#
# Poissons Ratio (x) = 0.22171 0.06265
# Poissons Ratio (y) = 0.12756 0.10774
# Poissons Ratio (z) = 0.11080 0.33116
#
# Static dielectric constant tensor:
#      x y z
#    x 1.744660 0.000000 0.028980 
#    y 0.000000 1.780400 0.000000 
#    z 0.028980 0.000000 1.855080 
# 
# From -- ./inp_files/9171.got.cif
#   From: 2010.05.17/outbox.cif.g08.bks.cpg/sg10_5_cif.got.tgz:9171.got - 2010.06.03 11:33:40.
