data_PCOD9150479
_publ_section_title
;
Structure prediction by ZEFSAII (Michael W. Deem and Ramdas Pophale) SiO2 
 PCOD9150479
Probable space group: P 2/M
;
_chemical_formula_sum "Si O2"
_cell_formula_units_Z 28
_cell_length_a 8.655901
_cell_length_b 24.199075
_cell_length_c 13.971852
_cell_angle_alpha 90.000000
_cell_angle_beta 30.925431
_cell_angle_gamma 90.000000
_cell_volume 1504.050024
_symmetry_space_group_name_H-M "P 2/M"
_symmetry_group_IT_number 10
_symmetry_cell_setting 'monoclinic'
loop_
_space_group_symop_operation_xyz
x,y,z
-x,y,-z
-x,-y,-z
x,-y,z
loop_
_atom_site_type_symbol
_atom_site_label
_atom_site_fract_x
_atom_site_fract_y
_atom_site_fract_z
Si Si1 0.821879 0.561840 0.877393
Si Si2 0.673224 0.639238 0.135909
Si Si3 0.790924 0.435097 0.516012
Si Si4 0.630502 0.154734 0.536386
Si Si5 0.351342 0.845103 0.179055
Si Si6 0.636502 0.762803 0.182249
Si Si7 0.364655 0.937484 0.310819
O O1 0.915777 0.500000 0.863328
O O2 0.045896 0.578844 0.671420
O O3 0.500000 0.554725 0.000000
O O4 0.742876 0.605287 0.002181
O O5 0.492701 0.601760 0.306954
O O6 0.536779 0.700680 0.206649
O O7 0.000000 0.650462 0.000000
O O8 0.715136 0.500000 0.550993
O O9 0.000000 0.428346 0.500000
O O10 0.500000 0.146184 0.500000
O O11 0.496468 0.211771 0.649450
O O12 0.542731 0.102703 0.651130
O O13 0.991828 0.158178 0.356297
O O14 0.486988 0.801925 0.182128
O O15 0.444176 0.904913 0.171835
O O16 0.500000 0.834443 0.000000
O O17 0.000000 0.767752 0.000000
O O18 0.000000 0.939462 0.500000
O O19 0.477095 0.000000 0.258695
#
# Coordination Sequence:
#
# PCOD9150479 Si02
#       7
#     4   4   4   4   4   4   4
#     4  10  20  38  62  86 114 151 193 232 285 353
#     4  11  24  40  57  87 119 147 188 246 298 344
#     4  10  20  37  62  87 114 152 191 232 286 352
#     4  10  20  37  60  85 116 154 192 238 291 344
#     4  10  20  36  59  84 113 156 197 234 290 345
#     4  10  22  41  57  79 113 151 195 246 294 340
#     4   8  16  32  55  84 119 153 192 237 280 335
#
# _framework density 18.616402999999998
#
# number of rings (size 3 to 8) (size 9 to 14) (size 15 to 20)
#    0.000    2.143    1.429    2.571    0.000    4.000 
#    7.714    1.429    0.000   14.571    0.000    0.000 
#    0.000    0.000    0.000    0.000    0.000    0.000 
#
# Total GULP energy -155887.050490 kJ/mol
# GULP energy per Si atom -5567.394660 kJ/mol
# Density = 1.857403 g / cm^3
# Si number density = 18.616403 Si / 1000 Ang^3
#
#
#
# Elastic Constant Matrix: (Units=GPa)
#
#
# Indices 1 2 3 4 5 6 
#
# 1 87.2947 31.4071 15.5490 0.0000 12.5005 0.0000
# 2 31.4071 103.8403 34.4562 0.0000 12.6363 0.0000
# 3 15.5490 34.4562 84.1395 0.0000 7.8765 0.0000
# 4 0.0000 0.0000 0.0000 -3.6267 0.0000 -19.1185
# 5 12.5005 12.6363 7.8765 0.0000 26.3996 0.0000
# 6 0.0000 0.0000 0.0000 -19.1185 0.0000 2.3178
#
#
#
# Elastic Compliance Matrix: (Units=1/GPa)
#
#
# Indices 1 2 3 4 5 6 
#
# 1 0.013412 -0.003263 -0.000714 0.000000 -0.004576 0.000000
# 2 -0.003263 0.012384 -0.004175 0.000000 -0.003137 0.000000
# 3 -0.000714 -0.004175 0.013896 0.000000 -0.001810 0.000000
# 4 0.000000 0.000000 0.000000 -0.006199 0.000000 -0.051130
# 5 -0.004576 -0.003137 -0.001810 0.000000 0.042088 0.000000
# 6 0.000000 0.000000 0.000000 -0.051130 0.000000 0.009699
#
#
# Mechanical properties :
#
#
# Convention : Reuss Voigt Hill
#
# Bulk Modulus (GPa) = 42.75558 48.67769 45.71663
# Shear Modulus (GPa) = 45.71257 17.94229 31.82743
#
# Velocity S-wave (km/s) = 4.96068 3.10786 4.13927
# Velocity P-wave (km/s) = 7.47178 6.25163 6.88878
#
# Compressibility (1/GPa) = 0.02338876
#
# Stress axis : x y z
#
# Youngs Moduli (GPa) = 74.56150 80.74913 71.96314
#
# Poissons Ratio (x) = 0.26346 0.05138
# Poissons Ratio (y) = 0.24327 0.30043
# Poissons Ratio (z) = 0.05324 0.33711
#
# Static dielectric constant tensor:
#      x y z
#    x 1.706900 0.000000 -0.029820 
#    y 0.000000 1.688390 0.000000 
#    z -0.029820 0.000000 1.641660 
# 
# From -- ./inp_files/62551.got.cif
#   From: 2010.05.17/outbox.cif.g08.bks.cpg/sg10_32_cif.got.tgz:62551.got - 2010.06.03 11:33:40.
