data_PCOD9150362
_publ_section_title
;
Structure prediction by ZEFSAII (Michael W. Deem and Ramdas Pophale) SiO2 
 PCOD9150362
Probable space group: P 2/M
;
_chemical_formula_sum "Si O2"
_cell_formula_units_Z 32
_cell_length_a 14.069556
_cell_length_b 7.533026
_cell_length_c 12.632756
_cell_angle_alpha 90.000000
_cell_angle_beta 90.787398
_cell_angle_gamma 90.000000
_cell_volume 1338.773030
_symmetry_space_group_name_H-M "P 2/M"
_symmetry_group_IT_number 10
_symmetry_cell_setting 'monoclinic'
loop_
_space_group_symop_operation_xyz
x,y,z
-x,y,-z
-x,-y,-z
x,-y,z
loop_
_atom_site_type_symbol
_atom_site_label
_atom_site_fract_x
_atom_site_fract_y
_atom_site_fract_z
Si Si1 0.962050 0.282557 0.611751
Si Si2 0.145948 0.713455 0.025708
Si Si3 0.698777 0.206309 0.237586
Si Si4 0.367400 0.210379 0.980035
Si Si5 0.799112 0.715007 0.749868
Si Si6 0.910965 0.703832 0.195507
Si Si7 0.582692 0.205666 0.793478
Si Si8 0.450140 0.701090 0.602056
O O1 0.965316 0.500000 0.609902
O O2 0.030165 0.218447 0.707197
O O3 0.000000 0.220317 0.500000
O O4 0.855464 0.234297 0.645284
O O5 0.135751 0.500000 0.023201
O O6 0.256049 0.758544 0.003611
O O7 0.088024 0.782209 0.923329
O O8 0.136465 0.769140 0.147222
O O9 0.629629 0.274200 0.141354
O O10 0.800483 0.297624 0.229692
O O11 0.644593 0.220373 0.347325
O O12 0.717071 0.000000 0.215309
O O13 0.387071 0.000000 0.980554
O O14 0.421494 0.278884 0.085595
O O15 0.790559 0.500000 0.753107
O O16 0.693985 0.788780 0.763444
O O17 0.944199 0.500000 0.184937
O O18 0.525566 0.296783 0.698975
O O19 0.550531 0.000000 0.794692
O O20 0.500000 0.784998 0.500000
O O21 0.425047 0.500000 0.571949
#
# Coordination Sequence:
#
# PCOD9150362 Si02
#       8
#     4   4   4   4   4   4   4   4
#     4   9  18  31  48  72 101 135 176 218 260 309
#     4   8  14  25  45  73 101 130 168 213 255 301
#     4  10  20  36  58  82 109 139 172 213 263 316
#     4   8  16  31  52  79 109 138 165 201 257 321
#     4   9  17  31  51  75 104 137 173 213 259 309
#     4   9  17  31  51  75 104 137 173 213 259 309
#     4  10  20  36  58  82 109 139 172 213 263 316
#     4  11  25  42  57  76 104 139 180 221 260 307
#
# _framework density 23.902481999999999
#
# number of rings (size 3 to 8) (size 9 to 14) (size 15 to 20)
#    0.000    2.750    0.000    1.125    0.000    4.000 
#    0.000    8.125    0.000    0.750    0.000    8.750 
#    0.000    0.000    0.000    0.000    0.000    0.000 
#
# Total GULP energy -178622.481633 kJ/mol
# GULP energy per Si atom -5581.952551 kJ/mol
# Density = 2.384808 g / cm^3
# Si number density = 23.902482 Si / 1000 Ang^3
#
#
#
# Elastic Constant Matrix: (Units=GPa)
#
#
# Indices 1 2 3 4 5 6 
#
# 1 70.3605 -3.6273 35.5318 0.0000 -13.1764 0.0000
# 2 -3.6273 65.7868 1.5054 0.0000 -3.4401 0.0000
# 3 35.5318 1.5054 124.9710 0.0000 -39.6055 0.0000
# 4 0.0000 0.0000 0.0000 23.1925 0.0000 -30.8129
# 5 -13.1764 -3.4401 -39.6055 0.0000 41.6134 0.0000
# 6 0.0000 0.0000 0.0000 -30.8129 0.0000 65.5342
#
#
#
# Elastic Compliance Matrix: (Units=1/GPa)
#
#
# Indices 1 2 3 4 5 6 
#
# 1 0.016707 0.001085 -0.004379 0.000000 0.001212 0.000000
# 2 0.001085 0.015345 0.000025 0.000000 0.001636 0.000000
# 3 -0.004379 0.000025 0.012612 0.000000 0.010619 0.000000
# 4 0.000000 0.000000 0.000000 0.114879 0.000000 0.054014
# 5 0.001212 0.001636 0.010619 0.000000 0.034656 0.000000
# 6 0.000000 0.000000 0.000000 0.054014 0.000000 0.040655
#
#
# Mechanical properties :
#
#
# Convention : Reuss Voigt Hill
#
# Bulk Modulus (GPa) = 26.22889 36.43759 31.33324
# Shear Modulus (GPa) = 19.67719 41.24857 30.46288
#
# Velocity S-wave (km/s) = 2.87231 4.15866 3.57384
# Velocity P-wave (km/s) = 4.69013 6.19166 5.49245
#
# Compressibility (1/GPa) = 0.03812590
#
# Stress axis : x y z
#
# Youngs Moduli (GPa) = 59.85580 65.16608 79.29014
#
# Poissons Ratio (x) = -0.07069 0.34722
# Poissons Ratio (y) = -0.06493 -0.00200
# Poissons Ratio (z) = 0.26211 -0.00164
#
# Static dielectric constant tensor:
#      x y z
#    x 1.878120 0.000000 -0.101400 
#    y 0.000000 1.913240 0.000000 
#    z -0.101400 0.000000 1.749330 
# 
# From -- ./inp_files/49932.got.cif
#   From: 2010.05.17/outbox.cif.g08.bks.cpg/sg10_25_cif.got.tgz:49932.got - 2010.06.03 11:33:40.
