data_PCOD9150694
_publ_section_title
;
Structure prediction by ZEFSAII (Michael W. Deem and Ramdas Pophale) SiO2 
 PCOD9150694
Probable space group: P 2/M
;
_chemical_formula_sum "Si O2"
_cell_formula_units_Z 20
_cell_length_a 9.967664
_cell_length_b 14.128723
_cell_length_c 7.238176
_cell_angle_alpha 90.000000
_cell_angle_beta 74.889194
_cell_angle_gamma 90.000000
_cell_volume 984.109213
_symmetry_space_group_name_H-M "P 2/M"
_symmetry_group_IT_number 10
_symmetry_cell_setting 'monoclinic'
loop_
_space_group_symop_operation_xyz
x,y,z
-x,y,-z
-x,-y,-z
x,-y,z
loop_
_atom_site_type_symbol
_atom_site_label
_atom_site_fract_x
_atom_site_fract_y
_atom_site_fract_z
Si Si1 0.598669 0.607693 0.132664
Si Si2 0.837002 0.887391 0.016848
Si Si3 0.092979 0.394135 0.142976
Si Si4 0.645888 0.780204 0.381899
Si Si5 0.138278 0.215361 0.365731
O O1 0.558004 0.500000 0.201647
O O2 0.751202 0.603501 0.989738
O O3 0.500000 0.639366 0.000000
O O4 0.605071 0.681699 0.296360
O O5 0.735423 0.839419 0.201758
O O6 0.820969 0.000000 0.026659
O O7 0.806278 0.845311 0.825832
O O8 0.000000 0.865539 0.000000
O O9 0.053097 0.500000 0.219674
O O10 0.087009 0.314427 0.298112
O O11 0.000000 0.368781 0.000000
O O12 0.500000 0.824808 0.500000
O O13 0.745896 0.767622 0.521824
O O14 0.000000 0.167689 0.500000
#
# Coordination Sequence:
#
# PCOD9150694 Si02
#       5
#     4   4   4   4   4
#     4  10  21  40  65  91 133 186 223 258 320 397
#     4  11  25  48  73  97 133 175 221 278 340 403
#     4  10  20  36  61  92 130 173 218 271 326 383
#     4  12  26  41  69 104 135 171 223 279 334 390
#     4  12  23  40  69  98 129 176 225 268 331 409
#
# _framework density 20.322949000000001
#
# number of rings (size 3 to 8) (size 9 to 14) (size 15 to 20)
#    0.000    1.000    4.000    3.000    0.000    3.200 
#    0.000    1.000    0.000    0.000    0.000    0.000 
#    0.000    0.000    0.000    0.000    0.000    0.000 
#
# Total GULP energy -111822.722842 kJ/mol
# GULP energy per Si atom -5591.136142 kJ/mol
# Density = 2.027669 g / cm^3
# Si number density = 20.322949 Si / 1000 Ang^3
#
#
#
# Elastic Constant Matrix: (Units=GPa)
#
#
# Indices 1 2 3 4 5 6 
#
# 1 143.2396 29.8800 72.1737 0.0000 22.6213 0.0000
# 2 29.8800 111.1040 66.0950 0.0000 8.2387 0.0000
# 3 72.1737 66.0950 142.5958 0.0000 9.1953 0.0000
# 4 0.0000 0.0000 0.0000 -7.0875 0.0000 0.2961
# 5 22.6213 8.2387 9.1953 0.0000 50.3240 0.0000
# 6 0.0000 0.0000 0.0000 0.2961 0.0000 21.9915
#
#
#
# Elastic Compliance Matrix: (Units=1/GPa)
#
#
# Indices 1 2 3 4 5 6 
#
# 1 0.010010 0.000626 -0.005120 0.000000 -0.003666 0.000000
# 2 0.000626 0.012516 -0.006039 0.000000 -0.001227 0.000000
# 3 -0.005120 -0.006039 0.012336 0.000000 0.001036 0.000000
# 4 0.000000 0.000000 0.000000 -0.141014 0.000000 0.001899
# 5 -0.003666 -0.001227 0.001036 0.000000 0.021531 0.000000
# 6 0.000000 0.000000 0.000000 0.001899 0.000000 0.045447
#
#
# Mechanical properties :
#
#
# Convention : Reuss Voigt Hill
#
# Bulk Modulus (GPa) = 72.48564 81.47076 76.97820
# Shear Modulus (GPa) = -370.07103 28.29832 -170.88635
#
# Velocity S-wave (km/s) = -13.50890 3.73558 -9.17976
# Velocity P-wave (km/s) = 14.40751 7.66689 8.62540
#
# Compressibility (1/GPa) = 0.01379584
#
# Stress axis : x y z
#
# Youngs Moduli (GPa) = 99.90503 79.89975 81.06083
#
# Poissons Ratio (x) = -0.04999 0.41502
# Poissons Ratio (y) = -0.06251 0.48951
# Poissons Ratio (z) = 0.51150 0.48249
#
# Static dielectric constant tensor:
#      x y z
#    x 1.704620 0.000000 -0.029140 
#    y 0.000000 1.739930 0.000000 
#    z -0.029140 0.000000 1.716360 
# 
# From -- ./inp_files/6711.got.cif
#   From: 2010.05.17/outbox.cif.g08.bks.cpg/sg10_4_cif.got.tgz:6711.got - 2010.06.03 11:33:40.
