data_PCOD9150037
_publ_section_title
;
Structure prediction by ZEFSAII (Michael W. Deem and Ramdas Pophale) SiO2 
 PCOD9150037
Probable space group: P 2/M
;
_chemical_formula_sum "Si O2"
_cell_formula_units_Z 28
_cell_length_a 21.342558
_cell_length_b 9.350407
_cell_length_c 15.725840
_cell_angle_alpha 90.000000
_cell_angle_beta 151.337048
_cell_angle_gamma 90.000000
_cell_volume 1505.292591
_symmetry_space_group_name_H-M "P 2/M"
_symmetry_group_IT_number 10
_symmetry_cell_setting 'monoclinic'
loop_
_space_group_symop_operation_xyz
x,y,z
-x,y,-z
-x,-y,-z
x,-y,z
loop_
_atom_site_type_symbol
_atom_site_label
_atom_site_fract_x
_atom_site_fract_y
_atom_site_fract_z
Si Si1 0.106526 0.162402 0.551232
Si Si2 0.363287 0.331251 0.085198
Si Si3 0.796515 0.172892 0.724362
Si Si4 0.044467 0.827750 0.919353
Si Si5 0.929515 0.333837 0.221351
Si Si6 0.595649 0.829878 0.035690
Si Si7 0.497077 0.172601 0.598004
O O1 0.253509 0.191661 0.756564
O O2 0.000000 0.165418 0.500000
O O3 0.051937 0.273155 0.418394
O O4 0.104903 0.000000 0.513925
O O5 0.393840 0.500000 0.125166
O O6 0.404970 0.254358 0.222751
O O7 0.206313 0.316312 0.889783
O O8 0.426402 0.255923 0.077968
O O9 0.647153 0.215384 0.541052
O O10 0.898160 0.216837 0.772952
O O11 0.797449 0.000000 0.725420
O O12 0.859739 0.214897 0.889734
O O13 0.084069 0.755568 0.880245
O O14 0.048708 0.000000 0.917498
O O15 0.945548 0.500000 0.221326
O O16 0.578403 0.000000 0.998668
O O17 0.500000 0.790785 0.000000
O O18 0.500000 0.204228 0.500000
O O19 0.515612 0.000000 0.627863
#
# Coordination Sequence:
#
# PCOD9150037 Si02
#       7
#     4   4   4   4   4   4   4
#     4  10  20  37  62  86 107 139 185 230 274 328
#     4  11  24  39  56  81 116 155 190 231 285 345
#     4   8  16  32  54  81 109 140 183 234 282 324
#     4   9  17  33  57  80 107 143 184 231 279 331
#     4  11  23  36  54  82 114 146 185 230 279 332
#     4  10  22  41  64  89 116 147 188 240 290 337
#     4  10  20  35  58  85 113 148 192 238 282 332
#
# _framework density 18.601036000000001
#
# number of rings (size 3 to 8) (size 9 to 14) (size 15 to 20)
#    0.000    2.143    1.429    2.571    0.000    5.429 
#    0.000    8.571    0.000    0.000    0.000    0.000 
#    0.000    0.000    0.000    0.000    0.000    0.000 
#
# Total GULP energy -156174.016055 kJ/mol
# GULP energy per Si atom -5577.643431 kJ/mol
# Density = 1.855870 g / cm^3
# Si number density = 18.601036 Si / 1000 Ang^3
#
#
#
# Elastic Constant Matrix: (Units=GPa)
#
#
# Indices 1 2 3 4 5 6 
#
# 1 92.8173 49.7335 23.6733 0.0000 -8.7346 0.0000
# 2 49.7335 64.1413 41.1922 0.0000 -11.8860 0.0000
# 3 23.6733 41.1922 69.8098 0.0000 5.2228 0.0000
# 4 0.0000 0.0000 0.0000 -36.2695 0.0000 52.6382
# 5 -8.7346 -11.8860 5.2228 0.0000 26.6164 0.0000
# 6 0.0000 0.0000 0.0000 52.6382 0.0000 -32.8574
#
#
#
# Elastic Compliance Matrix: (Units=1/GPa)
#
#
# Indices 1 2 3 4 5 6 
#
# 1 0.019134 -0.018203 0.004456 0.000000 -0.002724 0.000000
# 2 -0.018203 0.049273 -0.024460 0.000000 0.020830 0.000000
# 3 0.004456 -0.024460 0.028371 0.000000 -0.015028 0.000000
# 4 0.000000 0.000000 0.000000 0.020808 0.000000 0.033335
# 5 -0.002724 0.020830 -0.015028 0.000000 0.048928 0.000000
# 6 0.000000 0.000000 0.000000 0.033335 0.000000 0.022969
#
#
# Mechanical properties :
#
#
# Convention : Reuss Voigt Hill
#
# Bulk Modulus (GPa) = 49.10445 50.66294 49.88369
# Shear Modulus (GPa) = 18.33623 -1.02416 8.65603
#
# Velocity S-wave (km/s) = 3.14309 -0.74283 2.15954
# Velocity P-wave (km/s) = 6.29509 5.15364 5.75275
#
# Compressibility (1/GPa) = 0.02036475
#
# Stress axis : x y z
#
# Youngs Moduli (GPa) = 52.26179 20.29523 35.24768
#
# Poissons Ratio (x) = 0.36943 -0.15706
# Poissons Ratio (y) = 0.95130 0.86215
# Poissons Ratio (z) = -0.23287 0.49641
#
# Static dielectric constant tensor:
#      x y z
#    x 1.648530 0.000000 0.019780 
#    y 0.000000 1.620040 0.000000 
#    z 0.019780 0.000000 1.653120 
# 
# From -- ./inp_files/63482.got.cif
#   From: 2010.05.17/outbox.cif.g08.bks.cpg/sg10_32_cif.got.tgz:63482.got - 2010.06.03 11:33:40.
