data_PCOD9150200
_publ_section_title
;
Structure prediction by ZEFSAII (Michael W. Deem and Ramdas Pophale) SiO2 
 PCOD9150200
Probable space group: P 2/M
;
_chemical_formula_sum "Si O2"
_cell_formula_units_Z 20
_cell_length_a 12.190012
_cell_length_b 12.107190
_cell_length_c 7.579002
_cell_angle_alpha 90.000000
_cell_angle_beta 55.156426
_cell_angle_gamma 90.000000
_cell_volume 918.019383
_symmetry_space_group_name_H-M "P 2/M"
_symmetry_group_IT_number 10
_symmetry_cell_setting 'monoclinic'
loop_
_space_group_symop_operation_xyz
x,y,z
-x,y,-z
-x,-y,-z
x,-y,z
loop_
_atom_site_type_symbol
_atom_site_label
_atom_site_fract_x
_atom_site_fract_y
_atom_site_fract_z
Si Si1 0.716686 0.756838 0.607132
Si Si2 0.574006 0.766293 0.248623
Si Si3 0.379382 0.000000 0.879027
Si Si4 0.873440 0.629065 0.745416
Si Si5 0.200112 0.628680 0.820547
Si Si6 0.684730 0.000000 0.649205
O O1 0.554282 0.753687 0.759443
O O2 0.768046 0.707185 0.743304
O O3 0.777768 0.691324 0.384161
O O4 0.755273 0.884985 0.546096
O O5 0.500000 0.785123 0.500000
O O6 0.662445 0.877441 0.142695
O O7 0.663849 0.658847 0.196019
O O8 0.538867 0.000000 0.692655
O O9 0.349935 0.000000 0.112628
O O10 0.831369 0.500000 0.783345
O O11 0.000000 0.637148 0.500000
O O12 0.902689 0.657026 0.924689
O O13 0.185468 0.500000 0.793090
#
# Coordination Sequence:
#
# PCOD9150200 Si02
#       6
#     4   4   2   4   4   2
#     4  10  20  36  55  79 112 142 170 218 265 308
#     4   9  18  30  51  81 113 143 174 209 260 321
#     4   9  15  28  48  76 111 144 175 213 249 302
#     4  10  22  39  58  79 101 135 185 226 262 313
#     4  10  21  35  54  81 109 140 176 214 265 321
#     4   9  18  30  51  79 105 140 183 208 254 322
#
# _framework density 21.78603
#
# number of rings (size 3 to 8) (size 9 to 14) (size 15 to 20)
#    0.000    2.400    0.000    2.100    0.000   10.000 
#    0.000    6.500    0.000    1.200    0.000    0.000 
#    0.000    0.000    0.000    0.000    0.000    0.000 
#
# Total GULP energy -111437.009268 kJ/mol
# GULP energy per Si atom -5571.850463 kJ/mol
# Density = 2.173644 g / cm^3
# Si number density = 21.786030 Si / 1000 Ang^3
#
#
#
# Elastic Constant Matrix: (Units=GPa)
#
#
# Indices 1 2 3 4 5 6 
#
# 1 29.6656 12.2057 4.4948 0.0000 15.8626 0.0000
# 2 12.2057 78.4103 42.3515 0.0000 13.6901 0.0000
# 3 4.4948 42.3515 123.8611 0.0000 32.7449 0.0000
# 4 0.0000 0.0000 0.0000 23.2340 0.0000 23.5764
# 5 15.8626 13.6901 32.7449 0.0000 31.0796 0.0000
# 6 0.0000 0.0000 0.0000 23.5764 0.0000 -1.4064
#
#
#
# Elastic Compliance Matrix: (Units=1/GPa)
#
#
# Indices 1 2 3 4 5 6 
#
# 1 0.053717 -0.007626 0.009728 0.000000 -0.034306 0.000000
# 2 -0.007626 0.016793 -0.006291 0.000000 0.003123 0.000000
# 3 0.009728 -0.006291 0.014487 0.000000 -0.017457 0.000000
# 4 0.000000 0.000000 0.000000 0.002390 0.000000 0.040060
# 5 -0.034306 0.003123 -0.017457 0.000000 0.066701 0.000000
# 6 0.000000 0.000000 0.000000 0.040060 0.000000 -0.039479
#
#
# Mechanical properties :
#
#
# Convention : Reuss Voigt Hill
#
# Bulk Modulus (GPa) = 13.05188 38.89344 25.97266
# Shear Modulus (GPa) = 33.66394 22.10711 27.88552
#
# Velocity S-wave (km/s) = 3.93518 3.18895 3.58155
# Velocity P-wave (km/s) = 5.16250 5.60807 5.38989
#
# Compressibility (1/GPa) = 0.07661731
#
# Stress axis : x y z
#
# Youngs Moduli (GPa) = 18.61617 59.54789 69.02931
#
# Poissons Ratio (x) = 0.45413 -0.67150
# Poissons Ratio (y) = 0.14197 0.43426
# Poissons Ratio (z) = -0.18109 0.37462
#
# Static dielectric constant tensor:
#      x y z
#    x 1.897580 0.000000 -0.039910 
#    y 0.000000 1.813820 0.000000 
#    z -0.039910 0.000000 1.863280 
# 
# From -- ./inp_files/27719.got.cif
#   From: 2010.05.17/outbox.cif.g08.bks.cpg/sg10_14_cif.got.tgz:27719.got - 2010.06.03 11:33:40.
