data_PCOD9150044
_publ_section_title
;
Structure prediction by ZEFSAII (Michael W. Deem and Ramdas Pophale) SiO2 
 PCOD9150044
Probable space group: P 2/M
;
_chemical_formula_sum "Si O2"
_cell_formula_units_Z 24
_cell_length_a 15.128071
_cell_length_b 7.547080
_cell_length_c 15.231291
_cell_angle_alpha 90.000000
_cell_angle_beta 141.228803
_cell_angle_gamma 90.000000
_cell_volume 1088.981687
_symmetry_space_group_name_H-M "P 2/M"
_symmetry_group_IT_number 10
_symmetry_cell_setting 'monoclinic'
loop_
_space_group_symop_operation_xyz
x,y,z
-x,y,-z
-x,-y,-z
x,-y,z
loop_
_atom_site_type_symbol
_atom_site_label
_atom_site_fract_x
_atom_site_fract_y
_atom_site_fract_z
Si Si1 0.410587 0.785729 0.015101
Si Si2 0.450015 0.216938 0.365119
Si Si3 0.378081 0.213824 0.667595
Si Si4 0.858725 0.206510 0.935146
Si Si5 0.894318 0.298151 0.163902
Si Si6 0.940125 0.706391 0.545021
O O1 0.500854 0.737557 0.169966
O O2 0.395135 0.000000 0.000599
O O3 0.500000 0.731269 0.000000
O O4 0.256135 0.707246 0.904009
O O5 0.500000 0.271764 0.500000
O O6 0.566547 0.272231 0.384133
O O7 0.293253 0.278523 0.214545
O O8 0.447400 0.000000 0.361169
O O9 0.227793 0.284097 0.581320
O O10 0.366916 0.000000 0.659317
O O11 0.854805 0.000000 0.905902
O O12 0.874272 0.214228 0.052591
O O13 0.000000 0.284098 0.000000
O O14 0.938215 0.500000 0.179644
O O15 0.000642 0.215835 0.317670
O O16 0.985760 0.500000 0.581635
O O17 0.000000 0.783040 0.500000
#
# Coordination Sequence:
#
# PCOD9150044 Si02
#       6
#     4   4   4   4   4   4
#     4  10  20  36  59  86 115 146 187 240 289 341
#     4   9  18  34  56  85 115 141 180 233 285 339
#     4  10  20  35  58  86 114 144 185 240 287 332
#     4  10  21  38  62  87 113 150 192 237 291 346
#     4  11  23  38  58  84 118 156 192 238 289 342
#     4  10  23  41  57  79 116 158 197 235 279 339
#
# _framework density 22.038938000000002
#
# number of rings (size 3 to 8) (size 9 to 14) (size 15 to 20)
#    0.000    2.000    1.667    1.500    2.333    3.000 
#    0.000    0.000    0.000    1.000    0.000    0.000 
#    0.000    0.000    0.000    0.000    0.000    0.000 
#
# Total GULP energy -134063.522585 kJ/mol
# GULP energy per Si atom -5585.980108 kJ/mol
# Density = 2.198878 g / cm^3
# Si number density = 22.038938 Si / 1000 Ang^3
#
#
#
# Elastic Constant Matrix: (Units=GPa)
#
#
# Indices 1 2 3 4 5 6 
#
# 1 84.7430 7.9961 -20.9853 0.0000 0.2615 0.0000
# 2 7.9961 45.5195 13.2611 0.0000 -2.4470 0.0000
# 3 -20.9853 13.2611 49.3284 0.0000 1.4152 0.0000
# 4 0.0000 0.0000 0.0000 1.4899 0.0000 1.3067
# 5 0.2615 -2.4470 1.4152 0.0000 42.4310 0.0000
# 6 0.0000 0.0000 0.0000 1.3067 0.0000 8.5981
#
#
#
# Elastic Compliance Matrix: (Units=1/GPa)
#
#
# Indices 1 2 3 4 5 6 
#
# 1 0.014024 -0.004599 0.007219 0.000000 -0.000592 0.000000
# 2 -0.004599 0.025451 -0.008850 0.000000 0.001791 0.000000
# 3 0.007219 -0.008850 0.025763 0.000000 -0.001414 0.000000
# 4 0.000000 0.000000 0.000000 0.774384 0.000000 -0.117684
# 5 -0.000592 0.001791 -0.001414 0.000000 0.023722 0.000000
# 6 0.000000 0.000000 0.000000 -0.117684 0.000000 0.134189
#
#
# Mechanical properties :
#
#
# Convention : Reuss Voigt Hill
#
# Bulk Modulus (GPa) = 18.94656 20.01496 19.48076
# Shear Modulus (GPa) = 4.86578 22.45841 13.66210
#
# Velocity S-wave (km/s) = 1.48748 3.19569 2.49249
# Velocity P-wave (km/s) = 3.40083 4.76634 4.14027
#
# Compressibility (1/GPa) = 0.05278004
#
# Stress axis : x y z
#
# Youngs Moduli (GPa) = 71.30699 39.29145 38.81506
#
# Poissons Ratio (x) = 0.18068 -0.28022
# Poissons Ratio (y) = 0.32791 0.34350
# Poissons Ratio (z) = -0.51478 0.34772
#
# Static dielectric constant tensor:
#      x y z
#    x 1.748750 0.000000 -0.017680 
#    y 0.000000 1.960720 0.000000 
#    z -0.017680 0.000000 1.775030 
# 
# From -- ./inp_files/27072.got.cif
#   From: 2010.05.17/outbox.cif.g08.bks.cpg/sg10_14_cif.got.tgz:27072.got - 2010.06.03 11:33:40.
