data_PCOD9150305
_publ_section_title
;
Structure prediction by ZEFSAII (Michael W. Deem and Ramdas Pophale) SiO2 
 PCOD9150305
Probable space group: P 2/M
;
_chemical_formula_sum "Si O2"
_cell_formula_units_Z 32
_cell_length_a 27.509614
_cell_length_b 8.514322
_cell_length_c 21.438636
_cell_angle_alpha 90.000000
_cell_angle_beta 160.207846
_cell_angle_gamma 90.000000
_cell_volume 1700.318618
_symmetry_space_group_name_H-M "P 2/M"
_symmetry_group_IT_number 10
_symmetry_cell_setting 'monoclinic'
loop_
_space_group_symop_operation_xyz
x,y,z
-x,y,-z
-x,-y,-z
x,-y,z
loop_
_atom_site_type_symbol
_atom_site_label
_atom_site_fract_x
_atom_site_fract_y
_atom_site_fract_z
Si Si1 0.659782 0.310080 0.713954
Si Si2 0.944731 0.812282 0.001493
Si Si3 0.709559 0.689504 0.917261
Si Si4 0.482436 0.812137 0.741072
Si Si5 0.835132 0.312272 0.630652
Si Si6 0.731383 0.810690 0.292147
Si Si7 0.027844 0.310788 0.334800
Si Si8 0.461462 0.191115 0.051854
O O1 0.500000 0.265414 0.500000
O O2 0.670255 0.500000 0.723982
O O3 0.690019 0.260331 0.821842
O O4 0.782018 0.239259 0.817670
O O5 0.044332 0.734732 0.174223
O O6 0.956526 0.000000 0.020816
O O7 0.000000 0.764510 0.000000
O O8 0.710240 0.500000 0.917816
O O9 0.581025 0.746300 0.805443
O O10 0.863553 0.743443 0.129923
O O11 0.317346 0.761306 0.536274
O O12 0.536781 0.754973 0.874852
O O13 0.490143 0.000000 0.749512
O O14 0.821050 0.500000 0.612279
O O15 0.887770 0.258542 0.625801
O O16 0.882839 0.747345 0.498188
O O17 0.607685 0.761884 0.192494
O O18 0.736170 0.000000 0.298360
O O19 0.671308 0.759633 0.152158
O O20 0.027025 0.500000 0.333951
O O21 0.461525 0.000000 0.052376
#
# Coordination Sequence:
#
# PCOD9150305 Si02
#       8
#     4   4   4   4   4   4   4   4
#     4  10  22  42  65  87 114 157 202 233 278 347
#     4  11  25  42  61  91 124 150 187 242 293 336
#     4  10  22  41  58  81 117 155 195 237 281 344
#     4  11  22  37  58  88 119 150 192 241 292 342
#     4  11  22  39  62  86 115 154 195 237 286 341
#     4   9  16  31  56  81 110 149 191 235 287 338
#     4  10  20  36  57  83 114 147 192 241 284 334
#     4   8  16  31  52  81 115 149 186 234 285 343
#
# _framework density 18.820003
#
# number of rings (size 3 to 8) (size 9 to 14) (size 15 to 20)
#    0.000    2.000    2.500    1.875    1.750    2.750 
#    0.000    3.125    0.000    3.750    0.000    0.000 
#    0.000    0.000    0.000    0.000    0.000    0.000 
#
# Total GULP energy -178671.207832 kJ/mol
# GULP energy per Si atom -5583.475245 kJ/mol
# Density = 1.877717 g / cm^3
# Si number density = 18.820003 Si / 1000 Ang^3
#
#
#
# Elastic Constant Matrix: (Units=GPa)
#
#
# Indices 1 2 3 4 5 6 
#
# 1 74.1928 10.2387 30.1149 0.0000 15.6717 0.0000
# 2 10.2387 8.6738 11.2693 0.0000 2.4895 0.0000
# 3 30.1149 11.2693 122.5342 0.0000 8.2548 0.0000
# 4 0.0000 0.0000 0.0000 38.0532 0.0000 8.0487
# 5 15.6717 2.4895 8.2548 0.0000 32.6867 0.0000
# 6 0.0000 0.0000 0.0000 8.0487 0.0000 25.6908
#
#
#
# Elastic Compliance Matrix: (Units=1/GPa)
#
#
# Indices 1 2 3 4 5 6 
#
# 1 0.018186 -0.016234 -0.002515 0.000000 -0.006848 0.000000
# 2 -0.016234 0.147043 -0.009464 0.000000 -0.001025 0.000000
# 3 -0.002515 -0.009464 0.009685 0.000000 -0.000519 0.000000
# 4 0.000000 0.000000 0.000000 0.028144 0.000000 -0.008817
# 5 -0.006848 -0.001025 -0.000519 0.000000 0.034086 0.000000
# 6 0.000000 0.000000 0.000000 -0.008817 0.000000 0.041687
#
#
# Mechanical properties :
#
#
# Convention : Reuss Voigt Hill
#
# Bulk Modulus (GPa) = 8.43980 34.29406 21.36693
# Shear Modulus (GPa) = 13.34214 29.53800 21.44007
#
# Velocity S-wave (km/s) = 2.66547 3.96599 3.37889
# Velocity P-wave (km/s) = 3.73727 6.26369 5.15757
#
# Compressibility (1/GPa) = 0.11848621
#
# Stress axis : x y z
#
# Youngs Moduli (GPa) = 54.98715 6.80074 103.25729
#
# Poissons Ratio (x) = 0.11040 0.25971
# Poissons Ratio (y) = 0.89265 0.97728
# Poissons Ratio (z) = 0.13830 0.06437
#
# Static dielectric constant tensor:
#      x y z
#    x 1.638440 0.000000 -0.016510 
#    y 0.000000 1.643400 0.000000 
#    z -0.016510 0.000000 1.641820 
# 
# From -- ./inp_files/86865.got.cif
#   From: 2010.05.17/outbox.cif.g08.bks.cpg/sg10_44_cif.got.tgz:86865.got - 2010.06.03 11:33:40.
