data_PCOD9150791
_publ_section_title
;
Structure prediction by ZEFSAII (Michael W. Deem and Ramdas Pophale) SiO2 
 PCOD9150791
Probable space group: P 2/M
;
_chemical_formula_sum "Si O2"
_cell_formula_units_Z 28
_cell_length_a 12.245440
_cell_length_b 17.830057
_cell_length_c 19.788793
_cell_angle_alpha 90.000000
_cell_angle_beta 158.305261
_cell_angle_gamma 90.000000
_cell_volume 1597.167940
_symmetry_space_group_name_H-M "P 2/M"
_symmetry_group_IT_number 10
_symmetry_cell_setting 'monoclinic'
loop_
_space_group_symop_operation_xyz
x,y,z
-x,y,-z
-x,-y,-z
x,-y,z
loop_
_atom_site_type_symbol
_atom_site_label
_atom_site_fract_x
_atom_site_fract_y
_atom_site_fract_z
Si Si1 0.035336 0.000000 0.174678
Si Si2 0.307586 0.000000 0.483962
Si Si3 0.040952 0.146638 0.696828
Si Si4 0.861009 0.300153 0.529150
Si Si5 0.570360 0.585646 0.466051
Si Si6 0.324935 0.853877 0.006436
Si Si7 0.070693 0.415516 0.966965
Si Si8 0.524399 0.704360 0.193667
O O1 0.173427 0.000000 0.330191
O O2 0.338733 0.000000 0.307158
O O3 0.833564 0.074140 0.051420
O O4 0.170266 0.075801 0.433801
O O5 0.134211 0.160956 0.828555
O O6 0.883364 0.220257 0.578446
O O7 0.345038 0.129726 0.831580
O O8 0.760666 0.362935 0.525166
O O9 0.644911 0.294503 0.340050
O O10 0.190005 0.312183 0.688464
O O11 0.500000 0.617262 0.500000
O O12 0.691526 0.500000 0.542167
O O13 0.245338 0.579667 0.248488
O O14 0.371015 0.781510 0.080601
O O15 0.193994 0.500000 0.046217
O O16 0.292407 0.362634 0.055335
O O17 0.000000 0.383249 0.000000
#
# Coordination Sequence:
#
# PCOD9150791 Si02
#       8
#     2   2   4   4   4   4   4   4
#     4   9  17  31  50  79 106 134 179 224 267 315
#     4   9  17  31  50  77 108 134 175 226 266 315
#     4   9  18  33  53  76 104 142 180 218 269 322
#     4  10  21  37  55  82 112 144 183 226 271 321
#     4  10  22  39  57  80 111 145 181 224 275 327
#     4   9  18  33  54  76 104 141 180 220 266 322
#     4  10  20  37  57  79 108 145 184 219 267 327
#     4  10  21  36  56  82 112 143 184 227 268 320
#
# _framework density 17.531030000000001
#
# number of rings (size 3 to 8) (size 9 to 14) (size 15 to 20)
#    0.000    2.429    1.429    0.429    2.000    3.429 
#    2.571    2.143    0.000    6.857    0.000    0.000 
#    0.000    0.000    0.000    0.000    0.000    0.000 
#
# Total GULP energy -155950.137683 kJ/mol
# GULP energy per Si atom -5569.647774 kJ/mol
# Density = 1.749113 g / cm^3
# Si number density = 17.531030 Si / 1000 Ang^3
#
#
#
# Elastic Constant Matrix: (Units=GPa)
#
#
# Indices 1 2 3 4 5 6 
#
# 1 84.4723 61.0730 25.4241 0.0000 6.4649 0.0000
# 2 61.0730 130.4159 53.6653 0.0000 32.3091 0.0000
# 3 25.4241 53.6653 59.0708 0.0000 15.0715 0.0000
# 4 0.0000 0.0000 0.0000 755.4787 0.0000 619.9218
# 5 6.4649 32.3091 15.0715 0.0000 15.3142 0.0000
# 6 0.0000 0.0000 0.0000 619.9218 0.0000 552.7084
#
#
#
# Elastic Compliance Matrix: (Units=1/GPa)
#
#
# Indices 1 2 3 4 5 6 
#
# 1 0.022006 -0.016260 -0.001444 0.000000 0.026436 0.000000
# 2 -0.016260 0.031454 -0.008542 0.000000 -0.051089 0.000000
# 3 -0.001444 -0.008542 0.027450 0.000000 -0.008383 0.000000
# 4 0.000000 0.000000 0.000000 0.016620 0.000000 -0.018641
# 5 0.026436 -0.051089 -0.008383 0.000000 0.170175 0.000000
# 6 0.000000 0.000000 0.000000 -0.018641 0.000000 0.022717
#
#
# Mechanical properties :
#
#
# Convention : Reuss Voigt Hill
#
# Bulk Modulus (GPa) = 35.19085 61.58708 48.38897
# Shear Modulus (GPa) = 14.18896 273.62003 143.90449
#
# Velocity S-wave (km/s) = 2.84802 12.50665 9.06994
# Velocity P-wave (km/s) = 5.56165 15.61287 11.71951
#
# Compressibility (1/GPa) = 0.02841647
#
# Stress axis : x y z
#
# Youngs Moduli (GPa) = 45.44302 31.79211 36.42992
#
# Poissons Ratio (x) = 0.51695 0.05261
# Poissons Ratio (y) = 0.73891 0.31120
# Poissons Ratio (z) = 0.06562 0.27158
#
# Static dielectric constant tensor:
#      x y z
#    x 1.594410 0.000000 0.022440 
#    y 0.000000 1.589790 0.000000 
#    z 0.022440 0.000000 1.551420 
# 
# From -- ./inp_files/84235.got.cif
#   From: 2010.05.17/outbox.cif.g08.bks.cpg/sg10_43_cif.got.tgz:84235.got - 2010.06.03 11:33:40.
