data_PCOD9150461
_publ_section_title
;
Structure prediction by ZEFSAII (Michael W. Deem and Ramdas Pophale) SiO2 
 PCOD9150461
Probable space group: P 2/M
;
_chemical_formula_sum "Si O2"
_cell_formula_units_Z 28
_cell_length_a 9.204060
_cell_length_b 7.977888
_cell_length_c 29.717575
_cell_angle_alpha 90.000000
_cell_angle_beta 38.896028
_cell_angle_gamma 90.000000
_cell_volume 1370.179685
_symmetry_space_group_name_H-M "P 2/M"
_symmetry_group_IT_number 10
_symmetry_cell_setting 'monoclinic'
loop_
_space_group_symop_operation_xyz
x,y,z
-x,y,-z
-x,-y,-z
x,-y,z
loop_
_atom_site_type_symbol
_atom_site_label
_atom_site_fract_x
_atom_site_fract_y
_atom_site_fract_z
Si Si1 0.236420 0.294673 0.572502
Si Si2 0.956769 0.298032 0.284759
Si Si3 0.910038 0.701612 0.569854
Si Si4 0.194379 0.200347 0.855540
Si Si5 0.617913 0.799512 0.285700
Si Si6 0.523379 0.298159 0.858411
Si Si7 0.334209 0.297829 0.999894
O O1 0.500000 0.242738 0.500000
O O2 0.234767 0.500000 0.573144
O O3 0.143856 0.237858 0.643304
O O4 0.068334 0.237693 0.572936
O O5 0.968469 0.500000 0.284764
O O6 0.787449 0.254786 0.284783
O O7 0.216604 0.235045 0.213084
O O8 0.933197 0.500000 0.563500
O O9 0.642595 0.741754 0.642169
O O10 0.000000 0.765722 0.500000
O O11 0.290085 0.265358 0.784632
O O12 0.356311 0.257184 0.857371
O O13 0.931063 0.254112 0.927062
O O14 0.200272 0.000000 0.852722
O O15 0.617778 0.000000 0.284061
O O16 0.536090 0.500000 0.858588
O O17 0.420595 0.235250 0.930489
O O18 0.350797 0.500000 0.995229
O O19 0.500000 0.236047 0.000000
#
# Coordination Sequence:
#
# PCOD9150461 Si02
#       7
#     4   4   4   4   4   4   4
#     4   9  17  31  54  85 114 138 175 227 274 320
#     4  10  20  36  59  83 109 145 187 231 279 329
#     4  10  20  36  61  88 112 144 186 230 277 330
#     4  11  24  39  56  81 114 152 189 226 275 336
#     4  11  24  39  55  80 115 151 187 228 275 330
#     4  10  21  37  59  86 112 143 186 234 283 333
#     4  10  21  38  60  85 112 143 184 235 285 332
#
# _framework density 20.435276000000002
#
# number of rings (size 3 to 8) (size 9 to 14) (size 15 to 20)
#    0.000    1.857    0.000    3.857    0.000   10.286 
#    0.000    0.714    0.000    1.714    0.000    0.000 
#    0.000    0.000    0.000    0.000    0.000    0.000 
#
# Total GULP energy -156522.935793 kJ/mol
# GULP energy per Si atom -5590.104850 kJ/mol
# Density = 2.038876 g / cm^3
# Si number density = 20.435276 Si / 1000 Ang^3
#
#
#
# Elastic Constant Matrix: (Units=GPa)
#
#
# Indices 1 2 3 4 5 6 
#
# 1 247.8257 1.4767 146.4160 0.0000 7.5346 0.0000
# 2 1.4767 12.8810 7.7685 0.0000 5.6709 0.0000
# 3 146.4160 7.7685 254.7493 0.0000 3.8319 0.0000
# 4 0.0000 0.0000 0.0000 -9.8077 0.0000 50.3049
# 5 7.5346 5.6709 3.8319 0.0000 50.0380 0.0000
# 6 0.0000 0.0000 0.0000 50.3049 0.0000 -78.7736
#
#
#
# Elastic Compliance Matrix: (Units=1/GPa)
#
#
# Indices 1 2 3 4 5 6 
#
# 1 0.006171 0.001837 -0.003590 0.000000 -0.000863 0.000000
# 2 0.001837 0.083694 -0.003465 0.000000 -0.009496 0.000000
# 3 -0.003590 -0.003465 0.006087 0.000000 0.000467 0.000000
# 4 0.000000 0.000000 0.000000 0.044809 0.000000 0.028615
# 5 -0.000863 -0.009496 0.000467 0.000000 0.021155 0.000000
# 6 0.000000 0.000000 0.000000 0.028615 0.000000 0.005579
#
#
# Mechanical properties :
#
#
# Convention : Reuss Voigt Hill
#
# Bulk Modulus (GPa) = 11.69365 91.86425 51.77895
# Shear Modulus (GPa) = 24.22045 16.27765 20.24905
#
# Velocity S-wave (km/s) = 3.44645 2.82538 3.15125
# Velocity P-wave (km/s) = 4.64457 7.46291 6.21559
#
# Compressibility (1/GPa) = 0.08551653
#
# Stress axis : x y z
#
# Youngs Moduli (GPa) = 162.03881 11.94832 164.27310
#
# Poissons Ratio (x) = -0.02195 0.58974
# Poissons Ratio (y) = -0.29773 0.56927
# Poissons Ratio (z) = 0.58172 0.04141
#
# Static dielectric constant tensor:
#      x y z
#    x 1.679540 0.000000 0.019640 
#    y 0.000000 1.733250 0.000000 
#    z 0.019640 0.000000 1.708180 
# 
# From -- ./inp_files/36923.got.cif
#   From: 2010.05.17/outbox.cif.g08.bks.cpg/sg10_19_cif.got.tgz:36923.got - 2010.06.03 11:33:40.
