data_PCOD9150234
_publ_section_title
;
Structure prediction by ZEFSAII (Michael W. Deem and Ramdas Pophale) SiO2 
 PCOD9150234
Probable space group: P 2/M
;
_chemical_formula_sum "Si O2"
_cell_formula_units_Z 24
_cell_length_a 13.442624
_cell_length_b 7.746577
_cell_length_c 9.824515
_cell_angle_alpha 90.000000
_cell_angle_beta 101.903565
_cell_angle_gamma 90.000000
_cell_volume 1001.069284
_symmetry_space_group_name_H-M "P 2/M"
_symmetry_group_IT_number 10
_symmetry_cell_setting 'monoclinic'
loop_
_space_group_symop_operation_xyz
x,y,z
-x,y,-z
-x,-y,-z
x,-y,z
loop_
_atom_site_type_symbol
_atom_site_label
_atom_site_fract_x
_atom_site_fract_y
_atom_site_fract_z
Si Si1 0.493720 0.207738 0.656549
Si Si2 0.942976 0.792563 0.279649
Si Si3 0.712165 0.797967 0.716501
Si Si4 0.804063 0.703523 0.008075
Si Si5 0.602293 0.295495 0.101456
Si Si6 0.845474 0.788558 0.522537
O O1 0.500000 0.259878 0.500000
O O2 0.604836 0.270014 0.740295
O O3 0.410751 0.269583 0.740529
O O4 0.483513 0.000000 0.655294
O O5 0.904879 0.735672 0.122735
O O6 0.863266 0.731263 0.373381
O O7 0.053341 0.738635 0.364421
O O8 0.943372 0.000000 0.281318
O O9 0.750959 0.725056 0.584392
O O10 0.693720 0.000000 0.686856
O O11 0.796366 0.781777 0.856236
O O12 0.792647 0.500000 0.987049
O O13 0.707111 0.773826 0.067345
O O14 0.603246 0.500000 0.077279
O O15 0.500000 0.222764 0.000000
O O16 0.841994 0.000000 0.519199
#
# Coordination Sequence:
#
# PCOD9150234 Si02
#       6
#     4   4   4   4   4   4
#     4  10  22  36  55  86 114 137 175 228 276 316
#     4   9  18  36  61  84 106 140 181 222 271 324
#     4  10  20  36  56  80 111 144 178 221 271 323
#     4  11  23  37  54  80 111 144 185 225 265 316
#     4  10  21  39  57  74 107 151 185 217 260 320
#     4   8  17  35  59  84 109 139 179 222 268 327
#
# _framework density 23.974366
#
# number of rings (size 3 to 8) (size 9 to 14) (size 15 to 20)
#    0.000    2.333    1.667    1.500    2.333    2.667 
#    0.000    6.667    0.000    0.000    0.000    0.000 
#    0.000    0.000    0.000    0.000    0.000    0.000 
#
# Total GULP energy -134042.506351 kJ/mol
# GULP energy per Si atom -5585.104431 kJ/mol
# Density = 2.391980 g / cm^3
# Si number density = 23.974366 Si / 1000 Ang^3
#
#
#
# Elastic Constant Matrix: (Units=GPa)
#
#
# Indices 1 2 3 4 5 6 
#
# 1 19.1999 1.6474 -2.9373 0.0000 -9.7250 0.0000
# 2 1.6474 33.6006 -14.3587 0.0000 -3.1250 0.0000
# 3 -2.9373 -14.3587 75.9207 0.0000 -0.4274 0.0000
# 4 0.0000 0.0000 0.0000 38.5439 0.0000 15.2541
# 5 -9.7250 -3.1250 -0.4274 0.0000 43.4116 0.0000
# 6 0.0000 0.0000 0.0000 15.2541 0.0000 17.2392
#
#
#
# Elastic Compliance Matrix: (Units=1/GPa)
#
#
# Indices 1 2 3 4 5 6 
#
# 1 0.059187 -0.000719 0.002228 0.000000 0.013229 0.000000
# 2 -0.000719 0.032637 0.006157 0.000000 0.002249 0.000000
# 3 0.002228 0.006157 0.014428 0.000000 0.001084 0.000000
# 4 0.000000 0.000000 0.000000 0.039926 0.000000 -0.035328
# 5 0.013229 0.002249 0.001084 0.000000 0.026171 0.000000
# 6 0.000000 0.000000 0.000000 -0.035328 0.000000 0.089268
#
#
# Mechanical properties :
#
#
# Convention : Reuss Voigt Hill
#
# Bulk Modulus (GPa) = 8.22467 10.82489 9.52478
# Shear Modulus (GPa) = 17.43296 29.46359 23.44828
#
# Velocity S-wave (km/s) = 2.69950 3.50946 3.13078
# Velocity P-wave (km/s) = 3.62691 4.57676 4.12924
#
# Compressibility (1/GPa) = 0.12158538
#
# Stress axis : x y z
#
# Youngs Moduli (GPa) = 16.89566 30.63999 69.30735
#
# Poissons Ratio (x) = 0.02204 -0.15444
# Poissons Ratio (y) = 0.01215 -0.42675
# Poissons Ratio (z) = -0.03765 -0.18866
#
# Static dielectric constant tensor:
#      x y z
#    x 1.970120 0.000000 0.022230 
#    y 0.000000 1.881730 0.000000 
#    z 0.022230 0.000000 1.914970 
# 
# From -- ./inp_files/27065.got.cif
#   From: 2010.05.17/outbox.cif.g08.bks.cpg/sg10_14_cif.got.tgz:27065.got - 2010.06.03 11:33:40.
