data_PCOD9150925
_publ_section_title
;
Structure prediction by ZEFSAII (Michael W. Deem and Ramdas Pophale) SiO2 
 PCOD9150925
Probable space group: P 2/M
;
_chemical_formula_sum "Si O2"
_cell_formula_units_Z 20
_cell_length_a 11.852852
_cell_length_b 7.678226
_cell_length_c 12.709629
_cell_angle_alpha 90.000000
_cell_angle_beta 133.078173
_cell_angle_gamma 90.000000
_cell_volume 844.871733
_symmetry_space_group_name_H-M "P 2/M"
_symmetry_group_IT_number 10
_symmetry_cell_setting 'monoclinic'
loop_
_space_group_symop_operation_xyz
x,y,z
-x,y,-z
-x,-y,-z
x,-y,z
loop_
_atom_site_type_symbol
_atom_site_label
_atom_site_fract_x
_atom_site_fract_y
_atom_site_fract_z
Si Si1 0.177605 0.789479 0.312175
Si Si2 0.269377 0.802437 0.589968
Si Si3 0.328843 0.211887 0.857649
Si Si4 0.152113 0.210101 0.956945
Si Si5 0.410232 0.696132 0.287209
O O1 0.180351 0.723217 0.433785
O O2 0.331519 0.742081 0.347478
O O3 0.025257 0.731906 0.152702
O O4 0.171652 0.000000 0.312960
O O5 0.275106 0.721712 0.709515
O O6 0.446946 0.808361 0.662696
O O7 0.209523 0.000000 0.564303
O O8 0.214157 0.249255 0.879702
O O9 0.338927 0.000000 0.854811
O O10 0.500000 0.272554 0.000000
O O11 0.156666 0.000000 0.975574
O O12 0.270959 0.287490 0.115270
O O13 0.468895 0.500000 0.327482
#
# Coordination Sequence:
#
# PCOD9150925 Si02
#       5
#     4   4   4   4   4
#     4  10  22  37  57  85 114 146 184 228 279 332
#     4  10  20  37  60  85 113 145 183 228 278 331
#     4   9  16  31  59  87 110 140 179 226 277 329
#     4  10  20  37  60  85 113 145 183 228 278 331
#     4  12  24  37  56  81 112 152 193 230 271 324
#
# _framework density 23.672229999999999
#
# number of rings (size 3 to 8) (size 9 to 14) (size 15 to 20)
#    0.000    1.800    2.000    3.000    0.000    7.200 
#    0.000    6.000    0.000    0.000    0.000    4.200 
#    0.000    0.000    0.000    0.000    0.000    0.000 
#
# Total GULP energy -111828.896720 kJ/mol
# GULP energy per Si atom -5591.444836 kJ/mol
# Density = 2.361835 g / cm^3
# Si number density = 23.672230 Si / 1000 Ang^3
#
#
#
# Elastic Constant Matrix: (Units=GPa)
#
#
# Indices 1 2 3 4 5 6 
#
# 1 34.8392 -4.3402 -13.9214 0.0000 -5.9304 0.0000
# 2 -4.3402 56.9688 -2.3075 0.0000 -1.7350 0.0000
# 3 -13.9214 -2.3075 102.1849 0.0000 -15.4203 0.0000
# 4 0.0000 0.0000 0.0000 40.5614 0.0000 -28.5442
# 5 -5.9304 -1.7350 -15.4203 0.0000 50.2205 0.0000
# 6 0.0000 0.0000 0.0000 -28.5442 0.0000 6.4650
#
#
#
# Elastic Compliance Matrix: (Units=1/GPa)
#
#
# Indices 1 2 3 4 5 6 
#
# 1 0.032097 0.002826 0.005267 0.000000 0.005505 0.000000
# 2 0.002826 0.017846 0.000977 0.000000 0.001250 0.000000
# 3 0.005267 0.000977 0.011141 0.000000 0.004077 0.000000
# 4 0.000000 0.000000 0.000000 -0.011700 0.000000 -0.051660
# 5 0.005505 0.001250 0.004077 0.000000 0.021857 0.000000
# 6 0.000000 0.000000 0.000000 -0.051660 0.000000 -0.073408
#
#
# Mechanical properties :
#
#
# Convention : Reuss Voigt Hill
#
# Bulk Modulus (GPa) = 12.62215 16.98389 14.80302
# Shear Modulus (GPa) = 819.55237 33.75351 426.65294
#
# Velocity S-wave (km/s) = 18.62686 3.78017 13.43967
# Velocity P-wave (km/s) = 21.63231 5.12280 15.71941
#
# Compressibility (1/GPa) = 0.07922579
#
# Stress axis : x y z
#
# Youngs Moduli (GPa) = 31.15525 56.03364 89.75823
#
# Poissons Ratio (x) = -0.15837 -0.47280
# Poissons Ratio (y) = -0.08806 -0.08767
# Poissons Ratio (z) = -0.16411 -0.05473
#
# Static dielectric constant tensor:
#      x y z
#    x 1.848240 0.000000 -0.015000 
#    y 0.000000 1.914610 0.000000 
#    z -0.015000 0.000000 1.911350 
# 
# From -- ./inp_files/40745.got.cif
#   From: 2010.05.17/outbox.cif.g08.bks.cpg/sg10_21_cif.got.tgz:40745.got - 2010.06.03 11:33:40.
