data_PCOD9150318
_publ_section_title
;
Structure prediction by ZEFSAII (Michael W. Deem and Ramdas Pophale) SiO2 
 PCOD9150318
Probable space group: P 2/M
;
_chemical_formula_sum "Si O2"
_cell_formula_units_Z 28
_cell_length_a 9.273337
_cell_length_b 9.541480
_cell_length_c 27.412793
_cell_angle_alpha 90.000000
_cell_angle_beta 141.733228
_cell_angle_gamma 90.000000
_cell_volume 1502.183017
_symmetry_space_group_name_H-M "P 2/M"
_symmetry_group_IT_number 10
_symmetry_cell_setting 'monoclinic'
loop_
_space_group_symop_operation_xyz
x,y,z
-x,y,-z
-x,-y,-z
x,-y,z
loop_
_atom_site_type_symbol
_atom_site_label
_atom_site_fract_x
_atom_site_fract_y
_atom_site_fract_z
Si Si1 0.303465 0.832706 0.348066
Si Si2 0.724077 0.840042 0.025414
Si Si3 0.519400 0.667378 0.234137
Si Si4 0.172859 0.832196 0.206780
Si Si5 0.226418 0.334965 0.527015
Si Si6 0.069497 0.664026 0.373455
Si Si7 0.278910 0.339540 0.069490
O O1 0.151814 0.805701 0.258941
O O2 0.554504 0.763397 0.404512
O O3 0.193796 0.759871 0.366433
O O4 0.322936 0.000000 0.360028
O O5 0.946949 0.788331 0.115459
O O6 0.775845 0.000000 0.024320
O O7 0.500000 0.840036 0.000000
O O8 0.666647 0.751590 0.962777
O O9 0.484687 0.500000 0.231992
O O10 0.393644 0.751509 0.243525
O O11 0.395869 0.709354 0.150626
O O12 0.793849 0.692897 0.302997
O O13 0.202172 0.000000 0.208886
O O14 0.283242 0.500000 0.550649
O O15 0.167033 0.318126 0.453984
O O16 0.000000 0.303166 0.500000
O O17 0.102441 0.500000 0.368731
O O18 0.353842 0.500000 0.081779
O O19 0.000000 0.336969 0.000000
#
# Coordination Sequence:
#
# PCOD9150318 Si02
#       7
#     4   4   4   4   4   4   4
#     4  11  24  39  58  86 121 153 186 233 286 335
#     4  10  22  38  57  80 111 153 197 235 278 338
#     4  10  21  38  60  85 114 148 190 237 286 339
#     4  10  22  39  56  81 114 150 193 236 280 336
#     4  10  21  40  65  89 114 149 192 233 277 335
#     4  10  22  39  60  87 116 149 190 232 277 338
#     4  10  20  36  57  85 116 145 185 240 292 336
#
# _framework density 18.63954
#
# number of rings (size 3 to 8) (size 9 to 14) (size 15 to 20)
#    0.000    1.857    1.429    1.714    2.000    6.571 
#    0.000    0.000    0.000    0.000    0.000    0.000 
#    0.000    0.000    0.000    0.000    0.000    0.000 
#
# Total GULP energy -156357.456064 kJ/mol
# GULP energy per Si atom -5584.194859 kJ/mol
# Density = 1.859712 g / cm^3
# Si number density = 18.639540 Si / 1000 Ang^3
#
#
#
# Elastic Constant Matrix: (Units=GPa)
#
#
# Indices 1 2 3 4 5 6 
#
# 1 93.0065 47.2312 12.5211 0.0000 -14.6220 0.0000
# 2 47.2312 45.7814 22.2072 0.0000 -11.0964 0.0000
# 3 12.5211 22.2072 61.7793 0.0000 -6.6234 0.0000
# 4 0.0000 0.0000 0.0000 19.8750 0.0000 -7.1585
# 5 -14.6220 -11.0964 -6.6234 0.0000 28.5304 0.0000
# 6 0.0000 0.0000 0.0000 -7.1585 0.0000 32.8759
#
#
#
# Elastic Compliance Matrix: (Units=1/GPa)
#
#
# Indices 1 2 3 4 5 6 
#
# 1 0.023976 -0.026370 0.004961 0.000000 0.003183 0.000000
# 2 -0.026370 0.057519 -0.014749 0.000000 0.005432 0.000000
# 3 0.004961 -0.014749 0.020654 0.000000 0.001601 0.000000
# 4 0.000000 0.000000 0.000000 0.054596 0.000000 0.011888
# 5 0.003183 0.005432 0.001601 0.000000 0.039166 0.000000
# 6 0.000000 0.000000 0.000000 0.011888 0.000000 0.033006
#
#
# Mechanical properties :
#
#
# Convention : Reuss Voigt Hill
#
# Bulk Modulus (GPa) = 33.51942 40.49847 37.00895
# Shear Modulus (GPa) = 16.06798 24.16345 20.11572
#
# Velocity S-wave (km/s) = 2.93923 3.60440 3.28868
# Velocity P-wave (km/s) = 5.43514 6.25273 5.85822
#
# Compressibility (1/GPa) = 0.02983345
#
# Stress axis : x y z
#
# Youngs Moduli (GPa) = 41.70856 17.38562 48.41566
#
# Poissons Ratio (x) = 0.45846 -0.24019
# Poissons Ratio (y) = 1.09985 0.71408
# Poissons Ratio (z) = -0.20691 0.25642
#
# Static dielectric constant tensor:
#      x y z
#    x 1.629310 0.000000 -0.017380 
#    y 0.000000 1.630090 0.000000 
#    z -0.017380 0.000000 1.659490 
# 
# From -- ./inp_files/36696.got.cif
#   From: 2010.05.17/outbox.cif.g08.bks.cpg/sg10_19_cif.got.tgz:36696.got - 2010.06.03 11:33:40.
