data_PCOD9150557
_publ_section_title
;
Structure prediction by ZEFSAII (Michael W. Deem and Ramdas Pophale) SiO2 
 PCOD9150557
Probable space group: P 2/M
;
_chemical_formula_sum "Si O2"
_cell_formula_units_Z 24
_cell_length_a 23.599661
_cell_length_b 9.744007
_cell_length_c 7.624410
_cell_angle_alpha 90.000000
_cell_angle_beta 140.955644
_cell_angle_gamma 90.000000
_cell_volume 1104.425073
_symmetry_space_group_name_H-M "P 2/M"
_symmetry_group_IT_number 10
_symmetry_cell_setting 'monoclinic'
loop_
_space_group_symop_operation_xyz
x,y,z
-x,y,-z
-x,-y,-z
x,-y,z
loop_
_atom_site_type_symbol
_atom_site_label
_atom_site_fract_x
_atom_site_fract_y
_atom_site_fract_z
Si Si1 0.347489 0.348675 0.856065
Si Si2 0.901674 0.660984 0.844683
Si Si3 0.606646 0.847186 0.311452
Si Si4 0.546179 0.344569 0.442876
Si Si5 0.207576 0.659839 0.778883
Si Si6 0.103783 0.836289 0.815782
O O1 0.312688 0.500000 0.716940
O O2 0.333003 0.222364 0.693027
O O3 0.310875 0.323159 0.964194
O O4 0.454957 0.361457 0.109382
O O5 0.897232 0.500000 0.888526
O O6 0.838284 0.681004 0.522891
O O7 0.886068 0.758846 0.973323
O O8 0.000000 0.685936 0.000000
O O9 0.611780 0.747381 0.489383
O O10 0.636603 0.000000 0.423307
O O11 0.500000 0.856862 0.000000
O O12 0.500000 0.275982 0.500000
O O13 0.576855 0.500000 0.553145
O O14 0.192682 0.500000 0.794798
O O15 0.167366 0.761205 0.825540
O O16 0.000000 0.818578 0.500000
O O17 0.120883 0.000000 0.869293
#
# Coordination Sequence:
#
# PCOD9150557 Si02
#       6
#     4   4   4   4   4   4
#     4   9  18  34  54  76 102 134 173 219 268 313
#     4  10  20  36  60  84 106 142 190 233 272 322
#     4   9  17  30  50  73  98 133 171 206 251 311
#     4   9  17  31  52  76 102 134 173 216 260 312
#     4  10  21  38  59  82 110 145 187 235 279 322
#     4  11  23  37  57  84 114 148 183 225 277 334
#
# _framework density 21.730765999999999
#
# number of rings (size 3 to 8) (size 9 to 14) (size 15 to 20)
#    0.000    2.333    1.667    1.000    0.000    4.667 
#    3.000    0.000    0.000    0.000    0.000    0.000 
#    0.000    0.000    0.000    0.000    0.000    0.000 
#
# Total GULP energy -133829.620806 kJ/mol
# GULP energy per Si atom -5576.234200 kJ/mol
# Density = 2.168131 g / cm^3
# Si number density = 21.730766 Si / 1000 Ang^3
#
#
#
# Elastic Constant Matrix: (Units=GPa)
#
#
# Indices 1 2 3 4 5 6 
#
# 1 155.4474 118.2060 20.0881 0.0000 -19.9975 0.0000
# 2 118.2060 158.2123 17.6273 0.0000 -23.3179 0.0000
# 3 20.0881 17.6273 48.3510 0.0000 -2.9271 0.0000
# 4 0.0000 0.0000 0.0000 35.6755 0.0000 -28.0554
# 5 -19.9975 -23.3179 -2.9271 0.0000 32.5270 0.0000
# 6 0.0000 0.0000 0.0000 -28.0554 0.0000 57.2951
#
#
#
# Elastic Compliance Matrix: (Units=1/GPa)
#
#
# Indices 1 2 3 4 5 6 
#
# 1 0.015179 -0.010895 -0.002254 0.000000 0.001319 0.000000
# 2 -0.010895 0.015147 -0.000748 0.000000 0.004093 0.000000
# 3 -0.002254 -0.000748 0.021894 0.000000 0.000048 0.000000
# 4 0.000000 0.000000 0.000000 0.045583 0.000000 0.022321
# 5 0.001319 0.004093 0.000048 0.000000 0.034493 0.000000
# 6 0.000000 0.000000 0.000000 0.022321 0.000000 0.028383
#
#
# Mechanical properties :
#
#
# Convention : Reuss Voigt Hill
#
# Bulk Modulus (GPa) = 40.94069 74.87259 57.90664
# Shear Modulus (GPa) = 25.43011 38.83882 32.13446
#
# Velocity S-wave (km/s) = 3.42458 4.23220 3.84963
# Velocity P-wave (km/s) = 5.87519 7.64274 6.81650
#
# Compressibility (1/GPa) = 0.02442558
#
# Stress axis : x y z
#
# Youngs Moduli (GPa) = 65.88032 66.01765 45.67394
#
# Poissons Ratio (x) = 0.71928 0.10297
# Poissons Ratio (y) = 0.71778 0.03416
# Poissons Ratio (z) = 0.14852 0.04938
#
# Static dielectric constant tensor:
#      x y z
#    x 1.788290 0.000000 0.095210 
#    y 0.000000 1.767110 0.000000 
#    z 0.095210 0.000000 2.022930 
# 
# From -- ./inp_files/33966.got.cif
#   From: 2010.05.17/outbox.cif.g08.bks.cpg/sg10_17_cif.got.tgz:33966.got - 2010.06.03 11:33:40.
