data_PCOD9150532
_publ_section_title
;
Structure prediction by ZEFSAII (Michael W. Deem and Ramdas Pophale) SiO2 
 PCOD9150532
Probable space group: P 2/M
;
_chemical_formula_sum "Si O2"
_cell_formula_units_Z 28
_cell_length_a 12.384775
_cell_length_b 13.584431
_cell_length_c 9.947160
_cell_angle_alpha 90.000000
_cell_angle_beta 116.685163
_cell_angle_gamma 90.000000
_cell_volume 1495.261877
_symmetry_space_group_name_H-M "P 2/M"
_symmetry_group_IT_number 10
_symmetry_cell_setting 'monoclinic'
loop_
_space_group_symop_operation_xyz
x,y,z
-x,y,-z
-x,-y,-z
x,-y,z
loop_
_atom_site_type_symbol
_atom_site_label
_atom_site_fract_x
_atom_site_fract_y
_atom_site_fract_z
Si Si1 0.991808 0.615392 0.652749
Si Si2 0.769252 0.705848 0.689836
Si Si3 0.244402 0.698369 0.807574
Si Si4 0.650709 0.384902 0.877510
Si Si5 0.622234 0.615367 0.378872
Si Si6 0.092712 0.112136 0.672690
Si Si7 0.082431 0.886281 0.168231
O O1 0.968612 0.500000 0.644071
O O2 0.887109 0.667711 0.676287
O O3 0.000000 0.644394 0.500000
O O4 0.122314 0.642024 0.782894
O O5 0.742572 0.648226 0.812323
O O6 0.661012 0.681947 0.526407
O O7 0.801861 0.818273 0.741997
O O8 0.298527 0.647459 0.705327
O O9 0.198724 0.808215 0.747335
O O10 0.333520 0.682689 0.982267
O O11 0.667233 0.500000 0.923384
O O12 0.516841 0.374912 0.740760
O O13 0.645814 0.500000 0.424642
O O14 0.000000 0.134097 0.500000
O O15 0.007212 0.115515 0.755155
O O16 0.137613 0.000000 0.680200
O O17 0.115390 0.000000 0.159049
O O18 0.000000 0.847886 0.000000
#
# Coordination Sequence:
#
# PCOD9150532 Si02
#       7
#     4   4   4   4   4   4   4
#     4  11  21  33  54  87 122 153 180 228 302 359
#     4  12  22  37  62  85 117 150 192 244 288 338
#     4  12  21  37  60  85 119 151 191 242 290 346
#     4  11  25  40  57  84 116 157 204 239 276 335
#     4  11  23  41  61  80 113 163 205 232 274 344
#     4  10  20  36  59  88 117 148 190 236 287 350
#     4  10  21  38  58  84 118 153 186 226 290 361
#
# _framework density 18.725818
#
# number of rings (size 3 to 8) (size 9 to 14) (size 15 to 20)
#    0.000    1.000    2.857    5.571    0.000    2.286 
#    0.000    1.429    0.000    5.143    0.000    0.000 
#    0.000    0.000    0.000    0.000    0.000    0.000 
#
# Total GULP energy -156448.835650 kJ/mol
# GULP energy per Si atom -5587.458416 kJ/mol
# Density = 1.868320 g / cm^3
# Si number density = 18.725818 Si / 1000 Ang^3
#
#
#
# Elastic Constant Matrix: (Units=GPa)
#
#
# Indices 1 2 3 4 5 6 
#
# 1 51.3083 23.2893 8.4338 0.0000 3.4703 0.0000
# 2 23.2893 121.7157 48.2386 0.0000 15.9551 0.0000
# 3 8.4338 48.2386 113.2149 0.0000 -0.6862 0.0000
# 4 0.0000 0.0000 0.0000 31.6953 0.0000 5.0773
# 5 3.4703 15.9551 -0.6862 0.0000 26.6864 0.0000
# 6 0.0000 0.0000 0.0000 5.0773 0.0000 19.0186
#
#
#
# Elastic Compliance Matrix: (Units=1/GPa)
#
#
# Indices 1 2 3 4 5 6 
#
# 1 0.021349 -0.004106 0.000157 0.000000 -0.000318 0.000000
# 2 -0.004106 0.011746 -0.004739 0.000000 -0.006611 0.000000
# 3 0.000157 -0.004739 0.010859 0.000000 0.003092 0.000000
# 4 0.000000 0.000000 0.000000 0.032960 0.000000 -0.008799
# 5 -0.000318 -0.006611 0.003092 0.000000 0.041545 0.000000
# 6 0.000000 0.000000 0.000000 -0.008799 0.000000 0.054929
#
#
# Mechanical properties :
#
#
# Convention : Reuss Voigt Hill
#
# Bulk Modulus (GPa) = 37.62342 49.57360 43.59851
# Shear Modulus (GPa) = 25.04711 29.23188 27.13950
#
# Velocity S-wave (km/s) = 3.66125 3.95530 3.81111
# Velocity P-wave (km/s) = 6.16509 6.88404 6.53446
#
# Compressibility (1/GPa) = 0.02657919
#
# Stress axis : x y z
#
# Youngs Moduli (GPa) = 46.84005 85.13403 92.08935
#
# Poissons Ratio (x) = 0.34953 -0.01446
# Poissons Ratio (y) = 0.19231 0.43642
# Poissons Ratio (z) = -0.00735 0.40345
#
# Static dielectric constant tensor:
#      x y z
#    x 1.624620 0.000000 0.017380 
#    y 0.000000 1.668480 0.000000 
#    z 0.017380 0.000000 1.678830 
# 
# From -- ./inp_files/25386.got.cif
#   From: 2010.05.17/outbox.cif.g08.bks.cpg/sg10_13_cif.got.tgz:25386.got - 2010.06.03 11:33:40.
