data_PCOD9150367
_publ_section_title
;
Structure prediction by ZEFSAII (Michael W. Deem and Ramdas Pophale) SiO2 
 PCOD9150367
Probable space group: P 2/M
;
_chemical_formula_sum "Si O2"
_cell_formula_units_Z 28
_cell_length_a 29.023304
_cell_length_b 7.924670
_cell_length_c 8.143174
_cell_angle_alpha 90.000000
_cell_angle_beta 134.720285
_cell_angle_gamma 90.000000
_cell_volume 1330.811790
_symmetry_space_group_name_H-M "P 2/M"
_symmetry_group_IT_number 10
_symmetry_cell_setting 'monoclinic'
loop_
_space_group_symop_operation_xyz
x,y,z
-x,y,-z
-x,-y,-z
x,-y,z
loop_
_atom_site_type_symbol
_atom_site_label
_atom_site_fract_x
_atom_site_fract_y
_atom_site_fract_z
Si Si1 0.838879 0.296298 0.789252
Si Si2 0.299883 0.192016 0.602341
Si Si3 0.925261 0.293611 0.314655
Si Si4 0.563701 0.194196 0.558218
Si Si5 0.304773 0.309454 0.968791
Si Si6 0.430466 0.690579 0.778366
Si Si7 0.838864 0.706361 0.406923
O O1 0.840623 0.500000 0.790966
O O2 0.766256 0.239197 0.655398
O O3 0.850538 0.240501 0.627272
O O4 0.888218 0.239287 0.055061
O O5 0.302995 0.311154 0.767501
O O6 0.366469 0.213368 0.673166
O O7 0.294171 0.000000 0.646015
O O8 0.923995 0.500000 0.311347
O O9 0.889558 0.240816 0.394085
O O10 0.000000 0.240336 0.500000
O O11 0.500000 0.242047 0.500000
O O12 0.569610 0.310351 0.416398
O O13 0.554570 0.000000 0.482798
O O14 0.631322 0.208893 0.822914
O O15 0.310493 0.500000 0.048262
O O16 0.233427 0.240361 0.831900
O O17 0.427923 0.500000 0.840472
O O18 0.500000 0.767158 0.000000
O O19 0.838020 0.500000 0.408308
#
# Coordination Sequence:
#
# PCOD9150367 Si02
#       7
#     4   4   4   4   4   4   4
#     4   9  18  33  54  79 112 150 190 237 289 351
#     4  11  22  37  58  83 112 145 186 240 296 350
#     4   9  17  29  50  82 116 148 187 240 296 347
#     4  11  24  39  56  82 116 151 188 235 289 342
#     4  10  20  36  58  82 110 147 191 238 287 345
#     4  11  24  40  59  82 110 148 193 238 287 347
#     4   8  16  30  48  77 111 145 187 235 286 339
#
# _framework density 21.039788999999999
#
# number of rings (size 3 to 8) (size 9 to 14) (size 15 to 20)
#    0.000    2.143    0.000    4.286    2.000    5.143 
#    0.000    2.857    0.000    0.429    0.000    4.000 
#    0.000    0.000    0.000    0.000    0.000    0.000 
#
# Total GULP energy -156209.053633 kJ/mol
# GULP energy per Si atom -5578.894773 kJ/mol
# Density = 2.099190 g / cm^3
# Si number density = 21.039789 Si / 1000 Ang^3
#
#
#
# Elastic Constant Matrix: (Units=GPa)
#
#
# Indices 1 2 3 4 5 6 
#
# 1 146.5562 11.2544 79.6327 0.0000 34.2483 0.0000
# 2 11.2544 33.5297 7.6110 0.0000 3.6206 0.0000
# 3 79.6327 7.6110 175.6804 0.0000 24.2369 0.0000
# 4 0.0000 0.0000 0.0000 1.0327 0.0000 -3.5638
# 5 34.2483 3.6206 24.2369 0.0000 28.4735 0.0000
# 6 0.0000 0.0000 0.0000 -3.5638 0.0000 -7.1714
#
#
#
# Elastic Compliance Matrix: (Units=1/GPa)
#
#
# Indices 1 2 3 4 5 6 
#
# 1 0.011359 -0.001871 -0.003644 0.000000 -0.010324 0.000000
# 2 -0.001871 0.030669 -0.000287 0.000000 -0.001405 0.000000
# 3 -0.003644 -0.000287 0.007644 0.000000 -0.002088 0.000000
# 4 0.000000 0.000000 0.000000 0.356666 0.000000 -0.177243
# 5 -0.010324 -0.001405 -0.002088 0.000000 0.049494 0.000000
# 6 0.000000 0.000000 0.000000 -0.177243 0.000000 -0.051363
#
#
# Mechanical properties :
#
#
# Convention : Reuss Voigt Hill
#
# Bulk Modulus (GPa) = 26.26738 61.41805 43.84272
# Shear Modulus (GPa) = 11.66147 21.61819 16.63983
#
# Velocity S-wave (km/s) = 2.35682 3.20893 2.81530
# Velocity P-wave (km/s) = 4.46295 6.55625 5.60813
#
# Compressibility (1/GPa) = 0.03807003
#
# Stress axis : x y z
#
# Youngs Moduli (GPa) = 88.03331 32.60605 130.81809
#
# Poissons Ratio (x) = 0.06100 0.47666
# Poissons Ratio (y) = 0.16471 0.03751
# Poissons Ratio (z) = 0.32076 0.00935
#
# Static dielectric constant tensor:
#      x y z
#    x 1.899690 0.000000 0.038900 
#    y 0.000000 1.720030 0.000000 
#    z 0.038900 0.000000 1.879600 
# 
# From -- ./inp_files/37278.got.cif
#   From: 2010.05.17/outbox.cif.g08.bks.cpg/sg10_19_cif.got.tgz:37278.got - 2010.06.03 11:33:40.
