data_PCOD9150722
_publ_section_title
;
Structure prediction by ZEFSAII (Michael W. Deem and Ramdas Pophale) SiO2 
 PCOD9150722
Probable space group: P 2/M
;
_chemical_formula_sum "Si O2"
_cell_formula_units_Z 26
_cell_length_a 21.538320
_cell_length_b 7.483663
_cell_length_c 11.001556
_cell_angle_alpha 90.000000
_cell_angle_beta 34.117962
_cell_angle_gamma 90.000000
_cell_volume 994.636716
_symmetry_space_group_name_H-M "P 2/M"
_symmetry_group_IT_number 10
_symmetry_cell_setting 'monoclinic'
loop_
_space_group_symop_operation_xyz
x,y,z
-x,y,-z
-x,-y,-z
x,-y,z
loop_
_atom_site_type_symbol
_atom_site_label
_atom_site_fract_x
_atom_site_fract_y
_atom_site_fract_z
Si Si1 0.004651 0.000000 0.747080
Si Si2 0.521235 0.702218 0.289166
Si Si3 0.881711 0.297140 0.053147
Si Si4 0.683634 0.795466 0.523479
Si Si5 0.261819 0.716310 0.944413
Si Si6 0.126346 0.289170 0.407323
Si Si7 0.647409 0.787842 0.842691
O O1 0.030686 0.157988 0.602889
O O2 0.979320 0.157747 0.889581
O O3 0.494243 0.500000 0.368954
O O4 0.406029 0.789360 0.439143
O O5 0.612383 0.779722 0.234379
O O6 0.588369 0.699234 0.052589
O O7 0.917573 0.500000 0.971800
O O8 0.796519 0.297475 0.302780
O O9 0.802100 0.225214 0.071750
O O10 0.625163 0.727186 0.741425
O O11 0.712426 0.000000 0.502867
O O12 0.269349 0.500000 0.926749
O O13 0.186810 0.759127 0.182783
O O14 0.098177 0.500000 0.449726
O O15 0.222703 0.248263 0.349216
O O16 0.622505 0.000000 0.893828
#
# Coordination Sequence:
#
# PCOD9150722 Si02
#       7
#     2   4   4   4   4   4   4
#     4  12  24  43  63  95 118 155 210 254 307 364
#     4  10  20  36  62  93 124 161 202 245 298 360
#     4  11  24  43  62  85 125 167 202 249 302 357
#     4  11  23  40  58  88 127 163 207 248 292 356
#     4   8  19  39  61  91 127 157 197 250 299 357
#     4  10  21  40  66  94 122 154 197 254 313 362
#     4  10  20  38  62  91 126 156 197 256 302 352
#
# _framework density 26.140197000000001
#
# number of rings (size 3 to 8) (size 9 to 14) (size 15 to 20)
#    0.000    1.846    1.538    3.231    0.000    6.769 
#    2.769    6.923    0.000    1.846    0.000    0.000 
#    0.000    0.000    0.000    0.000    0.000    0.000 
#
# Total GULP energy -144994.476247 kJ/mol
# GULP energy per Si atom -5576.710625 kJ/mol
# Density = 2.608070 g / cm^3
# Si number density = 26.140197 Si / 1000 Ang^3
#
#
#
# Elastic Constant Matrix: (Units=GPa)
#
#
# Indices 1 2 3 4 5 6 
#
# 1 89.2511 -14.5797 -3.4212 0.0000 4.4715 0.0000
# 2 -14.5797 140.8364 22.1957 0.0000 3.0658 0.0000
# 3 -3.4212 22.1957 104.3024 0.0000 9.5983 0.0000
# 4 0.0000 0.0000 0.0000 -4.9563 0.0000 -33.7632
# 5 4.4715 3.0658 9.5983 0.0000 37.7972 0.0000
# 6 0.0000 0.0000 0.0000 -33.7632 0.0000 -9.8440
#
#
#
# Elastic Compliance Matrix: (Units=1/GPa)
#
#
# Indices 1 2 3 4 5 6 
#
# 1 0.011484 0.001180 0.000266 0.000000 -0.001522 0.000000
# 2 0.001180 0.007470 -0.001518 0.000000 -0.000360 0.000000
# 3 0.000266 -0.001518 0.010148 0.000000 -0.002485 0.000000
# 4 0.000000 0.000000 0.000000 0.009022 0.000000 -0.030942
# 5 -0.001522 -0.000360 -0.002485 0.000000 0.027297 0.000000
# 6 0.000000 0.000000 0.000000 -0.030942 0.000000 0.004542
#
#
# Mechanical properties :
#
#
# Convention : Reuss Voigt Hill
#
# Bulk Modulus (GPa) = 34.53403 38.08661 36.31032
# Shear Modulus (GPa) = 62.68917 26.61238 44.65078
#
# Velocity S-wave (km/s) = 4.90245 3.19417 4.13743
# Velocity P-wave (km/s) = 6.72942 5.31088 6.06178
#
# Compressibility (1/GPa) = 0.02895694
#
# Stress axis : x y z
#
# Youngs Moduli (GPa) = 87.08117 133.87545 98.54262
#
# Poissons Ratio (x) = -0.15798 -0.02617
# Poissons Ratio (y) = -0.10276 0.14956
# Poissons Ratio (z) = -0.02313 0.20318
#
# Static dielectric constant tensor:
#      x y z
#    x 2.174650 0.000000 -0.043490 
#    y 0.000000 1.981390 0.000000 
#    z -0.043490 0.000000 2.085910 
# 
# From -- ./inp_files/57450.got.cif
#   From: 2010.05.17/outbox.cif.g08.bks.cpg/sg10_29_cif.got.tgz:57450.got - 2010.06.03 11:33:40.
