data_PCOD9150852
_publ_section_title
;
Structure prediction by ZEFSAII (Michael W. Deem and Ramdas Pophale) SiO2 
 PCOD9150852
Probable space group: P 2/M
;
_chemical_formula_sum "Si O2"
_cell_formula_units_Z 28
_cell_length_a 19.235374
_cell_length_b 8.014588
_cell_length_c 16.019537
_cell_angle_alpha 90.000000
_cell_angle_beta 143.317770
_cell_angle_gamma 90.000000
_cell_volume 1475.298481
_symmetry_space_group_name_H-M "P 2/M"
_symmetry_group_IT_number 10
_symmetry_cell_setting 'monoclinic'
loop_
_space_group_symop_operation_xyz
x,y,z
-x,y,-z
-x,-y,-z
x,-y,z
loop_
_atom_site_type_symbol
_atom_site_label
_atom_site_fract_x
_atom_site_fract_y
_atom_site_fract_z
Si Si1 0.376383 0.301707 0.415644
Si Si2 0.903078 0.307342 0.658467
Si Si3 0.114974 0.701097 0.159711
Si Si4 0.653255 0.192459 0.425307
Si Si5 0.160114 0.000000 0.662122
Si Si6 0.491611 0.310600 0.132708
Si Si7 0.684845 0.688712 0.173486
Si Si8 0.994459 0.000000 0.341481
O O1 0.500000 0.233568 0.500000
O O2 0.375579 0.500000 0.396955
O O3 0.246586 0.237263 0.263356
O O4 0.377743 0.273163 0.516219
O O5 0.938828 0.500000 0.678768
O O6 0.902147 0.273344 0.757417
O O7 0.767975 0.284949 0.501305
O O8 0.977372 0.166009 0.683784
O O9 0.118220 0.500000 0.150348
O O10 0.000000 0.764177 0.000000
O O11 0.546099 0.205026 0.258975
O O12 0.686115 0.000000 0.469591
O O13 0.227686 0.828789 0.715331
O O14 0.071514 0.000000 0.499796
O O15 0.127710 0.000000 0.729253
O O16 0.477303 0.500000 0.150057
O O17 0.586301 0.314354 0.149729
O O18 0.374901 0.261658 0.971975
O O19 0.731129 0.500000 0.210512
#
# Coordination Sequence:
#
# PCOD9150852 Si02
#       8
#     4   4   4   4   2   4   4   2
#     4   9  18  33  52  76 111 150 183 226 283 337
#     4  10  20  37  59  81 112 143 181 238 281 322
#     4   8  15  31  58  85 106 141 189 229 276 334
#     4  11  20  30  53  84 111 142 182 224 274 333
#     4  11  24  37  56  74 110 146 183 236 278 338
#     4   9  18  33  54  81 108 137 183 225 266 331
#     4   9  20  36  55  80 108 142 180 225 276 329
#     4  11  24  40  53  82 105 141 194 231 281 335
#
# _framework density 18.979210999999999
#
# number of rings (size 3 to 8) (size 9 to 14) (size 15 to 20)
#    0.000    2.429    0.714    3.857    2.000    3.143 
#    0.000    3.214    0.000    3.429    0.000    0.000 
#    0.000    0.000    0.000    0.000    0.000    0.000 
#
# Total GULP energy -155894.546150 kJ/mol
# GULP energy per Si atom -5567.662362 kJ/mol
# Density = 1.893601 g / cm^3
# Si number density = 18.979211 Si / 1000 Ang^3
#
#
#
# Elastic Constant Matrix: (Units=GPa)
#
#
# Indices 1 2 3 4 5 6 
#
# 1 58.4123 22.7213 13.7862 0.0000 7.7943 0.0000
# 2 22.7213 45.8878 10.4066 0.0000 6.5440 0.0000
# 3 13.7862 10.4066 81.9888 0.0000 -1.1532 0.0000
# 4 0.0000 0.0000 0.0000 123.7040 0.0000 -8.8738
# 5 7.7943 6.5440 -1.1532 0.0000 13.8965 0.0000
# 6 0.0000 0.0000 0.0000 -8.8738 0.0000 17.9808
#
#
#
# Elastic Compliance Matrix: (Units=1/GPa)
#
#
# Indices 1 2 3 4 5 6 
#
# 1 0.022519 -0.009326 -0.002722 0.000000 -0.008465 0.000000
# 2 -0.009326 0.028051 -0.002107 0.000000 -0.008153 0.000000
# 3 -0.002722 -0.002107 0.012972 0.000000 0.003595 0.000000
# 4 0.000000 0.000000 0.000000 0.008380 0.000000 0.004136
# 5 -0.008465 -0.008153 0.003595 0.000000 0.080846 0.000000
# 6 0.000000 0.000000 0.000000 0.004136 0.000000 0.057656
#
#
# Mechanical properties :
#
#
# Convention : Reuss Voigt Hill
#
# Bulk Modulus (GPa) = 28.38268 31.12411 29.75340
# Shear Modulus (GPa) = 19.96176 40.40789 30.18483
#
# Velocity S-wave (km/s) = 3.24662 4.61918 3.99233
# Velocity P-wave (km/s) = 5.38898 6.69953 6.07967
#
# Compressibility (1/GPa) = 0.03523275
#
# Stress axis : x y z
#
# Youngs Moduli (GPa) = 44.40655 35.64987 77.08640
#
# Poissons Ratio (x) = 0.33247 0.20982
# Poissons Ratio (y) = 0.41413 0.16241
# Poissons Ratio (z) = 0.12087 0.07511
#
# Static dielectric constant tensor:
#      x y z
#    x 1.720290 0.000000 0.063940 
#    y 0.000000 1.658350 0.000000 
#    z 0.063940 0.000000 1.716360 
# 
# From -- ./inp_files/68752.got.cif
#   From: 2010.05.17/outbox.cif.g08.bks.cpg/sg10_35_cif.got.tgz:68752.got - 2010.06.03 11:33:40.
