data_PCOD9150804
_publ_section_title
;
Structure prediction by ZEFSAII (Michael W. Deem and Ramdas Pophale) SiO2 
 PCOD9150804
Probable space group: P 2/M
;
_chemical_formula_sum "Si O2"
_cell_formula_units_Z 28
_cell_length_a 10.087380
_cell_length_b 8.000558
_cell_length_c 28.742235
_cell_angle_alpha 90.000000
_cell_angle_beta 38.601553
_cell_angle_gamma 90.000000
_cell_volume 1447.220559
_symmetry_space_group_name_H-M "P 2/M"
_symmetry_group_IT_number 10
_symmetry_cell_setting 'monoclinic'
loop_
_space_group_symop_operation_xyz
x,y,z
-x,y,-z
-x,-y,-z
x,-y,z
loop_
_atom_site_type_symbol
_atom_site_label
_atom_site_fract_x
_atom_site_fract_y
_atom_site_fract_z
Si Si1 0.465372 0.309696 0.915008
Si Si2 0.126795 0.500000 0.393399
Si Si3 0.135326 0.195287 0.072587
Si Si4 0.914950 0.798671 0.808855
Si Si5 0.606532 0.804240 0.341381
Si Si6 0.674776 0.500000 0.556477
Si Si7 0.398161 0.810595 0.295937
Si Si8 0.252768 0.197483 0.880332
O O1 0.457904 0.500000 0.931728
O O2 0.707285 0.259481 0.838618
O O3 0.326453 0.281944 0.907270
O O4 0.362515 0.208486 0.985806
O O5 0.221569 0.500000 0.420071
O O6 0.222293 0.666609 0.344107
O O7 0.873332 0.500000 0.467173
O O8 0.114739 0.265933 0.129980
O O9 0.960637 0.266446 0.084868
O O10 0.078915 0.000000 0.092633
O O11 0.145982 0.753088 0.726286
O O12 0.910918 0.000000 0.810833
O O13 0.466089 0.668281 0.407062
O O14 0.528067 0.798128 0.308968
O O15 0.584438 0.000000 0.361963
O O16 0.563519 0.788377 0.208729
O O17 0.310958 0.000000 0.317588
O O18 0.223458 0.000000 0.899294
#
# Coordination Sequence:
#
# PCOD9150804 Si02
#       8
#     4   2   4   4   4   2   4   4
#     4  12  26  36  46  78 114 141 180 229 280 324
#     4   9  18  30  48  81 116 146 173 210 271 327
#     4  10  20  38  60  76  98 139 187 232 279 326
#     4  10  20  37  58  77 101 142 188 228 274 324
#     4   9  17  32  54  80 106 141 185 223 266 325
#     4   9  18  30  48  81 116 146 173 210 271 327
#     4   9  17  32  54  80 106 141 185 223 266 325
#     4  10  20  37  58  77 101 142 188 228 274 324
#
# _framework density 19.347431
#
# number of rings (size 3 to 8) (size 9 to 14) (size 15 to 20)
#    0.000    2.143    1.429    2.143    2.000    5.143 
#    0.000    2.857    0.000    0.000    0.000    2.000 
#    0.000    4.571    0.000    0.000    0.000    0.000 
#
# Total GULP energy -156263.527897 kJ/mol
# GULP energy per Si atom -5580.840282 kJ/mol
# Density = 1.930340 g / cm^3
# Si number density = 19.347431 Si / 1000 Ang^3
#
#
#
# Elastic Constant Matrix: (Units=GPa)
#
#
# Indices 1 2 3 4 5 6 
#
# 1 31.7808 3.7194 1.8471 0.0000 -7.9250 0.0000
# 2 3.7194 56.6701 28.6156 0.0000 -0.7735 0.0000
# 3 1.8471 28.6156 63.6355 0.0000 -8.6304 0.0000
# 4 0.0000 0.0000 0.0000 37.6771 0.0000 1.5425
# 5 -7.9250 -0.7735 -8.6304 0.0000 8.1873 0.0000
# 6 0.0000 0.0000 0.0000 1.5425 0.0000 2.7332
#
#
#
# Elastic Compliance Matrix: (Units=1/GPa)
#
#
# Indices 1 2 3 4 5 6 
#
# 1 0.044640 -0.006616 0.008698 0.000000 0.051754 0.000000
# 2 -0.006616 0.024551 -0.013304 0.000000 -0.018108 0.000000
# 3 0.008698 -0.013304 0.026155 0.000000 0.034734 0.000000
# 4 0.000000 0.000000 0.000000 0.027169 0.000000 -0.015333
# 5 0.051754 -0.018108 0.034734 0.000000 0.207140 0.000000
# 6 0.000000 0.000000 0.000000 -0.015333 0.000000 0.374520
#
#
# Mechanical properties :
#
#
# Convention : Reuss Voigt Hill
#
# Bulk Modulus (GPa) = 13.71678 24.49451 19.10565
# Shear Modulus (GPa) = 6.65851 17.57982 12.11917
#
# Velocity S-wave (km/s) = 1.85715 3.01763 2.50551
# Velocity P-wave (km/s) = 3.42108 4.98290 4.27394
#
# Compressibility (1/GPa) = 0.07290339
#
# Stress axis : x y z
#
# Youngs Moduli (GPa) = 22.40150 40.73186 38.23336
#
# Poissons Ratio (x) = 0.26947 -0.33256
# Poissons Ratio (y) = 0.14820 0.50865
# Poissons Ratio (z) = -0.19485 0.54189
#
# Static dielectric constant tensor:
#      x y z
#    x 1.676540 0.000000 -0.017520 
#    y 0.000000 1.674080 0.000000 
#    z -0.017520 0.000000 1.654100 
# 
# From -- ./inp_files/70240.got.cif
#   From: 2010.05.17/outbox.cif.g08.bks.cpg/sg10_36_cif.got.tgz:70240.got - 2010.06.03 11:33:40.
