data_PCOD9150774
_publ_section_title
;
Structure prediction by ZEFSAII (Michael W. Deem and Ramdas Pophale) SiO2 
 PCOD9150774
Probable space group: P 2/M
;
_chemical_formula_sum "Si O2"
_cell_formula_units_Z 24
_cell_length_a 12.105755
_cell_length_b 15.971031
_cell_length_c 17.455367
_cell_angle_alpha 90.000000
_cell_angle_beta 20.804194
_cell_angle_gamma 90.000000
_cell_volume 1198.661850
_symmetry_space_group_name_H-M "P 2/M"
_symmetry_group_IT_number 10
_symmetry_cell_setting 'monoclinic'
loop_
_space_group_symop_operation_xyz
x,y,z
-x,y,-z
-x,-y,-z
x,-y,z
loop_
_atom_site_type_symbol
_atom_site_label
_atom_site_fract_x
_atom_site_fract_y
_atom_site_fract_z
Si Si1 0.795861 0.095335 0.364996
Si Si2 0.140439 0.682159 0.321880
Si Si3 0.587044 0.794803 0.631134
Si Si4 0.344485 0.500000 0.741450
Si Si5 0.986110 0.500000 0.416660
Si Si6 0.272903 0.320817 0.715792
Si Si7 0.284410 0.769376 0.986307
O O1 0.500000 0.100100 0.500000
O O2 0.672761 0.123200 0.528026
O O3 0.911061 0.000000 0.289973
O O4 0.057278 0.161170 0.168776
O O5 0.466825 0.729129 0.117652
O O6 0.000000 0.678457 0.500000
O O7 0.892429 0.736468 0.436359
O O8 0.144214 0.587106 0.289451
O O9 0.339371 0.741574 0.742698
O O10 0.464337 0.807484 0.796309
O O11 0.630586 0.500000 0.616041
O O12 0.356326 0.414639 0.685710
O O13 0.000000 0.500000 0.000000
O O14 0.000000 0.500000 0.500000
O O15 0.500000 0.295437 0.500000
O O16 0.926022 0.306266 0.910695
#
# Coordination Sequence:
#
# PCOD9150774 Si02
#       7
#     4   4   4   2   2   4   4
#     4  11  24  42  65  96 128 157 204 269 321 381
#     4   9  21  36  62  90 127 168 209 258 307 370
#     4  11  20  41  64  91 124 168 205 257 315 375
#     4  12  25  37  63  94 124 177 222 258 316 359
#     4  10  20  37  55  92 133 162 214 269 302 363
#     4  12  23  40  60  90 130 168 215 267 303 364
#     4  11  22  40  66  93 125 168 211 253 321 383
#
# _framework density 20.022327000000001
#
# number of rings (size 3 to 8) (size 9 to 14) (size 15 to 20)
#    0.000    1.167    5.000    1.750    4.667    1.333 
#    0.000    3.333    0.000    5.000    0.000    0.000 
#    0.000    0.000    0.000    0.000    0.000    0.000 
#
# Total GULP energy -134113.294509 kJ/mol
# GULP energy per Si atom -5588.053938 kJ/mol
# Density = 1.997676 g / cm^3
# Si number density = 20.022327 Si / 1000 Ang^3
#
#
#
# Elastic Constant Matrix: (Units=GPa)
#
#
# Indices 1 2 3 4 5 6 
#
# 1 66.8737 29.0490 39.6645 0.0000 -8.3967 0.0000
# 2 29.0490 123.7481 40.3453 0.0000 -6.6789 0.0000
# 3 39.6645 40.3453 101.1304 0.0000 -13.5840 0.0000
# 4 0.0000 0.0000 0.0000 2.7600 0.0000 -12.8390
# 5 -8.3967 -6.6789 -13.5840 0.0000 37.9769 0.0000
# 6 0.0000 0.0000 0.0000 -12.8390 0.0000 6.3583
#
#
#
# Elastic Compliance Matrix: (Units=1/GPa)
#
#
# Indices 1 2 3 4 5 6 
#
# 1 0.020220 -0.002465 -0.006728 0.000000 0.001631 0.000000
# 2 -0.002465 0.009593 -0.002844 0.000000 0.000125 0.000000
# 3 -0.006728 -0.002844 0.014071 0.000000 0.003045 0.000000
# 4 0.000000 0.000000 0.000000 -0.043168 0.000000 -0.087168
# 5 0.001631 0.000125 0.003045 0.000000 0.027804 0.000000
# 6 0.000000 0.000000 0.000000 -0.087168 0.000000 -0.018738
#
#
# Mechanical properties :
#
#
# Convention : Reuss Voigt Hill
#
# Bulk Modulus (GPa) = 50.47856 56.65220 53.56538
# Shear Modulus (GPa) = 123.58822 21.59858 72.59340
#
# Velocity S-wave (km/s) = 7.86506 3.28796 6.02785
# Velocity P-wave (km/s) = 10.38002 6.53989 8.67511
#
# Compressibility (1/GPa) = 0.01981039
#
# Stress axis : x y z
#
# Youngs Moduli (GPa) = 49.45713 104.23813 71.07054
#
# Poissons Ratio (x) = 0.25694 0.47816
# Poissons Ratio (y) = 0.12191 0.20210
# Poissons Ratio (z) = 0.33275 0.29642
#
# Static dielectric constant tensor:
#      x y z
#    x 1.714130 0.000000 0.022780 
#    y 0.000000 1.724480 0.000000 
#    z 0.022780 0.000000 1.724560 
# 
# From -- ./inp_files/54212.got.cif
#   From: 2010.05.17/outbox.cif.g08.bks.cpg/sg10_28_cif.got.tgz:54212.got - 2010.06.03 11:33:40.
