data_PCOD9150581
_publ_section_title
;
Structure prediction by ZEFSAII (Michael W. Deem and Ramdas Pophale) SiO2 
 PCOD9150581
Probable space group: P 2/M
;
_chemical_formula_sum "Si O2"
_cell_formula_units_Z 28
_cell_length_a 22.439636
_cell_length_b 8.363030
_cell_length_c 22.117885
_cell_angle_alpha 90.000000
_cell_angle_beta 159.750116
_cell_angle_gamma 90.000000
_cell_volume 1436.625852
_symmetry_space_group_name_H-M "P 2/M"
_symmetry_group_IT_number 10
_symmetry_cell_setting 'monoclinic'
loop_
_space_group_symop_operation_xyz
x,y,z
-x,y,-z
-x,-y,-z
x,-y,z
loop_
_atom_site_type_symbol
_atom_site_label
_atom_site_fract_x
_atom_site_fract_y
_atom_site_fract_z
Si Si1 0.805321 0.693392 0.653079
Si Si2 0.643805 0.806976 0.267164
Si Si3 0.194226 0.194575 0.702202
Si Si4 0.914288 0.693161 0.981819
Si Si5 0.263337 0.193595 0.905197
Si Si6 0.089127 0.690887 0.379167
Si Si7 0.468299 0.808710 0.400793
O O1 0.805593 0.500000 0.653377
O O2 0.840608 0.749551 0.618528
O O3 0.623980 0.748822 0.507446
O O4 0.960299 0.746341 0.844804
O O5 0.683802 0.753018 0.236603
O O6 0.792119 0.752610 0.453400
O O7 0.645466 0.000000 0.267634
O O8 0.453804 0.754987 0.106346
O O9 0.238796 0.247298 0.812086
O O10 0.000000 0.240585 0.500000
O O11 0.200811 0.000000 0.709691
O O12 0.910312 0.500000 0.978175
O O13 0.719197 0.752898 0.799355
O O14 0.000000 0.745364 0.000000
O O15 0.106169 0.256242 0.794914
O O16 0.256435 0.000000 0.899170
O O17 0.095808 0.500000 0.385519
O O18 0.500000 0.750305 0.500000
O O19 0.471252 0.000000 0.404399
#
# Coordination Sequence:
#
# PCOD9150581 Si02
#       7
#     4   4   4   4   4   4   4
#     4  10  23  42  61  83 112 153 199 237 276 335
#     4  10  20  36  60  87 115 148 194 241 287 342
#     4   9  15  29  57  87 112 143 188 244 290 332
#     4  10  20  37  64  89 111 148 196 236 273 330
#     4  10  20  36  60  86 113 148 193 243 290 337
#     4  11  24  40  57  80 117 157 192 234 285 342
#     4  11  23  37  59  92 124 148 175 228 296 346
#
# _framework density 19.490113000000001
#
# number of rings (size 3 to 8) (size 9 to 14) (size 15 to 20)
#    0.000    1.857    2.857    1.286    0.000    6.000 
#    0.000    5.714    0.000    1.714    0.000    0.000 
#    0.000    0.000    0.000    0.000    0.000    0.000 
#
# Total GULP energy -156388.118859 kJ/mol
# GULP energy per Si atom -5585.289959 kJ/mol
# Density = 1.944575 g / cm^3
# Si number density = 19.490113 Si / 1000 Ang^3
#
#
#
# Elastic Constant Matrix: (Units=GPa)
#
#
# Indices 1 2 3 4 5 6 
#
# 1 128.4942 13.2538 37.0729 0.0000 30.2974 0.0000
# 2 13.2538 7.8528 8.6554 0.0000 3.9075 0.0000
# 3 37.0729 8.6554 103.2020 0.0000 39.9425 0.0000
# 4 0.0000 0.0000 0.0000 13.0177 0.0000 -2.0659
# 5 30.2974 3.9075 39.9425 0.0000 31.4815 0.0000
# 6 0.0000 0.0000 0.0000 -2.0659 0.0000 15.2690
#
#
#
# Elastic Compliance Matrix: (Units=1/GPa)
#
#
# Indices 1 2 3 4 5 6 
#
# 1 0.011579 -0.015623 0.001401 0.000000 -0.010982 0.000000
# 2 -0.015623 0.161775 -0.011795 0.000000 0.009921 0.000000
# 3 0.001401 -0.011795 0.019906 0.000000 -0.025140 0.000000
# 4 0.000000 0.000000 0.000000 0.078504 0.000000 0.010622
# 5 -0.010982 0.009921 -0.025140 0.000000 0.072999 0.000000
# 6 0.000000 0.000000 0.000000 0.010622 0.000000 0.066930
#
#
# Mechanical properties :
#
#
# Convention : Reuss Voigt Hill
#
# Bulk Modulus (GPa) = 7.08084 39.72368 23.40226
# Shear Modulus (GPa) = 9.78853 23.99141 16.88997
#
# Velocity S-wave (km/s) = 2.24348 3.51230 2.94699
# Velocity P-wave (km/s) = 3.21743 6.07240 4.85932
#
# Compressibility (1/GPa) = 0.14122609
#
# Stress axis : x y z
#
# Youngs Moduli (GPa) = 86.36259 6.18142 50.23709
#
# Poissons Ratio (x) = 0.09657 -0.07039
# Poissons Ratio (y) = 1.34921 0.59257
# Poissons Ratio (z) = -0.12101 0.07291
#
# Static dielectric constant tensor:
#      x y z
#    x 1.675860 0.000000 -0.005080 
#    y 0.000000 1.679470 0.000000 
#    z -0.005080 0.000000 1.659350 
# 
# From -- ./inp_files/90526.got.cif
#   From: 2010.05.17/outbox.cif.g08.bks.cpg/sg10_46_cif.got.tgz:90526.got - 2010.06.03 11:33:40.
