data_PCOD9150133
_publ_section_title
;
Structure prediction by ZEFSAII (Michael W. Deem and Ramdas Pophale) SiO2 
 PCOD9150133
Probable space group: P 2/M
;
_chemical_formula_sum "Si O2"
_cell_formula_units_Z 18
_cell_length_a 4.972629
_cell_length_b 7.513875
_cell_length_c 19.625065
_cell_angle_alpha 90.000000
_cell_angle_beta 74.542806
_cell_angle_gamma 90.000000
_cell_volume 706.742968
_symmetry_space_group_name_H-M "P 2/M"
_symmetry_group_IT_number 10
_symmetry_cell_setting 'monoclinic'
loop_
_space_group_symop_operation_xyz
x,y,z
-x,y,-z
-x,-y,-z
x,-y,z
loop_
_atom_site_type_symbol
_atom_site_label
_atom_site_fract_x
_atom_site_fract_y
_atom_site_fract_z
Si Si1 0.695837 0.783238 0.925523
Si Si2 0.394134 0.294096 0.431669
Si Si3 0.083981 0.695674 0.706085
Si Si4 0.712614 0.214891 0.159092
Si Si5 0.153977 0.000000 0.357581
O O1 0.019062 0.735240 0.905275
O O2 0.560783 0.725988 0.862790
O O3 0.686519 0.000000 0.927483
O O4 0.500000 0.721110 0.000000
O O5 0.500000 0.249903 0.500000
O O6 0.300035 0.500000 0.437517
O O7 0.661557 0.274930 0.364040
O O8 0.179253 0.156697 0.414347
O O9 0.965324 0.500000 0.704364
O O10 0.219159 0.714128 0.771053
O O11 0.868537 0.846637 0.700764
O O12 0.706769 0.000000 0.165091
#
# Coordination Sequence:
#
# PCOD9150133 Si02
#       5
#     4   4   4   4   2
#     4   9  18  33  59  93 127 168 221 274 331 402
#     4  10  24  44  65  94 133 173 219 277 339 403
#     4  11  25  41  62  95 131 172 221 278 338 398
#     4  10  20  35  60  90 130 173 220 274 335 402
#     4  12  23  41  69  93 127 172 223 278 328 415
#
# _framework density 25.468945999999999
#
# number of rings (size 3 to 8) (size 9 to 14) (size 15 to 20)
#    0.000    1.778    1.111    2.333    3.111    4.444 
#    0.000    3.333    0.000    4.000    0.000    0.000 
#    0.000    0.000    0.000    0.000    0.000    0.000 
#
# Total GULP energy -100364.208482 kJ/mol
# GULP energy per Si atom -5575.789360 kJ/mol
# Density = 2.541098 g / cm^3
# Si number density = 25.468946 Si / 1000 Ang^3
#
#
#
# Elastic Constant Matrix: (Units=GPa)
#
#
# Indices 1 2 3 4 5 6 
#
# 1 67.6589 25.5852 0.9209 0.0000 6.9614 0.0000
# 2 25.5852 88.9128 11.9900 0.0000 7.7956 0.0000
# 3 0.9209 11.9900 121.3689 0.0000 9.2058 0.0000
# 4 0.0000 0.0000 0.0000 -0.5775 0.0000 1.1825
# 5 6.9614 7.7956 9.2058 0.0000 44.2981 0.0000
# 6 0.0000 0.0000 0.0000 1.1825 0.0000 -10.2016
#
#
#
# Elastic Compliance Matrix: (Units=1/GPa)
#
#
# Indices 1 2 3 4 5 6 
#
# 1 0.016754 -0.004719 0.000483 0.000000 -0.001903 0.000000
# 2 -0.004719 0.012871 -0.001138 0.000000 -0.001287 0.000000
# 3 0.000483 -0.001138 0.008472 0.000000 -0.001636 0.000000
# 4 0.000000 0.000000 0.000000 -2.270251 0.000000 -0.263149
# 5 -0.001903 -0.001287 -0.001636 0.000000 0.023440 0.000000
# 6 0.000000 0.000000 0.000000 -0.263149 0.000000 -0.128526
#
#
# Mechanical properties :
#
#
# Convention : Reuss Voigt Hill
#
# Bulk Modulus (GPa) = 36.56409 39.43697 38.00053
# Shear Modulus (GPa) = -2.15761 22.66677 10.25458
#
# Velocity S-wave (km/s) = -0.92141 2.98648 2.00874
# Velocity P-wave (km/s) = 3.64081 5.23546 4.50919
#
# Compressibility (1/GPa) = 0.02734923
#
# Stress axis : x y z
#
# Youngs Moduli (GPa) = 59.68771 77.69206 118.03276
#
# Poissons Ratio (x) = 0.36666 -0.05706
# Poissons Ratio (y) = 0.28169 0.13434
# Poissons Ratio (z) = -0.02886 0.08842
#
# Static dielectric constant tensor:
#      x y z
#    x 2.051350 0.000000 -0.064040 
#    y 0.000000 1.967110 0.000000 
#    z -0.064040 0.000000 1.987600 
# 
# From -- ./inp_files/12082.got.cif
#   From: 2010.05.17/outbox.cif.g08.bks.cpg/sg10_7_cif.got.tgz:12082.got - 2010.06.03 11:33:40.
