data_PCOD9150856
_publ_section_title
;
Structure prediction by ZEFSAII (Michael W. Deem and Ramdas Pophale) SiO2 
 PCOD9150856
Probable space group: P 2/M
;
_chemical_formula_sum "Si O2"
_cell_formula_units_Z 20
_cell_length_a 8.970659
_cell_length_b 13.821241
_cell_length_c 8.302050
_cell_angle_alpha 90.000000
_cell_angle_beta 94.220680
_cell_angle_gamma 90.000000
_cell_volume 1026.543403
_symmetry_space_group_name_H-M "P 2/M"
_symmetry_group_IT_number 10
_symmetry_cell_setting 'monoclinic'
loop_
_space_group_symop_operation_xyz
x,y,z
-x,y,-z
-x,-y,-z
x,-y,z
loop_
_atom_site_type_symbol
_atom_site_label
_atom_site_fract_x
_atom_site_fract_y
_atom_site_fract_z
Si Si1 0.322440 0.500000 0.941633
Si Si2 0.330839 0.107336 0.051800
Si Si3 0.171572 0.707539 0.559369
Si Si4 0.166488 0.303327 0.943756
Si Si5 0.328242 0.104017 0.436839
Si Si6 0.183130 0.500000 0.558451
O O1 0.255771 0.399515 0.005422
O O2 0.254650 0.500000 0.748855
O O3 0.500000 0.500000 0.000000
O O4 0.325889 0.107087 0.244225
O O5 0.277413 0.000000 0.991951
O O6 0.500000 0.117562 0.000000
O O7 0.237947 0.200897 0.995785
O O8 0.171617 0.698049 0.751180
O O9 0.254581 0.801902 0.505704
O O10 0.231903 0.604685 0.495963
O O11 0.000000 0.717566 0.500000
O O12 0.000000 0.309938 0.000000
O O13 0.500000 0.104276 0.500000
O O14 0.261547 0.000000 0.484613
O O15 0.000000 0.500000 0.500000
#
# Coordination Sequence:
#
# PCOD9150856 Si02
#       6
#     2   4   4   4   4   2
#     4  10  21  37  60  91 122 156 201 252 302 357
#     4  10  21  38  59  84 116 153 195 247 304 360
#     4  10  20  37  59  82 112 150 193 238 286 349
#     4  11  22  37  59  87 120 158 197 244 302 360
#     4  10  21  37  57  82 112 148 191 239 293 349
#     4   8  18  37  59  83 115 154 192 236 291 349
#
# _framework density 19.482859000000001
#
# number of rings (size 3 to 8) (size 9 to 14) (size 15 to 20)
#    0.000    2.000    0.000    3.300    0.000    4.800 
#    0.000    3.500    0.000    0.000    0.000    0.000 
#    0.000    0.000    0.000    0.000    0.000    0.000 
#
# Total GULP energy -111366.711694 kJ/mol
# GULP energy per Si atom -5568.335585 kJ/mol
# Density = 1.943851 g / cm^3
# Si number density = 19.482859 Si / 1000 Ang^3
#
#
#
# Elastic Constant Matrix: (Units=GPa)
#
#
# Indices 1 2 3 4 5 6 
#
# 1 96.4389 105.7938 24.7202 0.0000 1.9715 0.0000
# 2 105.7938 263.6541 48.4595 0.0000 -7.5619 0.0000
# 3 24.7202 48.4595 53.0779 0.0000 2.7850 0.0000
# 4 0.0000 0.0000 0.0000 33.2571 0.0000 3.7478
# 5 1.9715 -7.5619 2.7850 0.0000 33.7766 0.0000
# 6 0.0000 0.0000 0.0000 3.7478 0.0000 14.8278
#
#
#
# Elastic Compliance Matrix: (Units=1/GPa)
#
#
# Indices 1 2 3 4 5 6 
#
# 1 0.018959 -0.007310 -0.002021 0.000000 -0.002577 0.000000
# 2 -0.007310 0.007440 -0.003513 0.000000 0.002382 0.000000
# 3 -0.002021 -0.003513 0.023124 0.000000 -0.002575 0.000000
# 4 0.000000 0.000000 0.000000 0.030950 0.000000 -0.007823
# 5 -0.002577 0.002382 -0.002575 0.000000 0.030502 0.000000
# 6 0.000000 0.000000 0.000000 -0.007823 0.000000 0.069418
#
#
# Mechanical properties :
#
#
# Convention : Reuss Voigt Hill
#
# Bulk Modulus (GPa) = 41.95468 85.67977 63.81723
# Shear Modulus (GPa) = 23.36157 31.98545 27.67351
#
# Velocity S-wave (km/s) = 3.46654 4.05621 3.77291
# Velocity P-wave (km/s) = 6.13216 8.12463 7.19767
#
# Compressibility (1/GPa) = 0.02383524
#
# Stress axis : x y z
#
# Youngs Moduli (GPa) = 52.74556 134.40725 43.24508
#
# Poissons Ratio (x) = 0.98251 0.08739
# Poissons Ratio (y) = 0.38557 0.15193
# Poissons Ratio (z) = 0.10659 0.47220
#
# Static dielectric constant tensor:
#      x y z
#    x 1.646410 0.000000 0.020540 
#    y 0.000000 1.737890 0.000000 
#    z 0.020540 0.000000 1.678810 
# 
# From -- ./inp_files/17904.got.cif
#   From: 2010.05.17/outbox.cif.g08.bks.cpg/sg10_9_cif.got.tgz:17904.got - 2010.06.03 11:33:40.
