data_PCOD9150160
_publ_section_title
;
Structure prediction by ZEFSAII (Michael W. Deem and Ramdas Pophale) SiO2 
 PCOD9150160
Probable space group: P 2/M
;
_chemical_formula_sum "Si O2"
_cell_formula_units_Z 26
_cell_length_a 9.628037
_cell_length_b 20.568074
_cell_length_c 9.233051
_cell_angle_alpha 90.000000
_cell_angle_beta 129.203403
_cell_angle_gamma 90.000000
_cell_volume 1416.857478
_symmetry_space_group_name_H-M "P 2/M"
_symmetry_group_IT_number 10
_symmetry_cell_setting 'monoclinic'
loop_
_space_group_symop_operation_xyz
x,y,z
-x,y,-z
-x,-y,-z
x,-y,z
loop_
_atom_site_type_symbol
_atom_site_label
_atom_site_fract_x
_atom_site_fract_y
_atom_site_fract_z
Si Si1 0.795431 0.573007 0.422156
Si Si2 0.745231 0.301651 0.951866
Si Si3 0.678669 0.815708 0.531958
Si Si4 0.790323 0.926218 0.827613
Si Si5 0.428584 0.838856 0.114235
Si Si6 0.500000 0.384426 0.000000
Si Si7 0.154050 0.682425 0.309598
O O1 0.775307 0.500000 0.469929
O O2 0.653736 0.579848 0.196289
O O3 0.776815 0.628396 0.532705
O O4 0.000000 0.579348 0.500000
O O5 0.692998 0.225698 0.937221
O O6 0.600735 0.340800 0.947990
O O7 0.753359 0.320295 0.787711
O O8 0.940777 0.319907 0.142767
O O9 0.500000 0.793429 0.500000
O O10 0.751475 0.876144 0.671807
O O11 0.606054 0.834693 0.328926
O O12 0.807871 0.754771 0.607962
O O13 0.684018 0.898794 0.896364
O O14 0.735935 0.000000 0.757059
O O15 0.000000 0.924981 0.000000
O O16 0.500000 0.842904 0.000000
#
# Coordination Sequence:
#
# PCOD9150160 Si02
#       7
#     4   4   4   4   4   2   4
#     4  11  25  45  65  94 131 169 209 260 326 386
#     4  11  22  38  64  94 127 159 213 265 314 371
#     4  10  20  35  62  90 122 160 206 255 305 374
#     4  10  21  40  62  86 122 168 209 252 311 377
#     4  11  22  36  57  93 125 157 202 261 315 362
#     4  12  23  42  66  94 125 170 208 266 319 380
#     4  11  22  40  64  93 123 166 212 263 309 379
#
# _framework density 18.350467999999999
#
# number of rings (size 3 to 8) (size 9 to 14) (size 15 to 20)
#    0.000    1.231    5.385    2.077    0.000    3.077 
#    0.000    6.154    0.000    1.846    0.000    0.000 
#    0.000    0.000    0.000    0.000    0.000    0.000 
#
# Total GULP energy -145080.540060 kJ/mol
# GULP energy per Si atom -5580.020772 kJ/mol
# Density = 1.830870 g / cm^3
# Si number density = 18.350468 Si / 1000 Ang^3
#
#
#
# Elastic Constant Matrix: (Units=GPa)
#
#
# Indices 1 2 3 4 5 6 
#
# 1 92.1594 46.3825 51.7020 0.0000 -13.0405 0.0000
# 2 46.3825 131.2401 47.0418 0.0000 -5.1003 0.0000
# 3 51.7020 47.0418 121.3491 0.0000 -7.1249 0.0000
# 4 0.0000 0.0000 0.0000 4.1114 0.0000 -8.4561
# 5 -13.0405 -5.1003 -7.1249 0.0000 26.7519 0.0000
# 6 0.0000 0.0000 0.0000 -8.4561 0.0000 26.2797
#
#
#
# Elastic Compliance Matrix: (Units=1/GPa)
#
#
# Indices 1 2 3 4 5 6 
#
# 1 0.016505 -0.003724 -0.005240 0.000000 0.005940 0.000000
# 2 -0.003724 0.009706 -0.002208 0.000000 -0.000553 0.000000
# 3 -0.005240 -0.002208 0.011332 0.000000 0.000043 0.000000
# 4 0.000000 0.000000 0.000000 0.719186 0.000000 0.231416
# 5 0.005940 -0.000553 0.000043 0.000000 0.040182 0.000000
# 6 0.000000 0.000000 0.000000 0.231416 0.000000 0.112516
#
#
# Mechanical properties :
#
#
# Convention : Reuss Voigt Hill
#
# Bulk Modulus (GPa) = 65.79690 70.55571 68.17631
# Shear Modulus (GPa) = 5.33711 24.73676 15.03693
#
# Velocity S-wave (km/s) = 1.70726 3.67552 2.86567
# Velocity P-wave (km/s) = 6.31030 7.51964 6.94136
#
# Compressibility (1/GPa) = 0.01519828
#
# Stress axis : x y z
#
# Youngs Moduli (GPa) = 60.58721 103.03041 88.24815
#
# Poissons Ratio (x) = 0.38371 0.46239
# Poissons Ratio (y) = 0.22564 0.19488
# Poissons Ratio (z) = 0.31746 0.22752
#
# Static dielectric constant tensor:
#      x y z
#    x 1.622220 0.000000 0.004190 
#    y 0.000000 1.638300 0.000000 
#    z 0.004190 0.000000 1.663770 
# 
# From -- ./inp_files/20435.got.cif
#   From: 2010.05.17/outbox.cif.g08.bks.cpg/sg10_11_cif.got.tgz:20435.got - 2010.06.03 11:33:40.
