data_PCOD9150680
_publ_section_title
;
Structure prediction by ZEFSAII (Michael W. Deem and Ramdas Pophale) SiO2 
 PCOD9150680
Probable space group: P 2/M
;
_chemical_formula_sum "Si O2"
_cell_formula_units_Z 32
_cell_length_a 8.470983
_cell_length_b 21.122687
_cell_length_c 11.614170
_cell_angle_alpha 90.000000
_cell_angle_beta 45.017684
_cell_angle_gamma 90.000000
_cell_volume 1469.908007
_symmetry_space_group_name_H-M "P 2/M"
_symmetry_group_IT_number 10
_symmetry_cell_setting 'monoclinic'
loop_
_space_group_symop_operation_xyz
x,y,z
-x,y,-z
-x,-y,-z
x,-y,z
loop_
_atom_site_type_symbol
_atom_site_label
_atom_site_fract_x
_atom_site_fract_y
_atom_site_fract_z
Si Si1 0.057514 0.100142 0.346530
Si Si2 0.659838 0.572320 0.086076
Si Si3 0.139330 0.069282 0.048790
Si Si4 0.169883 0.315174 0.579758
Si Si5 0.334190 0.312919 0.229471
Si Si6 0.352852 0.185660 0.485950
Si Si7 0.491137 0.176788 0.841978
Si Si8 0.827383 0.571574 0.258939
O O1 0.300404 0.131936 0.231574
O O2 0.000000 0.067727 0.500000
O O3 0.875689 0.155395 0.436308
O O4 0.033039 0.068410 0.232899
O O5 0.579293 0.500000 0.108375
O O6 0.488534 0.625705 0.133742
O O7 0.705654 0.580621 0.199293
O O8 0.906171 0.577373 0.903304
O O9 0.280669 0.133884 0.979813
O O10 0.260092 0.000000 0.978727
O O11 0.000000 0.072270 0.000000
O O12 0.257760 0.314401 0.403358
O O13 0.275766 0.252179 0.578959
O O14 0.237207 0.376972 0.614446
O O15 0.900744 0.312291 0.716001
O O16 0.466318 0.247915 0.136858
O O17 0.500000 0.147231 0.500000
O O18 0.505569 0.188431 0.295856
O O19 0.784842 0.500000 0.320716
#
# Coordination Sequence:
#
# PCOD9150680 Si02
#       8
#     4   4   4   4   4   4   4   4
#     4  10  21  41  67  96 133 172 213 262 323 383
#     4   9  20  39  58  79 118 162 205 260 316 378
#     4  11  25  45  68  99 136 172 217 268 316 379
#     4  10  21  35  57  85 117 156 198 256 311 373
#     4  10  21  38  56  88 123 154 202 255 312 372
#     4  10  20  36  61  89 125 164 207 261 321 378
#     4  10  21  40  62  91 130 167 207 259 319 381
#     4   9  20  38  55  79 115 157 208 258 311 381
#
# _framework density 21.77007
#
# number of rings (size 3 to 8) (size 9 to 14) (size 15 to 20)
#    0.000    2.125    1.250    1.875    3.500    3.750 
#    4.500    5.625    0.000    6.750    0.000    0.000 
#    0.000    0.000    0.000    0.000    0.000    0.000 
#
# Total GULP energy -178412.979940 kJ/mol
# GULP energy per Si atom -5575.405623 kJ/mol
# Density = 2.172052 g / cm^3
# Si number density = 21.770070 Si / 1000 Ang^3
#
#
#
# Elastic Constant Matrix: (Units=GPa)
#
#
# Indices 1 2 3 4 5 6 
#
# 1 92.9095 35.8213 37.5982 0.0000 7.1250 0.0000
# 2 35.8213 148.0113 50.9379 0.0000 -1.6047 0.0000
# 3 37.5982 50.9379 82.9637 0.0000 20.3735 0.0000
# 4 0.0000 0.0000 0.0000 304.4190 0.0000 -368.8379
# 5 7.1250 -1.6047 20.3735 0.0000 41.7045 0.0000
# 6 0.0000 0.0000 0.0000 -368.8379 0.0000 530.3520
#
#
#
# Elastic Compliance Matrix: (Units=1/GPa)
#
#
# Indices 1 2 3 4 5 6 
#
# 1 0.013428 -0.001439 -0.005256 0.000000 0.000218 0.000000
# 2 -0.001439 0.009138 -0.005801 0.000000 0.003431 0.000000
# 3 -0.005256 -0.005801 0.020262 0.000000 -0.009224 0.000000
# 4 0.000000 0.000000 0.000000 0.020874 0.000000 0.014517
# 5 0.000218 0.003431 -0.009224 0.000000 0.028579 0.000000
# 6 0.000000 0.000000 0.000000 0.014517 0.000000 0.011981
#
#
# Mechanical properties :
#
#
# Convention : Reuss Voigt Hill
#
# Bulk Modulus (GPa) = 56.06286 63.62215 59.84250
# Shear Modulus (GPa) = 36.98249 188.59689 112.78969
#
# Velocity S-wave (km/s) = 4.12609 9.31769 7.20569
# Velocity P-wave (km/s) = 6.96475 12.04355 9.83755
#
# Compressibility (1/GPa) = 0.01783712
#
# Stress axis : x y z
#
# Youngs Moduli (GPa) = 74.47153 109.43139 49.35297
#
# Poissons Ratio (x) = 0.15744 0.25938
# Poissons Ratio (y) = 0.10714 0.28631
# Poissons Ratio (z) = 0.39139 0.63484
#
# Static dielectric constant tensor:
#      x y z
#    x 1.792120 0.000000 0.032830 
#    y 0.000000 1.778980 0.000000 
#    z 0.032830 0.000000 1.834080 
# 
# From -- ./inp_files/43586.got.cif
#   From: 2010.05.17/outbox.cif.g08.bks.cpg/sg10_22_cif.got.tgz:43586.got - 2010.06.03 11:33:40.
