data_PCOD9150501
_publ_section_title
;
Structure prediction by ZEFSAII (Michael W. Deem and Ramdas Pophale) SiO2 
 PCOD9150501
Probable space group: P 2/M
;
_chemical_formula_sum "Si O2"
_cell_formula_units_Z 24
_cell_length_a 15.003806
_cell_length_b 15.048456
_cell_length_c 9.078412
_cell_angle_alpha 90.000000
_cell_angle_beta 151.911887
_cell_angle_gamma 90.000000
_cell_volume 965.086733
_symmetry_space_group_name_H-M "P 2/M"
_symmetry_group_IT_number 10
_symmetry_cell_setting 'monoclinic'
loop_
_space_group_symop_operation_xyz
x,y,z
-x,y,-z
-x,-y,-z
x,-y,z
loop_
_atom_site_type_symbol
_atom_site_label
_atom_site_fract_x
_atom_site_fract_y
_atom_site_fract_z
Si Si1 0.925124 0.327189 0.731949
Si Si2 0.547321 0.693734 0.330875
Si Si3 0.781864 0.826975 0.862442
Si Si4 0.776335 0.000000 0.240058
Si Si5 0.506278 0.500000 0.249239
Si Si6 0.613597 0.000000 0.511338
Si Si7 0.789575 0.185750 0.208351
Si Si8 0.169135 0.500000 0.533902
O O1 0.704577 0.308408 0.432768
O O2 0.948367 0.408781 0.653959
O O3 0.000000 0.360937 0.000000
O O4 0.029776 0.233352 0.863547
O O5 0.633526 0.756662 0.580933
O O6 0.521013 0.594081 0.349646
O O7 0.358635 0.736632 0.992364
O O8 0.748870 0.913483 0.714357
O O9 0.750063 0.854123 0.985870
O O10 0.778923 0.898368 0.302328
O O11 0.000000 0.000000 0.500000
O O12 0.557784 0.000000 0.855722
O O13 0.680641 0.500000 0.384998
O O14 0.306634 0.500000 0.873152
O O15 0.500000 0.000000 0.500000
O O16 0.000000 0.221753 0.500000
#
# Coordination Sequence:
#
# PCOD9150501 Si02
#       8
#     4   4   4   2   2   2   4   2
#     4   9  20  35  58  87 116 148 196 240 286 349
#     4  10  20  39  57  82 118 149 193 240 289 344
#     4  11  21  36  59  88 115 154 192 240 288 340
#     4  10  20  36  59  86 108 154 203 236 277 345
#     4   9  20  34  59  85 108 156 199 238 284 359
#     4  12  18  36  60  85 117 157 198 231 278 359
#     4  11  22  36  59  86 115 149 198 242 288 347
#     4   9  17  36  59  80 114 155 197 233 293 346
#
# _framework density 24.868231000000002
#
# number of rings (size 3 to 8) (size 9 to 14) (size 15 to 20)
#    0.000    1.833    3.333    0.750    2.333    2.000 
#    0.000    7.500    0.000    0.000    0.000    4.667 
#    0.000    0.000    0.000    0.000    0.000    0.000 
#
# Total GULP energy -133853.471205 kJ/mol
# GULP energy per Si atom -5577.227967 kJ/mol
# Density = 2.481163 g / cm^3
# Si number density = 24.868231 Si / 1000 Ang^3
#
#
#
# Elastic Constant Matrix: (Units=GPa)
#
#
# Indices 1 2 3 4 5 6 
#
# 1 18.8208 21.7569 20.8672 0.0000 1.6375 0.0000
# 2 21.7569 232.4324 84.9614 0.0000 26.8809 0.0000
# 3 20.8672 84.9614 129.6818 0.0000 23.4574 0.0000
# 4 0.0000 0.0000 0.0000 37.6530 0.0000 9.2858
# 5 1.6375 26.8809 23.4574 0.0000 42.5512 0.0000
# 6 0.0000 0.0000 0.0000 9.2858 0.0000 15.5104
#
#
#
# Elastic Compliance Matrix: (Units=1/GPa)
#
#
# Indices 1 2 3 4 5 6 
#
# 1 0.067095 -0.003379 -0.009443 0.000000 0.004758 0.000000
# 2 -0.003379 0.005940 -0.002991 0.000000 -0.001974 0.000000
# 3 -0.009443 -0.002991 0.011977 0.000000 -0.004350 0.000000
# 4 0.000000 0.000000 0.000000 0.031159 0.000000 -0.018654
# 5 0.004758 -0.001974 -0.004350 0.000000 0.026963 0.000000
# 6 0.000000 0.000000 0.000000 -0.018654 0.000000 0.075641
#
#
# Mechanical properties :
#
#
# Convention : Reuss Voigt Hill
#
# Bulk Modulus (GPa) = 18.73167 70.67847 44.70507
# Shear Modulus (GPa) = 18.64309 36.03289 27.33799
#
# Velocity S-wave (km/s) = 2.74099 3.81064 3.31919
# Velocity P-wave (km/s) = 4.19119 6.91695 5.71884
#
# Compressibility (1/GPa) = 0.05338553
#
# Stress axis : x y z
#
# Youngs Moduli (GPa) = 14.90430 168.34508 83.49277
#
# Poissons Ratio (x) = 0.56882 0.78845
# Poissons Ratio (y) = 0.05036 0.24973
# Poissons Ratio (z) = 0.14075 0.50352
#
# Static dielectric constant tensor:
#      x y z
#    x 2.078480 0.000000 -0.028050 
#    y 0.000000 1.982080 0.000000 
#    z -0.028050 0.000000 2.008100 
# 
# From -- ./inp_files/56073.got.cif
#   From: 2010.05.17/outbox.cif.g08.bks.cpg/sg10_29_cif.got.tgz:56073.got - 2010.06.03 11:33:40.
