data_PCOD9150933
_publ_section_title
;
Structure prediction by ZEFSAII (Michael W. Deem and Ramdas Pophale) SiO2 
 PCOD9150933
Probable space group: P 2/M
;
_chemical_formula_sum "Si O2"
_cell_formula_units_Z 32
_cell_length_a 28.991294
_cell_length_b 8.691671
_cell_length_c 12.161458
_cell_angle_alpha 90.000000
_cell_angle_beta 147.070649
_cell_angle_gamma 90.000000
_cell_volume 1665.864066
_symmetry_space_group_name_H-M "P 2/M"
_symmetry_group_IT_number 10
_symmetry_cell_setting 'monoclinic'
loop_
_space_group_symop_operation_xyz
x,y,z
-x,y,-z
-x,-y,-z
x,-y,z
loop_
_atom_site_type_symbol
_atom_site_label
_atom_site_fract_x
_atom_site_fract_y
_atom_site_fract_z
Si Si1 0.750211 0.815376 0.391384
Si Si2 0.098277 0.684226 0.450388
Si Si3 0.582358 0.184010 0.440951
Si Si4 0.849883 0.315523 0.197817
Si Si5 0.250142 0.187252 0.355674
Si Si6 0.401398 0.684222 0.056867
Si Si7 0.082643 0.815988 0.888708
Si Si8 0.349933 0.684480 0.202086
O O1 0.832913 0.754489 0.493820
O O2 0.750025 0.764237 0.517984
O O3 0.750227 0.000000 0.388974
O O4 0.667640 0.754525 0.162816
O O5 0.102540 0.500000 0.452754
O O6 0.122334 0.729120 0.623930
O O7 0.003544 0.742270 0.239517
O O8 0.665021 0.236779 0.538110
O O9 0.496069 0.257774 0.224445
O O10 0.597781 0.234289 0.597591
O O11 0.576392 0.000000 0.422325
O O12 0.861047 0.500000 0.209770
O O13 0.902198 0.234364 0.206777
O O14 0.749980 0.280553 0.984284
O O15 0.250152 0.000000 0.353563
O O16 0.165425 0.236759 0.122350
O O17 0.397079 0.500000 0.042062
O O18 0.377732 0.729082 0.135043
O O19 0.076706 0.000000 0.883485
O O20 0.361101 0.500000 0.234869
#
# Coordination Sequence:
#
# PCOD9150933 Si02
#       8
#     4   4   4   4   4   4   4   4
#     4  11  23  42  65  86 112 157 206 249 294 351
#     4  11  23  41  61  89 125 159 193 242 301 358
#     4  11  22  39  62  91 121 156 200 247 292 351
#     4  10  20  37  60  86 121 161 192 234 301 361
#     4   9  22  42  61  84 120 157 196 249 306 345
#     4  11  23  41  61  89 125 159 193 242 301 358
#     4  11  22  39  62  91 121 156 200 247 292 351
#     4  10  20  37  60  86 121 161 192 234 301 361
#
# _framework density 19.209249
#
# number of rings (size 3 to 8) (size 9 to 14) (size 15 to 20)
#    0.000    1.500    2.500    2.625    0.000    6.000 
#    0.000   10.000    0.000    0.000    0.000    0.000 
#    0.000    0.000    0.000    0.000    0.000    0.000 
#
# Total GULP energy -178918.052122 kJ/mol
# GULP energy per Si atom -5591.189129 kJ/mol
# Density = 1.916553 g / cm^3
# Si number density = 19.209249 Si / 1000 Ang^3
#
#
#
# Elastic Constant Matrix: (Units=GPa)
#
#
# Indices 1 2 3 4 5 6 
#
# 1 84.4048 21.8551 72.1536 0.0000 -10.8937 0.0000
# 2 21.8551 31.7627 22.0414 0.0000 0.3375 0.0000
# 3 72.1536 22.0414 86.2103 0.0000 14.7707 0.0000
# 4 0.0000 0.0000 0.0000 35.3291 0.0000 -1.0541
# 5 -10.8937 0.3375 14.7707 0.0000 32.0253 0.0000
# 6 0.0000 0.0000 0.0000 -1.0541 0.0000 36.1292
#
#
#
# Elastic Compliance Matrix: (Units=1/GPa)
#
#
# Indices 1 2 3 4 5 6 
#
# 1 0.176674 -0.004780 -0.170417 0.000000 0.138747 0.000000
# 2 -0.004780 0.039000 -0.006104 0.000000 0.000778 0.000000
# 3 -0.170417 -0.006104 0.179929 0.000000 -0.140892 0.000000
# 4 0.000000 0.000000 0.000000 0.028330 0.000000 0.000827
# 5 0.138747 0.000778 -0.140892 0.000000 0.143395 0.000000
# 6 0.000000 0.000000 0.000000 0.000827 0.000000 0.027703
#
#
# Mechanical properties :
#
#
# Convention : Reuss Voigt Hill
#
# Bulk Modulus (GPa) = 30.30115 48.27532 39.28824
# Shear Modulus (GPa) = 5.16192 26.45191 15.80691
#
# Velocity S-wave (km/s) = 1.64105 3.71488 2.87170
# Velocity P-wave (km/s) = 4.40445 6.60199 5.61184
#
# Compressibility (1/GPa) = 0.03300204
#
# Stress axis : x y z
#
# Youngs Moduli (GPa) = 5.66015 25.64114 5.55774
#
# Poissons Ratio (x) = 0.12256 0.94713
# Poissons Ratio (y) = 0.02706 0.03392
# Poissons Ratio (z) = 0.96458 0.15651
#
# Static dielectric constant tensor:
#      x y z
#    x 1.647800 0.000000 0.006450 
#    y 0.000000 1.646310 0.000000 
#    z 0.006450 0.000000 1.653030 
# 
# From -- ./inp_files/58279.got.cif
#   From: 2010.05.17/outbox.cif.g08.bks.cpg/sg10_30_cif.got.tgz:58279.got - 2010.06.03 11:33:40.
