data_PCOD9150270
_publ_section_title
;
Structure prediction by ZEFSAII (Michael W. Deem and Ramdas Pophale) SiO2 
 PCOD9150270
Probable space group: P 2/M
;
_chemical_formula_sum "Si O2"
_cell_formula_units_Z 32
_cell_length_a 15.130605
_cell_length_b 7.635548
_cell_length_c 24.089110
_cell_angle_alpha 90.000000
_cell_angle_beta 30.249206
_cell_angle_gamma 90.000000
_cell_volume 1401.982749
_symmetry_space_group_name_H-M "P 2/M"
_symmetry_group_IT_number 10
_symmetry_cell_setting 'monoclinic'
loop_
_space_group_symop_operation_xyz
x,y,z
-x,y,-z
-x,-y,-z
x,-y,z
loop_
_atom_site_type_symbol
_atom_site_label
_atom_site_fract_x
_atom_site_fract_y
_atom_site_fract_z
Si Si1 0.416010 0.289887 0.737090
Si Si2 0.592357 0.700666 0.832310
Si Si3 0.915332 0.211378 0.603430
Si Si4 0.280927 0.714821 0.930983
Si Si5 0.107038 0.710144 0.824739
Si Si6 0.070947 0.789130 0.716991
Si Si7 0.216987 0.210683 0.522151
Si Si8 0.306786 0.801764 0.109956
O O1 0.401571 0.500000 0.747852
O O2 0.365116 0.226860 0.826772
O O3 0.266860 0.223752 0.775429
O O4 0.605787 0.253261 0.607415
O O5 0.575915 0.500000 0.858751
O O6 0.722076 0.710098 0.710290
O O7 0.404849 0.770134 0.915076
O O8 0.700362 0.805446 0.819689
O O9 0.000000 0.261545 0.500000
O O10 0.047402 0.273020 0.579893
O O11 0.902678 0.000000 0.612154
O O12 0.283653 0.500000 0.929913
O O13 0.082067 0.772719 0.049991
O O14 0.103334 0.500000 0.832268
O O15 0.130062 0.748855 0.747102
O O16 0.192447 0.728707 0.599548
O O17 0.870614 0.720777 0.817229
O O18 0.059021 0.000000 0.718519
O O19 0.209199 0.000000 0.527425
O O20 0.320299 0.000000 0.080495
O O21 0.500000 0.718260 0.000000
#
# Coordination Sequence:
#
# PCOD9150270 Si02
#       8
#     4   4   4   4   4   4   4   4
#     4  10  21  38  61  85 110 146 192 239 286 339
#     4  11  21  32  53  84 115 145 178 224 279 333
#     4  10  20  36  57  79 109 150 192 229 269 331
#     4   9  19  37  58  84 118 149 181 230 293 348
#     4  10  21  38  61  85 110 146 192 239 286 339
#     4  10  21  38  57  80 115 153 188 231 284 338
#     4  10  21  38  57  80 115 153 188 231 284 338
#     4  10  20  36  57  79 109 150 192 229 269 331
#
# _framework density 22.824816999999999
#
# number of rings (size 3 to 8) (size 9 to 14) (size 15 to 20)
#    0.000    2.000    1.250    2.250    0.000    4.500 
#    0.000    4.375    0.000    1.500    0.000    0.000 
#    0.000    0.000    0.000    0.000    0.000    0.000 
#
# Total GULP energy -178640.174989 kJ/mol
# GULP energy per Si atom -5582.505468 kJ/mol
# Density = 2.277287 g / cm^3
# Si number density = 22.824817 Si / 1000 Ang^3
#
#
#
# Elastic Constant Matrix: (Units=GPa)
#
#
# Indices 1 2 3 4 5 6 
#
# 1 97.2046 8.1442 17.4528 0.0000 -0.1904 0.0000
# 2 8.1442 48.7119 6.3192 0.0000 1.1439 0.0000
# 3 17.4528 6.3192 115.1388 0.0000 3.3657 0.0000
# 4 0.0000 0.0000 0.0000 50.5732 0.0000 -6.5586
# 5 -0.1904 1.1439 3.3657 0.0000 41.6969 0.0000
# 6 0.0000 0.0000 0.0000 -6.5586 0.0000 17.3912
#
#
#
# Elastic Compliance Matrix: (Units=1/GPa)
#
#
# Indices 1 2 3 4 5 6 
#
# 1 0.010698 -0.001594 -0.001540 0.000000 0.000217 0.000000
# 2 -0.001594 0.020923 -0.000892 0.000000 -0.000509 0.000000
# 3 -0.001540 -0.000892 0.008988 0.000000 -0.000708 0.000000
# 4 0.000000 0.000000 0.000000 0.020790 0.000000 0.007840
# 5 0.000217 -0.000509 -0.000708 0.000000 0.024055 0.000000
# 6 0.000000 0.000000 0.000000 0.007840 0.000000 0.060457
#
#
# Mechanical properties :
#
#
# Convention : Reuss Voigt Hill
#
# Bulk Modulus (GPa) = 30.71533 36.09864 33.40699
# Shear Modulus (GPa) = 30.33684 37.20820 33.77252
#
# Velocity S-wave (km/s) = 3.64966 4.04191 3.85078
# Velocity P-wave (km/s) = 5.58983 6.13454 5.86851
#
# Compressibility (1/GPa) = 0.03255703
#
# Stress axis : x y z
#
# Youngs Moduli (GPa) = 93.47418 47.79429 111.25548
#
# Poissons Ratio (x) = 0.07618 0.17139
# Poissons Ratio (y) = 0.14899 0.09922
# Poissons Ratio (z) = 0.14400 0.04262
#
# Static dielectric constant tensor:
#      x y z
#    x 1.905210 0.000000 0.089430 
#    y 0.000000 1.886380 0.000000 
#    z 0.089430 0.000000 1.974770 
# 
# From -- ./inp_files/71524.got.cif
#   From: 2010.05.17/outbox.cif.g08.bks.cpg/sg10_36_cif.got.tgz:71524.got - 2010.06.03 11:33:40.
