data_PCOD9150232
_publ_section_title
;
Structure prediction by ZEFSAII (Michael W. Deem and Ramdas Pophale) SiO2 
 PCOD9150232
Probable space group: P 2/M
;
_chemical_formula_sum "Si O2"
_cell_formula_units_Z 28
_cell_length_a 22.135247
_cell_length_b 12.901983
_cell_length_c 28.108153
_cell_angle_alpha 90.000000
_cell_angle_beta 11.351941
_cell_angle_gamma 90.000000
_cell_volume 1580.067137
_symmetry_space_group_name_H-M "P 2/M"
_symmetry_group_IT_number 10
_symmetry_cell_setting 'monoclinic'
loop_
_space_group_symop_operation_xyz
x,y,z
-x,y,-z
-x,-y,-z
x,-y,z
loop_
_atom_site_type_symbol
_atom_site_label
_atom_site_fract_x
_atom_site_fract_y
_atom_site_fract_z
Si Si1 0.208096 0.119866 0.791904
Si Si2 0.823732 0.768706 0.349654
Si Si3 0.687679 0.377974 0.541550
Si Si4 0.750021 0.120588 0.599513
Si Si5 0.778359 0.729875 0.814427
Si Si6 0.652812 0.879416 0.997650
Si Si7 0.783437 0.768693 0.043179
O O1 0.525339 0.176372 0.558847
O O2 0.263099 0.000000 0.736892
O O3 0.000000 0.123010 0.000000
O O4 0.020226 0.176378 0.895588
O O5 0.733823 0.678169 0.455306
O O6 0.029470 0.850857 0.220572
O O7 0.035897 0.730544 0.142739
O O8 0.648342 0.500000 0.567767
O O9 0.400934 0.321841 0.788195
O O10 0.986802 0.349090 0.342132
O O11 0.616159 0.137702 0.755894
O O12 0.470759 0.149148 0.779278
O O13 0.022587 0.196092 0.373921
O O14 0.833518 0.000000 0.530297
O O15 0.500000 0.681605 0.000000
O O16 0.643522 0.803904 0.959966
O O17 0.650593 0.000000 0.985577
#
# Coordination Sequence:
#
# PCOD9150232 Si02
#       7
#     4   4   4   4   4   4   4
#     4  11  21  33  55  87 121 152 179 212 254 304
#     4  10  20  36  56  80 110 145 185 224 264 310
#     4  10  22  41  60  77 101 135 179 233 282 323
#     4   9  18  32  51  76 109 147 179 209 253 314
#     4  10  21  35  53  79 105 133 172 220 271 326
#     4   9  18  32  51  76 109 147 179 209 253 314
#     4  10  20  36  56  80 110 145 185 224 264 310
#
# _framework density 17.720766000000001
#
# number of rings (size 3 to 8) (size 9 to 14) (size 15 to 20)
#    0.000    2.143    1.429    1.714    0.000    4.857 
#    0.000    2.857    0.000    1.714    0.000    8.000 
#    0.000    0.000    0.000    0.000    0.000    0.000 
#
# Total GULP energy -156324.292171 kJ/mol
# GULP energy per Si atom -5583.010435 kJ/mol
# Density = 1.768043 g / cm^3
# Si number density = 17.720766 Si / 1000 Ang^3
#
#
#
# Elastic Constant Matrix: (Units=GPa)
#
#
# Indices 1 2 3 4 5 6 
#
# 1 78.9709 31.6244 44.7308 0.0000 -5.6563 0.0000
# 2 31.6244 97.5089 33.1079 0.0000 8.7283 0.0000
# 3 44.7308 33.1079 77.6964 0.0000 -2.7749 0.0000
# 4 0.0000 0.0000 0.0000 4.4645 0.0000 1.6950
# 5 -5.6563 8.7283 -2.7749 0.0000 34.6745 0.0000
# 6 0.0000 0.0000 0.0000 1.6950 0.0000 4.1967
#
#
#
# Elastic Compliance Matrix: (Units=1/GPa)
#
#
# Indices 1 2 3 4 5 6 
#
# 1 0.019840 -0.003381 -0.009864 0.000000 0.003298 0.000000
# 2 -0.003381 0.012989 -0.003736 0.000000 -0.004120 0.000000
# 3 -0.009864 -0.003736 0.020175 0.000000 0.000946 0.000000
# 4 0.000000 0.000000 0.000000 0.264551 0.000000 -0.106847
# 5 0.003298 -0.004120 0.000946 0.000000 0.030490 0.000000
# 6 0.000000 0.000000 0.000000 -0.106847 0.000000 0.281436
#
#
# Mechanical properties :
#
#
# Convention : Reuss Voigt Hill
#
# Bulk Modulus (GPa) = 52.51091 52.56695 52.53893
# Shear Modulus (GPa) = 7.46502 18.31469 12.88986
#
# Velocity S-wave (km/s) = 2.05469 3.21832 2.69994
# Velocity P-wave (km/s) = 5.94354 6.59838 6.27950
#
# Compressibility (1/GPa) = 0.01904366
#
# Stress axis : x y z
#
# Youngs Moduli (GPa) = 50.40330 76.98739 49.56635
#
# Poissons Ratio (x) = 0.26027 0.48891
# Poissons Ratio (y) = 0.17040 0.18517
# Poissons Ratio (z) = 0.49717 0.28761
#
# Static dielectric constant tensor:
#      x y z
#    x 1.611870 0.000000 0.005480 
#    y 0.000000 1.544910 0.000000 
#    z 0.005480 0.000000 1.612720 
# 
# From -- ./inp_files/28503.got.cif
#   From: 2010.05.17/outbox.cif.g08.bks.cpg/sg10_15_cif.got.tgz:28503.got - 2010.06.03 11:33:40.
