data_PCOD9150978
_publ_section_title
;
Structure prediction by ZEFSAII (Michael W. Deem and Ramdas Pophale) SiO2 
 PCOD9150978
Probable space group: P 2/M
;
_chemical_formula_sum "Si O2"
_cell_formula_units_Z 32
_cell_length_a 10.143845
_cell_length_b 7.474539
_cell_length_c 27.983259
_cell_angle_alpha 90.000000
_cell_angle_beta 141.910279
_cell_angle_gamma 90.000000
_cell_volume 1308.869474
_symmetry_space_group_name_H-M "P 2/M"
_symmetry_group_IT_number 10
_symmetry_cell_setting 'monoclinic'
loop_
_space_group_symop_operation_xyz
x,y,z
-x,y,-z
-x,-y,-z
x,-y,z
loop_
_atom_site_type_symbol
_atom_site_label
_atom_site_fract_x
_atom_site_fract_y
_atom_site_fract_z
Si Si1 0.542129 0.716865 0.882282
Si Si2 0.660830 0.705937 0.583827
Si Si3 0.288974 0.791880 0.967143
Si Si4 0.550235 0.709853 0.780264
Si Si5 0.050120 0.280111 0.748134
Si Si6 0.143121 0.215158 0.611365
Si Si7 0.133693 0.703389 0.205205
Si Si8 0.693666 0.216438 0.446758
O O1 0.545454 0.500000 0.883242
O O2 0.673199 0.776132 0.965646
O O3 0.611918 0.781173 0.849806
O O4 0.295296 0.774658 0.816972
O O5 0.500000 0.792886 0.500000
O O6 0.692848 0.500000 0.578399
O O7 0.893867 0.781932 0.661213
O O8 0.524061 0.710723 0.593761
O O9 0.268361 0.000000 0.948222
O O10 0.500000 0.720923 0.000000
O O11 0.075124 0.700404 0.887949
O O12 0.605364 0.500000 0.796982
O O13 0.298044 0.722728 0.697581
O O14 0.678753 0.790413 0.772350
O O15 0.050228 0.500000 0.747769
O O16 0.944123 0.216572 0.767287
O O17 0.249507 0.271606 0.591007
O O18 0.896226 0.272369 0.537497
O O19 0.141888 0.000000 0.611681
O O20 0.199436 0.500000 0.235336
O O21 0.682954 0.000000 0.444037
#
# Coordination Sequence:
#
# PCOD9150978 Si02
#       8
#     4   4   4   4   4   4   4   4
#     4  10  21  38  60  84 115 153 187 225 281 345
#     4  10  21  34  53  82 115 147 186 241 292 328
#     4  11  23  39  60  88 116 142 189 240 277 327
#     4  10  22  36  57  90 118 142 185 238 276 329
#     4   9  18  34  56  80 110 151 191 224 277 345
#     4   9  19  36  57  77 108 150 189 229 280 340
#     4  10  20  37  61  85 113 150 188 227 279 341
#     4   9  19  36  54  76 106 148 194 232 277 339
#
# _framework density 24.448581000000001
#
# number of rings (size 3 to 8) (size 9 to 14) (size 15 to 20)
#    0.000    2.250    1.250    1.875    1.750    4.250 
#    0.000    5.000    0.000    0.000    0.000    0.000 
#    0.000    0.000    0.000    0.000    0.000    0.000 
#
# Total GULP energy -178942.495442 kJ/mol
# GULP energy per Si atom -5591.952983 kJ/mol
# Density = 2.439293 g / cm^3
# Si number density = 24.448581 Si / 1000 Ang^3
#
#
#
# Elastic Constant Matrix: (Units=GPa)
#
#
# Indices 1 2 3 4 5 6 
#
# 1 49.1923 5.8455 -11.8396 0.0000 4.5641 0.0000
# 2 5.8455 78.9133 -5.6760 0.0000 -2.3252 0.0000
# 3 -11.8396 -5.6760 113.8115 0.0000 -1.6374 0.0000
# 4 0.0000 0.0000 0.0000 -39.5929 0.0000 -14.8685
# 5 4.5641 -2.3252 -1.6374 0.0000 34.3784 0.0000
# 6 0.0000 0.0000 0.0000 -14.8685 0.0000 3.2215
#
#
#
# Elastic Compliance Matrix: (Units=1/GPa)
#
#
# Indices 1 2 3 4 5 6 
#
# 1 0.021275 -0.001508 0.002097 0.000000 -0.002827 0.000000
# 2 -0.001508 0.012852 0.000500 0.000000 0.001093 0.000000
# 3 0.002097 0.000500 0.009032 0.000000 0.000186 0.000000
# 4 0.000000 0.000000 0.000000 -0.009241 0.000000 -0.042649
# 5 -0.002827 0.001093 0.000186 0.000000 0.029546 0.000000
# 6 0.000000 0.000000 0.000000 -0.042649 0.000000 0.113570
#
#
# Mechanical properties :
#
#
# Convention : Reuss Voigt Hill
#
# Bulk Modulus (GPa) = 22.05741 24.28635 23.17188
# Shear Modulus (GPa) = 26.32009 16.50722 21.41366
#
# Velocity S-wave (km/s) = 3.28464 2.60124 2.96271
# Velocity P-wave (km/s) = 4.84011 4.35628 4.60456
#
# Compressibility (1/GPa) = 0.04533624
#
# Stress axis : x y z
#
# Youngs Moduli (GPa) = 47.00433 77.80877 110.71470
#
# Poissons Ratio (x) = 0.11736 -0.23220
# Poissons Ratio (y) = 0.07090 -0.05533
# Poissons Ratio (z) = -0.09858 -0.03889
#
# Static dielectric constant tensor:
#      x y z
#    x 1.972430 0.000000 -0.019580 
#    y 0.000000 1.912210 0.000000 
#    z -0.019580 0.000000 1.913470 
# 
# From -- ./inp_files/95044.got.cif
#   From: 2010.05.17/outbox.cif.g08.bks.cpg/sg10_48_cif.got.tgz:95044.got - 2010.06.03 11:33:40.
