data_PCOD9150691
_publ_section_title
;
Structure prediction by ZEFSAII (Michael W. Deem and Ramdas Pophale) SiO2 
 PCOD9150691
Probable space group: P 2/M
;
_chemical_formula_sum "Si O2"
_cell_formula_units_Z 32
_cell_length_a 14.508677
_cell_length_b 8.639157
_cell_length_c 13.231200
_cell_angle_alpha 90.000000
_cell_angle_beta 85.747036
_cell_angle_gamma 90.000000
_cell_volume 1653.868092
_symmetry_space_group_name_H-M "P 2/M"
_symmetry_group_IT_number 10
_symmetry_cell_setting 'monoclinic'
loop_
_space_group_symop_operation_xyz
x,y,z
-x,y,-z
-x,-y,-z
x,-y,z
loop_
_atom_site_type_symbol
_atom_site_label
_atom_site_fract_x
_atom_site_fract_y
_atom_site_fract_z
Si Si1 0.105227 0.313092 0.698116
Si Si2 0.791005 0.816320 0.506092
Si Si3 0.440179 0.813644 0.102621
Si Si4 0.599496 0.815346 0.238410
Si Si5 0.223105 0.686965 0.882741
Si Si6 0.397413 0.315634 0.539865
Si Si7 0.233779 0.313587 0.108555
Si Si8 0.108039 0.687403 0.305376
O O1 0.109512 0.500000 0.689468
O O2 0.164505 0.243630 0.602002
O O3 0.149125 0.270544 0.802726
O O4 0.998676 0.264946 0.696807
O O5 0.684734 0.761699 0.516167
O O6 0.847341 0.747684 0.595249
O O7 0.795155 0.000000 0.508306
O O8 0.501613 0.774565 0.195541
O O9 0.338667 0.743245 0.112236
O O10 0.432121 0.000000 0.098082
O O11 0.500000 0.763537 0.000000
O O12 0.680519 0.765205 0.155947
O O13 0.615077 0.729668 0.342315
O O14 0.603107 0.000000 0.253629
O O15 0.234244 0.500000 0.878605
O O16 0.199198 0.731464 0.999359
O O17 0.500000 0.264509 0.500000
O O18 0.390827 0.500000 0.528438
O O19 0.234149 0.500000 0.112000
O O20 0.168544 0.258897 0.204689
O O21 0.109669 0.500000 0.307299
#
# Coordination Sequence:
#
# PCOD9150691 Si02
#       8
#     4   4   4   4   4   4   4   4
#     4  10  21  40  66  90 118 159 204 253 309 364
#     4  12  25  41  64  92 123 158 203 252 301 364
#     4  10  21  37  56  82 118 159 197 235 291 356
#     4  11  22  37  59  87 120 159 201 245 295 357
#     4  10  20  36  61  91 121 158 204 252 301 355
#     4  11  25  43  63  89 122 158 197 244 302 362
#     4  10  22  38  59  90 123 158 205 254 299 356
#     4  10  23  42  62  88 123 162 204 253 309 362
#
# _framework density 19.348580999999999
#
# number of rings (size 3 to 8) (size 9 to 14) (size 15 to 20)
#    0.000    1.500    2.500    2.250    1.750    5.250 
#    0.000    2.500    0.000    0.000    0.000    3.500 
#    0.000    0.000    0.000    0.000    0.000    0.000 
#
# Total GULP energy -178852.882137 kJ/mol
# GULP energy per Si atom -5589.152567 kJ/mol
# Density = 1.930454 g / cm^3
# Si number density = 19.348581 Si / 1000 Ang^3
#
#
#
# Elastic Constant Matrix: (Units=GPa)
#
#
# Indices 1 2 3 4 5 6 
#
# 1 152.9568 31.1115 61.7986 0.0000 14.2979 0.0000
# 2 31.1115 16.1805 19.7881 0.0000 3.8342 0.0000
# 3 61.7986 19.7881 91.6678 0.0000 20.4980 0.0000
# 4 0.0000 0.0000 0.0000 -27.0870 0.0000 20.0402
# 5 14.2979 3.8342 20.4980 0.0000 32.3572 0.0000
# 6 0.0000 0.0000 0.0000 20.0402 0.0000 -12.2023
#
#
#
# Elastic Compliance Matrix: (Units=1/GPa)
#
#
# Indices 1 2 3 4 5 6 
#
# 1 0.011805 -0.017645 -0.004020 0.000000 -0.000579 0.000000
# 2 -0.017645 0.110433 -0.012536 0.000000 0.002653 0.000000
# 3 -0.004020 -0.012536 0.018170 0.000000 -0.008248 0.000000
# 4 0.000000 0.000000 0.000000 0.171653 0.000000 0.281911
# 5 -0.000579 0.002653 -0.008248 0.000000 0.036072 0.000000
# 6 0.000000 0.000000 0.000000 0.281911 0.000000 0.381041
#
#
# Mechanical properties :
#
#
# Convention : Reuss Voigt Hill
#
# Bulk Modulus (GPa) = 13.88794 54.02237 33.95516
# Shear Modulus (GPa) = 6.08585 8.48737 7.28661
#
# Velocity S-wave (km/s) = 1.77544 2.09668 1.94271
# Velocity P-wave (km/s) = 3.37584 5.81744 4.75599
#
# Compressibility (1/GPa) = 0.07200490
#
# Stress axis : x y z
#
# Youngs Moduli (GPa) = 84.70870 9.05524 55.03629
#
# Poissons Ratio (x) = 0.15978 0.22125
# Poissons Ratio (y) = 1.49469 0.68996
# Poissons Ratio (z) = 0.34054 0.11352
#
# Static dielectric constant tensor:
#      x y z
#    x 1.657050 0.000000 0.000580 
#    y 0.000000 1.649110 0.000000 
#    z 0.000580 0.000000 1.669820 
# 
# From -- ./inp_files/49980.got.cif
#   From: 2010.05.17/outbox.cif.g08.bks.cpg/sg10_25_cif.got.tgz:49980.got - 2010.06.03 11:33:40.
