data_PCOD9150319
_publ_section_title
;
Structure prediction by ZEFSAII (Michael W. Deem and Ramdas Pophale) SiO2 
 PCOD9150319
Probable space group: P 2/M
;
_chemical_formula_sum "Si O2"
_cell_formula_units_Z 24
_cell_length_a 12.360699
_cell_length_b 11.920246
_cell_length_c 17.530451
_cell_angle_alpha 90.000000
_cell_angle_beta 148.319965
_cell_angle_gamma 90.000000
_cell_volume 1356.517829
_symmetry_space_group_name_H-M "P 2/M"
_symmetry_group_IT_number 10
_symmetry_cell_setting 'monoclinic'
loop_
_space_group_symop_operation_xyz
x,y,z
-x,y,-z
-x,-y,-z
x,-y,z
loop_
_atom_site_type_symbol
_atom_site_label
_atom_site_fract_x
_atom_site_fract_y
_atom_site_fract_z
Si Si1 0.132314 0.634548 0.655348
Si Si2 0.949874 0.246939 0.235748
Si Si3 0.521198 0.000000 0.134730
Si Si4 0.279713 0.369722 0.328511
Si Si5 0.143797 0.000000 0.787791
Si Si6 0.569887 0.751737 0.893831
Si Si7 0.245725 0.628365 0.139312
O O1 0.137018 0.500000 0.664444
O O2 0.045133 0.686491 0.681512
O O3 0.361642 0.683726 0.784380
O O4 0.000000 0.663042 0.500000
O O5 0.116952 0.297043 0.277879
O O6 0.976618 0.115024 0.269909
O O7 0.726924 0.257008 0.059812
O O8 0.742194 0.000000 0.225448
O O9 0.489822 0.881430 0.156685
O O10 0.337133 0.000000 0.961994
O O11 0.500000 0.369865 0.500000
O O12 0.204020 0.500000 0.278838
O O13 0.316766 0.330034 0.264446
O O14 0.681944 0.701117 0.887738
O O15 0.318516 0.500000 0.171558
O O16 0.000000 0.627144 0.000000
#
# Coordination Sequence:
#
# PCOD9150319 Si02
#       7
#     4   4   2   4   2   4   4
#     4  11  25  38  55  87 122 151 187 244 301 347
#     4  11  21  39  63  86 113 154 203 236 288 351
#     4   9  18  36  58  87 115 153 195 237 296 340
#     4  10  22  38  59  84 117 158 192 234 295 355
#     4   9  18  36  60  84 115 152 193 248 289 332
#     4  11  21  38  63  86 115 154 198 242 286 346
#     4  10  20  36  57  85 116 148 193 243 289 339
#
# _framework density 17.692359
#
# number of rings (size 3 to 8) (size 9 to 14) (size 15 to 20)
#    0.000    1.667    3.333    1.500    2.333    2.667 
#    0.000    3.333    0.000    0.000    0.000    0.000 
#    0.000    0.000    0.000    0.000    0.000    0.000 
#
# Total GULP energy -133904.569991 kJ/mol
# GULP energy per Si atom -5579.357083 kJ/mol
# Density = 1.765209 g / cm^3
# Si number density = 17.692359 Si / 1000 Ang^3
#
#
#
# Elastic Constant Matrix: (Units=GPa)
#
#
# Indices 1 2 3 4 5 6 
#
# 1 105.1360 67.9103 16.9558 0.0000 -18.7634 0.0000
# 2 67.9103 126.4082 27.1984 0.0000 -4.6099 0.0000
# 3 16.9558 27.1984 62.6407 0.0000 -17.1684 0.0000
# 4 0.0000 0.0000 0.0000 13.4108 0.0000 13.3095
# 5 -18.7634 -4.6099 -17.1684 0.0000 31.1130 0.0000
# 6 0.0000 0.0000 0.0000 13.3095 0.0000 8.7254
#
#
#
# Elastic Compliance Matrix: (Units=1/GPa)
#
#
# Indices 1 2 3 4 5 6 
#
# 1 0.016865 -0.009159 0.002153 0.000000 0.010002 0.000000
# 2 -0.009159 0.013724 -0.005227 0.000000 -0.006374 0.000000
# 3 0.002153 -0.005227 0.020965 0.000000 0.012093 0.000000
# 4 0.000000 0.000000 0.000000 -0.145115 0.000000 0.221354
# 5 0.010002 -0.006374 0.012093 0.000000 0.043901 0.000000
# 6 0.000000 0.000000 0.000000 0.221354 0.000000 -0.223039
#
#
# Mechanical properties :
#
#
# Convention : Reuss Voigt Hill
#
# Bulk Modulus (GPa) = 36.91589 57.59042 47.25315
# Shear Modulus (GPa) = -20.90271 22.79119 0.94424
#
# Velocity S-wave (km/s) = -3.44096 3.59304 0.73134
# Velocity P-wave (km/s) = 2.26359 7.05938 5.24208
#
# Compressibility (1/GPa) = 0.02708861
#
# Stress axis : x y z
#
# Youngs Moduli (GPa) = 59.29287 72.86751 47.69862
#
# Poissons Ratio (x) = 0.66740 -0.10270
# Poissons Ratio (y) = 0.54307 0.24930
# Poissons Ratio (z) = -0.12766 0.38085
#
# Static dielectric constant tensor:
#      x y z
#    x 1.594560 0.000000 -0.043740 
#    y 0.000000 1.601400 0.000000 
#    z -0.043740 0.000000 1.669290 
# 
# From -- ./inp_files/42039.got.cif
#   From: 2010.05.17/outbox.cif.g08.bks.cpg/sg10_22_cif.got.tgz:42039.got - 2010.06.03 11:33:40.
