data_PCOD9150499
_publ_section_title
;
Structure prediction by ZEFSAII (Michael W. Deem and Ramdas Pophale) SiO2 
 PCOD9150499
Probable space group: P 2/M
;
_chemical_formula_sum "Si O2"
_cell_formula_units_Z 28
_cell_length_a 14.719445
_cell_length_b 7.283319
_cell_length_c 21.096829
_cell_angle_alpha 90.000000
_cell_angle_beta 146.254383
_cell_angle_gamma 90.000000
_cell_volume 1256.397875
_symmetry_space_group_name_H-M "P 2/M"
_symmetry_group_IT_number 10
_symmetry_cell_setting 'monoclinic'
loop_
_space_group_symop_operation_xyz
x,y,z
-x,y,-z
-x,-y,-z
x,-y,z
loop_
_atom_site_type_symbol
_atom_site_label
_atom_site_fract_x
_atom_site_fract_y
_atom_site_fract_z
Si Si1 0.589765 0.779319 0.619131
Si Si2 0.320364 0.776274 0.917027
Si Si3 0.955064 0.223803 0.339496
Si Si4 0.251535 0.219459 0.665819
Si Si5 0.213476 0.500000 0.072068
Si Si6 0.313983 0.777083 0.558969
Si Si7 0.387409 0.783914 0.093236
Si Si8 0.848586 0.500000 0.814100
O O1 0.500000 0.738070 0.500000
O O2 0.465984 0.720924 0.604076
O O3 0.759513 0.673172 0.729146
O O4 0.613407 0.000000 0.635190
O O5 0.177705 0.714548 0.788192
O O6 0.321934 0.000000 0.915856
O O7 0.500000 0.716192 0.000000
O O8 0.299212 0.725350 0.977757
O O9 0.896627 0.284389 0.375828
O O10 0.138540 0.275365 0.428242
O O11 0.951391 0.000000 0.338915
O O12 0.294481 0.286859 0.620416
O O13 0.418828 0.248403 0.801821
O O14 0.225976 0.000000 0.643718
O O15 0.316534 0.675630 0.110701
O O16 0.192007 0.500000 0.134436
O O17 0.044894 0.500000 0.933672
O O18 0.324052 0.000000 0.566612
O O19 0.367202 0.000000 0.091210
#
# Coordination Sequence:
#
# PCOD9150499 Si02
#       8
#     4   4   4   4   2   4   4   2
#     4  10  22  42  69  96 121 154 201 256 320 386
#     4   9  15  27  48  76 113 159 200 233 282 343
#     4   9  15  24  44  77 115 153 195 237 280 343
#     4   9  15  26  48  76 112 156 192 230 289 348
#     4  11  26  42  61  93 121 158 215 259 310 379
#     4   9  17  28  47  81 115 144 188 241 290 352
#     4  10  20  36  59  85 118 159 204 252 298 354
#     4  11  25  46  66  87 124 161 199 263 327 378
#
# _framework density 22.285931999999999
#
# number of rings (size 3 to 8) (size 9 to 14) (size 15 to 20)
#    0.000    2.429    1.429    1.500    0.000    5.143 
#    0.000    4.643    0.000    0.857    0.000    3.000 
#    0.000    0.000    0.000    0.000    0.000    0.000 
#
# Total GULP energy -156386.692494 kJ/mol
# GULP energy per Si atom -5585.239018 kJ/mol
# Density = 2.223521 g / cm^3
# Si number density = 22.285932 Si / 1000 Ang^3
#
#
#
# Elastic Constant Matrix: (Units=GPa)
#
#
# Indices 1 2 3 4 5 6 
#
# 1 39.8906 6.8491 -13.0568 0.0000 0.6161 0.0000
# 2 6.8491 91.8826 17.4498 0.0000 5.4797 0.0000
# 3 -13.0568 17.4498 84.2142 0.0000 -6.0838 0.0000
# 4 0.0000 0.0000 0.0000 3.2861 0.0000 5.3964
# 5 0.6161 5.4797 -6.0838 0.0000 34.9680 0.0000
# 6 0.0000 0.0000 0.0000 5.3964 0.0000 15.0343
#
#
#
# Elastic Compliance Matrix: (Units=1/GPa)
#
#
# Indices 1 2 3 4 5 6 
#
# 1 0.027175 -0.003006 0.004897 0.000000 0.000844 0.000000
# 2 -0.003006 0.011833 -0.003087 0.000000 -0.002338 0.000000
# 3 0.004897 -0.003087 0.013471 0.000000 0.002741 0.000000
# 4 0.000000 0.000000 0.000000 0.741184 0.000000 -0.266039
# 5 0.000844 -0.002338 0.002741 0.000000 0.029426 0.000000
# 6 0.000000 0.000000 0.000000 -0.266039 0.000000 0.162006
#
#
# Mechanical properties :
#
#
# Convention : Reuss Voigt Hill
#
# Bulk Modulus (GPa) = 19.96509 26.49684 23.23097
# Shear Modulus (GPa) = 4.97917 24.30738 14.64327
#
# Velocity S-wave (km/s) = 1.49635 3.30617 2.56611
# Velocity P-wave (km/s) = 3.45883 5.14681 4.38481
#
# Compressibility (1/GPa) = 0.05008743
#
# Stress axis : x y z
#
# Youngs Moduli (GPa) = 36.79919 84.50776 74.23128
#
# Poissons Ratio (x) = 0.25403 -0.36352
# Poissons Ratio (y) = 0.11062 0.22915
# Poissons Ratio (z) = -0.18021 0.26087
#
# Static dielectric constant tensor:
#      x y z
#    x 1.781390 0.000000 -0.026290 
#    y 0.000000 1.838090 0.000000 
#    z -0.026290 0.000000 1.819110 
# 
# From -- ./inp_files/85040.got.cif
#   From: 2010.05.17/outbox.cif.g08.bks.cpg/sg10_43_cif.got.tgz:85040.got - 2010.06.03 11:33:40.
