data_PCOD9150920
_publ_section_title
;
Structure prediction by ZEFSAII (Michael W. Deem and Ramdas Pophale) SiO2 
 PCOD9150920
Probable space group: P 2/M
;
_chemical_formula_sum "Si O2"
_cell_formula_units_Z 32
_cell_length_a 23.254434
_cell_length_b 8.761352
_cell_length_c 11.280684
_cell_angle_alpha 90.000000
_cell_angle_beta 44.015389
_cell_angle_gamma 90.000000
_cell_volume 1596.997985
_symmetry_space_group_name_H-M "P 2/M"
_symmetry_group_IT_number 10
_symmetry_cell_setting 'monoclinic'
loop_
_space_group_symop_operation_xyz
x,y,z
-x,y,-z
-x,-y,-z
x,-y,z
loop_
_atom_site_type_symbol
_atom_site_label
_atom_site_fract_x
_atom_site_fract_y
_atom_site_fract_z
Si Si1 0.340905 0.682209 0.887792
Si Si2 0.089066 0.678413 0.159632
Si Si3 0.826078 0.321792 0.718155
Si Si4 0.470621 0.180291 0.862736
Si Si5 0.384594 0.320714 0.215502
Si Si6 0.248738 0.819430 0.805440
Si Si7 0.087626 0.179247 0.630500
Si Si8 0.781314 0.680108 0.402275
O O1 0.350684 0.500000 0.869597
O O2 0.422007 0.760635 0.820372
O O3 0.313143 0.744328 0.801567
O O4 0.263172 0.713767 0.091910
O O5 0.101592 0.500000 0.111081
O O6 0.108784 0.692954 0.270341
O O7 0.997874 0.731916 0.262504
O O8 0.158120 0.776944 0.990655
O O9 0.824881 0.500000 0.681475
O O10 0.854727 0.218617 0.567863
O O11 0.554949 0.269583 0.767595
O O12 0.485234 0.000000 0.836732
O O13 0.412307 0.222708 0.061628
O O14 0.397367 0.500000 0.169417
O O15 0.290746 0.298931 0.393565
O O16 0.251559 0.749232 0.670980
O O17 0.260427 0.000000 0.785252
O O18 0.136643 0.237776 0.672780
O O19 0.072032 0.000000 0.660631
O O20 0.796192 0.500000 0.366506
#
# Coordination Sequence:
#
# PCOD9150920 Si02
#       8
#     4   4   4   4   4   4   4   4
#     4  10  20  37  60  84 114 153 194 228 270 335
#     4  10  21  39  60  81 111 151 192 230 275 336
#     4   9  19  35  56  82 113 150 187 227 277 334
#     4  11  21  34  58  91 123 150 182 229 283 332
#     4  10  21  38  60  85 116 153 190 228 275 337
#     4  11  23  40  61  85 113 143 184 238 288 330
#     4  12  24  35  54  85 116 146 185 236 288 334
#     4  11  24  42  61  80 108 150 194 231 276 336
#
# _framework density 20.037597000000002
#
# number of rings (size 3 to 8) (size 9 to 14) (size 15 to 20)
#    0.000    1.500    0.000    7.500    0.000   10.000 
#    0.000    3.125    0.000    3.750    0.000    0.000 
#    0.000    0.000    0.000    0.000    0.000    0.000 
#
# Total GULP energy -178973.404889 kJ/mol
# GULP energy per Si atom -5592.918903 kJ/mol
# Density = 1.999199 g / cm^3
# Si number density = 20.037597 Si / 1000 Ang^3
#
#
#
# Elastic Constant Matrix: (Units=GPa)
#
#
# Indices 1 2 3 4 5 6 
#
# 1 93.2257 4.4933 -1.9930 0.0000 -14.4594 0.0000
# 2 4.4933 53.2920 -1.7633 0.0000 -2.8103 0.0000
# 3 -1.9930 -1.7633 7.3160 0.0000 2.9237 0.0000
# 4 0.0000 0.0000 0.0000 29.9168 0.0000 4.3137
# 5 -14.4594 -2.8103 2.9237 0.0000 19.7312 0.0000
# 6 0.0000 0.0000 0.0000 4.3137 0.0000 30.0337
#
#
#
# Elastic Compliance Matrix: (Units=1/GPa)
#
#
# Indices 1 2 3 4 5 6 
#
# 1 0.012120 -0.000567 -0.000374 0.000000 0.008856 0.000000
# 2 -0.000567 0.019028 0.003736 0.000000 0.001741 0.000000
# 3 -0.000374 0.003736 0.146030 0.000000 -0.021381 0.000000
# 4 0.000000 0.000000 0.000000 0.034133 0.000000 -0.004902
# 5 0.008856 0.001741 -0.021381 0.000000 0.060587 0.000000
# 6 0.000000 0.000000 0.000000 -0.004902 0.000000 0.034000
#
#
# Mechanical properties :
#
#
# Convention : Reuss Voigt Hill
#
# Bulk Modulus (GPa) = 5.47147 17.25641 11.36394
# Shear Modulus (GPa) = 13.84155 26.14278 19.99216
#
# Velocity S-wave (km/s) = 2.63112 3.61596 3.16212
# Velocity P-wave (km/s) = 3.45932 5.10532 4.36069
#
# Compressibility (1/GPa) = 0.18276613
#
# Stress axis : x y z
#
# Youngs Moduli (GPa) = 82.51098 52.55469 6.84790
#
# Poissons Ratio (x) = 0.02981 0.00256
# Poissons Ratio (y) = 0.04680 -0.02558
# Poissons Ratio (z) = 0.03089 -0.19634
#
# Static dielectric constant tensor:
#      x y z
#    x 1.711730 0.000000 0.007550 
#    y 0.000000 1.662240 0.000000 
#    z 0.007550 0.000000 1.701000 
# 
# From -- ./inp_files/55256.got.cif
#   From: 2010.05.17/outbox.cif.g08.bks.cpg/sg10_28_cif.got.tgz:55256.got - 2010.06.03 11:33:40.
