data_PCOD9150071
_publ_section_title
;
Structure prediction by ZEFSAII (Michael W. Deem and Ramdas Pophale) SiO2 
 PCOD9150071
Probable space group: P 2/M
;
_chemical_formula_sum "Si O2"
_cell_formula_units_Z 24
_cell_length_a 10.581514
_cell_length_b 13.960748
_cell_length_c 18.932292
_cell_angle_alpha 90.000000
_cell_angle_beta 158.274973
_cell_angle_gamma 90.000000
_cell_volume 1035.238613
_symmetry_space_group_name_H-M "P 2/M"
_symmetry_group_IT_number 10
_symmetry_cell_setting 'monoclinic'
loop_
_space_group_symop_operation_xyz
x,y,z
-x,y,-z
-x,-y,-z
x,-y,z
loop_
_atom_site_type_symbol
_atom_site_label
_atom_site_fract_x
_atom_site_fract_y
_atom_site_fract_z
Si Si1 0.417084 0.389219 0.037682
Si Si2 0.387351 0.105266 0.227827
Si Si3 0.606152 0.395151 0.636368
Si Si4 0.391431 0.788377 0.785241
Si Si5 0.722375 0.808419 0.520739
Si Si6 0.152961 0.111421 0.867333
O O1 0.521775 0.500000 0.095231
O O2 0.604559 0.322230 0.190593
O O3 0.500000 0.355983 0.000000
O O4 0.015380 0.382758 0.846881
O O5 0.568910 0.186280 0.275340
O O6 0.437321 0.125233 0.336613
O O7 0.528946 0.000000 0.284264
O O8 0.000000 0.105962 0.000000
O O9 0.500000 0.402696 0.500000
O O10 0.528352 0.500000 0.629479
O O11 0.409095 0.300092 0.557998
O O12 0.051848 0.830226 0.643407
O O13 0.712688 0.835160 0.993362
O O14 0.862509 0.832548 0.671755
O O15 0.064481 0.000000 0.831807
O O16 0.500000 0.112290 0.000000
#
# Coordination Sequence:
#
# PCOD9150071 Si02
#       6
#     4   4   4   4   4   4
#     4  10  20  36  60  89 121 158 198 241 294 355
#     4  11  25  43  61  84 120 164 205 247 298 357
#     4  10  20  35  58  89 124 158 194 243 299 354
#     4  11  21  37  61  88 119 157 200 248 299 355
#     4  11  22  37  61  91 121 156 199 247 301 357
#     4   9  18  33  56  87 119 151 194 247 298 351
#
# _framework density 23.183060999999999
#
# number of rings (size 3 to 8) (size 9 to 14) (size 15 to 20)
#    0.000    1.667    0.000    6.000    0.000    4.667 
#    0.000    0.833    0.000   10.500    0.000    0.000 
#    0.000    0.000    0.000    0.000    0.000    0.000 
#
# Total GULP energy -134165.362308 kJ/mol
# GULP energy per Si atom -5590.223430 kJ/mol
# Density = 2.313029 g / cm^3
# Si number density = 23.183061 Si / 1000 Ang^3
#
#
#
# Elastic Constant Matrix: (Units=GPa)
#
#
# Indices 1 2 3 4 5 6 
#
# 1 72.1018 27.9070 19.3605 0.0000 -14.2485 0.0000
# 2 27.9070 138.2680 28.7603 0.0000 -7.9495 0.0000
# 3 19.3605 28.7603 116.6067 0.0000 -9.5106 0.0000
# 4 0.0000 0.0000 0.0000 22.5986 0.0000 5.8789
# 5 -14.2485 -7.9495 -9.5106 0.0000 41.6391 0.0000
# 6 0.0000 0.0000 0.0000 5.8789 0.0000 29.0226
#
#
#
# Elastic Compliance Matrix: (Units=1/GPa)
#
#
# Indices 1 2 3 4 5 6 
#
# 1 0.016274 -0.002670 -0.001662 0.000000 0.004679 0.000000
# 2 -0.002670 0.008106 -0.001533 0.000000 0.000284 0.000000
# 3 -0.001662 -0.001533 0.009333 0.000000 0.001270 0.000000
# 4 0.000000 0.000000 0.000000 0.046712 0.000000 -0.009462
# 5 0.004679 0.000284 0.001270 0.000000 0.025962 0.000000
# 6 0.000000 0.000000 0.000000 -0.009462 0.000000 0.036373
#
#
# Mechanical properties :
#
#
# Convention : Reuss Voigt Hill
#
# Bulk Modulus (GPa) = 45.48713 53.22579 49.35646
# Shear Modulus (GPa) = 30.89914 35.38197 33.14055
#
# Velocity S-wave (km/s) = 3.65476 3.91090 3.78500
# Velocity P-wave (km/s) = 6.12153 6.58804 6.35906
#
# Compressibility (1/GPa) = 0.02198424
#
# Stress axis : x y z
#
# Youngs Moduli (GPa) = 61.44932 123.35968 107.14136
#
# Poissons Ratio (x) = 0.32935 0.17805
# Poissons Ratio (y) = 0.16406 0.16424
# Poissons Ratio (z) = 0.10212 0.18910
#
# Static dielectric constant tensor:
#      x y z
#    x 1.904440 0.000000 0.116700 
#    y 0.000000 1.898690 0.000000 
#    z 0.116700 0.000000 2.009220 
# 
# From -- ./inp_files/84152.got.cif
#   From: 2010.05.17/outbox.cif.g08.bks.cpg/sg10_43_cif.got.tgz:84152.got - 2010.06.03 11:33:40.
