data_PCOD9150990
_publ_section_title
;
Structure prediction by ZEFSAII (Michael W. Deem and Ramdas Pophale) SiO2 
 PCOD9150990
Probable space group: P 2/M
;
_chemical_formula_sum "Si O2"
_cell_formula_units_Z 32
_cell_length_a 11.817386
_cell_length_b 9.114073
_cell_length_c 29.373990
_cell_angle_alpha 90.000000
_cell_angle_beta 31.502761
_cell_angle_gamma 90.000000
_cell_volume 1653.164681
_symmetry_space_group_name_H-M "P 2/M"
_symmetry_group_IT_number 10
_symmetry_cell_setting 'monoclinic'
loop_
_space_group_symop_operation_xyz
x,y,z
-x,y,-z
-x,-y,-z
x,-y,z
loop_
_atom_site_type_symbol
_atom_site_label
_atom_site_fract_x
_atom_site_fract_y
_atom_site_fract_z
Si Si1 0.634300 0.173894 0.695680
Si Si2 0.081589 0.329164 0.547309
Si Si3 0.117899 0.824855 0.725748
Si Si4 0.483208 0.328301 0.660090
Si Si5 0.898821 0.675526 0.962527
Si Si6 0.253271 0.176079 0.077482
Si Si7 0.342670 0.324413 0.864039
Si Si8 0.758565 0.171976 0.418012
O O1 0.489620 0.240237 0.704787
O O2 0.542965 0.238800 0.774134
O O3 0.876068 0.232304 0.604875
O O4 0.626399 0.000000 0.698347
O O5 0.017361 0.500000 0.570006
O O6 0.282712 0.313705 0.444086
O O7 0.162640 0.274434 0.568557
O O8 0.305813 0.737700 0.687167
O O9 0.127465 0.792296 0.668932
O O10 0.894356 0.790961 0.827970
O O11 0.159976 0.000000 0.715800
O O12 0.441911 0.500000 0.682968
O O13 0.892841 0.500000 0.958121
O O14 0.851827 0.753817 0.931339
O O15 0.131060 0.709743 0.905664
O O16 0.721984 0.713415 0.062086
O O17 0.255062 0.000000 0.071074
O O18 0.500000 0.226154 0.000000
O O19 0.377577 0.500000 0.849587
O O20 0.500000 0.187142 0.500000
O O21 0.800634 0.000000 0.414841
#
# Coordination Sequence:
#
# PCOD9150990 Si02
#       8
#     4   4   4   4   4   4   4   4
#     4  12  25  38  57  86 119 154 195 239 291 353
#     4  11  24  40  59  84 117 155 195 242 295 350
#     4  10  21  38  61  87 116 155 199 241 293 349
#     4  11  23  39  60  85 116 152 194 243 294 349
#     4   9  19  37  62  87 113 149 191 235 288 347
#     4  10  22  38  55  81 119 156 192 239 289 339
#     4   9  19  38  61  86 117 149 185 236 293 348
#     4  10  20  37  61  86 116 152 195 246 291 342
#
# _framework density 19.356812999999999
#
# number of rings (size 3 to 8) (size 9 to 14) (size 15 to 20)
#    0.000    1.750    1.250    3.750    0.000    8.500 
#    0.000    2.500    0.000    0.000    0.000    0.000 
#    0.000    0.000    0.000    0.000    0.000    0.000 
#
# Total GULP energy -178862.479587 kJ/mol
# GULP energy per Si atom -5589.452487 kJ/mol
# Density = 1.931276 g / cm^3
# Si number density = 19.356813 Si / 1000 Ang^3
#
#
#
# Elastic Constant Matrix: (Units=GPa)
#
#
# Indices 1 2 3 4 5 6 
#
# 1 42.9843 14.8146 12.1047 0.0000 21.0495 0.0000
# 2 14.8146 56.1131 40.3066 0.0000 11.8172 0.0000
# 3 12.1047 40.3066 85.8456 0.0000 19.3067 0.0000
# 4 0.0000 0.0000 0.0000 27.1205 0.0000 -0.3487
# 5 21.0495 11.8172 19.3067 0.0000 28.4539 0.0000
# 6 0.0000 0.0000 0.0000 -0.3487 0.0000 28.9969
#
#
#
# Elastic Compliance Matrix: (Units=1/GPa)
#
#
# Indices 1 2 3 4 5 6 
#
# 1 0.038456 -0.007341 0.004410 0.000000 -0.028392 0.000000
# 2 -0.007341 0.028521 -0.012879 0.000000 0.002324 0.000000
# 3 0.004410 -0.012879 0.019595 0.000000 -0.011209 0.000000
# 4 0.000000 0.000000 0.000000 0.036878 0.000000 0.000444
# 5 -0.028392 0.002324 -0.011209 0.000000 0.062789 0.000000
# 6 0.000000 0.000000 0.000000 0.000444 0.000000 0.034492
#
#
# Mechanical properties :
#
#
# Convention : Reuss Voigt Hill
#
# Bulk Modulus (GPa) = 18.19785 35.48830 26.84308
# Shear Modulus (GPa) = 18.47277 24.76208 21.61742
#
# Velocity S-wave (km/s) = 3.09257 3.58053 3.34546
# Velocity P-wave (km/s) = 4.70889 5.95543 5.36847
#
# Compressibility (1/GPa) = 0.05495154
#
# Stress axis : x y z
#
# Youngs Moduli (GPa) = 26.00345 35.06213 51.03376
#
# Poissons Ratio (x) = 0.25740 -0.22505
# Poissons Ratio (y) = 0.19090 0.65726
# Poissons Ratio (z) = -0.11467 0.45156
#
# Static dielectric constant tensor:
#      x y z
#    x 1.649650 0.000000 0.003620 
#    y 0.000000 1.642710 0.000000 
#    z 0.003620 0.000000 1.697520 
# 
# From -- ./inp_files/58358.got.cif
#   From: 2010.05.17/outbox.cif.g08.bks.cpg/sg10_30_cif.got.tgz:58358.got - 2010.06.03 11:33:40.
