data_PCOD9150095
_publ_section_title
;
Structure prediction by ZEFSAII (Michael W. Deem and Ramdas Pophale) SiO2 
 PCOD9150095
Probable space group: P 2/M
;
_chemical_formula_sum "Si O2"
_cell_formula_units_Z 21
_cell_length_a 7.963603
_cell_length_b 7.533824
_cell_length_c 14.490809
_cell_angle_alpha 90.000000
_cell_angle_beta 97.952482
_cell_angle_gamma 90.000000
_cell_volume 861.035281
_symmetry_space_group_name_H-M "P 2/M"
_symmetry_group_IT_number 10
_symmetry_cell_setting 'monoclinic'
loop_
_space_group_symop_operation_xyz
x,y,z
-x,y,-z
-x,-y,-z
x,-y,z
loop_
_atom_site_type_symbol
_atom_site_label
_atom_site_fract_x
_atom_site_fract_y
_atom_site_fract_z
Si Si1 0.180500 0.712946 0.971590
Si Si2 0.504957 0.214386 0.638296
Si Si3 0.704432 0.208719 0.832539
Si Si4 0.939491 0.298993 0.222360
Si Si5 0.500000 0.500000 0.500000
Si Si6 0.124162 0.202518 0.583763
O O1 0.170017 0.500000 0.963660
O O2 0.185487 0.777814 0.866352
O O3 0.317926 0.752997 0.060653
O O4 0.000000 0.778576 0.000000
O O5 0.561859 0.253213 0.747147
O O6 0.592759 0.341224 0.570938
O O7 0.311077 0.278099 0.611173
O O8 0.523938 0.000000 0.624625
O O9 0.876317 0.301212 0.811116
O O10 0.735042 0.000000 0.826652
O O11 0.888198 0.500000 0.240267
O O12 0.952285 0.200510 0.319707
O O13 0.000000 0.287739 0.500000
O O14 0.153519 0.000000 0.554541
#
# Coordination Sequence:
#
# PCOD9150095 Si02
#       6
#     4   4   4   4   1   4
#     4   8  16  32  53  83 118 149 191 247 286 339
#     4  10  25  43  60  92 123 147 204 254 287 358
#     4  10  20  35  59  87 119 154 191 247 298 345
#     4  10  21  35  58  88 118 152 200 244 286 354
#     4  12  26  40  70  86 112 176 190 238 318 346
#     4  10  23  42  60  80 117 158 192 244 299 347
#
# _framework density 24.389243
#
# number of rings (size 3 to 8) (size 9 to 14) (size 15 to 20)
#    0.000    2.286    0.000    2.571    6.667    4.571 
#    0.000    0.952    0.000    5.714    0.000    0.000 
#    0.000    0.000    0.000    0.000    0.000    0.000 
#
# Total GULP energy -116945.501122 kJ/mol
# GULP energy per Si atom -5568.833387 kJ/mol
# Density = 2.433373 g / cm^3
# Si number density = 24.389243 Si / 1000 Ang^3
#
#
#
# Elastic Constant Matrix: (Units=GPa)
#
#
# Indices 1 2 3 4 5 6 
#
# 1 47.6850 2.2683 53.6605 0.0000 21.3149 0.0000
# 2 2.2683 99.8951 31.9536 0.0000 14.4771 0.0000
# 3 53.6605 31.9536 238.8297 0.0000 53.3211 0.0000
# 4 0.0000 0.0000 0.0000 -2.1967 0.0000 29.9986
# 5 21.3149 14.4771 53.3211 0.0000 40.0824 0.0000
# 6 0.0000 0.0000 0.0000 29.9986 0.0000 -7.7230
#
#
#
# Elastic Compliance Matrix: (Units=1/GPa)
#
#
# Indices 1 2 3 4 5 6 
#
# 1 0.031288 0.002452 -0.004901 0.000000 -0.011004 0.000000
# 2 0.002452 0.010864 -0.001191 0.000000 -0.003643 0.000000
# 3 -0.004901 -0.001191 0.006785 0.000000 -0.005989 0.000000
# 4 0.000000 0.000000 0.000000 0.008747 0.000000 0.033975
# 5 -0.011004 -0.003643 -0.005989 0.000000 0.040084 0.000000
# 6 0.000000 0.000000 0.000000 0.033975 0.000000 0.002488
#
#
# Mechanical properties :
#
#
# Convention : Reuss Voigt Hill
#
# Bulk Modulus (GPa) = 24.00576 62.46386 43.23481
# Shear Modulus (GPa) = 41.17895 25.93436 33.55666
#
# Velocity S-wave (km/s) = 4.11348 3.26445 3.71331
# Velocity P-wave (km/s) = 5.69430 6.31472 6.01252
#
# Compressibility (1/GPa) = 0.04165668
#
# Stress axis : x y z
#
# Youngs Moduli (GPa) = 31.96067 92.04880 147.38859
#
# Poissons Ratio (x) = -0.22571 0.72238
# Poissons Ratio (y) = -0.07837 0.17554
# Poissons Ratio (z) = 0.15665 0.10963
#
# Static dielectric constant tensor:
#      x y z
#    x 2.065340 0.000000 -0.044000 
#    y 0.000000 1.944760 0.000000 
#    z -0.044000 0.000000 2.048180 
# 
# From -- ./inp_files/60148.got.cif
#   From: 2010.05.17/outbox.cif.g08.bks.cpg/sg10_31_cif.got.tgz:60148.got - 2010.06.03 11:33:40.
