data_PCOD9150181
_publ_section_title
;
Structure prediction by ZEFSAII (Michael W. Deem and Ramdas Pophale) SiO2 
 PCOD9150181
Probable space group: P 2/M
;
_chemical_formula_sum "Si O2"
_cell_formula_units_Z 24
_cell_length_a 9.830978
_cell_length_b 7.289894
_cell_length_c 25.098351
_cell_angle_alpha 90.000000
_cell_angle_beta 41.034356
_cell_angle_gamma 90.000000
_cell_volume 1180.879093
_symmetry_space_group_name_H-M "P 2/M"
_symmetry_group_IT_number 10
_symmetry_cell_setting 'monoclinic'
loop_
_space_group_symop_operation_xyz
x,y,z
-x,y,-z
-x,-y,-z
x,-y,z
loop_
_atom_site_type_symbol
_atom_site_label
_atom_site_fract_x
_atom_site_fract_y
_atom_site_fract_z
Si Si1 0.244361 0.000000 0.915429
Si Si2 0.575183 0.279310 0.309259
Si Si3 0.941489 0.718328 0.848670
Si Si4 0.897642 0.722282 0.742284
Si Si5 0.475509 0.721681 0.224351
Si Si6 0.372667 0.275848 0.589013
Si Si7 0.310793 0.000000 0.015100
O O1 0.325653 0.175681 0.858645
O O2 0.357475 0.000000 0.939287
O O3 0.000000 0.000000 0.000000
O O4 0.560131 0.500000 0.315897
O O5 0.450443 0.223273 0.293721
O O6 0.533278 0.215688 0.381768
O O7 0.815473 0.236115 0.226075
O O8 0.921215 0.500000 0.860595
O O9 0.852985 0.774010 0.816721
O O10 0.827062 0.824240 0.928838
O O11 0.901694 0.500000 0.741002
O O12 0.722188 0.776712 0.752602
O O13 0.131402 0.780663 0.659098
O O14 0.499930 0.500000 0.214495
O O15 0.500000 0.215862 0.500000
O O16 0.373319 0.500000 0.588755
O O17 0.500000 0.000000 0.000000
#
# Coordination Sequence:
#
# PCOD9150181 Si02
#       7
#     2   4   4   4   4   4   2
#     4  12  26  38  52  78 103 129 168 211 267 314
#     4   8  15  29  50  71  95 134 172 198 240 299
#     4   9  18  34  51  68  95 130 166 203 245 298
#     4   8  15  29  50  73 100 138 174 203 247 300
#     4  10  20  36  54  73 101 135 173 211 245 299
#     4   8  13  24  46  79 112 134 163 211 252 287
#     4  12  24  34  50  76  97 121 164 209 255 306
#
# _framework density 20.323841000000002
#
# number of rings (size 3 to 8) (size 9 to 14) (size 15 to 20)
#    0.000    2.833    0.000    4.000    0.000    1.333 
#    0.000    0.833    0.000    5.000    0.000   22.167 
#    0.000    0.000    0.000    0.000    0.000    0.000 
#
# Total GULP energy -133928.840186 kJ/mol
# GULP energy per Si atom -5580.368341 kJ/mol
# Density = 2.027758 g / cm^3
# Si number density = 20.323841 Si / 1000 Ang^3
#
#
#
# Elastic Constant Matrix: (Units=GPa)
#
#
# Indices 1 2 3 4 5 6 
#
# 1 118.5776 10.6062 32.9063 0.0000 31.4476 0.0000
# 2 10.6062 87.3720 22.0921 0.0000 4.2666 0.0000
# 3 32.9063 22.0921 105.1134 0.0000 28.4639 0.0000
# 4 0.0000 0.0000 0.0000 27.1101 0.0000 -5.2881
# 5 31.4476 4.2666 28.4639 0.0000 32.7888 0.0000
# 6 0.0000 0.0000 0.0000 -5.2881 0.0000 2.7227
#
#
#
# Elastic Compliance Matrix: (Units=1/GPa)
#
#
# Indices 1 2 3 4 5 6 
#
# 1 0.011403 -0.000722 -0.000630 0.000000 -0.010296 0.000000
# 2 -0.000722 0.012151 -0.002728 0.000000 0.001480 0.000000
# 3 -0.000630 -0.002728 0.013105 0.000000 -0.010417 0.000000
# 4 0.000000 0.000000 0.000000 0.059385 0.000000 0.115339
# 5 -0.010296 0.001480 -0.010417 0.000000 0.049224 0.000000
# 6 0.000000 0.000000 0.000000 0.115339 0.000000 0.591299
#
#
# Mechanical properties :
#
#
# Convention : Reuss Voigt Hill
#
# Bulk Modulus (GPa) = 35.09050 49.14137 42.11594
# Shear Modulus (GPa) = 6.62930 28.88821 17.75875
#
# Velocity S-wave (km/s) = 1.80801 3.77423 2.95920
# Velocity P-wave (km/s) = 4.65422 6.57455 5.69590
#
# Compressibility (1/GPa) = 0.02849774
#
# Stress axis : x y z
#
# Youngs Moduli (GPa) = 87.69398 82.30046 76.30594
#
# Poissons Ratio (x) = 0.05944 0.04807
# Poissons Ratio (y) = 0.06333 0.20820
# Poissons Ratio (z) = 0.05525 0.22455
#
# Static dielectric constant tensor:
#      x y z
#    x 1.744510 0.000000 0.018220 
#    y 0.000000 1.770550 0.000000 
#    z 0.018220 0.000000 1.675750 
# 
# From -- ./inp_files/81956.got.cif
#   From: 2010.05.17/outbox.cif.g08.bks.cpg/sg10_41_cif.got.tgz:81956.got - 2010.06.03 11:33:40.
