data_PCOD9150015
_publ_section_title
;
Structure prediction by ZEFSAII (Michael W. Deem and Ramdas Pophale) SiO2 
 PCOD9150015
Probable space group: P 2/M
;
_chemical_formula_sum "Si O2"
_cell_formula_units_Z 30
_cell_length_a 25.448719
_cell_length_b 8.900828
_cell_length_c 5.417238
_cell_angle_alpha 90.000000
_cell_angle_beta 95.121197
_cell_angle_gamma 90.000000
_cell_volume 1222.185498
_symmetry_space_group_name_H-M "P 2/M"
_symmetry_group_IT_number 10
_symmetry_cell_setting 'monoclinic'
loop_
_space_group_symop_operation_xyz
x,y,z
-x,y,-z
-x,-y,-z
x,-y,z
loop_
_atom_site_type_symbol
_atom_site_label
_atom_site_fract_x
_atom_site_fract_y
_atom_site_fract_z
Si Si1 0.210203 0.675200 0.802530
Si Si2 0.534263 0.663634 0.726694
Si Si3 0.352186 0.659630 0.487382
Si Si4 0.855981 0.323495 0.713186
Si Si5 0.034941 0.500000 0.762891
Si Si6 0.707195 0.835603 0.873233
Si Si7 0.598512 0.158746 0.088705
Si Si8 0.060848 0.173723 0.947252
O O1 0.224645 0.500000 0.779581
O O2 0.176440 0.717434 0.546692
O O3 0.178481 0.687544 0.049201
O O4 0.259960 0.780729 0.878491
O O5 0.500000 0.746291 0.500000
O O6 0.509778 0.500000 0.744296
O O7 0.593139 0.644362 0.638526
O O8 0.552326 0.731137 0.994095
O O9 0.345554 0.500000 0.619873
O O10 0.298439 0.699267 0.321855
O O11 0.367397 0.794487 0.667079
O O12 0.872224 0.500000 0.694388
O O13 0.904417 0.214753 0.797291
O O14 0.000000 0.500000 0.500000
O O15 0.064683 0.334541 0.790845
O O16 0.000000 0.500000 0.000000
O O17 0.726270 0.000000 0.797502
O O18 0.645175 0.851156 0.908244
O O19 0.572643 0.000000 0.113080
O O20 0.074620 0.000000 0.864595
O O21 0.000000 0.166059 0.000000
#
# Coordination Sequence:
#
# PCOD9150015 Si02
#       8
#     4   4   4   4   2   4   4   4
#     4  10  23  41  64  93 127 167 212 262 320 384
#     4   9  19  36  55  78 110 147 191 240 292 353
#     4  10  20  35  58  83 109 147 195 245 296 357
#     4  10  22  42  64  93 131 170 213 263 321 383
#     4  10  22  40  64  94 130 172 216 268 324 376
#     4  10  22  39  58  83 116 153 196 247 304 365
#     4  10  21  36  55  82 113 148 190 239 298 363
#     4  10  22  42  69 101 135 176 225 272 327 391
#
# _framework density 24.546192000000001
#
# number of rings (size 3 to 8) (size 9 to 14) (size 15 to 20)
#    0.000    2.133    0.667    1.200    1.867    6.400 
#    0.000    5.333    0.000    0.000    0.000    0.000 
#    0.000    0.000    0.000    0.000    0.000    0.000 
#
# Total GULP energy -167143.858033 kJ/mol
# GULP energy per Si atom -5571.461934 kJ/mol
# Density = 2.449032 g / cm^3
# Si number density = 24.546192 Si / 1000 Ang^3
#
#
#
# Elastic Constant Matrix: (Units=GPa)
#
#
# Indices 1 2 3 4 5 6 
#
# 1 85.2508 18.9422 30.3720 0.0000 29.3282 0.0000
# 2 18.9422 127.9553 40.2489 0.0000 31.2623 0.0000
# 3 30.3720 40.2489 142.9288 0.0000 42.1410 0.0000
# 4 0.0000 0.0000 0.0000 86.4673 0.0000 56.0973
# 5 29.3282 31.2623 42.1410 0.0000 46.3274 0.0000
# 6 0.0000 0.0000 0.0000 56.0973 0.0000 48.1209
#
#
#
# Elastic Compliance Matrix: (Units=1/GPa)
#
#
# Indices 1 2 3 4 5 6 
#
# 1 0.015029 0.000180 -0.000551 0.000000 -0.009135 0.000000
# 2 0.000180 0.009479 -0.001077 0.000000 -0.005531 0.000000
# 3 -0.000551 -0.001077 0.009702 0.000000 -0.007749 0.000000
# 4 0.000000 0.000000 0.000000 0.047458 0.000000 -0.055324
# 5 -0.009135 -0.005531 -0.007749 0.000000 0.038150 0.000000
# 6 0.000000 0.000000 0.000000 -0.055324 0.000000 0.085276
#
#
# Mechanical properties :
#
#
# Convention : Reuss Voigt Hill
#
# Bulk Modulus (GPa) = 31.93466 59.47345 45.70406
# Shear Modulus (GPa) = 22.89109 53.95456 38.42282
#
# Velocity S-wave (km/s) = 3.05712 4.69346 3.96071
# Velocity P-wave (km/s) = 5.04971 7.32483 6.29098
#
# Compressibility (1/GPa) = 0.03131394
#
# Stress axis : x y z
#
# Youngs Moduli (GPa) = 66.53851 105.50123 103.07505
#
# Poissons Ratio (x) = -0.01902 0.05681
# Poissons Ratio (y) = -0.01200 0.11099
# Poissons Ratio (z) = 0.03667 0.11360
#
# Static dielectric constant tensor:
#      x y z
#    x 2.032420 0.000000 -0.135020 
#    y 0.000000 2.074370 0.000000 
#    z -0.135020 0.000000 2.019390 
# 
# From -- ./inp_files/13672.got.cif
#   From: 2010.05.17/outbox.cif.g08.bks.cpg/sg10_7_cif.got.tgz:13672.got - 2010.06.03 11:33:40.
