data_PCOD9150486
_publ_section_title
;
Structure prediction by ZEFSAII (Michael W. Deem and Ramdas Pophale) SiO2 
 PCOD9150486
Probable space group: P 2/M
;
_chemical_formula_sum "Si O2"
_cell_formula_units_Z 32
_cell_length_a 13.183821
_cell_length_b 14.675875
_cell_length_c 8.659567
_cell_angle_alpha 90.000000
_cell_angle_beta 84.251840
_cell_angle_gamma 90.000000
_cell_volume 1667.063805
_symmetry_space_group_name_H-M "P 2/M"
_symmetry_group_IT_number 10
_symmetry_cell_setting 'monoclinic'
loop_
_space_group_symop_operation_xyz
x,y,z
-x,y,-z
-x,-y,-z
x,-y,z
loop_
_atom_site_type_symbol
_atom_site_label
_atom_site_fract_x
_atom_site_fract_y
_atom_site_fract_z
Si Si1 0.460418 0.609883 0.340821
Si Si2 0.879297 0.106884 0.051497
Si Si3 0.212207 0.106542 0.268561
Si Si4 0.112035 0.726873 0.424709
Si Si5 0.620005 0.891720 0.507819
Si Si6 0.743483 0.606068 0.768609
Si Si7 0.658452 0.605255 0.127742
Si Si8 0.766408 0.762417 0.298524
O O1 0.500000 0.643272 0.500000
O O2 0.450913 0.500000 0.352195
O O3 0.348097 0.644327 0.322907
O O4 0.541101 0.625972 0.191476
O O5 0.843881 0.175422 0.189226
O O6 0.865880 0.000000 0.096028
O O7 0.808370 0.123882 0.910137
O O8 0.000000 0.119721 0.000000
O O9 0.130994 0.169587 0.368305
O O10 0.322752 0.124863 0.333871
O O11 0.191206 0.000000 0.295449
O O12 0.156652 0.664436 0.281173
O O13 0.180680 0.715515 0.564653
O O14 0.000000 0.707757 0.500000
O O15 0.500000 0.872972 0.500000
O O16 0.681003 0.830523 0.377267
O O17 0.633674 0.000000 0.476365
O O18 0.763965 0.500000 0.730360
O O19 0.694144 0.609383 0.945794
O O20 0.675567 0.500000 0.177513
O O21 0.721530 0.681556 0.204737
#
# Coordination Sequence:
#
# PCOD9150486 Si02
#       8
#     4   4   4   4   4   4   4   4
#     4   9  17  32  56  83 108 136 175 223 274 327
#     4  10  20  36  59  85 113 145 183 232 287 337
#     4   9  19  36  57  81 111 145 182 226 278 336
#     4  11  23  37  56  81 108 143 187 234 280 326
#     4   9  19  37  58  81 113 150 185 223 271 331
#     4  10  21  38  57  77 108 147 185 229 279 333
#     4  10  21  36  55  81 112 146 182 225 279 335
#     4  11  22  35  57  83 110 142 184 231 278 333
#
# _framework density 19.195425
#
# number of rings (size 3 to 8) (size 9 to 14) (size 15 to 20)
#    0.000    2.125    0.000    3.000    0.000    6.500 
#    0.000    1.875    0.000    4.875    0.000    0.000 
#    0.000    0.000    0.000    0.000    0.000    0.000 
#
# Total GULP energy -178430.032757 kJ/mol
# GULP energy per Si atom -5575.938524 kJ/mol
# Density = 1.915174 g / cm^3
# Si number density = 19.195425 Si / 1000 Ang^3
#
#
#
# Elastic Constant Matrix: (Units=GPa)
#
#
# Indices 1 2 3 4 5 6 
#
# 1 97.3768 42.4076 33.3834 0.0000 -23.9690 0.0000
# 2 42.4076 62.8187 28.9730 0.0000 -6.7447 0.0000
# 3 33.3834 28.9730 61.6528 0.0000 -6.4754 0.0000
# 4 0.0000 0.0000 0.0000 25.2362 0.0000 -3.3873
# 5 -23.9690 -6.7447 -6.4754 0.0000 27.3928 0.0000
# 6 0.0000 0.0000 0.0000 -3.3873 0.0000 21.6389
#
#
#
# Elastic Compliance Matrix: (Units=1/GPa)
#
#
# Indices 1 2 3 4 5 6 
#
# 1 0.019264 -0.009450 -0.004578 0.000000 0.013447 0.000000
# 2 -0.009450 0.025173 -0.007107 0.000000 -0.003750 0.000000
# 3 -0.004578 -0.007107 0.021980 0.000000 -0.000560 0.000000
# 4 0.000000 0.000000 0.000000 0.040476 0.000000 0.006336
# 5 0.013447 -0.003750 -0.000560 0.000000 0.047217 0.000000
# 6 0.000000 0.000000 0.000000 0.006336 0.000000 0.047205
#
#
# Mechanical properties :
#
#
# Convention : Reuss Voigt Hill
#
# Bulk Modulus (GPa) = 41.41124 47.93070 44.67097
# Shear Modulus (GPa) = 19.87015 22.65919 21.26467
#
# Velocity S-wave (km/s) = 3.22087 3.43949 3.33197
# Velocity P-wave (km/s) = 5.95418 6.38729 6.17454
#
# Compressibility (1/GPa) = 0.02414803
#
# Stress axis : x y z
#
# Youngs Moduli (GPa) = 51.90982 39.72465 45.49629
#
# Poissons Ratio (x) = 0.37538 0.20828
# Poissons Ratio (y) = 0.49053 0.32335
# Poissons Ratio (z) = 0.23764 0.28233
#
# Static dielectric constant tensor:
#      x y z
#    x 1.684670 0.000000 0.021210 
#    y 0.000000 1.662730 0.000000 
#    z 0.021210 0.000000 1.698750 
# 
# From -- ./inp_files/25307.got.cif
#   From: 2010.05.17/outbox.cif.g08.bks.cpg/sg10_13_cif.got.tgz:25307.got - 2010.06.03 11:33:40.
