data_PCOD9150529
_publ_section_title
;
Structure prediction by ZEFSAII (Michael W. Deem and Ramdas Pophale) SiO2 
 PCOD9150529
Probable space group: P 2/M
;
_chemical_formula_sum "Si O2"
_cell_formula_units_Z 20
_cell_length_a 15.818613
_cell_length_b 12.366627
_cell_length_c 12.360218
_cell_angle_alpha 90.000000
_cell_angle_beta 152.786320
_cell_angle_gamma 90.000000
_cell_volume 1105.749496
_symmetry_space_group_name_H-M "P 2/M"
_symmetry_group_IT_number 10
_symmetry_cell_setting 'monoclinic'
loop_
_space_group_symop_operation_xyz
x,y,z
-x,y,-z
-x,-y,-z
x,-y,z
loop_
_atom_site_type_symbol
_atom_site_label
_atom_site_fract_x
_atom_site_fract_y
_atom_site_fract_z
Si Si1 0.098627 0.000000 0.492216
Si Si2 0.636415 0.628719 0.256648
Si Si3 0.000195 0.235978 0.629854
Si Si4 0.589489 0.231889 0.839020
Si Si5 0.218605 0.000000 0.265311
Si Si6 0.500000 0.826142 0.500000
Si Si7 0.433568 0.000000 0.733047
O O1 0.036820 0.886298 0.371865
O O2 0.320463 0.000000 0.718209
O O3 0.000000 0.000000 0.500000
O O4 0.651234 0.500000 0.281930
O O5 0.835484 0.683835 0.471095
O O6 0.543020 0.685226 0.252015
O O7 0.500000 0.653606 0.000000
O O8 0.000000 0.231787 0.500000
O O9 0.201494 0.265872 0.899667
O O10 0.548849 0.233000 0.665933
O O11 0.550355 0.110283 0.844290
O O12 0.322154 0.100570 0.327178
O O13 0.281925 0.000000 0.463034
O O14 0.000000 0.000000 0.000000
#
# Coordination Sequence:
#
# PCOD9150529 Si02
#       7
#     2   4   4   4   2   2   2
#     4  10  21  33  54  91 127 153 188 237 298 365
#     4  11  24  42  63  88 117 154 204 254 300 352
#     4  11  22  38  60  91 119 159 197 240 301 358
#     4  11  22  40  62  88 127 156 200 245 297 356
#     4   9  19  33  56  83 119 162 207 239 278 342
#     4   9  22  36  55  92 118 160 199 241 296 354
#     4  10  20  36  59  87 126 163 193 240 296 356
#
# _framework density 18.08728
#
# number of rings (size 3 to 8) (size 9 to 14) (size 15 to 20)
#    0.000    1.600    4.000    1.200    2.800    1.200 
#    0.000    3.500    0.000    1.200    0.000    0.000 
#    0.000    0.000    0.000    0.000    0.000    0.000 
#
# Total GULP energy -111560.868447 kJ/mol
# GULP energy per Si atom -5578.043422 kJ/mol
# Density = 1.804611 g / cm^3
# Si number density = 18.087280 Si / 1000 Ang^3
#
#
#
# Elastic Constant Matrix: (Units=GPa)
#
#
# Indices 1 2 3 4 5 6 
#
# 1 129.6993 50.5030 71.7995 0.0000 6.0248 0.0000
# 2 50.5030 77.8465 45.3795 0.0000 9.2267 0.0000
# 3 71.7995 45.3795 144.9569 0.0000 24.4879 0.0000
# 4 0.0000 0.0000 0.0000 -25.8813 0.0000 -58.8180
# 5 6.0248 9.2267 24.4879 0.0000 34.7978 0.0000
# 6 0.0000 0.0000 0.0000 -58.8180 0.0000 -57.2910
#
#
#
# Elastic Compliance Matrix: (Units=1/GPa)
#
#
# Indices 1 2 3 4 5 6 
#
# 1 0.012455 -0.005553 -0.004898 0.000000 0.002762 0.000000
# 2 -0.005553 0.018209 -0.002607 0.000000 -0.002032 0.000000
# 3 -0.004898 -0.002607 0.011214 0.000000 -0.006352 0.000000
# 4 0.000000 0.000000 0.000000 0.028982 0.000000 -0.029754
# 5 0.002762 -0.002032 -0.006352 0.000000 0.033268 0.000000
# 6 0.000000 0.000000 0.000000 -0.029754 0.000000 0.013093
#
#
# Mechanical properties :
#
#
# Convention : Reuss Voigt Hill
#
# Bulk Modulus (GPa) = 63.43815 76.42963 69.93389
# Shear Modulus (GPa) = 33.65001 2.64647 18.14824
#
# Velocity S-wave (km/s) = 4.31794 1.21093 3.17104
# Velocity P-wave (km/s) = 7.74655 6.65604 7.22191
#
# Compressibility (1/GPa) = 0.01576338
#
# Stress axis : x y z
#
# Youngs Moduli (GPa) = 80.28750 54.91937 89.17786
#
# Poissons Ratio (x) = 0.30496 0.43676
# Poissons Ratio (y) = 0.44582 0.23245
# Poissons Ratio (z) = 0.39322 0.14315
#
# Static dielectric constant tensor:
#      x y z
#    x 1.662550 0.000000 0.000750 
#    y 0.000000 1.619760 0.000000 
#    z 0.000750 0.000000 1.614040 
# 
# From -- ./inp_files/51004.got.cif
#   From: 2010.05.17/outbox.cif.g08.bks.cpg/sg10_26_cif.got.tgz:51004.got - 2010.06.03 11:33:40.
