data_PCOD9150036
_publ_section_title
;
Structure prediction by ZEFSAII (Michael W. Deem and Ramdas Pophale) SiO2 
 PCOD9150036
Probable space group: P 2/M
;
_chemical_formula_sum "Si O2"
_cell_formula_units_Z 24
_cell_length_a 13.057310
_cell_length_b 7.733828
_cell_length_c 10.042262
_cell_angle_alpha 90.000000
_cell_angle_beta 80.920017
_cell_angle_gamma 90.000000
_cell_volume 1001.389983
_symmetry_space_group_name_H-M "P 2/M"
_symmetry_group_IT_number 10
_symmetry_cell_setting 'monoclinic'
loop_
_space_group_symop_operation_xyz
x,y,z
-x,y,-z
-x,-y,-z
x,-y,z
loop_
_atom_site_type_symbol
_atom_site_label
_atom_site_fract_x
_atom_site_fract_y
_atom_site_fract_z
Si Si1 0.940194 0.703066 0.738100
Si Si2 0.486116 0.706168 0.355239
Si Si3 0.594464 0.287813 0.073822
Si Si4 0.253898 0.207794 0.404588
Si Si5 0.837758 0.197498 0.308241
Si Si6 0.821380 0.296923 0.009204
O O1 0.966968 0.500000 0.738256
O O2 0.838959 0.725960 0.668345
O O3 0.043550 0.794191 0.665737
O O4 0.907848 0.772991 0.891214
O O5 0.500000 0.780523 0.500000
O O6 0.501502 0.500000 0.359290
O O7 0.566554 0.770554 0.228707
O O8 0.367804 0.737326 0.335091
O O9 0.597394 0.500000 0.072645
O O10 0.706689 0.224913 0.005369
O O11 0.500000 0.234957 0.000000
O O12 0.233783 0.272588 0.560223
O O13 0.248369 0.000000 0.407583
O O14 0.838126 0.282408 0.163161
O O15 0.806828 0.000000 0.293044
O O16 0.818955 0.500000 0.976674
#
# Coordination Sequence:
#
# PCOD9150036 Si02
#       6
#     4   4   4   4   4   4
#     4  11  23  39  62  89 114 146 192 241 287 338
#     4  10  20  35  58  85 111 146 192 237 282 332
#     4   9  17  32  55  82 112 144 181 230 282 330
#     4  11  24  40  58  83 118 157 193 233 285 342
#     4  11  24  40  58  83 117 155 192 232 285 345
#     4  10  21  38  61  88 116 148 190 238 287 340
#
# _framework density 23.966688000000001
#
# number of rings (size 3 to 8) (size 9 to 14) (size 15 to 20)
#    0.000    1.667    0.000    4.500    0.000   12.333 
#    0.000    0.833    0.000    2.000    0.000    0.000 
#    0.000    0.000    0.000    0.000    0.000    0.000 
#
# Total GULP energy -134267.036420 kJ/mol
# GULP energy per Si atom -5594.459851 kJ/mol
# Density = 2.391214 g / cm^3
# Si number density = 23.966688 Si / 1000 Ang^3
#
#
#
# Elastic Constant Matrix: (Units=GPa)
#
#
# Indices 1 2 3 4 5 6 
#
# 1 56.5418 -15.2552 -19.6262 0.0000 -3.9018 0.0000
# 2 -15.2552 46.6941 3.5204 0.0000 -5.4483 0.0000
# 3 -19.6262 3.5204 72.0191 0.0000 -7.7973 0.0000
# 4 0.0000 0.0000 0.0000 8.0917 0.0000 -11.8640
# 5 -3.9018 -5.4483 -7.7973 0.0000 46.1962 0.0000
# 6 0.0000 0.0000 0.0000 -11.8640 0.0000 -31.0281
#
#
#
# Elastic Compliance Matrix: (Units=1/GPa)
#
#
# Indices 1 2 3 4 5 6 
#
# 1 0.021970 0.007156 0.006040 0.000000 0.003719 0.000000
# 2 0.007156 0.024091 0.001167 0.000000 0.003643 0.000000
# 3 0.006040 0.001167 0.015834 0.000000 0.003320 0.000000
# 4 0.000000 0.000000 0.000000 0.079189 0.000000 -0.030279
# 5 0.003719 0.003643 0.003320 0.000000 0.022951 0.000000
# 6 0.000000 0.000000 0.000000 -0.030279 0.000000 -0.020651
#
#
# Mechanical properties :
#
#
# Convention : Reuss Voigt Hill
#
# Bulk Modulus (GPa) = 11.03495 12.50365 11.76930
# Shear Modulus (GPa) = 34.51521 18.42635 26.47078
#
# Velocity S-wave (km/s) = 3.79903 2.77579 3.32698
# Velocity P-wave (km/s) = 4.88444 3.93723 4.43619
#
# Compressibility (1/GPa) = 0.09062113
#
# Stress axis : x y z
#
# Youngs Moduli (GPa) = 45.51657 41.50924 63.15671
#
# Poissons Ratio (x) = -0.29705 -0.38147
# Poissons Ratio (y) = -0.32573 -0.07370
# Poissons Ratio (z) = -0.27492 -0.04844
#
# Static dielectric constant tensor:
#      x y z
#    x 1.881180 0.000000 0.021930 
#    y 0.000000 1.868830 0.000000 
#    z 0.021930 0.000000 1.937300 
# 
# From -- ./inp_files/27001.got.cif
#   From: 2010.05.17/outbox.cif.g08.bks.cpg/sg10_14_cif.got.tgz:27001.got - 2010.06.03 11:33:40.
