data_PCOD9150750
_publ_section_title
;
Structure prediction by ZEFSAII (Michael W. Deem and Ramdas Pophale) SiO2 
 PCOD9150750
Probable space group: P 2/M
;
_chemical_formula_sum "Si O2"
_cell_formula_units_Z 32
_cell_length_a 11.746985
_cell_length_b 16.845871
_cell_length_c 14.165232
_cell_angle_alpha 90.000000
_cell_angle_beta 31.918577
_cell_angle_gamma 90.000000
_cell_volume 1482.054018
_symmetry_space_group_name_H-M "P 2/M"
_symmetry_group_IT_number 10
_symmetry_cell_setting 'monoclinic'
loop_
_space_group_symop_operation_xyz
x,y,z
-x,y,-z
-x,-y,-z
x,-y,z
loop_
_atom_site_type_symbol
_atom_site_label
_atom_site_fract_x
_atom_site_fract_y
_atom_site_fract_z
Si Si1 0.396197 0.134933 0.974035
Si Si2 0.688801 0.588182 0.289796
Si Si3 0.070611 0.088181 0.737693
Si Si4 0.871307 0.704859 0.823514
Si Si5 0.209164 0.412046 0.288572
Si Si6 0.800442 0.094881 0.572918
Si Si7 0.756767 0.248917 0.324088
Si Si8 0.628160 0.589323 0.117334
O O1 0.584860 0.135793 0.763805
O O2 0.500000 0.106396 0.000000
O O3 0.188595 0.086397 0.086114
O O4 0.283538 0.219501 0.071744
O O5 0.500000 0.586611 0.500000
O O6 0.800436 0.500000 0.218719
O O7 0.799540 0.674035 0.227595
O O8 0.590649 0.591830 0.254791
O O9 0.149727 0.105294 0.573487
O O10 0.143085 0.160226 0.755273
O O11 0.149545 0.000000 0.708710
O O12 0.826031 0.652458 0.765343
O O13 0.121733 0.725042 0.664389
O O14 0.797244 0.653261 0.964664
O O15 0.238841 0.500000 0.225293
O O16 0.413057 0.395341 0.210024
O O17 0.000000 0.413880 0.500000
O O18 0.000000 0.120355 0.500000
O O19 0.773465 0.000000 0.606775
O O20 0.500000 0.238858 0.500000
O O21 0.701923 0.500000 0.043110
#
# Coordination Sequence:
#
# PCOD9150750 Si02
#       8
#     4   4   4   4   4   4   4   4
#     4  11  21  36  57  95 138 173 211 261 331 403
#     4   9  20  38  64  92 123 164 219 275 328 382
#     4  10  22  41  65  96 129 173 225 271 337 409
#     4  11  24  41  60  95 132 175 218 272 338 408
#     4  10  22  39  65  98 134 177 223 272 336 413
#     4  10  20  36  63  95 129 169 211 261 328 405
#     4  10  24  43  64  90 124 168 224 279 332 380
#     4  10  21  40  65  94 128 171 217 270 336 404
#
# _framework density 21.591656
#
# number of rings (size 3 to 8) (size 9 to 14) (size 15 to 20)
#    0.000    1.875    1.250    1.875    3.500    5.250 
#    6.750    2.500    0.000    0.000    0.000    7.000 
#    0.000    0.000    0.000    0.000    0.000    0.000 
#
# Total GULP energy -178483.877974 kJ/mol
# GULP energy per Si atom -5577.621187 kJ/mol
# Density = 2.154251 g / cm^3
# Si number density = 21.591656 Si / 1000 Ang^3
#
#
#
# Elastic Constant Matrix: (Units=GPa)
#
#
# Indices 1 2 3 4 5 6 
#
# 1 89.1072 60.8663 33.5623 0.0000 -16.9666 0.0000
# 2 60.8663 149.6536 25.8693 0.0000 -10.4018 0.0000
# 3 33.5623 25.8693 99.1696 0.0000 -15.6704 0.0000
# 4 0.0000 0.0000 0.0000 21.2559 0.0000 3.7672
# 5 -16.9666 -10.4018 -15.6704 0.0000 42.0381 0.0000
# 6 0.0000 0.0000 0.0000 3.7672 0.0000 32.5921
#
#
#
# Elastic Compliance Matrix: (Units=1/GPa)
#
#
# Indices 1 2 3 4 5 6 
#
# 1 0.017694 -0.006266 -0.003688 0.000000 0.004216 0.000000
# 2 -0.006266 0.009266 -0.000355 0.000000 -0.000368 0.000000
# 3 -0.003688 -0.000355 0.011875 0.000000 0.002850 0.000000
# 4 0.000000 0.000000 0.000000 0.048030 0.000000 -0.005552
# 5 0.004216 -0.000368 0.002850 0.000000 0.026461 0.000000
# 6 0.000000 0.000000 0.000000 -0.005552 0.000000 0.031324
#
#
# Mechanical properties :
#
#
# Convention : Reuss Voigt Hill
#
# Bulk Modulus (GPa) = 54.88896 64.28069 59.58483
# Shear Modulus (GPa) = 29.18184 33.68607 31.43395
#
# Velocity S-wave (km/s) = 3.68031 3.95415 3.81968
# Velocity P-wave (km/s) = 6.59819 7.11918 6.86363
#
# Compressibility (1/GPa) = 0.01821860
#
# Stress axis : x y z
#
# Youngs Moduli (GPa) = 56.51534 107.91775 84.21284
#
# Poissons Ratio (x) = 0.67622 0.31054
# Poissons Ratio (y) = 0.35413 0.02988
# Poissons Ratio (z) = 0.20840 0.03829
#
# Static dielectric constant tensor:
#      x y z
#    x 1.739150 0.000000 -0.049470 
#    y 0.000000 1.696950 0.000000 
#    z -0.049470 0.000000 1.776370 
# 
# From -- ./inp_files/65366.got.cif
#   From: 2010.05.17/outbox.cif.g08.bks.cpg/sg10_33_cif.got.tgz:65366.got - 2010.06.03 11:33:40.
