data_PCOD9150779
_publ_section_title
;
Structure prediction by ZEFSAII (Michael W. Deem and Ramdas Pophale) SiO2 
 PCOD9150779
Probable space group: P 2/M
;
_chemical_formula_sum "Si O2"
_cell_formula_units_Z 26
_cell_length_a 5.430958
_cell_length_b 22.685696
_cell_length_c 12.987103
_cell_angle_alpha 90.000000
_cell_angle_beta 124.446484
_cell_angle_gamma 90.000000
_cell_volume 1319.511152
_symmetry_space_group_name_H-M "P 2/M"
_symmetry_group_IT_number 10
_symmetry_cell_setting 'monoclinic'
loop_
_space_group_symop_operation_xyz
x,y,z
-x,y,-z
-x,-y,-z
x,-y,z
loop_
_atom_site_type_symbol
_atom_site_label
_atom_site_fract_x
_atom_site_fract_y
_atom_site_fract_z
Si Si1 0.400254 0.000000 0.598991
Si Si2 0.405077 0.877446 0.814166
Si Si3 0.000000 0.177911 0.000000
Si Si4 0.114809 0.000000 0.756581
Si Si5 0.807124 0.763748 0.139691
Si Si6 0.713032 0.366848 0.152670
Si Si7 0.211658 0.568109 0.151959
Si Si8 0.672245 0.870666 0.441989
O O1 0.290764 0.939877 0.520606
O O2 0.245933 0.000000 0.672355
O O3 0.760626 0.000000 0.693146
O O4 0.204335 0.820044 0.789626
O O5 0.468280 0.876229 0.705642
O O6 0.250477 0.936401 0.820966
O O7 0.716534 0.863959 0.943243
O O8 0.952414 0.221018 0.891400
O O9 0.819105 0.700321 0.194231
O O10 0.500000 0.762788 0.000000
O O11 0.503930 0.394001 0.191850
O O12 0.002384 0.405262 0.191520
O O13 0.500000 0.366726 0.000000
O O14 0.289448 0.500000 0.189645
O O15 0.000000 0.569282 0.000000
O O16 0.500000 0.844504 0.500000
O O17 0.000000 0.844864 0.500000
#
# Coordination Sequence:
#
# PCOD9150779 Si02
#       8
#     2   4   2   2   4   4   4   4
#     4  10  20  37  56  80 102 127 164 206 260 328
#     4  10  23  38  55  78 104 132 177 220 271 322
#     4  10  22  37  58  70 101 138 180 232 262 300
#     4  10  22  36  59  77 103 134 163 218 281 324
#     4   9  20  34  51  72  92 135 179 224 253 296
#     4   9  17  26  44  62  88 123 169 208 248 288
#     4   9  16  25  38  62  92 123 158 206 252 292
#     4  11  22  36  59  82 105 131 162 209 267 329
#
# _framework density 19.704267999999999
#
# number of rings (size 3 to 8) (size 9 to 14) (size 15 to 20)
#    0.000    2.308    0.000    2.769   14.000    2.154 
#    0.000    3.462    0.000    0.000    0.000    0.000 
#    0.000    0.000    0.000    0.000    0.000   15.385 
#
# Total GULP energy -144791.811940 kJ/mol
# GULP energy per Si atom -5568.915844 kJ/mol
# Density = 1.965942 g / cm^3
# Si number density = 19.704268 Si / 1000 Ang^3
#
#
#
# Elastic Constant Matrix: (Units=GPa)
#
#
# Indices 1 2 3 4 5 6 
#
# 1 156.5070 67.6332 15.3740 0.0000 0.9629 0.0000
# 2 67.6332 148.3551 13.7237 0.0000 2.2449 0.0000
# 3 15.3740 13.7237 19.0722 0.0000 -2.9177 0.0000
# 4 0.0000 0.0000 0.0000 -3.0351 0.0000 -4.1215
# 5 0.9629 2.2449 -2.9177 0.0000 27.2065 0.0000
# 6 0.0000 0.0000 0.0000 -4.1215 0.0000 24.0244
#
#
#
# Elastic Compliance Matrix: (Units=1/GPa)
#
#
# Indices 1 2 3 4 5 6 
#
# 1 0.008270 -0.003363 -0.004320 0.000000 -0.000478 0.000000
# 2 -0.003363 0.008626 -0.003646 0.000000 -0.000984 0.000000
# 3 -0.004320 -0.003646 0.059585 0.000000 0.006844 0.000000
# 4 0.000000 0.000000 0.000000 -0.267222 0.000000 -0.045843
# 5 -0.000478 -0.000984 0.006844 0.000000 0.037588 0.000000
# 6 0.000000 0.000000 0.000000 -0.045843 0.000000 0.033760
#
#
# Mechanical properties :
#
#
# Convention : Reuss Voigt Hill
#
# Bulk Modulus (GPa) = 18.57946 57.48847 38.03396
# Shear Modulus (GPa) = -63.45767 24.78605 -19.33581
#
# Velocity S-wave (km/s) = -5.68111 3.55054 -3.13597
# Velocity P-wave (km/s) = 5.79514 6.78583 2.49638
#
# Compressibility (1/GPa) = 0.05382288
#
# Stress axis : x y z
#
# Youngs Moduli (GPa) = 120.91526 115.92674 16.78270
#
# Poissons Ratio (x) = 0.38992 0.07249
# Poissons Ratio (y) = 0.40670 0.06119
# Poissons Ratio (z) = 0.52230 0.42270
#
# Static dielectric constant tensor:
#      x y z
#    x 1.789100 0.000000 -0.024270 
#    y 0.000000 1.714720 0.000000 
#    z -0.024270 0.000000 1.744960 
# 
# From -- ./inp_files/59579.got.cif
#   From: 2010.05.17/outbox.cif.g08.bks.cpg/sg10_30_cif.got.tgz:59579.got - 2010.06.03 11:33:40.
