data_PCOD9150897
_publ_section_title
;
Structure prediction by ZEFSAII (Michael W. Deem and Ramdas Pophale) SiO2 
 PCOD9150897
Probable space group: P 2/M
;
_chemical_formula_sum "Si O2"
_cell_formula_units_Z 28
_cell_length_a 20.592380
_cell_length_b 7.642792
_cell_length_c 15.241395
_cell_angle_alpha 90.000000
_cell_angle_beta 32.102610
_cell_angle_gamma 90.000000
_cell_volume 1274.779961
_symmetry_space_group_name_H-M "P 2/M"
_symmetry_group_IT_number 10
_symmetry_cell_setting 'monoclinic'
loop_
_space_group_symop_operation_xyz
x,y,z
-x,y,-z
-x,-y,-z
x,-y,z
loop_
_atom_site_type_symbol
_atom_site_label
_atom_site_fract_x
_atom_site_fract_y
_atom_site_fract_z
Si Si1 0.562480 0.787681 0.715392
Si Si2 0.708147 0.212351 0.003439
Si Si3 0.228147 0.206777 0.879558
Si Si4 0.038967 0.302619 0.853259
Si Si5 0.864025 0.705078 0.664898
Si Si6 0.297715 0.200983 0.609125
Si Si7 0.633580 0.706015 0.821009
O O1 0.421795 0.734511 0.888291
O O2 0.609356 0.721269 0.567473
O O3 0.640852 0.725441 0.707967
O O4 0.567660 0.000000 0.708081
O O5 0.715467 0.275683 0.095298
O O6 0.713295 0.000000 0.998265
O O7 0.816608 0.278872 0.818511
O O8 0.276254 0.279863 0.730882
O O9 0.252951 0.000000 0.847973
O O10 0.081544 0.228188 0.053895
O O11 0.060817 0.500000 0.797518
O O12 0.166674 0.203323 0.709666
O O13 0.000000 0.307167 0.000000
O O14 0.873445 0.500000 0.629647
O O15 0.752760 0.780908 0.733437
O O16 0.000000 0.781129 0.500000
O O17 0.335671 0.000000 0.579493
O O18 0.629478 0.500000 0.848341
O O19 0.500000 0.782018 0.000000
#
# Coordination Sequence:
#
# PCOD9150897 Si02
#       7
#     4   4   4   4   4   4   4
#     4  10  21  35  55  83 110 141 184 229 271 321
#     4  10  21  36  55  81 110 142 182 226 274 325
#     4   9  18  33  53  76 109 149 181 217 269 327
#     4   9  17  30  49  73 101 136 181 228 269 312
#     4  10  22  40  60  83 111 142 180 227 279 336
#     4   9  18  33  52  77 110 146 182 220 266 323
#     4  10  20  37  60  82 106 143 184 222 275 336
#
# _framework density 21.964575
#
# number of rings (size 3 to 8) (size 9 to 14) (size 15 to 20)
#    0.000    2.429    1.429    0.429    0.000    5.714 
#    0.000    5.714    0.000    0.000    0.000    6.000 
#    0.000    0.000    0.000    0.000    0.000    0.000 
#
# Total GULP energy -156148.968981 kJ/mol
# GULP energy per Si atom -5576.748892 kJ/mol
# Density = 2.191458 g / cm^3
# Si number density = 21.964575 Si / 1000 Ang^3
#
#
#
# Elastic Constant Matrix: (Units=GPa)
#
#
# Indices 1 2 3 4 5 6 
#
# 1 129.5844 -1.5268 54.6441 0.0000 3.2787 0.0000
# 2 -1.5268 41.1335 4.7418 0.0000 -3.0005 0.0000
# 3 54.6441 4.7418 122.4378 0.0000 -7.4694 0.0000
# 4 0.0000 0.0000 0.0000 -1.8015 0.0000 19.3867
# 5 3.2787 -3.0005 -7.4694 0.0000 26.7025 0.0000
# 6 0.0000 0.0000 0.0000 19.3867 0.0000 17.9086
#
#
#
# Elastic Compliance Matrix: (Units=1/GPa)
#
#
# Indices 1 2 3 4 5 6 
#
# 1 0.009679 0.000704 -0.004491 0.000000 -0.002366 0.000000
# 2 0.000704 0.024640 -0.001124 0.000000 0.002368 0.000000
# 3 -0.004491 -0.001124 0.010419 0.000000 0.003340 0.000000
# 4 0.000000 0.000000 0.000000 -0.043882 0.000000 0.047504
# 5 -0.002366 0.002368 0.003340 0.000000 0.038940 0.000000
# 6 0.000000 0.000000 0.000000 0.047504 0.000000 0.004414
#
#
# Mechanical properties :
#
#
# Convention : Reuss Voigt Hill
#
# Bulk Modulus (GPa) = 28.64053 45.43044 37.03548
# Shear Modulus (GPa) = 76.13693 24.24836 50.19265
#
# Velocity S-wave (km/s) = 5.89396 3.32622 4.78552
# Velocity P-wave (km/s) = 7.70624 5.95651 6.88717
#
# Compressibility (1/GPa) = 0.03491556
#
# Stress axis : x y z
#
# Youngs Moduli (GPa) = 103.31551 40.58519 95.97665
#
# Poissons Ratio (x) = -0.02859 0.43107
# Poissons Ratio (y) = -0.07278 0.10790
# Poissons Ratio (z) = 0.46403 0.04563
#
# Static dielectric constant tensor:
#      x y z
#    x 1.814580 0.000000 -0.005810 
#    y 0.000000 1.818220 0.000000 
#    z -0.005810 0.000000 1.813180 
# 
# From -- ./inp_files/68606.got.cif
#   From: 2010.05.17/outbox.cif.g08.bks.cpg/sg10_35_cif.got.tgz:68606.got - 2010.06.03 11:33:40.
