data_PCOD9150184
_publ_section_title
;
Structure prediction by ZEFSAII (Michael W. Deem and Ramdas Pophale) SiO2 
 PCOD9150184
Probable space group: P 2/M
;
_chemical_formula_sum "Si O2"
_cell_formula_units_Z 32
_cell_length_a 19.924447
_cell_length_b 18.033083
_cell_length_c 14.377952
_cell_angle_alpha 90.000000
_cell_angle_beta 161.182878
_cell_angle_gamma 90.000000
_cell_volume 1666.281653
_symmetry_space_group_name_H-M "P 2/M"
_symmetry_group_IT_number 10
_symmetry_cell_setting 'monoclinic'
loop_
_space_group_symop_operation_xyz
x,y,z
-x,y,-z
-x,-y,-z
x,-y,z
loop_
_atom_site_type_symbol
_atom_site_label
_atom_site_fract_x
_atom_site_fract_y
_atom_site_fract_z
Si Si1 0.282879 0.582307 0.156792
Si Si2 0.587060 0.587188 0.887173
Si Si3 0.003306 0.198568 0.689703
Si Si4 0.699873 0.303475 0.196678
Si Si5 0.321322 0.718661 0.472271
Si Si6 0.360322 0.172988 0.026492
Si Si7 0.888516 0.274589 0.997138
Si Si8 0.350146 0.082643 0.714156
O O1 0.500000 0.592420 0.500000
O O2 0.210680 0.500000 0.084873
O O3 0.311194 0.588080 0.082509
O O4 0.121280 0.642929 0.976361
O O5 0.551111 0.500000 0.863179
O O6 0.387590 0.639455 0.603103
O O7 0.707687 0.631038 0.128968
O O8 0.899506 0.276573 0.518140
O O9 0.824845 0.143772 0.493059
O O10 0.150167 0.219242 0.969189
O O11 0.139073 0.162093 0.785614
O O12 0.500000 0.318406 0.000000
O O13 0.662683 0.227073 0.092137
O O14 0.505400 0.775403 0.730141
O O15 0.115783 0.743568 0.256552
O O16 0.266711 0.721271 0.292729
O O17 0.500811 0.105502 0.176135
O O18 0.262287 0.000000 0.585684
O O19 0.500000 0.081387 0.000000
#
# Coordination Sequence:
#
# PCOD9150184 Si02
#       8
#     4   4   4   4   4   4   4   4
#     4  10  20  36  54  80 120 155 201 264 315 355
#     4  10  21  37  58  82 116 159 205 260 311 363
#     4  12  22  37  65  91 125 162 198 248 304 358
#     4  11  20  38  59  83 123 160 203 254 306 355
#     4  10  21  36  58  87 120 153 207 263 297 354
#     4  11  21  38  62  90 123 159 196 250 299 352
#     4  11  21  35  59  88 115 160 212 250 305 364
#     4  11  23  42  64  93 129 158 194 241 295 365
#
# _framework density 19.204436999999999
#
# number of rings (size 3 to 8) (size 9 to 14) (size 15 to 20)
#    0.000    1.250    5.000    2.625    0.000    1.250 
#    0.000    3.125    0.000   10.500    0.000    1.750 
#    0.000    0.000    0.000    0.000    0.000    0.000 
#
# Total GULP energy -178333.200749 kJ/mol
# GULP energy per Si atom -5572.912523 kJ/mol
# Density = 1.916073 g / cm^3
# Si number density = 19.204437 Si / 1000 Ang^3
#
#
#
# Elastic Constant Matrix: (Units=GPa)
#
#
# Indices 1 2 3 4 5 6 
#
# 1 103.1022 36.8497 27.1203 0.0000 -4.6885 0.0000
# 2 36.8497 83.6591 30.4506 0.0000 -12.7059 0.0000
# 3 27.1203 30.4506 46.9223 0.0000 -3.3737 0.0000
# 4 0.0000 0.0000 0.0000 14.9538 0.0000 0.1539
# 5 -4.6885 -12.7059 -3.3737 0.0000 16.8497 0.0000
# 6 0.0000 0.0000 0.0000 0.1539 0.0000 20.8650
#
#
#
# Elastic Compliance Matrix: (Units=1/GPa)
#
#
# Indices 1 2 3 4 5 6 
#
# 1 0.012253 -0.003749 -0.004674 0.000000 -0.000354 0.000000
# 2 -0.003749 0.018618 -0.009112 0.000000 0.011172 0.000000
# 3 -0.004674 -0.009112 0.029768 0.000000 -0.002212 0.000000
# 4 0.000000 0.000000 0.000000 0.066878 0.000000 -0.000493
# 5 -0.000354 0.011172 -0.002212 0.000000 0.067231 0.000000
# 6 0.000000 0.000000 0.000000 -0.000493 0.000000 0.047931
#
#
# Mechanical properties :
#
#
# Convention : Reuss Voigt Hill
#
# Bulk Modulus (GPa) = 39.11230 46.94720 43.02975
# Shear Modulus (GPa) = 17.46593 19.81790 18.64191
#
# Velocity S-wave (km/s) = 3.01902 3.21587 3.11900
# Velocity P-wave (km/s) = 5.70641 6.18775 5.95195
#
# Compressibility (1/GPa) = 0.02556740
#
# Stress axis : x y z
#
# Youngs Moduli (GPa) = 81.61559 53.71086 33.59347
#
# Poissons Ratio (x) = 0.20138 0.15702
# Poissons Ratio (y) = 0.30601 0.30611
# Poissons Ratio (z) = 0.38147 0.48942
#
# Static dielectric constant tensor:
#      x y z
#    x 1.721450 0.000000 -0.011520 
#    y 0.000000 1.658310 0.000000 
#    z -0.011520 0.000000 1.749140 
# 
# From -- ./inp_files/70886.got.cif
#   From: 2010.05.17/outbox.cif.g08.bks.cpg/sg10_36_cif.got.tgz:70886.got - 2010.06.03 11:33:40.
