data_PCOD9150919
_publ_section_title
;
Structure prediction by ZEFSAII (Michael W. Deem and Ramdas Pophale) SiO2 
 PCOD9150919
Probable space group: P 2/M
;
_chemical_formula_sum "Si O2"
_cell_formula_units_Z 28
_cell_length_a 29.447922
_cell_length_b 8.633034
_cell_length_c 9.165415
_cell_angle_alpha 90.000000
_cell_angle_beta 141.081070
_cell_angle_gamma 90.000000
_cell_volume 1463.801204
_symmetry_space_group_name_H-M "P 2/M"
_symmetry_group_IT_number 10
_symmetry_cell_setting 'monoclinic'
loop_
_space_group_symop_operation_xyz
x,y,z
-x,y,-z
-x,-y,-z
x,-y,z
loop_
_atom_site_type_symbol
_atom_site_label
_atom_site_fract_x
_atom_site_fract_y
_atom_site_fract_z
Si Si1 0.714991 0.184305 0.454167
Si Si2 0.144740 0.314257 0.032003
Si Si3 0.427472 0.311102 0.401364
Si Si4 0.996452 0.814458 0.161174
Si Si5 0.425479 0.312506 0.734223
Si Si6 0.137553 0.687174 0.674181
Si Si7 0.716385 0.312608 0.130502
O O1 0.784843 0.245344 0.715044
O O2 0.643113 0.245086 0.353801
O O3 0.717028 0.246510 0.294299
O O4 0.715536 0.000000 0.454267
O O5 0.149186 0.500000 0.049230
O O6 0.141016 0.268085 0.852688
O O7 0.073142 0.258761 0.935734
O O8 0.500000 0.259652 0.500000
O O9 0.428112 0.500000 0.402507
O O10 0.426513 0.263197 0.567719
O O11 0.355342 0.262531 0.135950
O O12 0.068617 0.759974 0.423205
O O13 0.990686 0.000000 0.153776
O O14 0.000000 0.768277 0.000000
O O15 0.420322 0.500000 0.725163
O O16 0.500000 0.268653 0.000000
O O17 0.131162 0.500000 0.651623
O O18 0.211358 0.731644 0.776422
O O19 0.714951 0.500000 0.135727
#
# Coordination Sequence:
#
# PCOD9150919 Si02
#       7
#     4   4   4   4   4   4   4
#     4  12  25  39  57  85 121 156 193 237 289 346
#     4  11  23  41  64  88 115 149 195 243 288 342
#     4   9  17  32  58  90 117 145 190 244 290 335
#     4  11  24  40  59  87 122 156 191 233 286 347
#     4  10  20  37  63  90 116 151 195 240 288 343
#     4  10  22  39  61  88 115 149 195 245 291 340
#     4  10  20  37  60  84 114 152 195 241 288 340
#
# _framework density 19.12828
#
# number of rings (size 3 to 8) (size 9 to 14) (size 15 to 20)
#    0.000    1.571    0.000    5.143    0.000   11.714 
#    0.000    2.143    0.000    1.714    0.000    0.000 
#    0.000    0.000    0.000    0.000    0.000    0.000 
#
# Total GULP energy -156583.562864 kJ/mol
# GULP energy per Si atom -5592.270102 kJ/mol
# Density = 1.908474 g / cm^3
# Si number density = 19.128280 Si / 1000 Ang^3
#
#
#
# Elastic Constant Matrix: (Units=GPa)
#
#
# Indices 1 2 3 4 5 6 
#
# 1 226.7633 53.7208 134.3266 0.0000 -2.2056 0.0000
# 2 53.7208 32.3105 53.0292 0.0000 -0.1998 0.0000
# 3 134.3266 53.0292 224.7276 0.0000 -1.6855 0.0000
# 4 0.0000 0.0000 0.0000 -25.2527 0.0000 -6.1593
# 5 -2.2056 -0.1998 -1.6855 0.0000 45.3192 0.0000
# 6 0.0000 0.0000 0.0000 -6.1593 0.0000 4.4019
#
#
#
# Elastic Compliance Matrix: (Units=1/GPa)
#
#
# Indices 1 2 3 4 5 6 
#
# 1 0.008202 -0.009127 -0.002747 0.000000 0.000257 0.000000
# 2 -0.009127 0.060670 -0.008865 0.000000 -0.000506 0.000000
# 3 -0.002747 -0.008865 0.008185 0.000000 0.000132 0.000000
# 4 0.000000 0.000000 0.000000 -0.029524 0.000000 -0.041311
# 5 0.000257 -0.000506 0.000132 0.000000 0.022081 0.000000
# 6 0.000000 0.000000 0.000000 -0.041311 0.000000 0.169370
#
#
# Mechanical properties :
#
#
# Convention : Reuss Voigt Hill
#
# Bulk Modulus (GPa) = 28.10589 107.32830 67.71709
# Shear Modulus (GPa) = 17.10451 21.07533 19.08992
#
# Velocity S-wave (km/s) = 2.99356 3.32292 3.16253
# Velocity P-wave (km/s) = 5.16467 8.42342 6.98669
#
# Compressibility (1/GPa) = 0.03557973
#
# Stress axis : x y z
#
# Youngs Moduli (GPa) = 121.92739 16.48251 122.18107
#
# Poissons Ratio (x) = 0.15043 0.33561
# Poissons Ratio (y) = 1.11278 1.08314
# Poissons Ratio (z) = 0.33491 0.14612
#
# Static dielectric constant tensor:
#      x y z
#    x 1.631610 0.000000 -0.006280 
#    y 0.000000 1.644150 0.000000 
#    z -0.006280 0.000000 1.627740 
# 
# From -- ./inp_files/34173.got.cif
#   From: 2010.05.17/outbox.cif.g08.bks.cpg/sg10_18_cif.got.tgz:34173.got - 2010.06.03 11:33:40.
