data_PCOD9150306
_publ_section_title
;
Structure prediction by ZEFSAII (Michael W. Deem and Ramdas Pophale) SiO2 
 PCOD9150306
Probable space group: P 2/M
;
_chemical_formula_sum "Si O2"
_cell_formula_units_Z 32
_cell_length_a 24.884868
_cell_length_b 8.709821
_cell_length_c 23.370284
_cell_angle_alpha 90.000000
_cell_angle_beta 19.316698
_cell_angle_gamma 90.000000
_cell_volume 1675.560802
_symmetry_space_group_name_H-M "P 2/M"
_symmetry_group_IT_number 10
_symmetry_cell_setting 'monoclinic'
loop_
_space_group_symop_operation_xyz
x,y,z
-x,y,-z
-x,-y,-z
x,-y,z
loop_
_atom_site_type_symbol
_atom_site_label
_atom_site_fract_x
_atom_site_fract_y
_atom_site_fract_z
Si Si1 0.937350 0.812951 0.377184
Si Si2 0.440229 0.175410 0.120826
Si Si3 0.947829 0.825128 0.493008
Si Si4 0.427406 0.682769 0.256585
Si Si5 0.731628 0.816864 0.021153
Si Si6 0.310685 0.671438 0.692323
Si Si7 0.924854 0.821616 0.139453
Si Si8 0.192726 0.681716 0.934347
O O1 0.986383 0.758393 0.392124
O O2 0.754866 0.750764 0.547610
O O3 0.090860 0.770981 0.183252
O O4 0.923747 0.000000 0.392001
O O5 0.246168 0.165812 0.311477
O O6 0.473506 0.266928 0.145326
O O7 0.504815 0.000000 0.061584
O O8 0.500000 0.239412 0.000000
O O9 0.000000 0.748700 0.500000
O O10 0.016680 0.000000 0.424310
O O11 0.417089 0.500000 0.271098
O O12 0.574147 0.743821 0.148831
O O13 0.719415 0.000000 0.027184
O O14 0.739162 0.768110 0.079658
O O15 0.500000 0.655478 0.500000
O O16 0.234088 0.500000 0.764521
O O17 0.256082 0.773057 0.693729
O O18 0.271619 0.732980 0.794909
O O19 0.946306 0.000000 0.130213
O O20 0.000000 0.789690 0.000000
O O21 0.006028 0.723950 0.107772
O O22 0.214733 0.500000 0.919090
#
# Coordination Sequence:
#
# PCOD9150306 Si02
#       8
#     4   4   4   4   4   4   4   4
#     4   9  20  39  61  84 111 148 197 248 295 347
#     4   9  18  32  54  81 110 147 194 242 290 348
#     4   8  14  26  49  80 106 130 175 237 289 337
#     4  11  23  39  59  84 121 158 192 241 301 362
#     4  11  23  40  64  87 115 155 203 250 293 348
#     4   9  18  34  56  83 115 150 186 228 280 337
#     4   9  17  31  53  79 109 143 180 225 273 322
#     4  10  20  36  57  83 114 148 190 232 282 345
#
# _framework density 19.098082000000002
#
# number of rings (size 3 to 8) (size 9 to 14) (size 15 to 20)
#    0.000    2.500    0.000    3.000    1.750    3.500 
#    2.250    0.000    0.000    1.500    0.000    0.000 
#    0.000    0.000    0.000    0.000    0.000    0.000 
#
# Total GULP energy -178149.190718 kJ/mol
# GULP energy per Si atom -5567.162210 kJ/mol
# Density = 1.905461 g / cm^3
# Si number density = 19.098082 Si / 1000 Ang^3
#
#
#
# Elastic Constant Matrix: (Units=GPa)
#
#
# Indices 1 2 3 4 5 6 
#
# 1 131.1177 32.8573 48.8829 0.0000 -18.4926 0.0000
# 2 32.8573 47.5525 22.0940 0.0000 -9.6912 0.0000
# 3 48.8829 22.0940 63.0592 0.0000 -11.9299 0.0000
# 4 0.0000 0.0000 0.0000 6.3477 0.0000 -11.9999
# 5 -18.4926 -9.6912 -11.9299 0.0000 24.6230 0.0000
# 6 0.0000 0.0000 0.0000 -11.9999 0.0000 12.3212
#
#
#
# Elastic Compliance Matrix: (Units=1/GPa)
#
#
# Indices 1 2 3 4 5 6 
#
# 1 0.011807 -0.004130 -0.006975 0.000000 0.003862 0.000000
# 2 -0.004130 0.027451 -0.005459 0.000000 0.005057 0.000000
# 3 -0.006975 -0.005459 0.023978 0.000000 0.004231 0.000000
# 4 0.000000 0.000000 0.000000 -0.187292 0.000000 -0.182407
# 5 0.003862 0.005057 0.004231 0.000000 0.047553 0.000000
# 6 0.000000 0.000000 0.000000 -0.182407 0.000000 -0.096489
#
#
# Mechanical properties :
#
#
# Convention : Reuss Voigt Hill
#
# Bulk Modulus (GPa) = 33.21529 49.93309 41.57419
# Shear Modulus (GPa) = -38.51241 17.85138 -10.33052
#
# Velocity S-wave (km/s) = -4.49548 3.06064 -2.32829
# Velocity P-wave (km/s) = 3.08482 6.22032 3.81944
#
# Compressibility (1/GPa) = 0.03010662
#
# Stress axis : x y z
#
# Youngs Moduli (GPa) = 84.69697 36.42919 41.70507
#
# Poissons Ratio (x) = 0.15047 0.29088
# Poissons Ratio (y) = 0.34983 0.22768
# Poissons Ratio (z) = 0.59073 0.19888
#
# Static dielectric constant tensor:
#      x y z
#    x 1.669970 0.000000 -0.004110 
#    y 0.000000 1.676070 0.000000 
#    z -0.004110 0.000000 1.762130 
# 
# From -- ./inp_files/90599.got.cif
#   From: 2010.05.17/outbox.cif.g08.bks.cpg/sg10_46_cif.got.tgz:90599.got - 2010.06.03 11:33:40.
