data_PCOD9150508
_publ_section_title
;
Structure prediction by ZEFSAII (Michael W. Deem and Ramdas Pophale) SiO2 
 PCOD9150508
Probable space group: P 2/M
;
_chemical_formula_sum "Si O2"
_cell_formula_units_Z 24
_cell_length_a 7.835325
_cell_length_b 14.696001
_cell_length_c 13.089766
_cell_angle_alpha 90.000000
_cell_angle_beta 130.530903
_cell_angle_gamma 90.000000
_cell_volume 1145.601086
_symmetry_space_group_name_H-M "P 2/M"
_symmetry_group_IT_number 10
_symmetry_cell_setting 'monoclinic'
loop_
_space_group_symop_operation_xyz
x,y,z
-x,y,-z
-x,-y,-z
x,-y,z
loop_
_atom_site_type_symbol
_atom_site_label
_atom_site_fract_x
_atom_site_fract_y
_atom_site_fract_z
Si Si1 0.529804 0.500000 0.390523
Si Si2 0.879045 0.697484 0.064360
Si Si3 0.379749 0.000000 0.104157
Si Si4 0.480518 0.801231 0.192408
Si Si5 0.007168 0.500000 0.123815
Si Si6 0.625041 0.301398 0.440172
Si Si7 0.113723 0.000000 0.796566
Si Si8 0.014685 0.806191 0.694383
O O1 0.500000 0.500000 0.500000
O O2 0.271828 0.500000 0.252332
O O3 0.652591 0.405396 0.411753
O O4 0.984015 0.754994 0.196661
O O5 0.887527 0.593741 0.107708
O O6 0.644567 0.743550 0.943580
O O7 0.000000 0.700629 0.000000
O O8 0.376145 0.097475 0.158581
O O9 0.632167 0.000000 0.152524
O O10 0.181782 0.000000 0.942605
O O11 0.477718 0.749962 0.298759
O O12 0.738655 0.804182 0.258859
O O13 0.000000 0.500000 0.000000
O O14 0.500000 0.306498 0.500000
O O15 0.845199 0.243279 0.551773
O O16 0.979907 0.911774 0.707534
#
# Coordination Sequence:
#
# PCOD9150508 Si02
#       8
#     2   4   2   4   2   4   2   4
#     4  10  20  40  63  82 115 168 201 230 293 380
#     4  11  21  37  60  88 117 154 200 248 294 354
#     4   9  18  37  62  85 117 165 198 226 295 380
#     4  11  22  39  62  89 121 157 200 247 296 352
#     4  10  20  36  59  86 115 158 201 234 293 372
#     4  11  23  41  62  88 119 158 205 248 295 355
#     4   9  18  37  62  85 117 163 200 230 291 374
#     4  11  22  39  62  89 119 157 203 246 294 353
#
# _framework density 20.9497
#
# number of rings (size 3 to 8) (size 9 to 14) (size 15 to 20)
#    0.000    1.500    1.667    6.000    0.000    0.667 
#    0.000   12.500    0.000    0.000    0.000    0.000 
#    0.000    0.000    0.000    0.000    0.000    0.000 
#
# Total GULP energy -133938.520968 kJ/mol
# GULP energy per Si atom -5580.771707 kJ/mol
# Density = 2.090202 g / cm^3
# Si number density = 20.949700 Si / 1000 Ang^3
#
#
#
# Elastic Constant Matrix: (Units=GPa)
#
#
# Indices 1 2 3 4 5 6 
#
# 1 30.1173 17.6774 2.7690 0.0000 -7.6077 0.0000
# 2 17.6774 235.8165 78.0075 0.0000 2.8840 0.0000
# 3 2.7690 78.0075 147.2892 0.0000 0.8230 0.0000
# 4 0.0000 0.0000 0.0000 16.1871 0.0000 -6.6793
# 5 -7.6077 2.8840 0.8230 0.0000 35.5873 0.0000
# 6 0.0000 0.0000 0.0000 -6.6793 0.0000 13.3899
#
#
#
# Elastic Compliance Matrix: (Units=1/GPa)
#
#
# Indices 1 2 3 4 5 6 
#
# 1 0.037050 -0.003191 0.000948 0.000000 0.008157 0.000000
# 2 -0.003191 0.005421 -0.002805 0.000000 -0.001056 0.000000
# 3 0.000948 -0.002805 0.008256 0.000000 0.000239 0.000000
# 4 0.000000 0.000000 0.000000 0.077789 0.000000 0.038804
# 5 0.008157 -0.001056 0.000239 0.000000 0.029924 0.000000
# 6 0.000000 0.000000 0.000000 0.038804 0.000000 0.094039
#
#
# Mechanical properties :
#
#
# Convention : Reuss Voigt Hill
#
# Bulk Modulus (GPa) = 24.61222 67.79231 46.20226
# Shear Modulus (GPa) = 18.10825 34.01746 26.06285
#
# Velocity S-wave (km/s) = 2.94320 4.03397 3.53096
# Velocity P-wave (km/s) = 4.82946 7.35711 6.22297
#
# Compressibility (1/GPa) = 0.04063022
#
# Stress axis : x y z
#
# Youngs Moduli (GPa) = 26.99086 184.48297 121.12728
#
# Poissons Ratio (x) = 0.58861 -0.11479
# Poissons Ratio (y) = 0.08612 0.33976
# Poissons Ratio (z) = -0.02558 0.51747
#
# Static dielectric constant tensor:
#      x y z
#    x 1.796640 0.000000 0.028660 
#    y 0.000000 1.830680 0.000000 
#    z 0.028660 0.000000 1.744780 
# 
# From -- ./inp_files/62001.got.cif
#   From: 2010.05.17/outbox.cif.g08.bks.cpg/sg10_32_cif.got.tgz:62001.got - 2010.06.03 11:33:40.
