data_PCOD9150001
_publ_section_title
;
Structure prediction by ZEFSAII (Michael W. Deem and Ramdas Pophale) SiO2 
 PCOD9150001
Probable space group: P 2/M
;
_chemical_formula_sum "Si O2"
_cell_formula_units_Z 32
_cell_length_a 8.936835
_cell_length_b 14.226691
_cell_length_c 21.909087
_cell_angle_alpha 90.000000
_cell_angle_beta 150.025868
_cell_angle_gamma 90.000000
_cell_volume 1391.688799
_symmetry_space_group_name_H-M "P 2/M"
_symmetry_group_IT_number 10
_symmetry_cell_setting 'monoclinic'
loop_
_space_group_symop_operation_xyz
x,y,z
-x,y,-z
-x,-y,-z
x,-y,z
loop_
_atom_site_type_symbol
_atom_site_label
_atom_site_fract_x
_atom_site_fract_y
_atom_site_fract_z
Si Si1 0.739358 0.609107 0.730680
Si Si2 0.455783 0.730335 0.721278
Si Si3 0.898561 0.391469 0.561846
Si Si4 0.198117 0.892797 0.930359
Si Si5 0.197236 0.894223 0.330484
Si Si6 0.718364 0.255811 0.935931
Si Si7 0.915964 0.301607 0.251048
Si Si8 0.661878 0.105133 0.406480
O O1 0.816368 0.500000 0.758886
O O2 0.675939 0.648902 0.775235
O O3 0.427267 0.620378 0.582658
O O4 0.983516 0.668003 0.780468
O O5 0.539024 0.782053 0.813219
O O6 0.468879 0.806528 0.673961
O O7 0.136085 0.680107 0.616439
O O8 0.988749 0.500000 0.582995
O O9 0.921333 0.367709 0.641610
O O10 0.954565 0.893142 0.790660
O O11 0.226022 0.000000 0.963665
O O12 0.500000 0.868919 0.000000
O O13 0.169345 0.820793 0.975977
O O14 0.551371 0.883299 0.438122
O O15 0.040733 0.804594 0.305943
O O16 0.146089 0.000000 0.337580
O O17 0.442941 0.311718 0.869034
O O18 0.000000 0.301312 0.000000
O O19 0.000000 0.107069 0.500000
O O20 0.558543 0.000000 0.353242
#
# Coordination Sequence:
#
# PCOD9150001 Si02
#       8
#     4   4   4   4   4   4   4   4
#     4  11  22  40  68  95 122 161 213 266 320 379
#     4  11  22  38  63  97 126 169 209 259 314 375
#     4  10  22  40  64  97 131 159 203 271 326 369
#     4  10  20  38  65  93 122 160 214 269 314 360
#     4  10  20  37  63  94 126 166 212 258 303 363
#     4  11  25  39  59  91 126 163 202 259 322 371
#     4  11  22  38  63  94 123 166 207 262 323 382
#     4  10  20  35  57  88 130 175 208 237 291 375
#
# _framework density 22.993645999999998
#
# number of rings (size 3 to 8) (size 9 to 14) (size 15 to 20)
#    0.000    1.500    2.500    3.000    0.000    2.750 
#    0.000    1.875    0.000   16.500    0.000    0.000 
#    0.000    0.000    0.000    0.000    0.000    0.000 
#
# Total GULP energy -178550.636408 kJ/mol
# GULP energy per Si atom -5579.707388 kJ/mol
# Density = 2.294131 g / cm^3
# Si number density = 22.993646 Si / 1000 Ang^3
#
#
#
# Elastic Constant Matrix: (Units=GPa)
#
#
# Indices 1 2 3 4 5 6 
#
# 1 75.5000 8.8871 24.1483 0.0000 27.3450 0.0000
# 2 8.8871 84.6195 24.0631 0.0000 -2.1323 0.0000
# 3 24.1483 24.0631 67.3412 0.0000 11.3809 0.0000
# 4 0.0000 0.0000 0.0000 17.9992 0.0000 -1.7467
# 5 27.3450 -2.1323 11.3809 0.0000 45.8738 0.0000
# 6 0.0000 0.0000 0.0000 -1.7467 0.0000 32.7601
#
#
#
# Elastic Compliance Matrix: (Units=1/GPa)
#
#
# Indices 1 2 3 4 5 6 
#
# 1 0.018396 -0.000866 -0.004621 0.000000 -0.009860 0.000000
# 2 -0.000866 0.013348 -0.004855 0.000000 0.002341 0.000000
# 3 -0.004621 -0.004855 0.018594 0.000000 -0.002084 0.000000
# 4 0.000000 0.000000 0.000000 0.055847 0.000000 0.002978
# 5 -0.009860 0.002341 -0.002084 0.000000 0.028302 0.000000
# 6 0.000000 0.000000 0.000000 0.002978 0.000000 0.030684
#
#
# Mechanical properties :
#
#
# Convention : Reuss Voigt Hill
#
# Bulk Modulus (GPa) = 33.72241 37.96199 35.84220
# Shear Modulus (GPa) = 25.54421 30.68409 28.11415
#
# Velocity S-wave (km/s) = 3.33667 3.65699 3.50049
# Velocity P-wave (km/s) = 5.43528 5.86319 5.65329
#
# Compressibility (1/GPa) = 0.02965387
#
# Stress axis : x y z
#
# Youngs Moduli (GPa) = 54.35978 74.91687 53.78159
#
# Poissons Ratio (x) = 0.06491 0.24851
# Poissons Ratio (y) = 0.04710 0.26109
# Poissons Ratio (z) = 0.25119 0.36370
#
# Static dielectric constant tensor:
#      x y z
#    x 1.907120 0.000000 0.046520 
#    y 0.000000 1.830810 0.000000 
#    z 0.046520 0.000000 2.005770 
# 
# From -- ./inp_files/88284.got.cif
#   From: 2010.05.17/outbox.cif.g08.bks.cpg/sg10_45_cif.got.tgz:88284.got - 2010.06.03 11:33:40.
