data_PCOD9150848
_publ_section_title
;
Structure prediction by ZEFSAII (Michael W. Deem and Ramdas Pophale) SiO2 
 PCOD9150848
Probable space group: P 2/M
;
_chemical_formula_sum "Si O2"
_cell_formula_units_Z 28
_cell_length_a 9.273059
_cell_length_b 8.984893
_cell_length_c 29.627456
_cell_angle_alpha 90.000000
_cell_angle_beta 38.531964
_cell_angle_gamma 90.000000
_cell_volume 1537.744840
_symmetry_space_group_name_H-M "P 2/M"
_symmetry_group_IT_number 10
_symmetry_cell_setting 'monoclinic'
loop_
_space_group_symop_operation_xyz
x,y,z
-x,y,-z
-x,-y,-z
x,-y,z
loop_
_atom_site_type_symbol
_atom_site_label
_atom_site_fract_x
_atom_site_fract_y
_atom_site_fract_z
Si Si1 0.809748 0.677373 0.641244
Si Si2 0.361251 0.178056 0.224867
Si Si3 0.309335 0.822299 0.508944
Si Si4 0.491573 0.821364 0.363504
Si Si5 0.973626 0.821362 0.776292
Si Si6 0.737292 0.323766 0.073559
Si Si7 0.603548 0.323877 0.927516
O O1 0.802327 0.500000 0.644050
O O2 0.695897 0.744462 0.714209
O O3 0.671529 0.739405 0.631991
O O4 0.072719 0.735039 0.574289
O O5 0.165960 0.219566 0.235238
O O6 0.603444 0.233428 0.144771
O O7 0.359592 0.000000 0.230459
O O8 0.500000 0.785471 0.500000
O O9 0.410387 0.792934 0.434497
O O10 0.261811 0.000000 0.524059
O O11 0.759236 0.775929 0.291748
O O12 0.475849 0.000000 0.359949
O O13 0.833414 0.753810 0.852516
O O14 0.965854 0.000000 0.781222
O O15 0.736859 0.500000 0.085138
O O16 0.589017 0.305101 0.064197
O O17 0.000000 0.277379 0.000000
O O18 0.650279 0.500000 0.921066
O O19 0.500000 0.267565 0.000000
#
# Coordination Sequence:
#
# PCOD9150848 Si02
#       7
#     4   4   4   4   4   4   4
#     4  12  25  38  55  83 117 148 182 226 275 324
#     4  10  20  37  59  81 108 144 189 233 275 328
#     4  10  21  40  65  87 110 145 185 223 269 326
#     4  10  21  38  59  83 112 145 181 223 273 326
#     4   9  19  36  58  82 106 138 183 231 274 321
#     4   9  18  33  52  76 109 145 181 224 274 327
#     4   9  18  32  50  74 106 144 181 218 266 324
#
# _framework density 18.208482
#
# number of rings (size 3 to 8) (size 9 to 14) (size 15 to 20)
#    0.000    2.143    0.000    3.000    0.000    7.714 
#    0.000    2.857    0.000    0.000    0.000    0.000 
#    0.000    0.000    0.000    0.000    0.000    0.000 
#
# Total GULP energy -156375.635168 kJ/mol
# GULP energy per Si atom -5584.844113 kJ/mol
# Density = 1.816704 g / cm^3
# Si number density = 18.208482 Si / 1000 Ang^3
#
#
#
# Elastic Constant Matrix: (Units=GPa)
#
#
# Indices 1 2 3 4 5 6 
#
# 1 112.5481 65.2787 93.6846 0.0000 0.3352 0.0000
# 2 65.2787 59.8610 79.2594 0.0000 1.5746 0.0000
# 3 93.6846 79.2594 170.1812 0.0000 0.0333 0.0000
# 4 0.0000 0.0000 0.0000 30.0358 0.0000 2.7296
# 5 0.3352 1.5746 0.0333 0.0000 36.7818 0.0000
# 6 0.0000 0.0000 0.0000 2.7296 0.0000 11.1432
#
#
#
# Elastic Compliance Matrix: (Units=1/GPa)
#
#
# Indices 1 2 3 4 5 6 
#
# 1 0.024680 -0.023334 -0.002719 0.000000 0.000776 0.000000
# 2 -0.023334 0.065766 -0.017784 0.000000 -0.002587 0.000000
# 3 -0.002719 -0.017784 0.015655 0.000000 0.000772 0.000000
# 4 0.000000 0.000000 0.000000 0.034052 0.000000 -0.008341
# 5 0.000776 -0.002587 0.000772 0.000000 0.027290 0.000000
# 6 0.000000 0.000000 0.000000 -0.008341 0.000000 0.091784
#
#
# Mechanical properties :
#
#
# Convention : Reuss Voigt Hill
#
# Bulk Modulus (GPa) = 54.26589 91.00396 72.63493
# Shear Modulus (GPa) = 14.16262 22.55001 18.35632
#
# Velocity S-wave (km/s) = 2.79194 3.52296 3.17853
# Velocity P-wave (km/s) = 6.34511 8.16307 7.31082
#
# Compressibility (1/GPa) = 0.01842778
#
# Stress axis : x y z
#
# Youngs Moduli (GPa) = 40.51888 15.20551 63.87650
#
# Poissons Ratio (x) = 0.35480 0.17368
# Poissons Ratio (y) = 0.94546 1.13596
# Poissons Ratio (z) = 0.11017 0.27041
#
# Static dielectric constant tensor:
#      x y z
#    x 1.608090 0.000000 -0.000570 
#    y 0.000000 1.609910 0.000000 
#    z -0.000570 0.000000 1.601770 
# 
# From -- ./inp_files/74350.got.cif
#   From: 2010.05.17/outbox.cif.g08.bks.cpg/sg10_38_cif.got.tgz:74350.got - 2010.06.03 11:33:40.
