data_PCOD9150787
_publ_section_title
;
Structure prediction by ZEFSAII (Michael W. Deem and Ramdas Pophale) SiO2 
 PCOD9150787
Probable space group: P 2/M
;
_chemical_formula_sum "Si O2"
_cell_formula_units_Z 26
_cell_length_a 11.934490
_cell_length_b 27.306860
_cell_length_c 5.233314
_cell_angle_alpha 90.000000
_cell_angle_beta 130.063511
_cell_angle_gamma 90.000000
_cell_volume 1305.274900
_symmetry_space_group_name_H-M "P 2/M"
_symmetry_group_IT_number 10
_symmetry_cell_setting 'monoclinic'
loop_
_space_group_symop_operation_xyz
x,y,z
-x,y,-z
-x,-y,-z
x,-y,z
loop_
_atom_site_type_symbol
_atom_site_label
_atom_site_fract_x
_atom_site_fract_y
_atom_site_fract_z
Si Si1 0.322756 0.204630 0.236251
Si Si2 0.312090 0.554803 0.873587
Si Si3 0.500000 0.637315 0.000000
Si Si4 0.666242 0.686449 0.630737
Si Si5 0.162491 0.410778 0.131420
Si Si6 0.099076 0.942967 0.393043
Si Si7 0.323163 0.143671 0.735497
O O1 0.500000 0.207023 0.500000
O O2 0.274507 0.260413 0.212153
O O3 0.280652 0.170978 0.412362
O O4 0.281614 0.178759 0.911724
O O5 0.371379 0.500000 0.976941
O O6 0.430901 0.597740 0.094707
O O7 0.253792 0.566308 0.502745
O O8 0.188892 0.559627 0.910122
O O9 0.372515 0.673624 0.721002
O O10 0.500000 0.682983 0.500000
O O11 0.778323 0.643243 0.853754
O O12 0.000000 0.408967 0.000000
O O13 0.236462 0.907034 0.618688
O O14 0.000000 0.937996 0.500000
O O15 0.143832 0.000000 0.435759
O O16 0.000000 0.931040 0.000000
O O17 0.500000 0.136898 0.000000
#
# Coordination Sequence:
#
# PCOD9150787 Si02
#       7
#     4   4   2   4   4   4   4
#     4   9  20  32  58  85 116 149 192 240 292 344
#     4  11  23  39  60  84 113 146 187 234 287 347
#     4  10  21  36  60  90 114 144 189 242 286 338
#     4  10  20  37  60  83 112 149 193 232 285 345
#     4  11  24  40  58  83 114 149 187 235 286 347
#     4  10  21  38  61  86 119 163 204 243 293 351
#     4  10  20  37  56  89 120 153 196 249 294 343
#
# _framework density 19.919177000000001
#
# number of rings (size 3 to 8) (size 9 to 14) (size 15 to 20)
#    0.000    1.846    1.538    2.077    5.385    2.154 
#    0.000    4.615    0.000    5.538    0.000    0.000 
#    0.000    0.000    0.000    0.000    0.000    0.000 
#
# Total GULP energy -144957.083492 kJ/mol
# GULP energy per Si atom -5575.272442 kJ/mol
# Density = 1.987384 g / cm^3
# Si number density = 19.919177 Si / 1000 Ang^3
#
#
#
# Elastic Constant Matrix: (Units=GPa)
#
#
# Indices 1 2 3 4 5 6 
#
# 1 106.5822 54.0912 30.0978 0.0000 -14.7352 0.0000
# 2 54.0912 149.6546 43.5457 0.0000 -6.6341 0.0000
# 3 30.0978 43.5457 59.5290 0.0000 -18.5102 0.0000
# 4 0.0000 0.0000 0.0000 8.7171 0.0000 1.7820
# 5 -14.7352 -6.6341 -18.5102 0.0000 29.1301 0.0000
# 6 0.0000 0.0000 0.0000 1.7820 0.0000 3.5487
#
#
#
# Elastic Compliance Matrix: (Units=1/GPa)
#
#
# Indices 1 2 3 4 5 6 
#
# 1 0.012447 -0.003620 -0.002423 0.000000 0.003933 0.000000
# 2 -0.003620 0.009691 -0.006408 0.000000 -0.003696 0.000000
# 3 -0.002423 -0.006408 0.027263 0.000000 0.014639 0.000000
# 4 0.000000 0.000000 0.000000 0.127840 0.000000 -0.064196
# 5 0.003933 -0.003696 0.014639 0.000000 0.044778 0.000000
# 6 0.000000 0.000000 0.000000 -0.064196 0.000000 0.314031
#
#
# Mechanical properties :
#
#
# Convention : Reuss Voigt Hill
#
# Bulk Modulus (GPa) = 40.81612 63.47061 52.14337
# Shear Modulus (GPa) = 8.78550 20.81459 14.80005
#
# Velocity S-wave (km/s) = 2.10242 3.23608 2.72877
# Velocity P-wave (km/s) = 5.14090 6.77467 6.01353
#
# Compressibility (1/GPa) = 0.02450012
#
# Stress axis : x y z
#
# Youngs Moduli (GPa) = 80.33888 103.18698 36.67975
#
# Poissons Ratio (x) = 0.37350 0.08887
# Poissons Ratio (y) = 0.29080 0.23505
# Poissons Ratio (z) = 0.19464 0.66125
#
# Static dielectric constant tensor:
#      x y z
#    x 1.746730 0.000000 -0.038620 
#    y 0.000000 1.690130 0.000000 
#    z -0.038620 0.000000 1.784400 
# 
# From -- ./inp_files/7791.got.cif
#   From: 2010.05.17/outbox.cif.g08.bks.cpg/sg10_4_cif.got.tgz:7791.got - 2010.06.03 11:33:40.
