data_PCOD9150176
_publ_section_title
;
Structure prediction by ZEFSAII (Michael W. Deem and Ramdas Pophale) SiO2 
 PCOD9150176
Probable space group: P 2/M
;
_chemical_formula_sum "Si O2"
_cell_formula_units_Z 18
_cell_length_a 9.336006
_cell_length_b 5.790181
_cell_length_c 17.042313
_cell_angle_alpha 90.000000
_cell_angle_beta 134.704290
_cell_angle_gamma 90.000000
_cell_volume 654.781975
_symmetry_space_group_name_H-M "P 2/M"
_symmetry_group_IT_number 10
_symmetry_cell_setting 'monoclinic'
loop_
_space_group_symop_operation_xyz
x,y,z
-x,y,-z
-x,-y,-z
x,-y,z
loop_
_atom_site_type_symbol
_atom_site_label
_atom_site_fract_x
_atom_site_fract_y
_atom_site_fract_z
Si Si1 0.048619 0.000000 0.157819
Si Si2 0.013116 0.500000 0.098501
Si Si3 0.958493 0.751043 0.391599
Si Si4 0.380621 0.500000 0.871362
Si Si5 0.528986 0.500000 0.755073
Si Si6 0.259445 0.000000 0.409541
Si Si7 0.467878 0.000000 0.234310
Si Si8 0.375107 0.000000 0.871900
O O1 0.940949 0.249044 0.102366
O O2 0.156164 0.000000 0.284388
O O3 0.233545 0.000000 0.167558
O O4 0.255373 0.500000 0.204714
O O5 0.000000 0.500000 0.000000
O O6 0.868142 0.500000 0.340042
O O7 0.000000 0.749528 0.500000
O O8 0.853326 0.000000 0.336245
O O9 0.164740 0.785806 0.422133
O O10 0.529779 0.500000 0.851762
O O11 0.269988 0.748760 0.829216
O O12 0.500000 0.500000 0.000000
O O13 0.444469 0.245518 0.701722
O O14 0.500000 0.000000 0.500000
O O15 0.472534 0.000000 0.142337
O O16 0.500000 0.000000 0.000000
#
# Coordination Sequence:
#
# PCOD9150176 Si02
#       8
#     2   2   4   2   2   2   2   2
#     4  10  21  33  51  79 109 144 184 235 301 361
#     4  10  20  36  53  71  99 143 192 239 287 345
#     4   8  16  32  53  79 113 159 205 240 290 361
#     4   8  12  18  30  52  73  96 132 181 229 286
#     4   8  14  24  40  59  79 109 145 198 248 307
#     4  10  21  34  55  90 130 161 195 244 308 375
#     4   8  14  25  37  57  89 116 154 198 253 313
#     4   8  12  18  31  50  73  99 144 187 227 281
#
# _framework density 27.490067
#
# number of rings (size 3 to 8) (size 9 to 14) (size 15 to 20)
#    0.667    2.667    0.000    0.333    1.556    0.444 
#    0.000    0.000    0.000    0.000    0.000   37.333 
#    0.000    0.000    0.000    0.000    0.000    0.000 
#
# Total GULP energy -100525.307957 kJ/mol
# GULP energy per Si atom -5584.739331 kJ/mol
# Density = 2.742750 g / cm^3
# Si number density = 27.490067 Si / 1000 Ang^3
#
#
#
# Elastic Constant Matrix: (Units=GPa)
#
#
# Indices 1 2 3 4 5 6 
#
# 1 136.4324 17.6110 14.5191 0.0000 -25.3552 0.0000
# 2 17.6110 384.7914 65.2486 0.0000 15.3749 0.0000
# 3 14.5191 65.2486 82.0778 0.0000 -19.3531 0.0000
# 4 0.0000 0.0000 0.0000 52.0607 0.0000 14.7769
# 5 -25.3552 15.3749 -19.3531 0.0000 41.3756 0.0000
# 6 0.0000 0.0000 0.0000 14.7769 0.0000 -16.5046
#
#
#
# Elastic Compliance Matrix: (Units=1/GPa)
#
#
# Indices 1 2 3 4 5 6 
#
# 1 0.008413 -0.000668 0.000356 0.000000 0.005571 0.000000
# 2 -0.000668 0.003308 -0.003257 0.000000 -0.003162 0.000000
# 3 0.000356 -0.003257 0.016912 0.000000 0.009339 0.000000
# 4 0.000000 0.000000 0.000000 0.015316 0.000000 0.013713
# 5 0.005571 -0.003162 0.009339 0.000000 0.033126 0.000000
# 6 0.000000 0.000000 0.000000 0.013713 0.000000 -0.048312
#
#
# Mechanical properties :
#
#
# Convention : Reuss Voigt Hill
#
# Bulk Modulus (GPa) = 46.52175 88.67323 67.59749
# Shear Modulus (GPa) = 116.09978 49.11453 82.60715
#
# Velocity S-wave (km/s) = 6.50577 4.23144 5.48772
# Velocity P-wave (km/s) = 8.56699 7.49666 8.04963
#
# Compressibility (1/GPa) = 0.02149532
#
# Stress axis : x y z
#
# Youngs Moduli (GPa) = 118.86071 302.29242 59.12977
#
# Poissons Ratio (x) = 0.20195 -0.02107
# Poissons Ratio (y) = 0.07941 0.19260
# Poissons Ratio (z) = -0.04235 0.98463
#
# Static dielectric constant tensor:
#      x y z
#    x 2.158270 0.000000 0.001530 
#    y 0.000000 2.188970 0.000000 
#    z 0.001530 0.000000 2.142940 
# 
# From -- ./inp_files/75614.got.cif
#   From: 2010.05.17/outbox.cif.g08.bks.cpg/sg10_38_cif.got.tgz:75614.got - 2010.06.03 11:33:40.
