data_PCOD9150589
_publ_section_title
;
Structure prediction by ZEFSAII (Michael W. Deem and Ramdas Pophale) SiO2 
 PCOD9150589
Probable space group: P 2/M
;
_chemical_formula_sum "Si O2"
_cell_formula_units_Z 32
_cell_length_a 18.339720
_cell_length_b 16.447371
_cell_length_c 12.692511
_cell_angle_alpha 90.000000
_cell_angle_beta 155.189444
_cell_angle_gamma 90.000000
_cell_volume 1606.542486
_symmetry_space_group_name_H-M "P 2/M"
_symmetry_group_IT_number 10
_symmetry_cell_setting 'monoclinic'
loop_
_space_group_symop_operation_xyz
x,y,z
-x,y,-z
-x,-y,-z
x,-y,z
loop_
_atom_site_type_symbol
_atom_site_label
_atom_site_fract_x
_atom_site_fract_y
_atom_site_fract_z
Si Si1 0.759560 0.782333 0.450774
Si Si2 0.415418 0.804190 0.276420
Si Si3 0.525818 0.332374 0.250180
Si Si4 0.152061 0.596566 0.781227
Si Si5 0.113537 0.705310 0.936080
Si Si6 0.831604 0.903685 0.354226
Si Si7 0.204617 0.408771 0.239575
Si Si8 0.479675 0.091145 0.757052
O O1 0.609402 0.712875 0.258881
O O2 0.816449 0.831793 0.421103
O O3 0.677149 0.851744 0.415033
O O4 0.923238 0.735909 0.714994
O O5 0.500000 0.795602 0.500000
O O6 0.480362 0.736727 0.277895
O O7 0.460871 0.888726 0.282601
O O8 0.214844 0.784804 0.030036
O O9 0.669143 0.387942 0.497302
O O10 0.343153 0.376920 0.991831
O O11 0.150929 0.500000 0.796499
O O12 0.111034 0.642898 0.835762
O O13 0.000000 0.617842 0.500000
O O14 0.214683 0.659378 0.162173
O O15 0.000000 0.892052 0.500000
O O16 0.838018 0.000000 0.399226
O O17 0.651439 0.895166 0.053235
O O18 0.248591 0.500000 0.258651
O O19 0.000000 0.409292 0.000000
O O20 0.423708 0.000000 0.698384
#
# Coordination Sequence:
#
# PCOD9150589 Si02
#       8
#     4   4   4   4   4   4   4   4
#     4  11  22  36  60  90 123 158 196 251 311 359
#     4  10  20  36  60  86 120 158 202 256 307 352
#     4  10  21  39  61  92 121 161 207 256 309 368
#     4  10  23  42  60  84 125 167 206 254 307 372
#     4  11  22  37  61  91 121 160 205 260 310 367
#     4  10  21  39  63  91 122 158 205 254 303 362
#     4  11  21  36  62  92 123 158 205 262 315 363
#     4  10  22  39  59  87 122 163 208 251 302 365
#
# _framework density 19.918552999999999
#
# number of rings (size 3 to 8) (size 9 to 14) (size 15 to 20)
#    0.000    1.625    2.500    2.250    0.000    5.750 
#    0.000    2.500    0.000    2.250    0.000    0.000 
#    0.000    0.000    0.000    0.000    0.000    0.000 
#
# Total GULP energy -178446.554749 kJ/mol
# GULP energy per Si atom -5576.454836 kJ/mol
# Density = 1.987322 g / cm^3
# Si number density = 19.918553 Si / 1000 Ang^3
#
#
#
# Elastic Constant Matrix: (Units=GPa)
#
#
# Indices 1 2 3 4 5 6 
#
# 1 65.0107 39.3864 38.5945 0.0000 1.8588 0.0000
# 2 39.3864 75.6733 51.8723 0.0000 6.9489 0.0000
# 3 38.5945 51.8723 116.3230 0.0000 10.9177 0.0000
# 4 0.0000 0.0000 0.0000 -37.6965 0.0000 23.7244
# 5 1.8588 6.9489 10.9177 0.0000 26.1214 0.0000
# 6 0.0000 0.0000 0.0000 23.7244 0.0000 16.4193
#
#
#
# Elastic Compliance Matrix: (Units=1/GPa)
#
#
# Indices 1 2 3 4 5 6 
#
# 1 0.023492 -0.010013 -0.003562 0.000000 0.002481 0.000000
# 2 -0.010013 0.023363 -0.006848 0.000000 -0.002640 0.000000
# 3 -0.003562 -0.006848 0.013154 0.000000 -0.003422 0.000000
# 4 0.000000 0.000000 0.000000 -0.013894 0.000000 0.020075
# 5 0.002481 -0.002640 -0.003422 0.000000 0.040239 0.000000
# 6 0.000000 0.000000 0.000000 0.020075 0.000000 0.031898
#
#
# Mechanical properties :
#
#
# Convention : Reuss Voigt Hill
#
# Bulk Modulus (GPa) = 52.18704 57.41258 54.79981
# Shear Modulus (GPa) = 30.21379 9.44577 19.82978
#
# Velocity S-wave (km/s) = 3.89892 2.18002 3.15865
# Velocity P-wave (km/s) = 6.82099 5.93489 6.39331
#
# Compressibility (1/GPa) = 0.01916185
#
# Stress axis : x y z
#
# Youngs Moduli (GPa) = 42.56702 42.80222 76.02428
#
# Poissons Ratio (x) = 0.42860 0.27080
# Poissons Ratio (y) = 0.42624 0.52064
# Poissons Ratio (z) = 0.15162 0.29312
#
# Static dielectric constant tensor:
#      x y z
#    x 1.727640 0.000000 0.017340 
#    y 0.000000 1.708030 0.000000 
#    z 0.017340 0.000000 1.717010 
# 
# From -- ./inp_files/70876.got.cif
#   From: 2010.05.17/outbox.cif.g08.bks.cpg/sg10_36_cif.got.tgz:70876.got - 2010.06.03 11:33:40.
