data_PCOD9150261
_publ_section_title
;
Structure prediction by ZEFSAII (Michael W. Deem and Ramdas Pophale) SiO2 
 PCOD9150261
Probable space group: P 2/M
;
_chemical_formula_sum "Si O2"
_cell_formula_units_Z 32
_cell_length_a 30.790328
_cell_length_b 7.998904
_cell_length_c 11.850567
_cell_angle_alpha 90.000000
_cell_angle_beta 145.637531
_cell_angle_gamma 90.000000
_cell_volume 1647.370365
_symmetry_space_group_name_H-M "P 2/M"
_symmetry_group_IT_number 10
_symmetry_cell_setting 'monoclinic'
loop_
_space_group_symop_operation_xyz
x,y,z
-x,y,-z
-x,-y,-z
x,-y,z
loop_
_atom_site_type_symbol
_atom_site_label
_atom_site_fract_x
_atom_site_fract_y
_atom_site_fract_z
Si Si1 0.543509 0.298510 0.764595
Si Si2 0.995691 0.702865 0.819033
Si Si3 0.127661 0.298955 0.284698
Si Si4 0.233069 0.801209 0.126508
Si Si5 0.426514 0.201925 0.913956
Si Si6 0.940163 0.701685 0.278310
Si Si7 0.383417 0.701960 0.311878
Si Si8 0.725948 0.802374 0.534957
O O1 0.543100 0.500000 0.761252
O O2 0.598178 0.243154 0.777488
O O3 0.456726 0.242721 0.545161
O O4 0.567565 0.246581 0.941430
O O5 0.990974 0.500000 0.803633
O O6 0.912478 0.759116 0.685498
O O7 0.026359 0.767963 0.767472
O O8 0.062083 0.738870 0.051688
O O9 0.137873 0.500000 0.310521
O O10 0.205486 0.221586 0.406817
O O11 0.303557 0.757846 0.195191
O O12 0.250908 0.732761 0.291797
O O13 0.228256 0.000000 0.124896
O O14 0.149786 0.742444 0.904816
O O15 0.350939 0.267276 0.687425
O O16 0.425232 0.000000 0.906704
O O17 0.500000 0.260401 0.000000
O O18 0.944489 0.500000 0.285692
O O19 0.000000 0.762212 0.500000
O O20 0.383609 0.500000 0.311957
O O21 0.713484 0.000000 0.525123
#
# Coordination Sequence:
#
# PCOD9150261 Si02
#       8
#     4   4   4   4   4   4   4   4
#     4   9  19  37  59  84 111 140 181 229 271 315
#     4   8  15  30  52  77 100 127 170 215 260 317
#     4   9  16  30  54  76  98 132 175 221 261 311
#     4  11  22  36  56  81 109 142 185 227 265 320
#     4  10  21  37  55  77 113 153 182 216 267 325
#     4  10  20  36  57  78 105 141 178 222 278 328
#     4   9  19  37  60  83 110 143 179 225 274 318
#     4  10  21  35  51  77 110 142 180 223 269 318
#
# _framework density 19.424897000000001
#
# number of rings (size 3 to 8) (size 9 to 14) (size 15 to 20)
#    0.000    2.500    1.250    2.625    0.000    3.500 
#    2.250    3.125    0.000    0.000    0.000    0.000 
#    0.000    0.000    0.000    0.000    0.000    0.000 
#
# Total GULP energy -178395.966298 kJ/mol
# GULP energy per Si atom -5574.873947 kJ/mol
# Density = 1.938068 g / cm^3
# Si number density = 19.424897 Si / 1000 Ang^3
#
#
#
# Elastic Constant Matrix: (Units=GPa)
#
#
# Indices 1 2 3 4 5 6 
#
# 1 132.0792 2.2858 90.7078 0.0000 25.7699 0.0000
# 2 2.2858 13.2916 12.0217 0.0000 -4.2225 0.0000
# 3 90.7078 12.0217 149.0021 0.0000 14.2501 0.0000
# 4 0.0000 0.0000 0.0000 20.0028 0.0000 1.2041
# 5 25.7699 -4.2225 14.2501 0.0000 24.4644 0.0000
# 6 0.0000 0.0000 0.0000 1.2041 0.0000 22.1223
#
#
#
# Elastic Compliance Matrix: (Units=1/GPa)
#
#
# Indices 1 2 3 4 5 6 
#
# 1 0.015599 0.001490 -0.008545 0.000000 -0.011196 0.000000
# 2 0.001490 0.090457 -0.010111 0.000000 0.019933 0.000000
# 3 -0.008545 -0.010111 0.012745 0.000000 -0.000168 0.000000
# 4 0.000000 0.000000 0.000000 0.050157 0.000000 -0.002730
# 5 -0.011196 0.019933 -0.000168 0.000000 0.056208 0.000000
# 6 0.000000 0.000000 0.000000 -0.002730 0.000000 0.045352
#
#
# Mechanical properties :
#
#
# Convention : Reuss Voigt Hill
#
# Bulk Modulus (GPa) = 11.83903 56.04483 33.94193
# Shear Modulus (GPa) = 15.01469 25.94175 20.47822
#
# Velocity S-wave (km/s) = 2.78323 3.65840 3.25041
# Velocity P-wave (km/s) = 4.05420 6.83812 5.62123
#
# Compressibility (1/GPa) = 0.08446634
#
# Stress axis : x y z
#
# Youngs Moduli (GPa) = 64.10827 11.05501 78.46035
#
# Poissons Ratio (x) = -0.01647 0.67047
# Poissons Ratio (y) = -0.09549 0.79334
# Poissons Ratio (z) = 0.54783 0.11178
#
# Static dielectric constant tensor:
#      x y z
#    x 1.724740 0.000000 -0.017480 
#    y 0.000000 1.698470 0.000000 
#    z -0.017480 0.000000 1.680750 
# 
# From -- ./inp_files/58377.got.cif
#   From: 2010.05.17/outbox.cif.g08.bks.cpg/sg10_30_cif.got.tgz:58377.got - 2010.06.03 11:33:40.
