data_PCOD9150546
_publ_section_title
;
Structure prediction by ZEFSAII (Michael W. Deem and Ramdas Pophale) SiO2 
 PCOD9150546
Probable space group: P 2/M
;
_chemical_formula_sum "Si O2"
_cell_formula_units_Z 24
_cell_length_a 9.571052
_cell_length_b 8.345153
_cell_length_c 14.159215
_cell_angle_alpha 90.000000
_cell_angle_beta 103.973520
_cell_angle_gamma 90.000000
_cell_volume 1097.456383
_symmetry_space_group_name_H-M "P 2/M"
_symmetry_group_IT_number 10
_symmetry_cell_setting 'monoclinic'
loop_
_space_group_symop_operation_xyz
x,y,z
-x,y,-z
-x,-y,-z
x,-y,z
loop_
_atom_site_type_symbol
_atom_site_label
_atom_site_fract_x
_atom_site_fract_y
_atom_site_fract_z
Si Si1 0.072278 0.689873 0.867082
Si Si2 0.464355 0.186782 0.249425
Si Si3 0.696854 0.685436 0.598641
Si Si4 0.007218 0.182592 0.656955
Si Si5 0.214159 0.193226 0.073248
Si Si6 0.725475 0.312562 0.395598
O O1 0.083353 0.500000 0.854231
O O2 0.079371 0.782016 0.769923
O O3 0.916284 0.731066 0.887347
O O4 0.188108 0.748688 0.962711
O O5 0.366271 0.211800 0.326698
O O6 0.365279 0.238689 0.145603
O O7 0.609577 0.281168 0.295204
O O8 0.499628 0.000000 0.244259
O O9 0.654292 0.500000 0.607283
O O10 0.656878 0.733452 0.485340
O O11 0.869662 0.702915 0.627909
O O12 0.129437 0.216781 0.600348
O O13 0.956769 0.000000 0.643569
O O14 0.200181 0.000000 0.075763
O O15 0.760672 0.500000 0.406316
#
# Coordination Sequence:
#
# PCOD9150546 Si02
#       6
#     4   4   4   4   4   4
#     4  11  21  35  60  90 119 154 197 245 297 354
#     4  11  23  39  62  91 123 160 200 245 297 353
#     4  11  23  40  63  89 119 158 204 250 297 352
#     4  12  24  40  62  89 121 158 200 250 302 357
#     4  10  20  36  59  89 122 154 195 246 296 348
#     4  11  25  42  60  86 123 162 200 248 301 356
#
# _framework density 21.868749000000001
#
# number of rings (size 3 to 8) (size 9 to 14) (size 15 to 20)
#    0.000    1.000    1.667    7.000    0.000    8.667 
#    0.000    0.833    0.000    5.000    0.000    0.000 
#    0.000    0.000    0.000    0.000    0.000    0.000 
#
# Total GULP energy -134321.058603 kJ/mol
# GULP energy per Si atom -5596.710775 kJ/mol
# Density = 2.181898 g / cm^3
# Si number density = 21.868749 Si / 1000 Ang^3
#
#
#
# Elastic Constant Matrix: (Units=GPa)
#
#
# Indices 1 2 3 4 5 6 
#
# 1 46.5067 -6.8639 -0.5739 0.0000 14.1902 0.0000
# 2 -6.8639 51.0204 1.7710 0.0000 3.8715 0.0000
# 3 -0.5739 1.7710 78.8439 0.0000 24.9505 0.0000
# 4 0.0000 0.0000 0.0000 30.8557 0.0000 4.7040
# 5 14.1902 3.8715 24.9505 0.0000 34.5003 0.0000
# 6 0.0000 0.0000 0.0000 4.7040 0.0000 45.4883
#
#
#
# Elastic Compliance Matrix: (Units=1/GPa)
#
#
# Indices 1 2 3 4 5 6 
#
# 1 0.026836 0.004585 0.004861 0.000000 -0.015068 0.000000
# 2 0.004585 0.020558 0.001165 0.000000 -0.005035 0.000000
# 3 0.004861 0.001165 0.017333 0.000000 -0.014665 0.000000
# 4 0.000000 0.000000 0.000000 0.032928 0.000000 -0.003405
# 5 -0.015068 -0.005035 -0.014665 0.000000 0.046354 0.000000
# 6 0.000000 0.000000 0.000000 -0.003405 0.000000 0.022336
#
#
# Mechanical properties :
#
#
# Convention : Reuss Voigt Hill
#
# Bulk Modulus (GPa) = 11.63473 18.33749 14.98611
# Shear Modulus (GPa) = 28.77293 34.30473 31.53883
#
# Velocity S-wave (km/s) = 3.63121 3.96493 3.80173
# Velocity P-wave (km/s) = 4.78672 5.41889 5.11259
#
# Compressibility (1/GPa) = 0.08594957
#
# Stress axis : x y z
#
# Youngs Moduli (GPa) = 37.26281 48.64174 57.69200
#
# Poissons Ratio (x) = -0.22302 -0.28042
# Poissons Ratio (y) = -0.17085 -0.06721
# Poissons Ratio (z) = -0.18112 -0.05667
#
# Static dielectric constant tensor:
#      x y z
#    x 1.789970 0.000000 0.013440 
#    y 0.000000 1.727240 0.000000 
#    z 0.013440 0.000000 1.830570 
# 
# From -- ./inp_files/60366.got.cif
#   From: 2010.05.17/outbox.cif.g08.bks.cpg/sg10_31_cif.got.tgz:60366.got - 2010.06.03 11:33:40.
