data_PCOD9150172
_publ_section_title
;
Structure prediction by ZEFSAII (Michael W. Deem and Ramdas Pophale) SiO2 
 PCOD9150172
Probable space group: P 2/M
;
_chemical_formula_sum "Si O2"
_cell_formula_units_Z 28
_cell_length_a 26.300964
_cell_length_b 8.950665
_cell_length_c 20.404383
_cell_angle_alpha 90.000000
_cell_angle_beta 159.245577
_cell_angle_gamma 90.000000
_cell_volume 1702.154913
_symmetry_space_group_name_H-M "P 2/M"
_symmetry_group_IT_number 10
_symmetry_cell_setting 'monoclinic'
loop_
_space_group_symop_operation_xyz
x,y,z
-x,y,-z
-x,-y,-z
x,-y,z
loop_
_atom_site_type_symbol
_atom_site_label
_atom_site_fract_x
_atom_site_fract_y
_atom_site_fract_z
Si Si1 0.968705 0.321560 0.387631
Si Si2 0.059190 0.320288 0.999593
Si Si3 0.560626 0.180416 0.380978
Si Si4 0.190849 0.678847 0.403540
Si Si5 0.363527 0.180155 0.379016
Si Si6 0.935778 0.176269 0.623236
Si Si7 0.757627 0.822726 0.043507
O O1 0.977538 0.500000 0.392288
O O2 0.000000 0.279073 0.500000
O O3 0.074779 0.244470 0.462643
O O4 0.813576 0.264832 0.174919
O O5 0.072952 0.500000 0.016014
O O6 0.214087 0.248640 0.175440
O O7 0.000000 0.275116 0.000000
O O8 0.941918 0.277976 0.803980
O O9 0.666843 0.252593 0.456657
O O10 0.608578 0.224514 0.511894
O O11 0.395669 0.223411 0.168455
O O12 0.569477 0.000000 0.387699
O O13 0.200332 0.500000 0.416065
O O14 0.156704 0.741647 0.434064
O O15 0.500000 0.225615 0.500000
O O16 0.353756 0.000000 0.364524
O O17 0.907200 0.000000 0.588566
O O18 0.107675 0.198879 0.843682
O O19 0.753014 0.000000 0.052343
#
# Coordination Sequence:
#
# PCOD9150172 Si02
#       7
#     4   4   4   4   4   4   4
#     4   9  17  31  54  84 114 140 170 209 253 304
#     4  10  21  38  53  71 101 136 178 220 266 319
#     4  10  20  36  52  73 104 138 175 217 266 315
#     4  11  22  35  53  76 104 139 179 223 266 317
#     4  10  22  35  52  76 100 130 174 224 268 313
#     4   9  19  34  54  80 106 138 174 214 258 306
#     4   8  18  33  52  77 105 137 174 211 253 308
#
# _framework density 16.449736999999999
#
# number of rings (size 3 to 8) (size 9 to 14) (size 15 to 20)
#    0.857    1.571    1.429    0.857    2.000    3.429 
#    0.000    0.000    0.000    0.857    0.000    6.000 
#    0.000    0.000    0.000    0.000    0.000    0.000 
#
# Total GULP energy -155930.746420 kJ/mol
# GULP energy per Si atom -5568.955229 kJ/mol
# Density = 1.641230 g / cm^3
# Si number density = 16.449737 Si / 1000 Ang^3
#
#
#
# Elastic Constant Matrix: (Units=GPa)
#
#
# Indices 1 2 3 4 5 6 
#
# 1 99.4790 22.7175 7.0575 0.0000 10.0584 0.0000
# 2 22.7175 20.9122 8.5434 0.0000 4.0100 0.0000
# 3 7.0575 8.5434 27.7023 0.0000 12.6178 0.0000
# 4 0.0000 0.0000 0.0000 19.6610 0.0000 0.1404
# 5 10.0584 4.0100 12.6178 0.0000 26.2804 0.0000
# 6 0.0000 0.0000 0.0000 0.1404 0.0000 15.9481
#
#
#
# Elastic Compliance Matrix: (Units=1/GPa)
#
#
# Indices 1 2 3 4 5 6 
#
# 1 0.013812 -0.015493 0.003315 0.000000 -0.004514 0.000000
# 2 -0.015493 0.072093 -0.020449 0.000000 0.004747 0.000000
# 3 0.003315 -0.020449 0.052113 0.000000 -0.023169 0.000000
# 4 0.000000 0.000000 0.000000 0.050865 0.000000 -0.000448
# 5 -0.004514 0.004747 -0.023169 0.000000 0.050179 0.000000
# 6 0.000000 0.000000 0.000000 -0.000448 0.000000 0.062707
#
#
# Mechanical properties :
#
#
# Convention : Reuss Voigt Hill
#
# Bulk Modulus (GPa) = 13.74288 24.97002 19.35645
# Shear Modulus (GPa) = 12.77868 19.69625 16.23747
#
# Velocity S-wave (km/s) = 2.79019 3.46404 3.14522
# Velocity P-wave (km/s) = 4.33046 5.58677 4.99824
#
# Compressibility (1/GPa) = 0.07276495
#
# Stress axis : x y z
#
# Youngs Moduli (GPa) = 72.40291 13.87095 19.18905
#
# Poissons Ratio (x) = 0.21490 -0.06362
# Poissons Ratio (y) = 1.12172 0.39240
# Poissons Ratio (z) = -0.24004 0.28365
#
# Static dielectric constant tensor:
#      x y z
#    x 1.541970 0.000000 -0.002680 
#    y 0.000000 1.545860 0.000000 
#    z -0.002680 0.000000 1.542140 
# 
# From -- ./inp_files/86706.got.cif
#   From: 2010.05.17/outbox.cif.g08.bks.cpg/sg10_44_cif.got.tgz:86706.got - 2010.06.03 11:33:40.
