data_PCOD9150183
_publ_section_title
;
Structure prediction by ZEFSAII (Michael W. Deem and Ramdas Pophale) SiO2 
 PCOD9150183
Probable space group: P 2/M
;
_chemical_formula_sum "Si O2"
_cell_formula_units_Z 26
_cell_length_a 7.736859
_cell_length_b 7.666820
_cell_length_c 22.349894
_cell_angle_alpha 90.000000
_cell_angle_beta 56.513084
_cell_angle_gamma 90.000000
_cell_volume 1105.675364
_symmetry_space_group_name_H-M "P 2/M"
_symmetry_group_IT_number 10
_symmetry_cell_setting 'monoclinic'
loop_
_space_group_symop_operation_xyz
x,y,z
-x,y,-z
-x,-y,-z
x,-y,z
loop_
_atom_site_type_symbol
_atom_site_label
_atom_site_fract_x
_atom_site_fract_y
_atom_site_fract_z
Si Si1 0.850754 0.301674 0.859836
Si Si2 0.326514 0.292656 0.350463
Si Si3 0.737782 0.795285 0.444605
Si Si4 0.000000 0.751365 0.500000
Si Si5 0.037702 0.706766 0.291109
Si Si6 0.287674 0.000000 0.892116
Si Si7 0.664564 0.304036 0.202465
Si Si8 0.790535 0.000000 0.957401
O O1 0.765559 0.500000 0.875601
O O2 0.875188 0.226282 0.788171
O O3 0.746095 0.170033 0.925981
O O4 0.090439 0.313160 0.835090
O O5 0.316538 0.500000 0.368898
O O6 0.209333 0.189268 0.424835
O O7 0.202628 0.262930 0.312319
O O8 0.557788 0.249495 0.285408
O O9 0.500000 0.749147 0.500000
O O10 0.882413 0.687224 0.462566
O O11 0.823990 0.772421 0.361301
O O12 0.768446 0.000000 0.454626
O O13 0.011288 0.500000 0.287008
O O14 0.377417 0.830183 0.842334
O O15 0.039621 0.000000 0.924355
O O16 0.313164 0.000000 0.958007
O O17 0.586906 0.500000 0.203859
#
# Coordination Sequence:
#
# PCOD9150183 Si02
#       8
#     4   4   4   2   4   2   4   2
#     4   9  18  32  52  81 106 137 182 221 270 332
#     4   9  18  34  54  76 103 141 181 226 278 322
#     4  10  22  37  51  76 108 145 186 234 290 337
#     4  10  20  36  54  78 109 145 194 238 282 340
#     4   9  19  35  53  74 102 137 182 223 268 331
#     4   9  18  34  51  84 110 137 179 214 271 338
#     4   9  18  33  53  78 107 140 179 225 272 323
#     4   9  18  32  55  79 113 141 167 222 276 322
#
# _framework density 23.515039999999999
#
# number of rings (size 3 to 8) (size 9 to 14) (size 15 to 20)
#    0.000    2.769    0.000    0.462    3.231    1.538 
#    6.923    3.077    0.000    1.846    0.000    4.308 
#    0.000    0.000    0.000    0.000    0.000    0.000 
#
# Total GULP energy -144921.619360 kJ/mol
# GULP energy per Si atom -5573.908437 kJ/mol
# Density = 2.346152 g / cm^3
# Si number density = 23.515040 Si / 1000 Ang^3
#
#
#
# Elastic Constant Matrix: (Units=GPa)
#
#
# Indices 1 2 3 4 5 6 
#
# 1 49.7588 17.8345 29.9838 0.0000 4.4561 0.0000
# 2 17.8345 93.7185 60.8885 0.0000 16.2621 0.0000
# 3 29.9838 60.8885 162.3519 0.0000 34.8277 0.0000
# 4 0.0000 0.0000 0.0000 -31.1353 0.0000 9.5811
# 5 4.4561 16.2621 34.8277 0.0000 45.4301 0.0000
# 6 0.0000 0.0000 0.0000 9.5811 0.0000 -0.1712
#
#
#
# Elastic Compliance Matrix: (Units=1/GPa)
#
#
# Indices 1 2 3 4 5 6 
#
# 1 0.023003 -0.002201 -0.003720 0.000000 0.001383 0.000000
# 2 -0.002201 0.014372 -0.004699 0.000000 -0.001326 0.000000
# 3 -0.003720 -0.004699 0.009778 0.000000 -0.005449 0.000000
# 4 0.000000 0.000000 0.000000 0.001981 0.000000 0.110808
# 5 0.001383 -0.001326 -0.005449 0.000000 0.026528 0.000000
# 6 0.000000 0.000000 0.000000 0.110808 0.000000 0.360089
#
#
# Mechanical properties :
#
#
# Convention : Reuss Voigt Hill
#
# Bulk Modulus (GPa) = 38.58930 58.13807 48.36368
# Shear Modulus (GPa) = 10.73818 15.96619 13.35219
#
# Velocity S-wave (km/s) = 2.13926 2.60855 2.38547
# Velocity P-wave (km/s) = 4.74847 5.81809 5.31028
#
# Compressibility (1/GPa) = 0.02591392
#
# Stress axis : x y z
#
# Youngs Moduli (GPa) = 43.47199 69.57845 102.27376
#
# Poissons Ratio (x) = 0.15313 0.38042
# Poissons Ratio (y) = 0.09568 0.48060
# Poissons Ratio (z) = 0.16170 0.32696
#
# Static dielectric constant tensor:
#      x y z
#    x 1.934620 0.000000 -0.034850 
#    y 0.000000 1.978360 0.000000 
#    z -0.034850 0.000000 1.871920 
# 
# From -- ./inp_files/82198.got.cif
#   From: 2010.05.17/outbox.cif.g08.bks.cpg/sg10_42_cif.got.tgz:82198.got - 2010.06.03 11:33:40.
