data_PCOD9150955
_publ_section_title
;
Structure prediction by ZEFSAII (Michael W. Deem and Ramdas Pophale) SiO2 
 PCOD9150955
Probable space group: P 2/M
;
_chemical_formula_sum "Si O2"
_cell_formula_units_Z 28
_cell_length_a 6.350996
_cell_length_b 16.350696
_cell_length_c 16.302729
_cell_angle_alpha 90.000000
_cell_angle_beta 54.337910
_cell_angle_gamma 90.000000
_cell_volume 1375.451982
_symmetry_space_group_name_H-M "P 2/M"
_symmetry_group_IT_number 10
_symmetry_cell_setting 'monoclinic'
loop_
_space_group_symop_operation_xyz
x,y,z
-x,y,-z
-x,-y,-z
x,-y,z
loop_
_atom_site_type_symbol
_atom_site_label
_atom_site_fract_x
_atom_site_fract_y
_atom_site_fract_z
Si Si1 0.000000 0.855305 0.500000
Si Si2 0.963368 0.409343 0.278320
Si Si3 0.548230 0.407534 0.078168
Si Si4 0.003060 0.837868 0.810623
Si Si5 0.145170 0.252159 0.314670
Si Si6 0.275877 0.686532 0.812997
Si Si7 0.455647 0.908378 0.599774
Si Si8 0.177626 0.000000 0.050903
O O1 0.015897 0.798917 0.416169
O O2 0.255434 0.908904 0.432350
O O3 0.888159 0.500000 0.324962
O O4 0.800710 0.381985 0.236058
O O5 0.264167 0.413304 0.182927
O O6 0.967044 0.331598 0.337474
O O7 0.652405 0.500000 0.044394
O O8 0.716876 0.353887 0.099935
O O9 0.500000 0.370776 0.000000
O O10 0.076655 0.761154 0.850376
O O11 0.264631 0.862168 0.702675
O O12 0.830983 0.801601 0.774700
O O13 0.909950 0.916686 0.882482
O O14 0.434320 0.280930 0.271383
O O15 0.500000 0.871075 0.500000
O O16 0.350094 0.000000 0.612443
O O17 0.500000 0.000000 0.000000
O O18 0.000000 0.000000 0.000000
#
# Coordination Sequence:
#
# PCOD9150955 Si02
#       8
#     2   4   4   4   4   4   4   2
#     4  12  21  36  63 100 134 164 212 270 345 429
#     4   9  19  37  58  84 121 169 219 263 331 406
#     4   9  18  34  56  89 124 154 205 276 341 400
#     4  11  23  46  67  93 138 172 230 286 338 406
#     4  10  22  37  62  95 128 172 210 279 335 414
#     4  10  20  37  60  89 120 171 214 263 342 396
#     4  11  22  38  64 100 127 161 208 267 349 413
#     4  12  32  56  77 102 139 200 250 292 342 410
#
# _framework density 20.356943999999999
#
# number of rings (size 3 to 8) (size 9 to 14) (size 15 to 20)
#    0.000    1.714    3.571    0.643    2.000    1.143 
#    9.000    2.500    0.000    0.857    0.000    0.000 
#    0.000    0.000    0.000    0.000    0.000    0.000 
#
# Total GULP energy -155984.146451 kJ/mol
# GULP energy per Si atom -5570.862373 kJ/mol
# Density = 2.031061 g / cm^3
# Si number density = 20.356944 Si / 1000 Ang^3
#
#
#
# Elastic Constant Matrix: (Units=GPa)
#
#
# Indices 1 2 3 4 5 6 
#
# 1 93.2200 42.3864 36.0684 0.0000 12.2851 0.0000
# 2 42.3864 115.4226 38.6979 0.0000 23.5700 0.0000
# 3 36.0684 38.6979 59.4152 0.0000 15.1890 0.0000
# 4 0.0000 0.0000 0.0000 109.4122 0.0000 -1.8744
# 5 12.2851 23.5700 15.1890 0.0000 36.7227 0.0000
# 6 0.0000 0.0000 0.0000 -1.8744 0.0000 -10.1490
#
#
#
# Elastic Compliance Matrix: (Units=1/GPa)
#
#
# Indices 1 2 3 4 5 6 
#
# 1 0.014844 -0.003094 -0.006971 0.000000 -0.000097 0.000000
# 2 -0.003094 0.012476 -0.004993 0.000000 -0.004907 0.000000
# 3 -0.006971 -0.004993 0.025607 0.000000 -0.005054 0.000000
# 4 0.000000 0.000000 0.000000 0.009111 0.000000 -0.001683
# 5 -0.000097 -0.004907 -0.005054 0.000000 0.032504 0.000000
# 6 0.000000 0.000000 0.000000 -0.001683 0.000000 -0.098221
#
#
# Mechanical properties :
#
#
# Convention : Reuss Voigt Hill
#
# Bulk Modulus (GPa) = 43.84005 55.81813 49.82909
# Shear Modulus (GPa) = 146.88145 37.25754 92.06950
#
# Velocity S-wave (km/s) = 8.50351 4.28274 6.73244
# Velocity P-wave (km/s) = 10.86256 7.20660 9.21765
#
# Compressibility (1/GPa) = 0.02281020
#
# Stress axis : x y z
#
# Youngs Moduli (GPa) = 67.36606 80.15237 39.05206
#
# Poissons Ratio (x) = 0.24801 0.27224
# Poissons Ratio (y) = 0.20845 0.19499
# Poissons Ratio (z) = 0.46963 0.40020
#
# Static dielectric constant tensor:
#      x y z
#    x 1.805670 0.000000 0.011730 
#    y 0.000000 1.751990 0.000000 
#    z 0.011730 0.000000 1.709300 
# 
# From -- ./inp_files/59394.got.cif
#   From: 2010.05.17/outbox.cif.g08.bks.cpg/sg10_30_cif.got.tgz:59394.got - 2010.06.03 11:33:40.
