data_PCOD9150985
_publ_section_title
;
Structure prediction by ZEFSAII (Michael W. Deem and Ramdas Pophale) SiO2 
 PCOD9150985
Probable space group: P 2/M
;
_chemical_formula_sum "Si O2"
_cell_formula_units_Z 28
_cell_length_a 15.125058
_cell_length_b 8.714744
_cell_length_c 20.540091
_cell_angle_alpha 90.000000
_cell_angle_beta 147.097796
_cell_angle_gamma 90.000000
_cell_volume 1470.683439
_symmetry_space_group_name_H-M "P 2/M"
_symmetry_group_IT_number 10
_symmetry_cell_setting 'monoclinic'
loop_
_space_group_symop_operation_xyz
x,y,z
-x,y,-z
-x,-y,-z
x,-y,z
loop_
_atom_site_type_symbol
_atom_site_label
_atom_site_fract_x
_atom_site_fract_y
_atom_site_fract_z
Si Si1 0.001979 0.313155 0.205688
Si Si2 0.637796 0.817130 0.211042
Si Si3 0.653259 0.314346 0.638851
Si Si4 0.683922 0.316094 0.931265
Si Si5 0.791591 0.816664 0.446018
Si Si6 0.439693 0.183480 0.280049
Si Si7 0.907874 0.316901 0.292712
O O1 0.005278 0.500000 0.208615
O O2 0.177717 0.261966 0.288945
O O3 0.960670 0.263753 0.253431
O O4 0.856109 0.267004 0.067667
O O5 0.463381 0.739566 0.113776
O O6 0.742029 0.781189 0.341061
O O7 0.741223 0.757828 0.214473
O O8 0.617435 0.000000 0.196231
O O9 0.500000 0.266940 0.500000
O O10 0.654590 0.500000 0.642371
O O11 0.629747 0.251567 0.696710
O O12 0.680290 0.500000 0.925002
O O13 0.650418 0.247424 0.839414
O O14 0.631224 0.777436 0.389206
O O15 0.947988 0.730338 0.569167
O O16 0.820467 0.000000 0.467829
O O17 0.427883 0.000000 0.272684
O O18 0.889357 0.500000 0.280695
#
# Coordination Sequence:
#
# PCOD9150985 Si02
#       7
#     4   4   4   4   4   4   4
#     4   9  21  38  55  80 112 143 180 232 279 315
#     4  10  21  37  55  79 113 146 180 226 278 328
#     4  10  20  37  61  86 112 145 185 225 269 326
#     4  10  20  38  60  79 105 144 189 228 269 324
#     4   9  19  35  53  76 111 147 176 219 278 329
#     4  10  21  37  57  83 115 146 179 226 280 327
#     4  11  21  34  55  82 110 143 186 229 272 325
#
# _framework density 19.038768000000001
#
# number of rings (size 3 to 8) (size 9 to 14) (size 15 to 20)
#    0.000    2.143    0.000    3.857    0.000    7.714 
#    0.000   11.429    0.000    0.000    0.000    0.000 
#    0.000    0.000    0.000    0.000    0.000    0.000 
#
# Total GULP energy -156419.992973 kJ/mol
# GULP energy per Si atom -5586.428320 kJ/mol
# Density = 1.899544 g / cm^3
# Si number density = 19.038768 Si / 1000 Ang^3
#
#
#
# Elastic Constant Matrix: (Units=GPa)
#
#
# Indices 1 2 3 4 5 6 
#
# 1 164.3951 27.7175 59.5784 0.0000 26.7289 0.0000
# 2 27.7175 23.1095 27.7229 0.0000 6.0347 0.0000
# 3 59.5784 27.7229 114.8882 0.0000 28.4077 0.0000
# 4 0.0000 0.0000 0.0000 -36.4502 0.0000 10.7931
# 5 26.7289 6.0347 28.4077 0.0000 10.7330 0.0000
# 6 0.0000 0.0000 0.0000 10.7931 0.0000 20.8017
#
#
#
# Elastic Compliance Matrix: (Units=1/GPa)
#
#
# Indices 1 2 3 4 5 6 
#
# 1 0.012669 -0.012478 0.007257 0.000000 -0.043740 0.000000
# 2 -0.012478 0.073872 -0.025375 0.000000 0.056701 0.000000
# 3 0.007257 -0.025375 0.034741 0.000000 -0.095756 0.000000
# 4 0.000000 0.000000 0.000000 -0.023781 0.000000 0.012339
# 5 -0.043740 0.056701 -0.095756 0.000000 0.423664 0.000000
# 6 0.000000 0.000000 0.000000 0.012339 0.000000 0.041671
#
#
# Mechanical properties :
#
#
# Convention : Reuss Voigt Hill
#
# Bulk Modulus (GPa) = 16.64180 59.15895 37.90037
# Shear Modulus (GPa) = 7.76328 11.50848 9.63588
#
# Velocity S-wave (km/s) = 2.02150 2.46128 2.25215
# Velocity P-wave (km/s) = 3.76943 6.26239 5.16847
#
# Compressibility (1/GPa) = 0.06008966
#
# Stress axis : x y z
#
# Youngs Moduli (GPa) = 78.93592 13.53685 28.78442
#
# Poissons Ratio (x) = 0.16891 -0.20888
# Poissons Ratio (y) = 0.98496 0.73040
# Poissons Ratio (z) = -0.57282 0.34350
#
# Static dielectric constant tensor:
#      x y z
#    x 1.650700 0.000000 0.005500 
#    y 0.000000 1.636340 0.000000 
#    z 0.005500 0.000000 1.645390 
# 
# From -- ./inp_files/49060.got.cif
#   From: 2010.05.17/outbox.cif.g08.bks.cpg/sg10_25_cif.got.tgz:49060.got - 2010.06.03 11:33:40.
