data_PCOD9150478
_publ_section_title
;
Structure prediction by ZEFSAII (Michael W. Deem and Ramdas Pophale) SiO2 
 PCOD9150478
Probable space group: P 2/M
;
_chemical_formula_sum "Si O2"
_cell_formula_units_Z 30
_cell_length_a 12.116899
_cell_length_b 7.946355
_cell_length_c 15.104392
_cell_angle_alpha 90.000000
_cell_angle_beta 91.333268
_cell_angle_gamma 90.000000
_cell_volume 1453.935383
_symmetry_space_group_name_H-M "P 2/M"
_symmetry_group_IT_number 10
_symmetry_cell_setting 'monoclinic'
loop_
_space_group_symop_operation_xyz
x,y,z
-x,y,-z
-x,-y,-z
x,-y,z
loop_
_atom_site_type_symbol
_atom_site_label
_atom_site_fract_x
_atom_site_fract_y
_atom_site_fract_z
Si Si1 0.500000 0.247321 0.000000
Si Si2 0.287326 0.794832 0.692951
Si Si3 0.295893 0.298173 0.317136
Si Si4 0.861080 0.697712 0.834840
Si Si5 0.106590 0.195232 0.818476
Si Si6 0.241470 0.691979 0.985875
Si Si7 0.624618 0.800264 0.492614
Si Si8 0.499976 0.300184 0.191480
O O1 0.373976 0.315937 0.990017
O O2 0.508480 0.189969 0.897532
O O3 0.171823 0.739525 0.733636
O O4 0.313701 0.736643 0.593933
O O5 0.385227 0.728996 0.757187
O O6 0.288743 0.000000 0.696440
O O7 0.289670 0.500000 0.327528
O O8 0.193424 0.235152 0.256363
O O9 0.311406 0.226645 0.414950
O O10 0.403521 0.261384 0.259195
O O11 0.831532 0.500000 0.835377
O O12 0.991809 0.716627 0.837908
O O13 0.805074 0.766473 0.923150
O O14 0.191503 0.211693 0.901654
O O15 0.079780 0.000000 0.804618
O O16 0.200388 0.500000 0.976222
O O17 0.500000 0.729223 0.500000
O O18 0.612782 0.000000 0.478389
O O19 0.489475 0.500000 0.165618
#
# Coordination Sequence:
#
# PCOD9150478 Si02
#       8
#     2   4   4   4   4   4   4   4
#     4  12  21  34  59  92 123 150 183 222 277 344
#     4  10  22  39  56  81 115 148 187 232 279 336
#     4  10  21  36  57  88 117 142 183 238 283 327
#     4  10  22  40  59  81 112 152 194 233 275 329
#     4  11  24  40  57  80 112 151 195 240 277 320
#     4  11  21  36  60  86 115 152 189 226 274 338
#     4  10  20  36  59  84 113 150 185 222 281 352
#     4  11  20  33  57  86 117 150 184 225 276 334
#
# _framework density 20.633655999999998
#
# number of rings (size 3 to 8) (size 9 to 14) (size 15 to 20)
#    0.000    1.467    4.000    2.000    0.000    4.000 
#    0.000    2.000    0.000    4.000    0.000    0.000 
#    0.000    0.000    0.000    0.000    0.000    0.000 
#
# Total GULP energy -167299.158599 kJ/mol
# GULP energy per Si atom -5576.638620 kJ/mol
# Density = 2.058669 g / cm^3
# Si number density = 20.633656 Si / 1000 Ang^3
#
#
#
# Elastic Constant Matrix: (Units=GPa)
#
#
# Indices 1 2 3 4 5 6 
#
# 1 107.5368 -6.1749 40.8532 0.0000 -8.2122 0.0000
# 2 -6.1749 18.6556 -2.4018 0.0000 -5.1085 0.0000
# 3 40.8532 -2.4018 155.4187 0.0000 -11.6256 0.0000
# 4 0.0000 0.0000 0.0000 9.0735 0.0000 11.8530
# 5 -8.2122 -5.1085 -11.6256 0.0000 24.2701 0.0000
# 6 0.0000 0.0000 0.0000 11.8530 0.0000 23.0408
#
#
#
# Elastic Compliance Matrix: (Units=1/GPa)
#
#
# Indices 1 2 3 4 5 6 
#
# 1 0.010744 0.004137 -0.002513 0.000000 0.003302 0.000000
# 2 0.004137 0.058987 0.000889 0.000000 0.014242 0.000000
# 3 -0.002513 0.000889 0.007321 0.000000 0.002844 0.000000
# 4 0.000000 0.000000 0.000000 0.336039 0.000000 -0.172871
# 5 0.003302 0.014242 0.002844 0.000000 0.046680 0.000000
# 6 0.000000 0.000000 0.000000 -0.172871 0.000000 0.132333
#
#
# Mechanical properties :
#
#
# Convention : Reuss Voigt Hill
#
# Bulk Modulus (GPa) = 12.18357 38.46269 25.32313
# Shear Modulus (GPa) = 8.13753 27.89918 18.01835
#
# Velocity S-wave (km/s) = 1.98806 3.68111 2.95829
# Velocity P-wave (km/s) = 3.34475 6.06206 4.89571
#
# Compressibility (1/GPa) = 0.08207777
#
# Stress axis : x y z
#
# Youngs Moduli (GPa) = 93.07879 16.95298 136.58781
#
# Poissons Ratio (x) = -0.07013 0.34326
# Poissons Ratio (y) = -0.38504 -0.12149
# Poissons Ratio (z) = 0.23392 -0.01508
#
# Static dielectric constant tensor:
#      x y z
#    x 1.700320 0.000000 -0.018080 
#    y 0.000000 1.768010 0.000000 
#    z -0.018080 0.000000 1.735730 
# 
# From -- ./inp_files/63477.got.cif
#   From: 2010.05.17/outbox.cif.g08.bks.cpg/sg10_32_cif.got.tgz:63477.got - 2010.06.03 11:33:40.
