data_PCOD9150880
_publ_section_title
;
Structure prediction by ZEFSAII (Michael W. Deem and Ramdas Pophale) SiO2 
 PCOD9150880
Probable space group: P 2/M
;
_chemical_formula_sum "Si O2"
_cell_formula_units_Z 28
_cell_length_a 10.373907
_cell_length_b 18.775291
_cell_length_c 17.323735
_cell_angle_alpha 90.000000
_cell_angle_beta 25.296019
_cell_angle_gamma 90.000000
_cell_volume 1441.778072
_symmetry_space_group_name_H-M "P 2/M"
_symmetry_group_IT_number 10
_symmetry_cell_setting 'monoclinic'
loop_
_space_group_symop_operation_xyz
x,y,z
-x,y,-z
-x,-y,-z
x,-y,z
loop_
_atom_site_type_symbol
_atom_site_label
_atom_site_fract_x
_atom_site_fract_y
_atom_site_fract_z
Si Si1 0.799688 0.417970 0.530881
Si Si2 0.341230 0.711316 0.778670
Si Si3 0.153737 0.077942 0.663498
Si Si4 0.425928 0.774203 0.200269
Si Si5 0.141902 0.922417 0.338152
Si Si6 0.828797 0.667489 0.780623
Si Si7 0.066247 0.233957 0.778306
O O1 0.700994 0.500000 0.583842
O O2 0.518174 0.363521 0.680628
O O3 0.000000 0.406812 0.500000
O O4 0.015681 0.400917 0.340949
O O5 0.544791 0.760318 0.724910
O O6 0.310386 0.748113 0.711598
O O7 0.000000 0.703999 0.000000
O O8 0.500000 0.073897 0.500000
O O9 0.056899 0.153175 0.752301
O O10 0.096579 0.082660 0.602596
O O11 0.016878 0.000000 0.761145
O O12 0.353354 0.854719 0.218295
O O13 0.210458 0.721218 0.270661
O O14 0.750739 0.756056 0.991623
O O15 0.000000 0.919602 0.500000
O O16 0.292209 0.000000 0.248774
O O17 0.050715 0.708129 0.719121
O O18 0.500000 0.656740 0.000000
#
# Coordination Sequence:
#
# PCOD9150880 Si02
#       7
#     4   4   4   4   4   4   4
#     4  11  24  42  68  97 121 161 207 241 302 377
#     4  10  23  41  63  93 126 160 201 251 305 362
#     4  10  22  37  53  80 118 158 198 248 308 356
#     4  10  20  37  59  86 116 156 205 248 298 356
#     4  10  22  36  54  82 115 155 202 253 302 351
#     4  10  21  39  63  94 127 156 201 257 301 355
#     4  10  22  37  58  88 118 157 202 246 303 358
#
# _framework density 19.420465
#
# number of rings (size 3 to 8) (size 9 to 14) (size 15 to 20)
#    0.000    1.857    2.857    0.000    6.000    1.143 
#    0.000    2.857    0.000    2.571    0.000    0.000 
#    0.000    0.000    0.000    0.000    0.000    0.000 
#
# Total GULP energy -156028.228300 kJ/mol
# GULP energy per Si atom -5572.436725 kJ/mol
# Density = 1.937626 g / cm^3
# Si number density = 19.420465 Si / 1000 Ang^3
#
#
#
# Elastic Constant Matrix: (Units=GPa)
#
#
# Indices 1 2 3 4 5 6 
#
# 1 162.6527 52.0165 18.8312 0.0000 8.9882 0.0000
# 2 52.0165 101.7456 3.9037 0.0000 5.2913 0.0000
# 3 18.8312 3.9037 41.6295 0.0000 4.4786 0.0000
# 4 0.0000 0.0000 0.0000 19.6071 0.0000 5.5763
# 5 8.9882 5.2913 4.4786 0.0000 13.5917 0.0000
# 6 0.0000 0.0000 0.0000 5.5763 0.0000 33.6353
#
#
#
# Elastic Compliance Matrix: (Units=1/GPa)
#
#
# Indices 1 2 3 4 5 6 
#
# 1 0.007836 -0.003751 -0.002895 0.000000 -0.002768 0.000000
# 2 -0.003751 0.011839 0.000846 0.000000 -0.002407 0.000000
# 3 -0.002895 0.000846 0.026003 0.000000 -0.006983 0.000000
# 4 0.000000 0.000000 0.000000 0.053526 0.000000 -0.008874
# 5 -0.002768 -0.002407 -0.006983 0.000000 0.078643 0.000000
# 6 0.000000 0.000000 0.000000 -0.008874 0.000000 0.031202
#
#
# Mechanical properties :
#
#
# Convention : Reuss Voigt Hill
#
# Bulk Modulus (GPa) = 29.34561 50.61453 39.98007
# Shear Modulus (GPa) = 21.55103 28.78524 25.16814
#
# Velocity S-wave (km/s) = 3.33484 3.85413 3.60385
# Velocity P-wave (km/s) = 5.47464 6.77678 6.16021
#
# Compressibility (1/GPa) = 0.03407664
#
# Stress axis : x y z
#
# Youngs Moduli (GPa) = 127.62042 84.46791 38.45715
#
# Poissons Ratio (x) = 0.31684 0.11133
# Poissons Ratio (y) = 0.47870 -0.03252
# Poissons Ratio (z) = 0.36947 -0.07142
#
# Static dielectric constant tensor:
#      x y z
#    x 1.703430 0.000000 0.015030 
#    y 0.000000 1.683340 0.000000 
#    z 0.015030 0.000000 1.694180 
# 
# From -- ./inp_files/62567.got.cif
#   From: 2010.05.17/outbox.cif.g08.bks.cpg/sg10_32_cif.got.tgz:62567.got - 2010.06.03 11:33:40.
