data_PCOD9150187
_publ_section_title
;
Structure prediction by ZEFSAII (Michael W. Deem and Ramdas Pophale) SiO2 
 PCOD9150187
Probable space group: P 2/M
;
_chemical_formula_sum "Si O2"
_cell_formula_units_Z 32
_cell_length_a 12.522294
_cell_length_b 14.137264
_cell_length_c 12.700849
_cell_angle_alpha 90.000000
_cell_angle_beta 71.052789
_cell_angle_gamma 90.000000
_cell_volume 2126.618821
_symmetry_space_group_name_H-M "P 2/M"
_symmetry_group_IT_number 10
_symmetry_cell_setting 'monoclinic'
loop_
_space_group_symop_operation_xyz
x,y,z
-x,y,-z
-x,-y,-z
x,-y,z
loop_
_atom_site_type_symbol
_atom_site_label
_atom_site_fract_x
_atom_site_fract_y
_atom_site_fract_z
Si Si1 0.862503 0.108789 0.921128
Si Si2 0.242638 0.296727 0.114302
Si Si3 0.370554 0.389655 0.257938
Si Si4 0.364937 0.612222 0.878611
Si Si5 0.371828 0.612408 0.505973
Si Si6 0.871683 0.108885 0.170976
Si Si7 0.223050 0.300212 0.731059
Si Si8 0.992043 0.613193 0.879707
O O1 0.783220 0.186286 0.893782
O O2 0.994660 0.124883 0.851151
O O3 0.835063 0.000000 0.904128
O O4 0.855762 0.119348 0.050014
O O5 0.293950 0.324313 0.209695
O O6 0.123243 0.347870 0.131290
O O7 0.326032 0.337238 0.997807
O O8 0.340587 0.500000 0.248187
O O9 0.501807 0.378898 0.184172
O O10 0.359383 0.371086 0.385685
O O11 0.337093 0.500000 0.892543
O O12 0.297905 0.659216 0.803428
O O13 0.500000 0.634483 0.500000
O O14 0.355247 0.500000 0.531471
O O15 0.284650 0.669743 0.604860
O O16 0.797652 0.188481 0.250164
O O17 0.845653 0.000000 0.206810
O O18 0.100687 0.347899 0.784548
O O19 0.992080 0.500000 0.878039
O O20 0.000000 0.644289 0.000000
#
# Coordination Sequence:
#
# PCOD9150187 Si02
#       8
#     4   4   4   4   4   4   4   4
#     4   9  17  31  51  76 105 137 171 206 257 321
#     4  12  20  32  51  77 111 140 166 209 268 314
#     4  10  22  37  51  73 105 145 184 212 246 302
#     4  11  20  31  51  78 107 139 174 211 251 311
#     4  10  20  36  55  74 100 140 186 219 244 295
#     4   9  17  31  51  78 106 131 169 216 262 311
#     4  12  19  31  54  80 102 133 175 220 256 304
#     4  11  20  28  44  76 112 136 157 203 266 319
#
# _framework density 15.047359999999999
#
# number of rings (size 3 to 8) (size 9 to 14) (size 15 to 20)
#    0.000    1.500    5.000    3.375    0.000    1.000 
#    0.000    0.625    0.000    5.625    0.000    1.750 
#    0.000    0.000    0.000    0.000    0.000    0.000 
#
# Total GULP energy -178628.433320 kJ/mol
# GULP energy per Si atom -5582.138541 kJ/mol
# Density = 1.501311 g / cm^3
# Si number density = 15.047360 Si / 1000 Ang^3
#
#
#
# Elastic Constant Matrix: (Units=GPa)
#
#
# Indices 1 2 3 4 5 6 
#
# 1 59.4743 53.5729 53.1123 0.0000 -3.6098 0.0000
# 2 53.5729 122.6959 64.2113 0.0000 -2.9092 0.0000
# 3 53.1123 64.2113 91.9333 0.0000 -6.8202 0.0000
# 4 0.0000 0.0000 0.0000 20.8301 0.0000 3.8551
# 5 -3.6098 -2.9092 -6.8202 0.0000 21.6810 0.0000
# 6 0.0000 0.0000 0.0000 3.8551 0.0000 13.7897
#
#
#
# Elastic Compliance Matrix: (Units=1/GPa)
#
#
# Indices 1 2 3 4 5 6 
#
# 1 0.039522 -0.008368 -0.016980 0.000000 0.000116 0.000000
# 2 -0.008368 0.014644 -0.005480 0.000000 -0.001152 0.000000
# 3 -0.016980 -0.005480 0.024830 0.000000 0.004248 0.000000
# 4 0.000000 0.000000 0.000000 0.050627 0.000000 -0.014153
# 5 0.000116 -0.001152 0.004248 0.000000 0.047324 0.000000
# 6 0.000000 0.000000 0.000000 -0.014153 0.000000 0.076474
#
#
# Mechanical properties :
#
#
# Convention : Reuss Voigt Hill
#
# Bulk Modulus (GPa) = 57.66481 68.43293 63.04887
# Shear Modulus (GPa) = 15.58334 18.14064 16.86199
#
# Velocity S-wave (km/s) = 3.22160 3.47590 3.35116
# Velocity P-wave (km/s) = 7.22798 7.85406 7.54751
#
# Compressibility (1/GPa) = 0.01734160
#
# Stress axis : x y z
#
# Youngs Moduli (GPa) = 25.30248 68.28687 40.27462
#
# Poissons Ratio (x) = 0.57139 0.68386
# Poissons Ratio (y) = 0.21172 0.22069
# Poissons Ratio (z) = 0.42963 0.37418
#
# Static dielectric constant tensor:
#      x y z
#    x 1.486770 0.000000 -0.001960 
#    y 0.000000 1.506550 0.000000 
#    z -0.001960 0.000000 1.481840 
# 
# From -- ./inp_files/47378.got.cif
#   From: 2010.05.17/outbox.cif.g08.bks.cpg/sg10_24_cif.got.tgz:47378.got - 2010.06.03 11:33:40.
