data_PCOD9150412
_publ_section_title
;
Structure prediction by ZEFSAII (Michael W. Deem and Ramdas Pophale) SiO2 
 PCOD9150412
Probable space group: P 2/M
;
_chemical_formula_sum "Si O2"
_cell_formula_units_Z 30
_cell_length_a 11.526065
_cell_length_b 19.173485
_cell_length_c 10.658184
_cell_angle_alpha 90.000000
_cell_angle_beta 140.013009
_cell_angle_gamma 90.000000
_cell_volume 1513.614540
_symmetry_space_group_name_H-M "P 2/M"
_symmetry_group_IT_number 10
_symmetry_cell_setting 'monoclinic'
loop_
_space_group_symop_operation_xyz
x,y,z
-x,y,-z
-x,-y,-z
x,-y,z
loop_
_atom_site_type_symbol
_atom_site_label
_atom_site_fract_x
_atom_site_fract_y
_atom_site_fract_z
Si Si1 0.678062 0.224228 0.079345
Si Si2 0.840836 0.193491 0.770281
Si Si3 0.194713 0.323837 0.419148
Si Si4 0.248084 0.921326 0.806791
Si Si5 0.286257 0.577032 0.290897
Si Si6 0.622987 0.286952 0.771124
Si Si7 0.000000 0.284822 0.500000
Si Si8 0.170433 0.920475 0.454579
O O1 0.657587 0.141540 0.043646
O O2 0.851279 0.237505 0.308630
O O3 0.500000 0.250965 0.000000
O O4 0.690621 0.263436 0.960726
O O5 0.897198 0.260500 0.733372
O O6 0.679662 0.225821 0.721346
O O7 0.795790 0.133697 0.630574
O O8 0.000000 0.173186 0.000000
O O9 0.187262 0.394446 0.332878
O O10 0.407714 0.301676 0.599522
O O11 0.105026 0.327632 0.480440
O O12 0.257448 0.907430 0.664234
O O13 0.041801 0.918952 0.684907
O O14 0.311203 0.000000 0.883174
O O15 0.500000 0.573057 0.500000
O O16 0.227775 0.500000 0.202466
O O17 0.279015 0.641595 0.189379
O O18 0.216321 0.000000 0.455190
#
# Coordination Sequence:
#
# PCOD9150412 Si02
#       8
#     4   4   4   4   4   4   2   4
#     4  12  23  37  61  90 118 154 200 249 299 358
#     4  11  20  32  54  81 115 155 196 245 301 354
#     4  10  20  36  58  85 119 157 198 246 298 350
#     4   9  18  34  54  80 115 153 200 250 294 354
#     4   8  16  34  62  89 120 161 199 236 287 350
#     4  10  21  37  56  90 121 154 200 246 292 356
#     4  12  22  38  60  88 124 156 198 256 302 344
#     4   9  18  33  55  81 112 157 203 243 301 360
#
# _framework density 19.820105000000002
#
# number of rings (size 3 to 8) (size 9 to 14) (size 15 to 20)
#    0.000    2.000    1.333    6.000    0.000    0.533 
#    0.000    1.000    0.000   17.200    0.000    0.000 
#    0.000    0.000    0.000    0.000    0.000    0.000 
#
# Total GULP energy -167379.909911 kJ/mol
# GULP energy per Si atom -5579.330330 kJ/mol
# Density = 1.977499 g / cm^3
# Si number density = 19.820105 Si / 1000 Ang^3
#
#
#
# Elastic Constant Matrix: (Units=GPa)
#
#
# Indices 1 2 3 4 5 6 
#
# 1 145.0854 65.5317 28.9218 0.0000 -10.2541 0.0000
# 2 65.5317 150.5699 34.2824 0.0000 -24.5812 0.0000
# 3 28.9218 34.2824 62.6118 0.0000 -0.4090 0.0000
# 4 0.0000 0.0000 0.0000 24.3391 0.0000 -7.4754
# 5 -10.2541 -24.5812 -0.4090 0.0000 34.9543 0.0000
# 6 0.0000 0.0000 0.0000 -7.4754 0.0000 13.8517
#
#
#
# Elastic Compliance Matrix: (Units=1/GPa)
#
#
# Indices 1 2 3 4 5 6 
#
# 1 0.008853 -0.003291 -0.002286 0.000000 0.000256 0.000000
# 2 -0.003291 0.009932 -0.003879 0.000000 0.005974 0.000000
# 3 -0.002286 -0.003879 0.019131 0.000000 -0.003175 0.000000
# 4 0.000000 0.000000 0.000000 0.049249 0.000000 0.026578
# 5 0.000256 0.005974 -0.003175 0.000000 0.032848 0.000000
# 6 0.000000 0.000000 0.000000 0.026578 0.000000 0.086537
#
#
# Mechanical properties :
#
#
# Convention : Reuss Voigt Hill
#
# Bulk Modulus (GPa) = 52.62035 68.41546 60.51790
# Shear Modulus (GPa) = 21.57081 29.93111 25.75096
#
# Velocity S-wave (km/s) = 3.30256 3.89027 3.60840
# Velocity P-wave (km/s) = 6.41476 7.40081 6.92536
#
# Compressibility (1/GPa) = 0.01900405
#
# Stress axis : x y z
#
# Youngs Moduli (GPa) = 112.96204 100.68391 52.27235
#
# Poissons Ratio (x) = 0.33131 0.11948
# Poissons Ratio (y) = 0.37171 0.20277
# Poissons Ratio (z) = 0.25821 0.39057
#
# Static dielectric constant tensor:
#      x y z
#    x 1.722960 0.000000 0.039470 
#    y 0.000000 1.699510 0.000000 
#    z 0.039470 0.000000 1.767620 
# 
# From -- ./inp_files/47928.got.cif
#   From: 2010.05.17/outbox.cif.g08.bks.cpg/sg10_24_cif.got.tgz:47928.got - 2010.06.03 11:33:40.
