data_PCOD9150308
_publ_section_title
;
Structure prediction by ZEFSAII (Michael W. Deem and Ramdas Pophale) SiO2 
 PCOD9150308
Probable space group: P 2/M
;
_chemical_formula_sum "Si O2"
_cell_formula_units_Z 30
_cell_length_a 19.839786
_cell_length_b 13.647642
_cell_length_c 5.479430
_cell_angle_alpha 90.000000
_cell_angle_beta 110.171119
_cell_angle_gamma 90.000000
_cell_volume 1392.648509
_symmetry_space_group_name_H-M "P 2/M"
_symmetry_group_IT_number 10
_symmetry_cell_setting 'monoclinic'
loop_
_space_group_symop_operation_xyz
x,y,z
-x,y,-z
-x,-y,-z
x,-y,z
loop_
_atom_site_type_symbol
_atom_site_label
_atom_site_fract_x
_atom_site_fract_y
_atom_site_fract_z
Si Si1 0.500000 0.693058 0.000000
Si Si2 0.748159 0.108004 0.894371
Si Si3 0.636485 0.238496 0.929721
Si Si4 0.112124 0.888998 0.595511
Si Si5 0.164653 0.263284 0.271448
Si Si6 0.040717 0.268569 0.793716
Si Si7 0.403490 0.605456 0.501322
Si Si8 0.732952 0.608782 0.308202
O O1 0.570235 0.757825 0.032438
O O2 0.473468 0.621601 0.752870
O O3 0.671616 0.135773 0.910129
O O4 0.770979 0.192813 0.735970
O O5 0.749474 0.000000 0.782672
O O6 0.809707 0.109204 0.178775
O O7 0.604379 0.297565 0.664508
O O8 0.703275 0.307771 0.092583
O O9 0.117255 0.810445 0.382362
O O10 0.059037 0.843211 0.733402
O O11 0.094102 0.000000 0.500304
O O12 0.196759 0.350563 0.470178
O O13 0.120486 0.301882 0.980924
O O14 0.000000 0.310378 0.500000
O O15 0.000000 0.281124 0.000000
O O16 0.405273 0.500000 0.372256
O O17 0.332661 0.602101 0.581866
O O18 0.743213 0.500000 0.214715
#
# Coordination Sequence:
#
# PCOD9150308 Si02
#       8
#     2   4   4   4   4   4   4   4
#     4  10  23  34  53  82 120 162 203 246 307 380
#     4  10  21  36  59  88 118 160 210 258 310 367
#     4  11  20  37  57  85 123 158 200 255 313 376
#     4  10  21  37  61  92 124 162 207 256 315 377
#     4  11  20  39  63  88 126 157 209 263 316 370
#     4  11  23  41  60  90 128 176 209 253 316 382
#     4  10  20  36  57  83 118 156 195 248 316 380
#     4  10  21  36  60  93 119 152 200 256 319 376
#
# _framework density 21.541689999999999
#
# number of rings (size 3 to 8) (size 9 to 14) (size 15 to 20)
#    0.000    1.600    4.000    1.400    0.000    3.200 
#    0.000    0.333    0.000    2.400    0.000    0.000 
#    0.000    0.000    0.000    0.000    0.000    0.000 
#
# Total GULP energy -167240.637480 kJ/mol
# GULP energy per Si atom -5574.687916 kJ/mol
# Density = 2.149266 g / cm^3
# Si number density = 21.541690 Si / 1000 Ang^3
#
#
#
# Elastic Constant Matrix: (Units=GPa)
#
#
# Indices 1 2 3 4 5 6 
#
# 1 56.2310 10.6968 11.0226 0.0000 -0.6470 0.0000
# 2 10.6968 33.8508 8.9664 0.0000 5.8965 0.0000
# 3 11.0226 8.9664 91.7285 0.0000 20.6030 0.0000
# 4 0.0000 0.0000 0.0000 55.3408 0.0000 49.0090
# 5 -0.6470 5.8965 20.6030 0.0000 39.1565 0.0000
# 6 0.0000 0.0000 0.0000 49.0090 0.0000 64.0169
#
#
#
# Elastic Compliance Matrix: (Units=1/GPa)
#
#
# Indices 1 2 3 4 5 6 
#
# 1 0.019392 -0.005942 -0.002293 0.000000 0.002422 0.000000
# 2 -0.005942 0.032554 -0.001525 0.000000 -0.004198 0.000000
# 3 -0.002293 -0.001525 0.012796 0.000000 -0.006541 0.000000
# 4 0.000000 0.000000 0.000000 0.056113 0.000000 -0.042958
# 5 0.002422 -0.004198 -0.006541 0.000000 0.029652 0.000000
# 6 0.000000 0.000000 0.000000 -0.042958 0.000000 0.048508
#
#
# Mechanical properties :
#
#
# Convention : Reuss Voigt Hill
#
# Bulk Modulus (GPa) = 22.11411 27.02023 24.56717
# Shear Modulus (GPa) = 21.40327 41.77780 31.59054
#
# Velocity S-wave (km/s) = 3.15552 4.40863 3.83362
# Velocity P-wave (km/s) = 4.85432 6.20364 5.56999
#
# Compressibility (1/GPa) = 0.04522000
#
# Stress axis : x y z
#
# Youngs Moduli (GPa) = 51.56876 30.71788 78.15225
#
# Poissons Ratio (x) = 0.18253 0.17923
# Poissons Ratio (y) = 0.30643 0.11920
# Poissons Ratio (z) = 0.11827 0.04685
#
# Static dielectric constant tensor:
#      x y z
#    x 1.884160 0.000000 -0.030710 
#    y 0.000000 1.748110 0.000000 
#    z -0.030710 0.000000 1.849700 
# 
# From -- ./inp_files/13204.got.cif
#   From: 2010.05.17/outbox.cif.g08.bks.cpg/sg10_7_cif.got.tgz:13204.got - 2010.06.03 11:33:40.
