data_PCOD9150695
_publ_section_title
;
Structure prediction by ZEFSAII (Michael W. Deem and Ramdas Pophale) SiO2 
 PCOD9150695
Probable space group: P 2/M
;
_chemical_formula_sum "Si O2"
_cell_formula_units_Z 24
_cell_length_a 13.281044
_cell_length_b 14.006063
_cell_length_c 11.286717
_cell_angle_alpha 90.000000
_cell_angle_beta 33.781577
_cell_angle_gamma 90.000000
_cell_volume 1167.381734
_symmetry_space_group_name_H-M "P 2/M"
_symmetry_group_IT_number 10
_symmetry_cell_setting 'monoclinic'
loop_
_space_group_symop_operation_xyz
x,y,z
-x,y,-z
-x,-y,-z
x,-y,z
loop_
_atom_site_type_symbol
_atom_site_label
_atom_site_fract_x
_atom_site_fract_y
_atom_site_fract_z
Si Si1 0.157438 0.389645 0.513516
Si Si2 0.312937 0.773462 0.722633
Si Si3 0.031242 0.777879 0.786300
Si Si4 0.910451 0.895478 0.715266
Si Si5 0.305240 0.707832 0.134340
Si Si6 0.560962 0.392449 0.226958
O O1 0.100663 0.500000 0.558257
O O2 0.028006 0.321267 0.716518
O O3 0.192695 0.341722 0.350608
O O4 0.349485 0.388198 0.396144
O O5 0.500000 0.825037 0.500000
O O6 0.189424 0.764216 0.726756
O O7 0.386296 0.679504 0.719731
O O8 0.157838 0.807723 0.966392
O O9 0.061366 0.861017 0.661556
O O10 0.774035 0.806916 0.836648
O O11 0.000000 0.901615 0.500000
O O12 0.835826 0.000000 0.819520
O O13 0.500000 0.729150 0.000000
O O14 0.340154 0.636555 0.991547
O O15 0.606058 0.500000 0.218068
#
# Coordination Sequence:
#
# PCOD9150695 Si02
#       6
#     4   4   4   4   4   4
#     4  10  20  36  61  95 131 169 211 251 306 377
#     4  11  23  40  64  87 126 171 216 261 301 360
#     4  11  23  41  64  93 125 170 211 260 316 366
#     4  11  23  42  68  95 123 155 201 263 331 384
#     4  10  20  38  65  94 129 165 203 260 320 379
#     4  10  20  36  61  93 131 172 209 255 306 363
#
# _framework density 20.558828999999999
#
# number of rings (size 3 to 8) (size 9 to 14) (size 15 to 20)
#    0.000    1.500    5.000    0.500    0.000    4.000 
#    0.000    4.167    0.000    1.000    0.000    0.000 
#    0.000    0.000    0.000    0.000    0.000    0.000 
#
# Total GULP energy -133792.461930 kJ/mol
# GULP energy per Si atom -5574.685914 kJ/mol
# Density = 2.051204 g / cm^3
# Si number density = 20.558829 Si / 1000 Ang^3
#
#
#
# Elastic Constant Matrix: (Units=GPa)
#
#
# Indices 1 2 3 4 5 6 
#
# 1 116.9560 34.0221 33.8121 0.0000 5.3537 0.0000
# 2 34.0221 78.3612 1.6547 0.0000 2.0017 0.0000
# 3 33.8121 1.6547 81.9608 0.0000 1.3235 0.0000
# 4 0.0000 0.0000 0.0000 17.9142 0.0000 -2.8585
# 5 5.3537 2.0017 1.3235 0.0000 41.7702 0.0000
# 6 0.0000 0.0000 0.0000 -2.8585 0.0000 7.2970
#
#
#
# Elastic Compliance Matrix: (Units=1/GPa)
#
#
# Indices 1 2 3 4 5 6 
#
# 1 0.011307 -0.004786 -0.004551 0.000000 -0.001076 0.000000
# 2 -0.004786 0.014808 0.001678 0.000000 -0.000149 0.000000
# 3 -0.004551 0.001678 0.014043 0.000000 0.000058 0.000000
# 4 0.000000 0.000000 0.000000 0.059544 0.000000 0.023325
# 5 -0.001076 -0.000149 0.000058 0.000000 0.024084 0.000000
# 6 0.000000 0.000000 0.000000 0.023325 0.000000 0.146180
#
#
# Mechanical properties :
#
#
# Convention : Reuss Voigt Hill
#
# Bulk Modulus (GPa) = 40.25591 46.25064 43.25328
# Shear Modulus (GPa) = 17.03210 27.24889 22.14049
#
# Velocity S-wave (km/s) = 2.88141 3.64457 3.28523
# Velocity P-wave (km/s) = 5.54016 6.34477 5.95607
#
# Compressibility (1/GPa) = 0.02484107
#
# Stress axis : x y z
#
# Youngs Moduli (GPa) = 88.43916 67.53286 71.20737
#
# Poissons Ratio (x) = 0.32319 0.32404
# Poissons Ratio (y) = 0.42324 -0.11947
# Poissons Ratio (z) = 0.40246 -0.11330
#
# Static dielectric constant tensor:
#      x y z
#    x 1.768700 0.000000 -0.007490 
#    y 0.000000 1.716450 0.000000 
#    z -0.007490 0.000000 1.787900 
# 
# From -- ./inp_files/51533.got.cif
#   From: 2010.05.17/outbox.cif.g08.bks.cpg/sg10_26_cif.got.tgz:51533.got - 2010.06.03 11:33:40.
