data_PCOD9150761
_publ_section_title
;
Structure prediction by ZEFSAII (Michael W. Deem and Ramdas Pophale) SiO2 
 PCOD9150761
Probable space group: P 2/M
;
_chemical_formula_sum "Si O2"
_cell_formula_units_Z 26
_cell_length_a 13.070734
_cell_length_b 12.353833
_cell_length_c 8.780193
_cell_angle_alpha 90.000000
_cell_angle_beta 59.326359
_cell_angle_gamma 90.000000
_cell_volume 1219.405577
_symmetry_space_group_name_H-M "P 2/M"
_symmetry_group_IT_number 10
_symmetry_cell_setting 'monoclinic'
loop_
_space_group_symop_operation_xyz
x,y,z
-x,y,-z
-x,-y,-z
x,-y,z
loop_
_atom_site_type_symbol
_atom_site_label
_atom_site_fract_x
_atom_site_fract_y
_atom_site_fract_z
Si Si1 0.043409 0.624879 0.793720
Si Si2 0.224503 0.230339 0.523023
Si Si3 0.118041 0.000000 0.303283
Si Si4 0.613667 0.626926 0.026649
Si Si5 0.515500 0.000000 0.171762
Si Si6 0.258527 0.000000 0.499255
Si Si7 0.502617 0.780924 0.319335
Si Si8 0.847893 0.238888 0.764366
O O1 0.047263 0.500000 0.744509
O O2 0.171744 0.679473 0.671950
O O3 0.950091 0.690057 0.762136
O O4 0.000000 0.631777 0.000000
O O5 0.209938 0.110361 0.604527
O O6 0.364240 0.235716 0.378861
O O7 0.153039 0.235717 0.418839
O O8 0.132340 0.886986 0.204300
O O9 0.000000 0.000000 0.500000
O O10 0.222744 0.000000 0.348452
O O11 0.645407 0.500000 0.002546
O O12 0.570523 0.672279 0.221584
O O13 0.500000 0.641414 0.000000
O O14 0.724308 0.701936 0.897353
O O15 0.563336 0.881936 0.183377
O O16 0.399699 0.000000 0.372769
O O17 0.500000 0.000000 0.000000
O O18 0.500000 0.801770 0.500000
#
# Coordination Sequence:
#
# PCOD9150761 Si02
#       8
#     4   4   2   4   2   2   4   4
#     4  11  26  44  64  91 126 169 219 277 334 390
#     4  10  21  41  65  92 127 169 217 270 329 393
#     4  10  20  36  64  99 126 159 206 267 331 393
#     4  11  24  42  64  96 135 175 230 280 321 393
#     4  10  21  37  67  94 130 172 218 269 322 385
#     4   8  18  35  59  93 123 158 201 260 316 380
#     4  11  24  40  64  97 137 177 219 270 336 401
#     4  11  22  42  69  97 127 168 218 272 335 395
#
# _framework density 21.321864000000001
#
# number of rings (size 3 to 8) (size 9 to 14) (size 15 to 20)
#    0.000    1.538    1.538    3.462    6.462    2.769 
#    0.000    1.923    0.000    0.000    0.000    0.000 
#    0.000    0.000    0.000    0.000    0.000    0.000 
#
# Total GULP energy -145077.563573 kJ/mol
# GULP energy per Si atom -5579.906291 kJ/mol
# Density = 2.127333 g / cm^3
# Si number density = 21.321864 Si / 1000 Ang^3
#
#
#
# Elastic Constant Matrix: (Units=GPa)
#
#
# Indices 1 2 3 4 5 6 
#
# 1 57.1158 41.6786 12.4510 0.0000 -8.9687 0.0000
# 2 41.6786 209.8787 66.6333 0.0000 -23.2773 0.0000
# 3 12.4510 66.6333 71.1493 0.0000 -3.4262 0.0000
# 4 0.0000 0.0000 0.0000 34.4088 0.0000 -5.3466
# 5 -8.9687 -23.2773 -3.4262 0.0000 30.6684 0.0000
# 6 0.0000 0.0000 0.0000 -5.3466 0.0000 20.2893
#
#
#
# Elastic Compliance Matrix: (Units=1/GPa)
#
#
# Indices 1 2 3 4 5 6 
#
# 1 0.020762 -0.003790 0.000071 0.000000 0.003203 0.000000
# 2 -0.003790 0.008139 -0.006752 0.000000 0.004315 0.000000
# 3 0.000071 -0.006752 0.020229 0.000000 -0.002844 0.000000
# 4 0.000000 0.000000 0.000000 0.030303 0.000000 0.007985
# 5 0.003203 0.004315 -0.002844 0.000000 0.036501 0.000000
# 6 0.000000 0.000000 0.000000 0.007985 0.000000 0.051391
#
#
# Mechanical properties :
#
#
# Convention : Reuss Voigt Hill
#
# Bulk Modulus (GPa) = 35.47705 64.40771 49.94238
# Shear Modulus (GPa) = 25.29546 31.56537 28.43041
#
# Velocity S-wave (km/s) = 3.44810 3.85180 3.65553
# Velocity P-wave (km/s) = 5.70328 7.07494 6.42581
#
# Compressibility (1/GPa) = 0.02818723
#
# Stress axis : x y z
#
# Youngs Moduli (GPa) = 48.16593 122.85773 49.43418
#
# Poissons Ratio (x) = 0.46564 -0.00349
# Poissons Ratio (y) = 0.18255 0.33377
# Poissons Ratio (z) = -0.00340 0.82951
#
# Static dielectric constant tensor:
#      x y z
#    x 1.833110 0.000000 -0.033800 
#    y 0.000000 1.830150 0.000000 
#    z -0.033800 0.000000 1.751570 
# 
# From -- ./inp_files/28154.got.cif
#   From: 2010.05.17/outbox.cif.g08.bks.cpg/sg10_15_cif.got.tgz:28154.got - 2010.06.03 11:33:40.
