data_PCOD9150327
_publ_section_title
;
Structure prediction by ZEFSAII (Michael W. Deem and Ramdas Pophale) SiO2 
 PCOD9150327
Probable space group: P 2/M
;
_chemical_formula_sum "Si O2"
_cell_formula_units_Z 24
_cell_length_a 8.501761
_cell_length_b 15.798293
_cell_length_c 12.247459
_cell_angle_alpha 90.000000
_cell_angle_beta 41.909581
_cell_angle_gamma 90.000000
_cell_volume 1098.787126
_symmetry_space_group_name_H-M "P 2/M"
_symmetry_group_IT_number 10
_symmetry_cell_setting 'monoclinic'
loop_
_space_group_symop_operation_xyz
x,y,z
-x,y,-z
-x,-y,-z
x,-y,z
loop_
_atom_site_type_symbol
_atom_site_label
_atom_site_fract_x
_atom_site_fract_y
_atom_site_fract_z
Si Si1 0.278015 0.593545 0.197251
Si Si2 0.237092 0.091570 0.090683
Si Si3 0.085493 0.210279 0.830342
Si Si4 0.420893 0.906818 0.757801
Si Si5 0.265969 0.743753 0.376374
Si Si6 0.245039 0.640113 0.609064
O O1 0.289945 0.500000 0.245265
O O2 0.310869 0.671420 0.262994
O O3 0.013101 0.598370 0.281307
O O4 0.500000 0.597759 0.000000
O O5 0.257736 0.083913 0.949006
O O6 0.144902 0.000000 0.180181
O O7 0.500000 0.099706 0.000000
O O8 0.097625 0.179290 0.168404
O O9 0.265342 0.131171 0.741201
O O10 0.197473 0.296880 0.734005
O O11 0.000000 0.222879 0.000000
O O12 0.586365 0.829148 0.704273
O O13 0.522094 0.000000 0.683660
O O14 0.289439 0.697879 0.480004
O O15 0.000000 0.771453 0.500000
O O16 0.500000 0.596025 0.500000
#
# Coordination Sequence:
#
# PCOD9150327 Si02
#       6
#     4   4   4   4   4   4
#     4  10  25  47  74 102 127 164 215 270 331 399
#     4   9  19  32  52  84 116 163 230 284 322 367
#     4  10  21  36  60  84 125 176 223 273 320 371
#     4  10  20  36  57  86 128 178 224 267 318 378
#     4  10  23  40  63  92 133 174 209 268 331 392
#     4  11  23  40  65  99 134 170 218 255 337 398
#
# _framework density 21.842265999999999
#
# number of rings (size 3 to 8) (size 9 to 14) (size 15 to 20)
#    0.000    2.000    1.667    0.500    9.333    5.667 
#    0.000    2.500    0.000    2.500    0.000    0.000 
#    0.000    0.000    0.000    0.000    0.000    0.000 
#
# Total GULP energy -133641.201140 kJ/mol
# GULP energy per Si atom -5568.383381 kJ/mol
# Density = 2.179255 g / cm^3
# Si number density = 21.842266 Si / 1000 Ang^3
#
#
#
# Elastic Constant Matrix: (Units=GPa)
#
#
# Indices 1 2 3 4 5 6 
#
# 1 66.2887 35.6228 21.9400 0.0000 -7.0246 0.0000
# 2 35.6228 150.6044 55.0056 0.0000 -11.0448 0.0000
# 3 21.9400 55.0056 72.1639 0.0000 -13.3731 0.0000
# 4 0.0000 0.0000 0.0000 -3.0784 0.0000 -6.5374
# 5 -7.0246 -11.0448 -13.3731 0.0000 27.0438 0.0000
# 6 0.0000 0.0000 0.0000 -6.5374 0.0000 7.1035
#
#
#
# Elastic Compliance Matrix: (Units=1/GPa)
#
#
# Indices 1 2 3 4 5 6 
#
# 1 0.017854 -0.003089 -0.002695 0.000000 0.002043 0.000000
# 2 -0.003089 0.009738 -0.006490 0.000000 -0.000035 0.000000
# 3 -0.002695 -0.006490 0.020920 0.000000 0.006994 0.000000
# 4 0.000000 0.000000 0.000000 -0.109953 0.000000 -0.101190
# 5 0.002043 -0.000035 0.006994 0.000000 0.040952 0.000000
# 6 0.000000 0.000000 0.000000 -0.101190 0.000000 0.047650
#
#
# Mechanical properties :
#
#
# Convention : Reuss Voigt Hill
#
# Bulk Modulus (GPa) = 41.72919 57.13264 49.43091
# Shear Modulus (GPa) = 83.75453 17.97967 50.86710
#
# Velocity S-wave (km/s) = 6.19906 2.87219 4.83104
# Velocity P-wave (km/s) = 8.38953 6.10025 7.33475
#
# Compressibility (1/GPa) = 0.02396404
#
# Stress axis : x y z
#
# Youngs Moduli (GPa) = 56.00988 102.68579 47.80135
#
# Poissons Ratio (x) = 0.31718 0.12883
# Poissons Ratio (y) = 0.17301 0.31024
# Poissons Ratio (z) = 0.15095 0.66646
#
# Static dielectric constant tensor:
#      x y z
#    x 1.869510 0.000000 -0.069560 
#    y 0.000000 1.835170 0.000000 
#    z -0.069560 0.000000 1.879090 
# 
# From -- ./inp_files/61686.got.cif
#   From: 2010.05.17/outbox.cif.g08.bks.cpg/sg10_31_cif.got.tgz:61686.got - 2010.06.03 11:33:40.
