data_PCOD9150738
_publ_section_title
;
Structure prediction by ZEFSAII (Michael W. Deem and Ramdas Pophale) SiO2 
 PCOD9150738
Probable space group: P 2/M
;
_chemical_formula_sum "Si O2"
_cell_formula_units_Z 17
_cell_length_a 7.393274
_cell_length_b 10.943071
_cell_length_c 16.463317
_cell_angle_alpha 90.000000
_cell_angle_beta 144.070631
_cell_angle_gamma 90.000000
_cell_volume 781.581390
_symmetry_space_group_name_H-M "P 2/M"
_symmetry_group_IT_number 10
_symmetry_cell_setting 'monoclinic'
loop_
_space_group_symop_operation_xyz
x,y,z
-x,y,-z
-x,-y,-z
x,-y,z
loop_
_atom_site_type_symbol
_atom_site_label
_atom_site_fract_x
_atom_site_fract_y
_atom_site_fract_z
Si Si1 0.376119 0.866588 0.547830
Si Si2 0.869423 0.705418 0.321376
Si Si3 0.733871 0.361859 0.970763
Si Si4 0.788066 0.639393 0.715279
Si Si5 0.000000 0.500000 0.500000
O O1 0.500000 0.874089 0.500000
O O2 0.556720 0.750096 0.650256
O O3 0.020853 0.828398 0.410388
O O4 0.426021 0.000000 0.603384
O O5 0.544646 0.722117 0.158730
O O6 0.106051 0.652962 0.339137
O O7 0.861635 0.606118 0.388562
O O8 0.603582 0.500000 0.925500
O O9 0.000000 0.357918 0.000000
O O10 0.909764 0.343624 0.119223
O O11 0.662936 0.500000 0.683145
#
# Coordination Sequence:
#
# PCOD9150738 Si02
#       5
#     4   4   4   4   1
#     4   9  21  39  61  89 120 155 200 247 296 354
#     4  11  22  36  59  87 126 157 196 242 299 351
#     4  10  21  35  56  87 122 154 195 247 298 348
#     4  10  20  36  63  91 118 154 200 243 296 354
#     4  12  24  32  60  96 122 154 196 250 290 362
#
# _framework density 21.750772999999999
#
# number of rings (size 3 to 8) (size 9 to 14) (size 15 to 20)
#    0.000    1.882    2.353    0.706    4.941    3.294 
#    0.000    1.765    0.000    7.059    0.000    0.000 
#    0.000    0.000    0.000    0.000    0.000    0.000 
#
# Total GULP energy -94775.386950 kJ/mol
# GULP energy per Si atom -5575.022762 kJ/mol
# Density = 2.170127 g / cm^3
# Si number density = 21.750773 Si / 1000 Ang^3
#
#
#
# Elastic Constant Matrix: (Units=GPa)
#
#
# Indices 1 2 3 4 5 6 
#
# 1 53.7905 28.6653 8.3545 0.0000 -7.4274 0.0000
# 2 28.6653 152.7118 69.1635 0.0000 18.3155 0.0000
# 3 8.3545 69.1635 117.7891 0.0000 3.9723 0.0000
# 4 0.0000 0.0000 0.0000 17.3245 0.0000 2.0473
# 5 -7.4274 18.3155 3.9723 0.0000 36.0873 0.0000
# 6 0.0000 0.0000 0.0000 2.0473 0.0000 9.7511
#
#
#
# Elastic Compliance Matrix: (Units=1/GPa)
#
#
# Indices 1 2 3 4 5 6 
#
# 1 0.022469 -0.005818 0.001573 0.000000 0.007404 0.000000
# 2 -0.005818 0.011031 -0.005857 0.000000 -0.006151 0.000000
# 3 0.001573 -0.005857 0.011750 0.000000 0.002003 0.000000
# 4 0.000000 0.000000 0.000000 0.059190 0.000000 -0.012427
# 5 0.007404 -0.006151 0.002003 0.000000 0.032136 0.000000
# 6 0.000000 0.000000 0.000000 -0.012427 0.000000 0.105162
#
#
# Mechanical properties :
#
#
# Convention : Reuss Voigt Hill
#
# Bulk Modulus (GPa) = 39.92747 59.62867 49.77807
# Shear Modulus (GPa) = 18.49859 27.17310 22.83585
#
# Velocity S-wave (km/s) = 2.91946 3.53837 3.24371
# Velocity P-wave (km/s) = 5.45536 6.64586 6.07982
#
# Compressibility (1/GPa) = 0.02504541
#
# Stress axis : x y z
#
# Youngs Moduli (GPa) = 44.50538 90.65575 85.10839
#
# Poissons Ratio (x) = 0.52744 -0.13386
# Poissons Ratio (y) = 0.25893 0.49847
# Poissons Ratio (z) = -0.07000 0.53096
#
# Static dielectric constant tensor:
#      x y z
#    x 1.967880 0.000000 -0.003530 
#    y 0.000000 1.698450 0.000000 
#    z -0.003530 0.000000 1.808780 
# 
# From -- ./inp_files/17208.got.cif
#   From: 2010.05.17/outbox.cif.g08.bks.cpg/sg10_9_cif.got.tgz:17208.got - 2010.06.03 11:33:40.
