data_PCOD9150976
_publ_section_title
;
Structure prediction by ZEFSAII (Michael W. Deem and Ramdas Pophale) SiO2 
 PCOD9150976
Probable space group: P 2/M
;
_chemical_formula_sum "Si O2"
_cell_formula_units_Z 32
_cell_length_a 12.066895
_cell_length_b 15.667933
_cell_length_c 13.424248
_cell_angle_alpha 90.000000
_cell_angle_beta 133.954346
_cell_angle_gamma 90.000000
_cell_volume 1827.112159
_symmetry_space_group_name_H-M "P 2/M"
_symmetry_group_IT_number 10
_symmetry_cell_setting 'monoclinic'
loop_
_space_group_symop_operation_xyz
x,y,z
-x,y,-z
-x,-y,-z
x,-y,z
loop_
_atom_site_type_symbol
_atom_site_label
_atom_site_fract_x
_atom_site_fract_y
_atom_site_fract_z
Si Si1 0.886826 0.598843 0.335795
Si Si2 0.446137 0.905212 0.736096
Si Si3 0.966044 0.748348 0.232407
Si Si4 0.659539 0.246338 0.911216
Si Si5 0.145838 0.774659 0.160114
Si Si6 0.467137 0.595830 0.861691
Si Si7 0.907920 0.899529 0.546661
Si Si8 0.371539 0.906473 0.355538
O O1 0.887734 0.500000 0.299285
O O2 0.935649 0.668139 0.284918
O O3 0.712705 0.617036 0.262347
O O4 0.000000 0.604338 0.500000
O O5 0.533054 0.828793 0.846576
O O6 0.272945 0.884874 0.591828
O O7 0.553018 0.913412 0.705205
O O8 0.442105 0.000000 0.782055
O O9 0.086352 0.723528 0.219105
O O10 0.027641 0.829290 0.335241
O O11 0.805576 0.768907 0.074864
O O12 0.723414 0.253026 0.837173
O O13 0.577381 0.334673 0.883816
O O14 0.211497 0.860660 0.248133
O O15 0.000000 0.790696 0.000000
O O16 0.494642 0.500000 0.840578
O O17 0.500000 0.595592 0.000000
O O18 0.000000 0.890006 0.500000
O O19 0.923866 0.000000 0.588015
O O20 0.500000 0.858324 0.500000
O O21 0.348915 0.000000 0.386907
#
# Coordination Sequence:
#
# PCOD9150976 Si02
#       8
#     4   4   4   4   4   4   4   4
#     4  10  22  39  60  86 110 136 177 227 275 326
#     4   9  19  34  51  73 106 144 182 223 265 315
#     4  11  21  35  57  80 111 148 183 221 275 326
#     4  10  21  35  56  82 112 145 184 224 273 320
#     4   9  20  35  48  75 111 143 178 221 263 323
#     4  10  20  37  61  85 109 138 179 227 271 322
#     4  10  22  37  53  78 111 148 189 231 276 326
#     4   9  16  29  49  71  95 133 183 227 263 302
#
# _framework density 17.513977000000001
#
# number of rings (size 3 to 8) (size 9 to 14) (size 15 to 20)
#    0.000    2.250    1.250    1.125    3.500    2.250 
#    0.000    3.125    0.000    4.875    0.000    2.625 
#    0.000    0.000    0.000    0.000    0.000    0.000 
#
# Total GULP energy -178158.518195 kJ/mol
# GULP energy per Si atom -5567.453694 kJ/mol
# Density = 1.747411 g / cm^3
# Si number density = 17.513977 Si / 1000 Ang^3
#
#
#
# Elastic Constant Matrix: (Units=GPa)
#
#
# Indices 1 2 3 4 5 6 
#
# 1 76.8622 64.4468 42.0051 0.0000 9.9494 0.0000
# 2 64.4468 104.8609 44.8778 0.0000 4.5043 0.0000
# 3 42.0051 44.8778 56.1832 0.0000 4.7040 0.0000
# 4 0.0000 0.0000 0.0000 27.4735 0.0000 5.8146
# 5 9.9494 4.5043 4.7040 0.0000 23.9844 0.0000
# 6 0.0000 0.0000 0.0000 5.8146 0.0000 43.8321
#
#
#
# Elastic Compliance Matrix: (Units=1/GPa)
#
#
# Indices 1 2 3 4 5 6 
#
# 1 0.033277 -0.014804 -0.012334 0.000000 -0.008605 0.000000
# 2 -0.014804 0.021080 -0.006053 0.000000 0.003369 0.000000
# 3 -0.012334 -0.006053 0.031855 0.000000 0.000006 0.000000
# 4 0.000000 0.000000 0.000000 0.037450 0.000000 -0.004968
# 5 -0.008605 0.003369 0.000006 0.000000 0.044630 0.000000
# 6 0.000000 0.000000 0.000000 -0.004968 0.000000 0.023473
#
#
# Mechanical properties :
#
#
# Convention : Reuss Voigt Hill
#
# Bulk Modulus (GPa) = 50.42562 60.06285 55.24423
# Shear Modulus (GPa) = 18.88522 24.82978 21.85750
#
# Velocity S-wave (km/s) = 3.28730 3.76934 3.53654
# Velocity P-wave (km/s) = 6.57743 7.30154 6.94893
#
# Compressibility (1/GPa) = 0.01983119
#
# Stress axis : x y z
#
# Youngs Moduli (GPa) = 30.05053 47.43769 31.39231
#
# Poissons Ratio (x) = 0.70225 0.38721
# Poissons Ratio (y) = 0.44485 0.19001
# Poissons Ratio (z) = 0.37066 0.28713
#
# Static dielectric constant tensor:
#      x y z
#    x 1.611760 0.000000 0.006750 
#    y 0.000000 1.616680 0.000000 
#    z 0.006750 0.000000 1.617040 
# 
# From -- ./inp_files/65134.got.cif
#   From: 2010.05.17/outbox.cif.g08.bks.cpg/sg10_33_cif.got.tgz:65134.got - 2010.06.03 11:33:40.
