data_PCOD9150473
_publ_section_title
;
Structure prediction by ZEFSAII (Michael W. Deem and Ramdas Pophale) SiO2 
 PCOD9150473
Probable space group: P 2/M
;
_chemical_formula_sum "Si O2"
_cell_formula_units_Z 28
_cell_length_a 15.592956
_cell_length_b 7.559877
_cell_length_c 19.748275
_cell_angle_alpha 90.000000
_cell_angle_beta 148.490255
_cell_angle_gamma 90.000000
_cell_volume 1216.684474
_symmetry_space_group_name_H-M "P 2/M"
_symmetry_group_IT_number 10
_symmetry_cell_setting 'monoclinic'
loop_
_space_group_symop_operation_xyz
x,y,z
-x,y,-z
-x,-y,-z
x,-y,z
loop_
_atom_site_type_symbol
_atom_site_label
_atom_site_fract_x
_atom_site_fract_y
_atom_site_fract_z
Si Si1 0.373081 0.786476 0.355765
Si Si2 0.442961 0.214762 0.800611
Si Si3 0.200942 0.796443 0.935697
Si Si4 0.900238 0.707408 0.367617
Si Si5 0.063532 0.798814 0.340676
Si Si6 0.002807 0.707577 0.078718
Si Si7 0.412480 0.783590 0.624199
O O1 0.500000 0.726884 0.500000
O O2 0.183819 0.730959 0.232751
O O3 0.443481 0.730304 0.329839
O O4 0.373937 0.000000 0.358699
O O5 0.289948 0.270758 0.742834
O O6 0.423682 0.274238 0.709525
O O7 0.445726 0.000000 0.801380
O O8 0.617757 0.280109 0.945410
O O9 0.057467 0.711325 0.794596
O O10 0.134725 0.795249 0.967406
O O11 0.215505 0.000000 0.921844
O O12 0.938238 0.500000 0.384648
O O13 0.963840 0.801310 0.343608
O O14 0.000000 0.774229 0.500000
O O15 0.241032 0.721349 0.476248
O O16 0.097655 0.000000 0.339511
O O17 0.964696 0.500000 0.050890
O O18 0.000000 0.776606 0.000000
O O19 0.409655 0.000000 0.623844
#
# Coordination Sequence:
#
# PCOD9150473 Si02
#       7
#     4   4   4   4   4   4   4
#     4  10  20  36  60  88 117 149 195 253 301 344
#     4  10  20  36  59  84 111 146 191 239 287 337
#     4  10  22  39  61  89 116 147 193 246 293 339
#     4  11  23  38  57  85 117 150 191 232 281 344
#     4  10  20  37  61  86 115 148 187 238 292 342
#     4  11  24  40  58  84 122 165 201 236 289 356
#     4   9  17  31  55  83 108 143 188 234 286 337
#
# _framework density 23.013359999999999
#
# number of rings (size 3 to 8) (size 9 to 14) (size 15 to 20)
#    0.000    1.857    1.429    2.571    0.000    7.143 
#    0.000    4.286    0.000    0.000    0.000    0.000 
#    0.000    0.000    0.000    0.000    0.000    0.000 
#
# Total GULP energy -156553.199210 kJ/mol
# GULP energy per Si atom -5591.185686 kJ/mol
# Density = 2.296098 g / cm^3
# Si number density = 23.013360 Si / 1000 Ang^3
#
#
#
# Elastic Constant Matrix: (Units=GPa)
#
#
# Indices 1 2 3 4 5 6 
#
# 1 55.8940 -12.1595 -6.3300 0.0000 18.1123 0.0000
# 2 -12.1595 61.6469 -3.5876 0.0000 -5.0786 0.0000
# 3 -6.3300 -3.5876 94.2707 0.0000 17.2825 0.0000
# 4 0.0000 0.0000 0.0000 22.2327 0.0000 22.7633
# 5 18.1123 -5.0786 17.2825 0.0000 44.4111 0.0000
# 6 0.0000 0.0000 0.0000 22.7633 0.0000 31.6967
#
#
#
# Elastic Compliance Matrix: (Units=1/GPa)
#
#
# Indices 1 2 3 4 5 6 
#
# 1 0.022365 0.003787 0.003487 0.000000 -0.010045 0.000000
# 2 0.003787 0.017025 0.000892 0.000000 0.000055 0.000000
# 3 0.003487 0.000892 0.011972 0.000000 -0.005979 0.000000
# 4 0.000000 0.000000 0.000000 0.169920 0.000000 -0.122030
# 5 -0.010045 0.000055 -0.005979 0.000000 0.028947 0.000000
# 6 0.000000 0.000000 0.000000 -0.122030 0.000000 0.119186
#
#
# Mechanical properties :
#
#
# Convention : Reuss Voigt Hill
#
# Bulk Modulus (GPa) = 14.77234 18.62860 16.70047
# Shear Modulus (GPa) = 13.31036 35.26068 24.28552
#
# Velocity S-wave (km/s) = 2.40755 3.91856 3.25203
# Velocity P-wave (km/s) = 3.76316 5.34656 4.62315
#
# Compressibility (1/GPa) = 0.06769408
#
# Stress axis : x y z
#
# Youngs Moduli (GPa) = 44.71294 58.73785 83.52816
#
# Poissons Ratio (x) = -0.22243 -0.29130
# Poissons Ratio (y) = -0.16932 -0.07451
# Poissons Ratio (z) = -0.15593 -0.05240
#
# Static dielectric constant tensor:
#      x y z
#    x 1.811330 0.000000 -0.030320 
#    y 0.000000 1.892250 0.000000 
#    z -0.030320 0.000000 1.864640 
# 
# From -- ./inp_files/84807.got.cif
#   From: 2010.05.17/outbox.cif.g08.bks.cpg/sg10_43_cif.got.tgz:84807.got - 2010.06.03 11:33:40.
