data_PCOD9150800
_publ_section_title
;
Structure prediction by ZEFSAII (Michael W. Deem and Ramdas Pophale) SiO2 
 PCOD9150800
Probable space group: P 2/M
;
_chemical_formula_sum "Si O2"
_cell_formula_units_Z 32
_cell_length_a 30.686753
_cell_length_b 7.637953
_cell_length_c 12.713288
_cell_angle_alpha 90.000000
_cell_angle_beta 151.503381
_cell_angle_gamma 90.000000
_cell_volume 1421.678851
_symmetry_space_group_name_H-M "P 2/M"
_symmetry_group_IT_number 10
_symmetry_cell_setting 'monoclinic'
loop_
_space_group_symop_operation_xyz
x,y,z
-x,y,-z
-x,-y,-z
x,-y,z
loop_
_atom_site_type_symbol
_atom_site_label
_atom_site_fract_x
_atom_site_fract_y
_atom_site_fract_z
Si Si1 0.897250 0.213907 0.798605
Si Si2 0.033454 0.288522 0.455345
Si Si3 0.265371 0.787477 0.689328
Si Si4 0.662231 0.298298 0.565140
Si Si5 0.857276 0.206144 0.946831
Si Si6 0.399568 0.204886 0.793881
Si Si7 0.760075 0.295444 0.129215
Si Si8 0.591827 0.284834 0.633936
O O1 0.832160 0.266535 0.565631
O O2 0.897215 0.000000 0.801602
O O3 0.861109 0.273475 0.835189
O O4 0.000000 0.272949 0.000000
O O5 0.035086 0.500000 0.454908
O O6 0.136664 0.222138 0.655445
O O7 0.000000 0.234558 0.500000
O O8 0.955541 0.232657 0.208249
O O9 0.338506 0.723317 0.758872
O O10 0.276546 0.720271 0.830060
O O11 0.266964 0.000000 0.696548
O O12 0.637222 0.500000 0.498456
O O13 0.646595 0.213808 0.418401
O O14 0.602830 0.227388 0.536123
O O15 0.770243 0.287610 0.820747
O O16 0.838965 0.000000 0.905024
O O17 0.409937 0.000000 0.842209
O O18 0.500000 0.284423 0.000000
O O19 0.769108 0.500000 0.120629
O O20 0.682604 0.223216 0.887738
O O21 0.500000 0.230763 0.500000
O O22 0.592041 0.500000 0.634132
#
# Coordination Sequence:
#
# PCOD9150800 Si02
#       8
#     4   4   4   4   4   4   4   4
#     4   9  17  31  52  77 107 146 187 226 275 336
#     4  10  21  38  58  83 117 157 198 244 300 352
#     4  10  20  37  57  81 118 157 192 233 291 353
#     4  11  22  38  63  91 119 153 197 248 297 351
#     4  11  21  36  59  85 116 154 194 239 291 350
#     4  10  22  40  61  85 118 159 197 241 298 353
#     4  10  21  37  59  86 118 153 194 247 298 346
#     4   9  20  39  61  85 115 154 196 241 296 351
#
# _framework density 22.508600999999999
#
# number of rings (size 3 to 8) (size 9 to 14) (size 15 to 20)
#    0.000    2.000    1.250    2.250    1.750    4.500 
#    0.000    2.500    0.000    4.500    0.000    0.000 
#    0.000    0.000    0.000    0.000    0.000    0.000 
#
# Total GULP energy -178812.681813 kJ/mol
# GULP energy per Si atom -5587.896307 kJ/mol
# Density = 2.245737 g / cm^3
# Si number density = 22.508601 Si / 1000 Ang^3
#
#
#
# Elastic Constant Matrix: (Units=GPa)
#
#
# Indices 1 2 3 4 5 6 
#
# 1 125.5491 -5.7237 21.1808 0.0000 14.6321 0.0000
# 2 -5.7237 42.9106 -6.8934 0.0000 3.9396 0.0000
# 3 21.1808 -6.8934 81.8444 0.0000 14.3025 0.0000
# 4 0.0000 0.0000 0.0000 0.1829 0.0000 -11.9472
# 5 14.6321 3.9396 14.3025 0.0000 42.0210 0.0000
# 6 0.0000 0.0000 0.0000 -11.9472 0.0000 4.0586
#
#
#
# Elastic Compliance Matrix: (Units=1/GPa)
#
#
# Indices 1 2 3 4 5 6 
#
# 1 0.008594 0.001106 -0.001690 0.000000 -0.002521 0.000000
# 2 0.001106 0.024146 0.002350 0.000000 -0.003449 0.000000
# 3 -0.001690 0.002350 0.013598 0.000000 -0.004260 0.000000
# 4 0.000000 0.000000 0.000000 -0.028583 0.000000 -0.084139
# 5 -0.002521 -0.003449 -0.004260 0.000000 0.026449 0.000000
# 6 0.000000 0.000000 0.000000 -0.084139 0.000000 -0.001288
#
#
# Mechanical properties :
#
#
# Convention : Reuss Voigt Hill
#
# Bulk Modulus (GPa) = 20.05193 29.71460 24.88326
# Shear Modulus (GPa) = 89.27243 25.36852 57.32047
#
# Velocity S-wave (km/s) = 6.30457 3.36081 5.05186
# Velocity P-wave (km/s) = 7.86922 5.31885 6.71621
#
# Compressibility (1/GPa) = 0.04987051
#
# Stress axis : x y z
#
# Youngs Moduli (GPa) = 116.35417 41.41469 73.53925
#
# Poissons Ratio (x) = -0.04582 0.12432
# Poissons Ratio (y) = -0.12872 -0.17283
# Poissons Ratio (z) = 0.19669 -0.09733
#
# Static dielectric constant tensor:
#      x y z
#    x 1.828220 0.000000 0.009360 
#    y 0.000000 1.836290 0.000000 
#    z 0.009360 0.000000 1.871270 
# 
# From -- ./inp_files/58363.got.cif
#   From: 2010.05.17/outbox.cif.g08.bks.cpg/sg10_30_cif.got.tgz:58363.got - 2010.06.03 11:33:40.
