data_PCOD9150089
_publ_section_title
;
Structure prediction by ZEFSAII (Michael W. Deem and Ramdas Pophale) SiO2 
 PCOD9150089
Probable space group: P 2/M
;
_chemical_formula_sum "Si O2"
_cell_formula_units_Z 32
_cell_length_a 25.033594
_cell_length_b 14.353012
_cell_length_c 9.561305
_cell_angle_alpha 90.000000
_cell_angle_beta 150.848175
_cell_angle_gamma 90.000000
_cell_volume 1673.494578
_symmetry_space_group_name_H-M "P 2/M"
_symmetry_group_IT_number 10
_symmetry_cell_setting 'monoclinic'
loop_
_space_group_symop_operation_xyz
x,y,z
-x,y,-z
-x,-y,-z
x,-y,z
loop_
_atom_site_type_symbol
_atom_site_label
_atom_site_fract_x
_atom_site_fract_y
_atom_site_fract_z
Si Si1 0.011830 0.216560 0.362034
Si Si2 0.334379 0.106845 0.792603
Si Si3 0.099359 0.111566 0.122857
Si Si4 0.237714 0.106874 0.880228
Si Si5 0.474743 0.711413 0.097116
Si Si6 0.305220 0.391861 0.907448
Si Si7 0.950936 0.392814 0.734556
Si Si8 0.387142 0.746069 0.328518
O O1 0.126552 0.163174 0.597640
O O2 0.008909 0.317561 0.284739
O O3 0.000000 0.221898 0.500000
O O4 0.921213 0.156268 0.074313
O O5 0.219057 0.133798 0.456349
O O6 0.306918 0.107543 0.894861
O O7 0.362467 0.000000 0.817639
O O8 0.425236 0.184127 0.972070
O O9 0.091566 0.000000 0.096438
O O10 0.000000 0.142036 0.000000
O O11 0.213906 0.000000 0.863287
O O12 0.311404 0.163001 0.158153
O O13 0.577809 0.714176 0.437811
O O14 0.500000 0.676970 0.000000
O O15 0.384478 0.650046 0.970967
O O16 0.330712 0.500000 0.992700
O O17 0.180791 0.384717 0.570039
O O18 0.324825 0.331223 0.092391
O O19 0.979260 0.500000 0.764041
O O20 0.000000 0.373202 0.000000
O O21 0.500000 0.764778 0.500000
#
# Coordination Sequence:
#
# PCOD9150089 Si02
#       8
#     4   4   4   4   4   4   4   4
#     4  12  24  36  57  89 127 157 185 240 304 354
#     4  10  20  37  61  85 114 159 208 244 286 342
#     4  10  20  35  59  86 114 159 206 243 284 345
#     4  11  21  37  60  87 117 154 205 244 281 343
#     4  11  24  39  57  88 125 150 193 249 300 351
#     4  10  21  42  68  89 113 148 197 242 287 354
#     4  10  22  42  69  93 115 153 200 240 284 352
#     4  10  20  38  61  87 112 153 202 241 294 338
#
# _framework density 19.121662000000001
#
# number of rings (size 3 to 8) (size 9 to 14) (size 15 to 20)
#    0.000    1.500    5.000    0.750    1.750    5.750 
#    0.000    1.250    0.000    0.000    0.000    0.000 
#    0.000    0.000    0.000    0.000    0.000    0.000 
#
# Total GULP energy -178728.243580 kJ/mol
# GULP energy per Si atom -5585.257612 kJ/mol
# Density = 1.907814 g / cm^3
# Si number density = 19.121662 Si / 1000 Ang^3
#
#
#
# Elastic Constant Matrix: (Units=GPa)
#
#
# Indices 1 2 3 4 5 6 
#
# 1 59.7195 22.8615 25.4247 0.0000 -31.1083 0.0000
# 2 22.8615 90.4416 41.7422 0.0000 -6.8743 0.0000
# 3 25.4247 41.7422 111.0540 0.0000 -27.3566 0.0000
# 4 0.0000 0.0000 0.0000 30.7997 0.0000 -5.4223
# 5 -31.1083 -6.8743 -27.3566 0.0000 27.0663 0.0000
# 6 0.0000 0.0000 0.0000 -5.4223 0.0000 13.4407
#
#
#
# Elastic Compliance Matrix: (Units=1/GPa)
#
#
# Indices 1 2 3 4 5 6 
#
# 1 0.051502 -0.012130 0.008776 0.000000 0.064983 0.000000
# 2 -0.012130 0.016337 -0.007691 0.000000 -0.017565 0.000000
# 3 0.008776 -0.007691 0.015831 0.000000 0.024134 0.000000
# 4 0.000000 0.000000 0.000000 0.034950 0.000000 0.014100
# 5 0.064983 -0.017565 0.024134 0.000000 0.131565 0.000000
# 6 0.000000 0.000000 0.000000 0.014100 0.000000 0.080089
#
#
# Mechanical properties :
#
#
# Convention : Reuss Voigt Hill
#
# Bulk Modulus (GPa) = 16.23857 49.03020 32.63439
# Shear Modulus (GPa) = 13.40873 25.67379 19.54126
#
# Velocity S-wave (km/s) = 2.65095 3.66820 3.20025
# Velocity P-wave (km/s) = 4.22856 6.60589 5.54610
#
# Compressibility (1/GPa) = 0.06158179
#
# Stress axis : x y z
#
# Youngs Moduli (GPa) = 19.41670 61.20916 63.16583
#
# Poissons Ratio (x) = 0.74245 -0.55434
# Poissons Ratio (y) = 0.23552 0.48579
# Poissons Ratio (z) = -0.17040 0.47074
#
# Static dielectric constant tensor:
#      x y z
#    x 1.651960 0.000000 -0.002960 
#    y 0.000000 1.677170 0.000000 
#    z -0.002960 0.000000 1.668700 
# 
# From -- ./inp_files/36387.got.cif
#   From: 2010.05.17/outbox.cif.g08.bks.cpg/sg10_19_cif.got.tgz:36387.got - 2010.06.03 11:33:40.
