data_PCOD9150491
_publ_section_title
;
Structure prediction by ZEFSAII (Michael W. Deem and Ramdas Pophale) SiO2 
 PCOD9150491
Probable space group: P 2/M
;
_chemical_formula_sum "Si O2"
_cell_formula_units_Z 32
_cell_length_a 32.930604
_cell_length_b 8.722454
_cell_length_c 13.944899
_cell_angle_alpha 90.000000
_cell_angle_beta 24.835029
_cell_angle_gamma 90.000000
_cell_volume 1682.326472
_symmetry_space_group_name_H-M "P 2/M"
_symmetry_group_IT_number 10
_symmetry_cell_setting 'monoclinic'
loop_
_space_group_symop_operation_xyz
x,y,z
-x,y,-z
-x,-y,-z
x,-y,z
loop_
_atom_site_type_symbol
_atom_site_label
_atom_site_fract_x
_atom_site_fract_y
_atom_site_fract_z
Si Si1 0.773438 0.317566 0.306447
Si Si2 0.730596 0.185319 0.189069
Si Si3 0.895267 0.815405 0.681631
Si Si4 0.142436 0.317536 0.447417
Si Si5 0.480443 0.813210 0.433282
Si Si6 0.608965 0.184823 0.796096
Si Si7 0.346561 0.814687 0.078650
Si Si8 0.977174 0.183894 0.938896
O O1 0.779239 0.500000 0.294876
O O2 0.754423 0.258187 0.239923
O O3 0.686804 0.261281 0.560117
O O4 0.873618 0.248045 0.129897
O O5 0.624773 0.233617 0.378974
O O6 0.730470 0.000000 0.199928
O O7 0.811807 0.224435 0.936543
O O8 0.876562 0.737632 0.620113
O O9 0.000000 0.774707 0.500000
O O10 0.893175 0.000000 0.672480
O O11 0.139786 0.500000 0.458109
O O12 0.246227 0.256818 0.259896
O O13 0.059808 0.248707 0.692748
O O14 0.500000 0.761581 0.500000
O O15 0.480329 0.000000 0.434723
O O16 0.565936 0.766180 0.178477
O O17 0.629574 0.224640 0.862535
O O18 0.617578 0.000000 0.768158
O O19 0.500000 0.226921 0.000000
O O20 0.338525 0.000000 0.090049
O O21 0.975939 0.000000 0.934073
O O22 0.000000 0.225336 0.000000
#
# Coordination Sequence:
#
# PCOD9150491 Si02
#       8
#     4   4   4   4   4   4   4   4
#     4  12  25  39  59  89 125 158 190 238 300 361
#     4  10  20  37  62  88 117 156 202 248 291 343
#     4  10  21  38  62  89 116 152 198 244 290 346
#     4  12  25  39  59  88 123 157 189 235 296 359
#     4   9  17  32  58  89 115 146 195 250 295 336
#     4  10  21  39  63  88 116 156 207 254 291 338
#     4  10  20  36  59  85 115 153 199 247 292 344
#     4  11  24  43  66  88 113 151 200 248 291 343
#
# _framework density 19.021279
#
# number of rings (size 3 to 8) (size 9 to 14) (size 15 to 20)
#    0.000    1.500    0.000    5.625    0.000   10.500 
#    0.000    1.875    0.000    1.500    0.000    0.000 
#    0.000    0.000    0.000    0.000    0.000    0.000 
#
# Total GULP energy -178978.246289 kJ/mol
# GULP energy per Si atom -5593.070197 kJ/mol
# Density = 1.897799 g / cm^3
# Si number density = 19.021279 Si / 1000 Ang^3
#
#
#
# Elastic Constant Matrix: (Units=GPa)
#
#
# Indices 1 2 3 4 5 6 
#
# 1 229.8641 76.6089 140.5002 0.0000 -1.8925 0.0000
# 2 76.6089 48.0730 70.3473 0.0000 4.6719 0.0000
# 3 140.5002 70.3473 224.6583 0.0000 -1.6421 0.0000
# 4 0.0000 0.0000 0.0000 -6.2971 0.0000 0.9164
# 5 -1.8925 4.6719 -1.6421 0.0000 44.1033 0.0000
# 6 0.0000 0.0000 0.0000 0.9164 0.0000 -11.0564
#
#
#
# Elastic Compliance Matrix: (Units=1/GPa)
#
#
# Indices 1 2 3 4 5 6 
#
# 1 0.010010 -0.012876 -0.002216 0.000000 0.001711 0.000000
# 2 -0.012876 0.055877 -0.009494 0.000000 -0.006825 0.000000
# 3 -0.002216 -0.009494 0.008819 0.000000 0.001239 0.000000
# 4 0.000000 0.000000 0.000000 -0.160741 0.000000 -0.013323
# 5 0.001711 -0.006825 0.001239 0.000000 0.023517 0.000000
# 6 0.000000 0.000000 0.000000 -0.013323 0.000000 -0.091549
#
#
# Mechanical properties :
#
#
# Convention : Reuss Voigt Hill
#
# Bulk Modulus (GPa) = 39.16301 119.72311 79.44306
# Shear Modulus (GPa) = -51.87574 19.69255 -16.09159
#
# Velocity S-wave (km/s) = -5.22797 3.22108 -2.91173
# Velocity P-wave (km/s) = 3.97599 8.76996 5.52737
#
# Compressibility (1/GPa) = 0.02553430
#
# Stress axis : x y z
#
# Youngs Moduli (GPa) = 99.89834 17.89648 113.38961
#
# Poissons Ratio (x) = 0.23043 0.25128
# Poissons Ratio (y) = 1.28625 1.07656
# Poissons Ratio (z) = 0.22138 0.16992
#
# Static dielectric constant tensor:
#      x y z
#    x 1.624500 0.000000 -0.000200 
#    y 0.000000 1.633950 0.000000 
#    z -0.000200 0.000000 1.625180 
# 
# From -- ./inp_files/58189.got.cif
#   From: 2010.05.17/outbox.cif.g08.bks.cpg/sg10_30_cif.got.tgz:58189.got - 2010.06.03 11:33:40.
