data_PCOD9150443
_publ_section_title
;
Structure prediction by ZEFSAII (Michael W. Deem and Ramdas Pophale) SiO2 
 PCOD9150443
Probable space group: P 2/M
;
_chemical_formula_sum "Si O2"
_cell_formula_units_Z 25
_cell_length_a 16.607039
_cell_length_b 12.202271
_cell_length_c 22.044283
_cell_angle_alpha 90.000000
_cell_angle_beta 164.945190
_cell_angle_gamma 90.000000
_cell_volume 1160.306194
_symmetry_space_group_name_H-M "P 2/M"
_symmetry_group_IT_number 10
_symmetry_cell_setting 'monoclinic'
loop_
_space_group_symop_operation_xyz
x,y,z
-x,y,-z
-x,-y,-z
x,-y,z
loop_
_atom_site_type_symbol
_atom_site_label
_atom_site_fract_x
_atom_site_fract_y
_atom_site_fract_z
Si Si1 0.251612 0.871784 0.867647
Si Si2 0.777237 0.371453 0.008512
Si Si3 0.508366 0.000000 0.597457
Si Si4 0.000000 0.000000 0.500000
Si Si5 0.460652 0.838538 0.786999
Si Si6 0.775538 0.617982 0.780795
Si Si7 0.798959 0.000000 0.945021
Si Si8 0.228133 0.225709 0.413640
O O1 0.926388 0.808293 0.635014
O O2 0.198321 0.000000 0.816739
O O3 0.500000 0.830013 0.000000
O O4 0.402423 0.865254 0.045308
O O5 0.711989 0.500000 0.969736
O O6 0.005077 0.360188 0.116557
O O7 0.982381 0.312516 0.208861
O O8 0.480923 0.291039 0.789677
O O9 0.298304 0.107336 0.434716
O O10 0.631191 0.000000 0.757053
O O11 0.830338 0.000000 0.794842
O O12 0.140194 0.096344 0.556605
O O13 0.682297 0.896077 0.898866
O O14 0.611402 0.500000 0.651224
O O15 0.546373 0.712520 0.633955
O O16 0.000000 0.606482 0.000000
#
# Coordination Sequence:
#
# PCOD9150443 Si02
#       8
#     4   4   2   1   4   4   2   4
#     4  10  20  38  56  82 119 159 210 255 302 365
#     4  10  22  41  64  88 121 167 211 254 305 373
#     4  11  24  34  54  94 130 161 201 250 317 388
#     4  10  20  36  58  96 116 158 206 248 316 366
#     4  10  21  39  61  87 122 164 205 255 312 378
#     4  10  22  40  61  89 124 163 210 257 309 374
#     4  10  22  37  53  85 136 166 192 248 327 387
#     4  11  22  37  61  89 120 163 208 256 312 371
#
# _framework density 21.546036999999998
#
# number of rings (size 3 to 8) (size 9 to 14) (size 15 to 20)
#    0.000    1.760    2.400    1.920    4.480    5.120 
#    0.000    3.600    0.000   12.000    0.000    0.000 
#    0.000    0.000    0.000    0.000    0.000    0.000 
#
# Total GULP energy -139215.102616 kJ/mol
# GULP energy per Si atom -5568.604105 kJ/mol
# Density = 2.149700 g / cm^3
# Si number density = 21.546037 Si / 1000 Ang^3
#
#
#
# Elastic Constant Matrix: (Units=GPa)
#
#
# Indices 1 2 3 4 5 6 
#
# 1 114.2758 51.2899 24.4251 0.0000 31.8988 0.0000
# 2 51.2899 200.9215 50.9143 0.0000 35.5035 0.0000
# 3 24.4251 50.9143 35.5687 0.0000 16.8935 0.0000
# 4 0.0000 0.0000 0.0000 23.9774 0.0000 14.1377
# 5 31.8988 35.5035 16.8935 0.0000 38.8456 0.0000
# 6 0.0000 0.0000 0.0000 14.1377 0.0000 26.6660
#
#
#
# Elastic Compliance Matrix: (Units=1/GPa)
#
#
# Indices 1 2 3 4 5 6 
#
# 1 0.011976 -0.000858 -0.003400 0.000000 -0.007572 0.000000
# 2 -0.000858 0.008134 -0.009903 0.000000 -0.002423 0.000000
# 3 -0.003400 -0.009903 0.049153 0.000000 -0.009533 0.000000
# 4 0.000000 0.000000 0.000000 0.060673 0.000000 -0.032167
# 5 -0.007572 -0.002423 -0.009533 0.000000 0.038321 0.000000
# 6 0.000000 0.000000 0.000000 -0.032167 0.000000 0.054555
#
#
# Mechanical properties :
#
#
# Convention : Reuss Voigt Hill
#
# Bulk Modulus (GPa) = 24.42551 67.11384 45.76967
# Shear Modulus (GPa) = 18.88365 32.84026 25.86196
#
# Velocity S-wave (km/s) = 2.96367 3.90832 3.46831
# Velocity P-wave (km/s) = 4.80335 7.18215 6.10964
#
# Compressibility (1/GPa) = 0.04094081
#
# Stress axis : x y z
#
# Youngs Moduli (GPa) = 83.50043 122.94711 20.34479
#
# Poissons Ratio (x) = 0.10544 0.06917
# Poissons Ratio (y) = 0.07161 0.20148
# Poissons Ratio (z) = 0.28391 1.21755
#
# Static dielectric constant tensor:
#      x y z
#    x 1.703280 0.000000 -0.039410 
#    y 0.000000 2.153820 0.000000 
#    z -0.039410 0.000000 1.919600 
# 
# From -- ./inp_files/85265.got.cif
#   From: 2010.05.17/outbox.cif.g08.bks.cpg/sg10_43_cif.got.tgz:85265.got - 2010.06.03 11:33:40.
