data_PCOD9150340
_publ_section_title
;
Structure prediction by ZEFSAII (Michael W. Deem and Ramdas Pophale) SiO2 
 PCOD9150340
Probable space group: P 2/M
;
_chemical_formula_sum "Si O2"
_cell_formula_units_Z 28
_cell_length_a 30.716234
_cell_length_b 7.639543
_cell_length_c 9.169035
_cell_angle_alpha 90.000000
_cell_angle_beta 42.222122
_cell_angle_gamma 90.000000
_cell_volume 1445.880810
_symmetry_space_group_name_H-M "P 2/M"
_symmetry_group_IT_number 10
_symmetry_cell_setting 'monoclinic'
loop_
_space_group_symop_operation_xyz
x,y,z
-x,y,-z
-x,-y,-z
x,-y,z
loop_
_atom_site_type_symbol
_atom_site_label
_atom_site_fract_x
_atom_site_fract_y
_atom_site_fract_z
Si Si1 0.425907 0.500000 0.507329
Si Si2 0.573347 0.500000 0.139894
Si Si3 0.064020 0.788103 0.426213
Si Si4 0.325199 0.794662 0.760941
Si Si5 0.808676 0.786069 0.061374
Si Si6 0.197235 0.205957 0.594433
Si Si7 0.325377 0.793203 0.110006
Si Si8 0.934916 0.706001 0.235978
O O1 0.499497 0.500000 0.270168
O O2 0.428902 0.500000 0.677175
O O3 0.384378 0.670785 0.568943
O O4 0.614454 0.671491 0.995798
O O5 0.062760 0.735180 0.597391
O O6 0.000000 0.727584 0.500000
O O7 0.064080 0.000000 0.422226
O O8 0.129089 0.726386 0.184352
O O9 0.258947 0.739530 0.846591
O O10 0.337349 0.000000 0.699842
O O11 0.316048 0.777243 0.958381
O O12 0.810773 0.722260 0.222647
O O13 0.811376 0.000000 0.054619
O O14 0.260160 0.271099 0.351718
O O15 0.131350 0.223494 0.667495
O O16 0.209441 0.000000 0.581847
O O17 0.336481 0.000000 0.112237
O O18 0.933707 0.500000 0.208781
O O19 0.000000 0.780334 0.000000
#
# Coordination Sequence:
#
# PCOD9150340 Si02
#       8
#     2   2   4   4   4   4   4   4
#     4   9  18  32  51  83 108 143 184 217 277 329
#     4   9  18  32  53  79 116 139 176 233 265 329
#     4  10  20  36  59  82 105 139 184 229 274 325
#     4   9  17  32  52  77 111 142 180 230 273 327
#     4   9  18  34  55  80 107 136 177 230 280 324
#     4  10  20  36  58  80 104 138 183 228 272 326
#     4   9  18  32  54  81 108 144 182 224 280 328
#     4  11  24  38  52  76 112 147 180 222 273 326
#
# _framework density 19.365356999999999
#
# number of rings (size 3 to 8) (size 9 to 14) (size 15 to 20)
#    0.000    2.429    0.000    2.143    1.000    5.429 
#    5.143    2.857    0.000    1.714    0.000    4.000 
#    0.000    0.000    0.000    0.000    0.000    0.000 
#
# Total GULP energy -156284.982712 kJ/mol
# GULP energy per Si atom -5581.606525 kJ/mol
# Density = 1.932128 g / cm^3
# Si number density = 19.365357 Si / 1000 Ang^3
#
#
#
# Elastic Constant Matrix: (Units=GPa)
#
#
# Indices 1 2 3 4 5 6 
#
# 1 89.7469 13.4461 71.4151 0.0000 -19.7433 0.0000
# 2 13.4461 46.7327 30.6959 0.0000 -8.2071 0.0000
# 3 71.4151 30.6959 154.9040 0.0000 -28.2469 0.0000
# 4 0.0000 0.0000 0.0000 16.3169 0.0000 -0.6993
# 5 -19.7433 -8.2071 -28.2469 0.0000 34.7233 0.0000
# 6 0.0000 0.0000 0.0000 -0.6993 0.0000 11.0651
#
#
#
# Elastic Compliance Matrix: (Units=1/GPa)
#
#
# Indices 1 2 3 4 5 6 
#
# 1 0.018098 0.000581 -0.007700 0.000000 0.004164 0.000000
# 2 0.000581 0.024759 -0.004752 0.000000 0.002317 0.000000
# 3 -0.007700 -0.004752 0.011676 0.000000 0.003997 0.000000
# 4 0.000000 0.000000 0.000000 0.061453 0.000000 0.003884
# 5 0.004164 0.002317 0.003997 0.000000 0.034966 0.000000
# 6 0.000000 0.000000 0.000000 0.003884 0.000000 0.090620
#
#
# Mechanical properties :
#
#
# Convention : Reuss Voigt Hill
#
# Bulk Modulus (GPa) = 32.47467 58.05530 45.26498
# Shear Modulus (GPa) = 18.14379 24.14283 21.14331
#
# Velocity S-wave (km/s) = 3.06424 3.53470 3.30784
# Velocity P-wave (km/s) = 5.41528 6.83395 6.16555
#
# Compressibility (1/GPa) = 0.03079323
#
# Stress axis : x y z
#
# Youngs Moduli (GPa) = 55.25347 40.38920 85.64647
#
# Poissons Ratio (x) = -0.02349 0.65945
# Poissons Ratio (y) = -0.03213 0.40698
# Poissons Ratio (z) = 0.42544 0.19192
#
# Static dielectric constant tensor:
#      x y z
#    x 1.639100 0.000000 0.005640 
#    y 0.000000 1.702980 0.000000 
#    z 0.005640 0.000000 1.667050 
# 
# From -- ./inp_files/37182.got.cif
#   From: 2010.05.17/outbox.cif.g08.bks.cpg/sg10_19_cif.got.tgz:37182.got - 2010.06.03 11:33:40.
