data_PCOD9150273
_publ_section_title
;
Structure prediction by ZEFSAII (Michael W. Deem and Ramdas Pophale) SiO2 
 PCOD9150273
Probable space group: P 2/M
;
_chemical_formula_sum "Si O2"
_cell_formula_units_Z 28
_cell_length_a 29.727600
_cell_length_b 8.905317
_cell_length_c 9.300969
_cell_angle_alpha 90.000000
_cell_angle_beta 38.529441
_cell_angle_gamma 90.000000
_cell_volume 1533.795282
_symmetry_space_group_name_H-M "P 2/M"
_symmetry_group_IT_number 10
_symmetry_cell_setting 'monoclinic'
loop_
_space_group_symop_operation_xyz
x,y,z
-x,y,-z
-x,-y,-z
x,-y,z
loop_
_atom_site_type_symbol
_atom_site_label
_atom_site_fract_x
_atom_site_fract_y
_atom_site_fract_z
Si Si1 0.502936 0.680277 0.160536
Si Si2 0.776845 0.180260 0.472105
Si Si3 0.357334 0.320278 0.699375
Si Si4 0.927046 0.321273 0.761870
Si Si5 0.928187 0.678524 0.100433
Si Si6 0.635194 0.180478 0.003789
Si Si7 0.775208 0.179765 0.140487
O O1 0.514149 0.500000 0.141508
O O2 0.427415 0.715322 0.427252
O O3 0.500000 0.721814 0.000000
O O4 0.567758 0.761895 0.079866
O O5 0.853021 0.246401 0.332980
O O6 0.709064 0.226446 0.738000
O O7 0.765727 0.224625 0.332523
O O8 0.781463 0.000000 0.463323
O O9 0.351632 0.500000 0.724369
O O10 0.286635 0.254124 0.799975
O O11 0.366948 0.250500 0.832680
O O12 0.917108 0.500000 0.761779
O O13 0.000000 0.273352 0.500000
O O14 0.936195 0.297930 0.909626
O O15 0.854743 0.235531 0.896964
O O16 0.922519 0.500000 0.140744
O O17 0.000000 0.734710 0.000000
O O18 0.633689 0.000000 0.016823
O O19 0.770714 0.000000 0.142087
#
# Coordination Sequence:
#
# PCOD9150273 Si02
#       7
#     4   4   4   4   4   4   4
#     4  10  22  40  61  84 110 143 183 224 268 321
#     4   9  20  37  55  78 108 143 181 221 268 322
#     4  11  23  38  57  82 112 144 180 223 271 322
#     4   9  18  33  52  75 106 142 180 222 268 320
#     4   9  18  32  51  76 104 137 179 223 265 313
#     4  11  23  38  57  83 114 145 180 223 271 322
#     4  10  20  36  57  80 108 142 183 227 271 322
#
# _framework density 18.255369000000002
#
# number of rings (size 3 to 8) (size 9 to 14) (size 15 to 20)
#    0.000    2.143    0.000    2.571    0.000    6.571 
#    0.000    1.429    0.000    0.000    0.000    0.000 
#    0.000    0.000    0.000    0.000    0.000    0.000 
#
# Total GULP energy -156373.657046 kJ/mol
# GULP energy per Si atom -5584.773466 kJ/mol
# Density = 1.821382 g / cm^3
# Si number density = 18.255369 Si / 1000 Ang^3
#
#
#
# Elastic Constant Matrix: (Units=GPa)
#
#
# Indices 1 2 3 4 5 6 
#
# 1 163.5949 60.3393 94.9464 0.0000 -22.9826 0.0000
# 2 60.3393 41.9586 64.1490 0.0000 -8.6110 0.0000
# 3 94.9464 64.1490 175.3677 0.0000 -13.9910 0.0000
# 4 0.0000 0.0000 0.0000 34.9784 0.0000 -23.9238
# 5 -22.9826 -8.6110 -13.9910 0.0000 28.4349 0.0000
# 6 0.0000 0.0000 0.0000 -23.9238 0.0000 92.0470
#
#
#
# Elastic Compliance Matrix: (Units=1/GPa)
#
#
# Indices 1 2 3 4 5 6 
#
# 1 0.013786 -0.018058 -0.000422 0.000000 0.005466 0.000000
# 2 -0.018058 0.079066 -0.019151 0.000000 -0.000075 0.000000
# 3 -0.000422 -0.019151 0.012955 0.000000 0.000233 0.000000
# 4 0.000000 0.000000 0.000000 0.034770 0.000000 0.009037
# 5 0.005466 -0.000075 0.000233 0.000000 0.039678 0.000000
# 6 0.000000 0.000000 0.000000 0.009037 0.000000 0.013213
#
#
# Mechanical properties :
#
#
# Convention : Reuss Voigt Hill
#
# Bulk Modulus (GPa) = 32.73957 91.08784 61.91371
# Shear Modulus (GPa) = 17.92682 41.85783 29.89232
#
# Velocity S-wave (km/s) = 3.13709 4.79362 4.05094
# Velocity P-wave (km/s) = 5.57628 8.98016 7.47456
#
# Compressibility (1/GPa) = 0.03054408
#
# Stress axis : x y z
#
# Youngs Moduli (GPa) = 72.53748 12.64773 77.18964
#
# Poissons Ratio (x) = 0.22839 0.03260
# Poissons Ratio (y) = 1.30985 1.47828
# Poissons Ratio (z) = 0.03064 0.24222
#
# Static dielectric constant tensor:
#      x y z
#    x 1.596010 0.000000 0.007510 
#    y 0.000000 1.612590 0.000000 
#    z 0.007510 0.000000 1.614490 
# 
# From -- ./inp_files/36821.got.cif
#   From: 2010.05.17/outbox.cif.g08.bks.cpg/sg10_19_cif.got.tgz:36821.got - 2010.06.03 11:33:40.
