data_PCOD9150817
_publ_section_title
;
Structure prediction by ZEFSAII (Michael W. Deem and Ramdas Pophale) SiO2 
 PCOD9150817
Probable space group: P 2/M
;
_chemical_formula_sum "Si O2"
_cell_formula_units_Z 30
_cell_length_a 26.264169
_cell_length_b 10.610047
_cell_length_c 11.145869
_cell_angle_alpha 90.000000
_cell_angle_beta 147.576772
_cell_angle_gamma 90.000000
_cell_volume 1665.315959
_symmetry_space_group_name_H-M "P 2/M"
_symmetry_group_IT_number 10
_symmetry_cell_setting 'monoclinic'
loop_
_space_group_symop_operation_xyz
x,y,z
-x,y,-z
-x,-y,-z
x,-y,z
loop_
_atom_site_type_symbol
_atom_site_label
_atom_site_fract_x
_atom_site_fract_y
_atom_site_fract_z
Si Si1 0.161512 0.642625 0.056021
Si Si2 0.832847 0.851201 0.459078
Si Si3 0.357689 0.144835 0.049925
Si Si4 0.973784 0.858542 0.308493
Si Si5 0.500000 0.707536 0.500000
Si Si6 0.522626 0.857672 0.183993
Si Si7 0.114134 0.645723 0.239336
Si Si8 0.620612 0.637185 0.515500
O O1 0.127065 0.500000 0.960770
O O2 0.157127 0.656747 0.191618
O O3 0.270110 0.652815 0.230518
O O4 0.097564 0.749559 0.871104
O O5 0.745437 0.811388 0.199324
O O6 0.844075 0.752777 0.590393
O O7 0.930573 0.847253 0.579357
O O8 0.817002 0.000000 0.462871
O O9 0.346785 0.000000 0.065566
O O10 0.415237 0.213980 0.268777
O O11 0.426456 0.150235 0.070722
O O12 0.000000 0.848057 0.500000
O O13 0.934362 0.000000 0.209605
O O14 0.551577 0.638508 0.493052
O O15 0.590826 0.751098 0.370983
O O16 0.560904 0.000000 0.276779
O O17 0.500000 0.839520 0.000000
O O18 0.129549 0.500000 0.311841
O O19 0.000000 0.663257 0.000000
O O20 0.612421 0.500000 0.438832
#
# Coordination Sequence:
#
# PCOD9150817 Si02
#       8
#     4   4   4   4   2   4   4   4
#     4  10  22  39  58  82 113 149 190 230 275 335
#     4  10  21  36  57  85 115 146 186 234 280 330
#     4   9  19  35  56  84 112 143 183 229 280 333
#     4  10  22  38  56  83 117 148 185 232 278 325
#     4  10  20  38  62  80 109 148 187 236 285 338
#     4   9  19  36  56  80 110 142 180 225 274 331
#     4  10  20  37  58  80 113 151 190 232 275 332
#     4  10  22  38  57  82 111 144 184 232 281 329
#
# _framework density 18.014600000000002
#
# number of rings (size 3 to 8) (size 9 to 14) (size 15 to 20)
#    0.000    2.267    1.333    0.400    3.733    2.400 
#    0.000    3.333    0.000    0.000    0.000    0.000 
#    0.000    0.000    0.000    0.000    0.000    0.000 
#
# Total GULP energy -167249.313896 kJ/mol
# GULP energy per Si atom -5574.977130 kJ/mol
# Density = 1.797360 g / cm^3
# Si number density = 18.014600 Si / 1000 Ang^3
#
#
#
# Elastic Constant Matrix: (Units=GPa)
#
#
# Indices 1 2 3 4 5 6 
#
# 1 34.7243 36.2940 16.9021 0.0000 -5.4011 0.0000
# 2 36.2940 158.0785 96.4688 0.0000 -8.8521 0.0000
# 3 16.9021 96.4688 98.6919 0.0000 3.3283 0.0000
# 4 0.0000 0.0000 0.0000 21.4282 0.0000 -4.4969
# 5 -5.4011 -8.8521 3.3283 0.0000 25.4586 0.0000
# 6 0.0000 0.0000 0.0000 -4.4969 0.0000 11.3340
#
#
#
# Elastic Compliance Matrix: (Units=1/GPa)
#
#
# Indices 1 2 3 4 5 6 
#
# 1 0.039236 -0.011447 0.004342 0.000000 0.003777 0.000000
# 2 -0.011447 0.020580 -0.018397 0.000000 0.007133 0.000000
# 3 0.004342 -0.018397 0.027678 0.000000 -0.009094 0.000000
# 4 0.000000 0.000000 0.000000 0.050906 0.000000 0.020197
# 5 0.003777 0.007133 -0.009094 0.000000 0.043750 0.000000
# 6 0.000000 0.000000 0.000000 0.020197 0.000000 0.096243
#
#
# Mechanical properties :
#
#
# Convention : Reuss Voigt Hill
#
# Bulk Modulus (GPa) = 27.40380 65.64717 46.52549
# Shear Modulus (GPa) = 14.63866 21.09949 17.86908
#
# Velocity S-wave (km/s) = 2.85371 3.42606 3.15290
# Velocity P-wave (km/s) = 5.10913 7.22293 6.25595
#
# Compressibility (1/GPa) = 0.03649129
#
# Stress axis : x y z
#
# Youngs Moduli (GPa) = 25.48654 48.59007 36.12950
#
# Poissons Ratio (x) = 0.55619 -0.15686
# Poissons Ratio (y) = 0.29173 0.66467
# Poissons Ratio (z) = -0.11065 0.89391
#
# Static dielectric constant tensor:
#      x y z
#    x 1.618030 0.000000 0.011610 
#    y 0.000000 1.626350 0.000000 
#    z 0.011610 0.000000 1.589020 
# 
# From -- ./inp_files/58030.got.cif
#   From: 2010.05.17/outbox.cif.g08.bks.cpg/sg10_30_cif.got.tgz:58030.got - 2010.06.03 11:33:40.
