data_PCOD9150484
_publ_section_title
;
Structure prediction by ZEFSAII (Michael W. Deem and Ramdas Pophale) SiO2 
 PCOD9150484
Probable space group: P 2/M
;
_chemical_formula_sum "Si O2"
_cell_formula_units_Z 14
_cell_length_a 9.688985
_cell_length_b 8.462073
_cell_length_c 11.670048
_cell_angle_alpha 90.000000
_cell_angle_beta 143.742055
_cell_angle_gamma 90.000000
_cell_volume 565.880566
_symmetry_space_group_name_H-M "P 2/M"
_symmetry_group_IT_number 10
_symmetry_cell_setting 'monoclinic'
loop_
_space_group_symop_operation_xyz
x,y,z
-x,y,-z
-x,-y,-z
x,-y,z
loop_
_atom_site_type_symbol
_atom_site_label
_atom_site_fract_x
_atom_site_fract_y
_atom_site_fract_z
Si Si1 0.500000 0.246794 0.000000
Si Si2 0.362435 0.814597 0.679512
Si Si3 0.998869 0.176759 0.240582
Si Si4 0.304420 0.322758 0.268322
O O1 0.383365 0.301404 0.802405
O O2 0.269726 0.172511 0.903939
O O3 0.148176 0.774039 0.452362
O O4 0.593365 0.796224 0.756594
O O5 0.333504 0.000000 0.696943
O O6 0.068974 0.280892 0.178486
O O7 0.081012 0.000000 0.267448
O O8 0.500000 0.319584 0.500000
O O9 0.297708 0.500000 0.217049
#
# Coordination Sequence:
#
# PCOD9150484 Si02
#       4
#     2   4   4   4
#     4  12  23  36  57  86 117 148 183 226 277 332
#     4  10  20  36  59  85 112 144 184 229 276 327
#     4  10  20  36  59  85 112 144 184 229 276 327
#     4   9  19  38  61  82 109 147 188 231 277 324
#
# _framework density 24.740203999999999
#
# number of rings (size 3 to 8) (size 9 to 14) (size 15 to 20)
#    0.000    2.000    0.000    4.286    0.000    6.857 
#    0.000    8.571    0.000    6.857    0.000    0.000 
#    0.000    0.000    0.000    0.000    0.000    0.000 
#
# Total GULP energy -78048.336041 kJ/mol
# GULP energy per Si atom -5574.881146 kJ/mol
# Density = 2.468389 g / cm^3
# Si number density = 24.740204 Si / 1000 Ang^3
#
#
#
# Elastic Constant Matrix: (Units=GPa)
#
#
# Indices 1 2 3 4 5 6 
#
# 1 135.1016 24.5275 34.2536 0.0000 4.9540 0.0000
# 2 24.5275 47.1832 3.7381 0.0000 -9.4344 0.0000
# 3 34.2536 3.7381 106.4047 0.0000 10.4741 0.0000
# 4 0.0000 0.0000 0.0000 3.7794 0.0000 6.1478
# 5 4.9540 -9.4344 10.4741 0.0000 53.5526 0.0000
# 6 0.0000 0.0000 0.0000 6.1478 0.0000 -25.8160
#
#
#
# Elastic Compliance Matrix: (Units=1/GPa)
#
#
# Indices 1 2 3 4 5 6 
#
# 1 0.008953 -0.004676 -0.002605 0.000000 -0.001142 0.000000
# 2 -0.004676 0.024555 0.000178 0.000000 0.004724 0.000000
# 3 -0.002605 0.000178 0.010404 0.000000 -0.001763 0.000000
# 4 0.000000 0.000000 0.000000 0.190717 0.000000 0.045417
# 5 -0.001142 0.004724 -0.001763 0.000000 0.019956 0.000000
# 6 0.000000 0.000000 0.000000 0.045417 0.000000 -0.027920
#
#
# Mechanical properties :
#
#
# Convention : Reuss Voigt Hill
#
# Bulk Modulus (GPa) = 33.66477 45.96979 39.81728
# Shear Modulus (GPa) = 19.93822 21.38120 20.65971
#
# Velocity S-wave (km/s) = 2.84192 2.94297 2.89289
# Velocity P-wave (km/s) = 4.94020 5.49267 5.22374
#
# Compressibility (1/GPa) = 0.02970465
#
# Stress axis : x y z
#
# Youngs Moduli (GPa) = 111.69069 40.72439 96.11603
#
# Poissons Ratio (x) = 0.19044 0.25043
# Poissons Ratio (y) = 0.52230 -0.01708
# Poissons Ratio (z) = 0.29101 -0.00724
#
# Static dielectric constant tensor:
#      x y z
#    x 1.889900 0.000000 -0.019710 
#    y 0.000000 1.859090 0.000000 
#    z -0.019710 0.000000 2.037330 
# 
# From -- ./inp_files/16438.got.cif
#   From: 2010.05.17/outbox.cif.g08.bks.cpg/sg10_9_cif.got.tgz:16438.got - 2010.06.03 11:33:40.
