data_PCOD9150544
_publ_section_title
;
Structure prediction by ZEFSAII (Michael W. Deem and Ramdas Pophale) SiO2 
 PCOD9150544
Probable space group: P 2/M
;
_chemical_formula_sum "Si O2"
_cell_formula_units_Z 26
_cell_length_a 21.788024
_cell_length_b 7.792469
_cell_length_c 8.430489
_cell_angle_alpha 90.000000
_cell_angle_beta 128.695297
_cell_angle_gamma 90.000000
_cell_volume 1117.142138
_symmetry_space_group_name_H-M "P 2/M"
_symmetry_group_IT_number 10
_symmetry_cell_setting 'monoclinic'
loop_
_space_group_symop_operation_xyz
x,y,z
-x,y,-z
-x,-y,-z
x,-y,z
loop_
_atom_site_type_symbol
_atom_site_label
_atom_site_fract_x
_atom_site_fract_y
_atom_site_fract_z
Si Si1 0.558006 0.200079 0.953985
Si Si2 0.982567 0.290592 0.151274
Si Si3 0.817559 0.291850 0.029023
Si Si4 0.500000 0.266927 0.500000
Si Si5 0.700496 0.301155 0.362484
Si Si6 0.347877 0.808375 0.379945
Si Si7 0.854216 0.709639 0.445003
O O1 0.524088 0.211304 0.721692
O O2 0.570485 0.000000 0.007399
O O3 0.500000 0.268063 0.000000
O O4 0.642392 0.287710 0.118393
O O5 0.981383 0.500000 0.156292
O O6 0.057386 0.233794 0.375200
O O7 0.897051 0.234461 0.069504
O O8 0.000000 0.240403 0.000000
O O9 0.813645 0.500000 0.013232
O O10 0.827224 0.240851 0.227001
O O11 0.738348 0.219562 0.827904
O O12 0.588378 0.318724 0.591187
O O13 0.708305 0.500000 0.422156
O O14 0.660503 0.207822 0.445276
O O15 0.787147 0.234412 0.459954
O O16 0.377441 0.000000 0.385023
O O17 0.854440 0.500000 0.450885
#
# Coordination Sequence:
#
# PCOD9150544 Si02
#       7
#     4   4   4   2   4   4   4
#     4  11  22  41  66  88 118 160 207 249 297 362
#     4   9  16  29  54  86 119 157 196 236 289 357
#     4  10  20  36  59  89 121 153 197 249 301 353
#     4  12  25  44  67  90 117 162 213 252 295 370
#     4  11  23  40  61  90 126 157 198 253 307 356
#     4  12  24  41  63  86 117 158 205 249 303 368
#     4   9  18  33  56  87 122 158 196 242 296 359
#
# _framework density 23.273671
#
# number of rings (size 3 to 8) (size 9 to 14) (size 15 to 20)
#    0.000    1.538    1.538    4.615    0.000    4.615 
#    0.000    3.462    0.000    6.923    0.000    0.000 
#    0.000    0.000    0.000    0.000    0.000    0.000 
#
# Total GULP energy -145091.227702 kJ/mol
# GULP energy per Si atom -5580.431835 kJ/mol
# Density = 2.322070 g / cm^3
# Si number density = 23.273671 Si / 1000 Ang^3
#
#
#
# Elastic Constant Matrix: (Units=GPa)
#
#
# Indices 1 2 3 4 5 6 
#
# 1 176.0786 16.4809 58.5980 0.0000 16.5595 0.0000
# 2 16.4809 52.6072 10.3221 0.0000 -2.4192 0.0000
# 3 58.5980 10.3221 160.2198 0.0000 14.8270 0.0000
# 4 0.0000 0.0000 0.0000 16.7002 0.0000 -1.5111
# 5 16.5595 -2.4192 14.8270 0.0000 47.4870 0.0000
# 6 0.0000 0.0000 0.0000 -1.5111 0.0000 1.7337
#
#
#
# Elastic Compliance Matrix: (Units=1/GPa)
#
#
# Indices 1 2 3 4 5 6 
#
# 1 0.006738 -0.001762 -0.002188 0.000000 -0.001756 0.000000
# 2 -0.001762 0.019805 -0.000805 0.000000 0.001875 0.000000
# 3 -0.002188 -0.000805 0.007236 0.000000 -0.001537 0.000000
# 4 0.000000 0.000000 0.000000 0.065007 0.000000 0.056664
# 5 -0.001756 0.001875 -0.001537 0.000000 0.022246 0.000000
# 6 0.000000 0.000000 0.000000 0.056664 0.000000 0.626207
#
#
# Mechanical properties :
#
#
# Convention : Reuss Voigt Hill
#
# Bulk Modulus (GPa) = 41.20665 62.18973 51.69819
# Shear Modulus (GPa) = 6.53733 33.41778 19.97756
#
# Velocity S-wave (km/s) = 1.67779 3.79339 2.93298
# Velocity P-wave (km/s) = 4.63649 6.77978 5.80786
#
# Compressibility (1/GPa) = 0.02426793
#
# Stress axis : x y z
#
# Youngs Moduli (GPa) = 148.42138 50.49221 138.20133
#
# Poissons Ratio (x) = 0.08898 0.30240
# Poissons Ratio (y) = 0.26155 0.11124
# Poissons Ratio (z) = 0.32477 0.04064
#
# Static dielectric constant tensor:
#      x y z
#    x 1.839220 0.000000 0.006890 
#    y 0.000000 1.924220 0.000000 
#    z 0.006890 0.000000 1.834560 
# 
# From -- ./inp_files/34267.got.cif
#   From: 2010.05.17/outbox.cif.g08.bks.cpg/sg10_18_cif.got.tgz:34267.got - 2010.06.03 11:33:40.
