data_PCOD9150330
_publ_section_title
;
Structure prediction by ZEFSAII (Michael W. Deem and Ramdas Pophale) SiO2 
 PCOD9150330
Probable space group: P 2/M
;
_chemical_formula_sum "Si O2"
_cell_formula_units_Z 26
_cell_length_a 10.612926
_cell_length_b 7.803985
_cell_length_c 19.294054
_cell_angle_alpha 90.000000
_cell_angle_beta 134.358247
_cell_angle_gamma 90.000000
_cell_volume 1142.537268
_symmetry_space_group_name_H-M "P 2/M"
_symmetry_group_IT_number 10
_symmetry_cell_setting 'monoclinic'
loop_
_space_group_symop_operation_xyz
x,y,z
-x,y,-z
-x,-y,-z
x,-y,z
loop_
_atom_site_type_symbol
_atom_site_label
_atom_site_fract_x
_atom_site_fract_y
_atom_site_fract_z
Si Si1 0.054814 0.801731 0.920013
Si Si2 0.720751 0.692219 0.873352
Si Si3 0.802170 0.800219 0.397482
Si Si4 0.219501 0.500000 0.725637
Si Si5 0.923314 0.196837 0.235732
Si Si6 0.458596 0.192061 0.326648
Si Si7 0.311178 0.306138 0.401707
O O1 0.900896 0.694351 0.897450
O O2 0.074306 0.771844 0.846369
O O3 0.001261 0.000000 0.908694
O O4 0.228271 0.769475 0.032978
O O5 0.653371 0.500000 0.857655
O O6 0.589679 0.790644 0.772596
O O7 0.770327 0.652402 0.330001
O O8 0.665623 0.773631 0.408507
O O9 0.000000 0.785569 0.500000
O O10 0.776032 0.000000 0.364613
O O11 0.186110 0.346900 0.770987
O O12 0.125986 0.213432 0.341340
O O13 0.864589 0.000000 0.224617
O O14 0.343971 0.310342 0.331467
O O15 0.417390 0.000000 0.333675
O O16 0.500000 0.233309 0.500000
O O17 0.294553 0.500000 0.422700
#
# Coordination Sequence:
#
# PCOD9150330 Si02
#       7
#     4   4   4   2   4   4   4
#     4  10  20  36  57  89 128 164 201 248 311 385
#     4  11  21  32  59  91 127 160 202 250 313 382
#     4  10  25  46  69  94 121 166 225 272 316 364
#     4  12  25  42  67  88 125 167 213 270 309 364
#     4  11  24  40  63  93 129 169 208 254 316 389
#     4  11  23  40  63  91 128 164 205 262 316 374
#     4  11  24  38  59  93 130 167 204 249 316 388
#
# _framework density 22.756371000000001
#
# number of rings (size 3 to 8) (size 9 to 14) (size 15 to 20)
#    0.000    1.231    2.308    4.385    6.462    1.231 
#    0.000    0.000    0.000    1.846    0.000    4.308 
#    0.000    0.000    0.000    0.000    0.000    0.000 
#
# Total GULP energy -144736.774979 kJ/mol
# GULP energy per Si atom -5566.799038 kJ/mol
# Density = 2.270458 g / cm^3
# Si number density = 22.756371 Si / 1000 Ang^3
#
#
#
# Elastic Constant Matrix: (Units=GPa)
#
#
# Indices 1 2 3 4 5 6 
#
# 1 10.2703 17.5206 -5.4203 0.0000 -9.6566 0.0000
# 2 17.5206 143.1244 3.4680 0.0000 -24.1009 0.0000
# 3 -5.4203 3.4680 59.2620 0.0000 -6.2648 0.0000
# 4 0.0000 0.0000 0.0000 44.3000 0.0000 -64.6690
# 5 -9.6566 -24.1009 -6.2648 0.0000 28.2564 0.0000
# 6 0.0000 0.0000 0.0000 -64.6690 0.0000 199.2991
#
#
#
# Elastic Compliance Matrix: (Units=1/GPa)
#
#
# Indices 1 2 3 4 5 6 
#
# 1 0.188134 -0.013881 0.024131 0.000000 0.057805 0.000000
# 2 -0.013881 0.009187 -0.001516 0.000000 0.002756 0.000000
# 3 0.024131 -0.001516 0.020383 0.000000 0.011473 0.000000
# 4 0.000000 0.000000 0.000000 0.042889 0.000000 0.013917
# 5 0.057805 0.002756 0.011473 0.000000 0.060039 0.000000
# 6 0.000000 0.000000 0.000000 0.013917 0.000000 0.009533
#
#
# Mechanical properties :
#
#
# Convention : Reuss Voigt Hill
#
# Bulk Modulus (GPa) = 4.25223 27.08814 15.67019
# Shear Modulus (GPa) = 12.78480 67.51032 40.14756
#
# Velocity S-wave (km/s) = 2.37283 5.45261 4.20484
# Velocity P-wave (km/s) = 3.06264 7.18127 5.52043
#
# Compressibility (1/GPa) = 0.23517060
#
# Stress axis : x y z
#
# Youngs Moduli (GPa) = 5.31535 108.84906 49.06088
#
# Poissons Ratio (x) = 1.51098 -1.18387
# Poissons Ratio (y) = 0.07378 0.07437
# Poissons Ratio (z) = -0.12826 0.16501
#
# Static dielectric constant tensor:
#      x y z
#    x 1.872640 0.000000 0.040700 
#    y 0.000000 1.800600 0.000000 
#    z 0.040700 0.000000 1.926410 
# 
# From -- ./inp_files/76057.got.cif
#   From: 2010.05.17/outbox.cif.g08.bks.cpg/sg10_39_cif.got.tgz:76057.got - 2010.06.03 11:33:40.
