data_PCOD9150510
_publ_section_title
;
Structure prediction by ZEFSAII (Michael W. Deem and Ramdas Pophale) SiO2 
 PCOD9150510
Probable space group: P 2/M
;
_chemical_formula_sum "Si O2"
_cell_formula_units_Z 28
_cell_length_a 20.300627
_cell_length_b 9.611241
_cell_length_c 16.783851
_cell_angle_alpha 90.000000
_cell_angle_beta 22.275067
_cell_angle_gamma 90.000000
_cell_volume 1241.312283
_symmetry_space_group_name_H-M "P 2/M"
_symmetry_group_IT_number 10
_symmetry_cell_setting 'monoclinic'
loop_
_space_group_symop_operation_xyz
x,y,z
-x,y,-z
-x,-y,-z
x,-y,z
loop_
_atom_site_type_symbol
_atom_site_label
_atom_site_fract_x
_atom_site_fract_y
_atom_site_fract_z
Si Si1 0.486960 0.239001 0.929627
Si Si2 0.003618 0.158956 0.323654
Si Si3 0.627729 0.659400 0.485330
Si Si4 0.824117 0.839808 0.142429
Si Si5 0.415967 0.847382 0.836882
Si Si6 0.805619 0.348024 0.652030
Si Si7 0.024768 0.340254 0.795245
O O1 0.498101 0.167278 0.833056
O O2 0.647909 0.341481 0.763943
O O3 0.500000 0.155477 0.000000
O O4 0.302663 0.316765 0.146549
O O5 0.936341 0.228321 0.479966
O O6 0.936121 0.255919 0.328225
O O7 0.942006 0.000000 0.386305
O O8 0.210649 0.159078 0.082071
O O9 0.588117 0.500000 0.506814
O O10 0.677630 0.758902 0.356006
O O11 0.483099 0.729330 0.702777
O O12 0.803707 0.656495 0.341846
O O13 0.780195 0.000000 0.171860
O O14 0.000000 0.844232 0.000000
O O15 0.878958 0.747362 0.005622
O O16 0.461599 0.000000 0.752793
O O17 0.884552 0.500000 0.561880
O O18 0.972285 0.500000 0.838827
#
# Coordination Sequence:
#
# PCOD9150510 Si02
#       7
#     4   4   4   4   4   4   4
#     4   8  20  38  62  87 111 139 185 237 288 334
#     4  11  24  38  54  81 118 155 191 232 282 337
#     4  10  21  36  59  88 115 148 190 238 284 331
#     4   9  17  32  57  88 118 149 186 231 282 335
#     4  11  24  40  56  81 116 152 191 236 283 338
#     4   9  19  38  61  84 111 142 185 232 282 338
#     4  10  20  36  59  86 117 150 190 236 281 334
#
# _framework density 22.556774999999998
#
# number of rings (size 3 to 8) (size 9 to 14) (size 15 to 20)
#    0.857    1.286    0.000    3.429    0.000   10.000 
#    0.000    2.857    0.000    4.286    0.000    0.000 
#    0.000    0.000    0.000    0.000    0.000    0.000 
#
# Total GULP energy -156282.886018 kJ/mol
# GULP energy per Si atom -5581.531644 kJ/mol
# Density = 2.250543 g / cm^3
# Si number density = 22.556775 Si / 1000 Ang^3
#
#
#
# Elastic Constant Matrix: (Units=GPa)
#
#
# Indices 1 2 3 4 5 6 
#
# 1 49.5969 26.2145 19.8706 0.0000 1.1981 0.0000
# 2 26.2145 210.0064 68.5295 0.0000 15.9045 0.0000
# 3 19.8706 68.5295 106.6224 0.0000 22.4574 0.0000
# 4 0.0000 0.0000 0.0000 -54.6728 0.0000 -13.1577
# 5 1.1981 15.9045 22.4574 0.0000 24.5495 0.0000
# 6 0.0000 0.0000 0.0000 -13.1577 0.0000 68.3632
#
#
#
# Elastic Compliance Matrix: (Units=1/GPa)
#
#
# Indices 1 2 3 4 5 6 
#
# 1 0.022564 -0.001859 -0.003756 0.000000 0.003539 0.000000
# 2 -0.001859 0.006183 -0.003472 0.000000 -0.000739 0.000000
# 3 -0.003756 -0.003472 0.014614 0.000000 -0.010936 0.000000
# 4 0.000000 0.000000 0.000000 -0.017481 0.000000 -0.003365
# 5 0.003539 -0.000739 -0.010936 0.000000 0.051044 0.000000
# 6 0.000000 0.000000 0.000000 -0.003365 0.000000 0.013980
#
#
# Mechanical properties :
#
#
# Convention : Reuss Voigt Hill
#
# Bulk Modulus (GPa) = 39.70196 66.16166 52.93181
# Shear Modulus (GPa) = 42.56319 24.42207 33.49263
#
# Velocity S-wave (km/s) = 4.34860 3.29400 3.85751
# Velocity P-wave (km/s) = 6.54621 6.62285 6.58464
#
# Compressibility (1/GPa) = 0.02518767
#
# Stress axis : x y z
#
# Youngs Moduli (GPa) = 44.31773 161.74234 68.42971
#
# Poissons Ratio (x) = 0.30069 0.25700
# Poissons Ratio (y) = 0.08239 0.23757
# Poissons Ratio (z) = 0.16644 0.56152
#
# Static dielectric constant tensor:
#      x y z
#    x 1.869280 0.000000 -0.025610 
#    y 0.000000 1.809500 0.000000 
#    z -0.025610 0.000000 1.839680 
# 
# From -- ./inp_files/86674.got.cif
#   From: 2010.05.17/outbox.cif.g08.bks.cpg/sg10_44_cif.got.tgz:86674.got - 2010.06.03 11:33:40.
