data_PCOD9150679
_publ_section_title
;
Structure prediction by ZEFSAII (Michael W. Deem and Ramdas Pophale) SiO2 
 PCOD9150679
Probable space group: P 2/M
;
_chemical_formula_sum "Si O2"
_cell_formula_units_Z 20
_cell_length_a 10.756115
_cell_length_b 9.230899
_cell_length_c 11.009019
_cell_angle_alpha 90.000000
_cell_angle_beta 60.839147
_cell_angle_gamma 90.000000
_cell_volume 954.529243
_symmetry_space_group_name_H-M "P 2/M"
_symmetry_group_IT_number 10
_symmetry_cell_setting 'monoclinic'
loop_
_space_group_symop_operation_xyz
x,y,z
-x,y,-z
-x,-y,-z
x,-y,z
loop_
_atom_site_type_symbol
_atom_site_label
_atom_site_fract_x
_atom_site_fract_y
_atom_site_fract_z
Si Si1 0.833567 0.669974 0.840423
Si Si2 0.833458 0.670099 0.567374
Si Si3 0.087411 0.836063 0.831293
Si Si4 0.580600 0.171737 0.587741
Si Si5 0.660861 0.327687 0.164483
O O1 0.873322 0.500000 0.834436
O O2 0.776624 0.689943 0.732124
O O3 0.974778 0.764333 0.794356
O O4 0.721345 0.702025 0.000543
O O5 0.823956 0.500000 0.539360
O O6 0.738401 0.763343 0.522355
O O7 0.000000 0.706935 0.500000
O O8 0.221559 0.736514 0.798907
O O9 0.130057 0.000000 0.777192
O O10 0.000000 0.843828 0.000000
O O11 0.500000 0.203625 0.500000
O O12 0.484945 0.248214 0.735730
O O13 0.583839 0.000000 0.602708
O O14 0.646836 0.500000 0.185761
#
# Coordination Sequence:
#
# PCOD9150679 Si02
#       5
#     4   4   4   4   4
#     4   9  19  36  59  91 125 159 204 255 305 359
#     4  10  23  43  66  93 124 162 208 253 304 369
#     4   9  17  30  52  86 125 162 199 242 298 360
#     4  11  26  45  63  89 125 163 206 256 312 372
#     4  10  20  36  61  89 122 162 205 254 306 362
#
# _framework density 20.952738
#
# number of rings (size 3 to 8) (size 9 to 14) (size 15 to 20)
#    0.000    2.200    0.000    1.800    2.800    6.800 
#    0.000    4.000    0.000    0.000    0.000    0.000 
#    0.000    0.000    0.000    0.000    0.000    0.000 
#
# Total GULP energy -111783.144447 kJ/mol
# GULP energy per Si atom -5589.157222 kJ/mol
# Density = 2.090505 g / cm^3
# Si number density = 20.952738 Si / 1000 Ang^3
#
#
#
# Elastic Constant Matrix: (Units=GPa)
#
#
# Indices 1 2 3 4 5 6 
#
# 1 135.1776 75.0121 42.6809 0.0000 -3.4230 0.0000
# 2 75.0121 79.0891 51.2366 0.0000 3.0754 0.0000
# 3 42.6809 51.2366 82.5667 0.0000 -3.0095 0.0000
# 4 0.0000 0.0000 0.0000 -11.4537 0.0000 19.3136
# 5 -3.4230 3.0754 -3.0095 0.0000 25.6657 0.0000
# 6 0.0000 0.0000 0.0000 19.3136 0.0000 15.5092
#
#
#
# Elastic Compliance Matrix: (Units=1/GPa)
#
#
# Indices 1 2 3 4 5 6 
#
# 1 0.016286 -0.017182 0.002408 0.000000 0.004513 0.000000
# 2 -0.017182 0.039708 -0.016084 0.000000 -0.008936 0.000000
# 3 0.002408 -0.016084 0.021020 0.000000 0.004713 0.000000
# 4 0.000000 0.000000 0.000000 -0.028165 0.000000 0.035074
# 5 0.004513 -0.008936 0.004713 0.000000 0.041188 0.000000
# 6 0.000000 0.000000 0.000000 0.035074 0.000000 0.020800
#
#
# Mechanical properties :
#
#
# Convention : Reuss Voigt Hill
#
# Bulk Modulus (GPa) = 65.37381 70.52142 67.94761
# Shear Modulus (GPa) = 28.14465 14.47116 21.30791
#
# Velocity S-wave (km/s) = 3.66901 2.63089 3.19243
# Velocity P-wave (km/s) = 7.01549 6.55433 6.78883
#
# Compressibility (1/GPa) = 0.01529665
#
# Stress axis : x y z
#
# Youngs Moduli (GPa) = 61.40081 25.18368 47.57475
#
# Poissons Ratio (x) = 0.43272 -0.11457
# Poissons Ratio (y) = 1.05502 0.76522
# Poissons Ratio (z) = -0.14786 0.40507
#
# Static dielectric constant tensor:
#      x y z
#    x 1.729340 0.000000 -0.021470 
#    y 0.000000 1.706130 0.000000 
#    z -0.021470 0.000000 1.812460 
# 
# From -- ./inp_files/44619.got.cif
#   From: 2010.05.17/outbox.cif.g08.bks.cpg/sg10_23_cif.got.tgz:44619.got - 2010.06.03 11:33:40.
