data_PCOD9150145
_publ_section_title
;
Structure prediction by ZEFSAII (Michael W. Deem and Ramdas Pophale) SiO2 
 PCOD9150145
Probable space group: P 2/M
;
_chemical_formula_sum "Si O2"
_cell_formula_units_Z 32
_cell_length_a 10.245080
_cell_length_b 7.773978
_cell_length_c 29.457939
_cell_angle_alpha 90.000000
_cell_angle_beta 34.780134
_cell_angle_gamma 90.000000
_cell_volume 1338.327735
_symmetry_space_group_name_H-M "P 2/M"
_symmetry_group_IT_number 10
_symmetry_cell_setting 'monoclinic'
loop_
_space_group_symop_operation_xyz
x,y,z
-x,y,-z
-x,-y,-z
x,-y,z
loop_
_atom_site_type_symbol
_atom_site_label
_atom_site_fract_x
_atom_site_fract_y
_atom_site_fract_z
Si Si1 0.750345 0.700625 0.567937
Si Si2 0.323311 0.800380 0.511734
Si Si3 0.516282 0.196694 0.069000
Si Si4 0.630518 0.290303 0.138777
Si Si5 0.006488 0.295711 0.098723
Si Si6 0.849928 0.696474 0.688833
Si Si7 0.298515 0.291776 0.732490
Si Si8 0.941508 0.794242 0.764098
O O1 0.773089 0.500000 0.574026
O O2 0.667054 0.711021 0.539784
O O3 0.557177 0.773629 0.656330
O O4 0.000000 0.782120 0.500000
O O5 0.500000 0.733689 0.500000
O O6 0.059252 0.787443 0.603796
O O7 0.383514 0.000000 0.487495
O O8 0.594624 0.213926 0.099285
O O9 0.261306 0.272545 0.144620
O O10 0.491076 0.000000 0.062855
O O11 0.723978 0.266252 0.980178
O O12 0.624360 0.500000 0.135704
O O13 0.868539 0.236676 0.093444
O O14 0.414654 0.242299 0.232867
O O15 0.975610 0.500000 0.108148
O O16 0.865768 0.223333 0.181229
O O17 0.846036 0.500000 0.673340
O O18 0.917436 0.705161 0.722707
O O19 0.305063 0.500000 0.733757
O O20 0.178754 0.242629 0.719819
O O21 0.912057 0.000000 0.765711
#
# Coordination Sequence:
#
# PCOD9150145 Si02
#       8
#     4   4   4   4   4   4   4   4
#     4  10  23  42  66  91 121 159 201 253 308 363
#     4  11  24  40  60  89 125 160 199 249 304 363
#     4  10  21  36  55  82 115 151 191 235 285 339
#     4   9  19  35  57  83 113 147 185 234 289 340
#     4  10  21  36  56  82 114 149 190 237 285 341
#     4  10  20  35  61  89 113 146 193 242 290 345
#     4  10  22  39  60  85 113 149 194 240 289 348
#     4  10  21  38  58  82 119 157 191 237 291 344
#
# _framework density 23.910436000000001
#
# number of rings (size 3 to 8) (size 9 to 14) (size 15 to 20)
#    0.000    2.000    0.000    2.625    1.750    8.750 
#    0.000    2.500    0.000    0.000    0.000    0.000 
#    0.000    0.000    0.000    0.000    0.000    0.000 
#
# Total GULP energy -178812.219878 kJ/mol
# GULP energy per Si atom -5587.881871 kJ/mol
# Density = 2.385601 g / cm^3
# Si number density = 23.910436 Si / 1000 Ang^3
#
#
#
# Elastic Constant Matrix: (Units=GPa)
#
#
# Indices 1 2 3 4 5 6 
#
# 1 44.3573 -7.2505 23.8328 0.0000 -12.2493 0.0000
# 2 -7.2505 38.7479 0.4483 0.0000 -2.5788 0.0000
# 3 23.8328 0.4483 143.0208 0.0000 -16.7721 0.0000
# 4 0.0000 0.0000 0.0000 -48.2030 0.0000 2.8650
# 5 -12.2493 -2.5788 -16.7721 0.0000 33.9341 0.0000
# 6 0.0000 0.0000 0.0000 2.8650 0.0000 24.3206
#
#
#
# Elastic Compliance Matrix: (Units=1/GPa)
#
#
# Indices 1 2 3 4 5 6 
#
# 1 0.027856 0.005833 -0.003640 0.000000 0.008699 0.000000
# 2 0.005833 0.027164 -0.000603 0.000000 0.003872 0.000000
# 3 -0.003640 -0.000603 0.007899 0.000000 0.002544 0.000000
# 4 0.000000 0.000000 0.000000 -0.020601 0.000000 0.002427
# 5 0.008699 0.003872 0.002544 0.000000 0.034161 0.000000
# 6 0.000000 0.000000 0.000000 0.002427 0.000000 0.040832
#
#
# Mechanical properties :
#
#
# Convention : Reuss Voigt Hill
#
# Bulk Modulus (GPa) = 15.12873 28.90969 22.01921
# Shear Modulus (GPa) = 36.72090 15.95002 26.33546
#
# Velocity S-wave (km/s) = 3.92314 2.58558 3.32237
# Velocity P-wave (km/s) = 5.18289 4.58592 4.89352
#
# Compressibility (1/GPa) = 0.06609939
#
# Stress axis : x y z
#
# Youngs Moduli (GPa) = 35.89920 36.81330 126.60149
#
# Poissons Ratio (x) = -0.21475 0.46082
# Poissons Ratio (y) = -0.20942 0.07636
# Poissons Ratio (z) = 0.13067 0.02220
#
# Static dielectric constant tensor:
#      x y z
#    x 1.903980 0.000000 -0.022760 
#    y 0.000000 1.881090 0.000000 
#    z -0.022760 0.000000 1.965760 
# 
# From -- ./inp_files/94923.got.cif
#   From: 2010.05.17/outbox.cif.g08.bks.cpg/sg10_48_cif.got.tgz:94923.got - 2010.06.03 11:33:40.
