data_PCOD9150697
_publ_section_title
;
Structure prediction by ZEFSAII (Michael W. Deem and Ramdas Pophale) SiO2 
 PCOD9150697
Probable space group: P 2/M
;
_chemical_formula_sum "Si O2"
_cell_formula_units_Z 15
_cell_length_a 6.805090
_cell_length_b 18.602546
_cell_length_c 7.964372
_cell_angle_alpha 90.000000
_cell_angle_beta 38.892840
_cell_angle_gamma 90.000000
_cell_volume 633.030484
_symmetry_space_group_name_H-M "P 2/M"
_symmetry_group_IT_number 10
_symmetry_cell_setting 'monoclinic'
loop_
_space_group_symop_operation_xyz
x,y,z
-x,y,-z
-x,-y,-z
x,-y,z
loop_
_atom_site_type_symbol
_atom_site_label
_atom_site_fract_x
_atom_site_fract_y
_atom_site_fract_z
Si Si1 0.135072 0.399048 0.229420
Si Si2 0.904213 0.245904 0.886268
Si Si3 0.321418 0.155365 0.394328
Si Si4 0.628094 0.000000 0.725195
Si Si5 0.000000 0.500000 0.000000
O O1 0.101993 0.312799 0.234009
O O2 0.000000 0.420275 0.500000
O O3 0.500000 0.415973 0.000000
O O4 0.001302 0.438287 0.152698
O O5 0.177544 0.189838 0.657115
O O6 0.577979 0.204948 0.133238
O O7 0.000000 0.278218 0.000000
O O8 0.454100 0.074475 0.311550
O O9 0.000000 0.153197 0.500000
O O10 0.000000 0.000000 0.500000
O O11 0.500000 0.000000 0.000000
#
# Coordination Sequence:
#
# PCOD9150697 Si02
#       5
#     4   4   4   2   1
#     4  12  27  48  77 106 143 193 234 284 360 423
#     4  12  24  43  65 101 139 183 231 297 346 412
#     4  11  22  40  67  95 132 180 238 289 352 419
#     4  10  20  36  61  94 129 174 229 294 349 411
#     4  12  28  54  72 116 148 176 236 298 348 424
#
# _framework density 23.695540000000001
#
# number of rings (size 3 to 8) (size 9 to 14) (size 15 to 20)
#    0.000    0.533    1.333    9.600    0.000    2.133 
#    0.000    4.000    0.000    0.000    0.000    0.000 
#    0.000    0.000    0.000    0.000    0.000    0.000 
#
# Total GULP energy -83613.561906 kJ/mol
# GULP energy per Si atom -5574.237460 kJ/mol
# Density = 2.364161 g / cm^3
# Si number density = 23.695540 Si / 1000 Ang^3
#
#
#
# Elastic Constant Matrix: (Units=GPa)
#
#
# Indices 1 2 3 4 5 6 
#
# 1 81.9497 30.3842 56.2265 0.0000 28.8607 0.0000
# 2 30.3842 219.3961 71.1959 0.0000 10.2106 0.0000
# 3 56.2265 71.1959 211.5933 0.0000 18.1536 0.0000
# 4 0.0000 0.0000 0.0000 28.5042 0.0000 2.4838
# 5 28.8607 10.2106 18.1536 0.0000 53.2378 0.0000
# 6 0.0000 0.0000 0.0000 2.4838 0.0000 42.8787
#
#
#
# Elastic Compliance Matrix: (Units=1/GPa)
#
#
# Indices 1 2 3 4 5 6 
#
# 1 0.018063 -0.000885 -0.003787 0.000000 -0.008331 0.000000
# 2 -0.000885 0.005169 -0.001504 0.000000 0.000001 0.000000
# 3 -0.003787 -0.001504 0.006220 0.000000 0.000221 0.000000
# 4 0.000000 0.000000 0.000000 0.035260 0.000000 -0.002042
# 5 -0.008331 0.000001 0.000221 0.000000 0.023224 0.000000
# 6 0.000000 0.000000 0.000000 -0.002042 0.000000 0.023440
#
#
# Mechanical properties :
#
#
# Convention : Reuss Voigt Hill
#
# Bulk Modulus (GPa) = 58.48376 92.06137 75.27257
# Shear Modulus (GPa) = 38.63136 48.59964 43.61550
#
# Velocity S-wave (km/s) = 4.04210 4.53371 4.29495
# Velocity P-wave (km/s) = 6.82054 8.14507 7.51205
#
# Compressibility (1/GPa) = 0.01709876
#
# Stress axis : x y z
#
# Youngs Moduli (GPa) = 55.36093 193.47868 160.78154
#
# Poissons Ratio (x) = 0.17119 0.60895
# Poissons Ratio (y) = 0.04898 0.24183
# Poissons Ratio (z) = 0.20968 0.29101
#
# Static dielectric constant tensor:
#      x y z
#    x 2.000810 0.000000 0.038230 
#    y 0.000000 1.912940 0.000000 
#    z 0.038230 0.000000 1.813640 
# 
# From -- ./inp_files/19458.got.cif
#   From: 2010.05.17/outbox.cif.g08.bks.cpg/sg10_10_cif.got.tgz:19458.got - 2010.06.03 11:33:40.
