data_PCOD9150574
_publ_section_title
;
Structure prediction by ZEFSAII (Michael W. Deem and Ramdas Pophale) SiO2 
 PCOD9150574
Probable space group: P 2/M
;
_chemical_formula_sum "Si O2"
_cell_formula_units_Z 29
_cell_length_a 15.849957
_cell_length_b 15.857594
_cell_length_c 7.624895
_cell_angle_alpha 90.000000
_cell_angle_beta 132.744027
_cell_angle_gamma 90.000000
_cell_volume 1407.433676
_symmetry_space_group_name_H-M "P 2/M"
_symmetry_group_IT_number 10
_symmetry_cell_setting 'monoclinic'
loop_
_space_group_symop_operation_xyz
x,y,z
-x,y,-z
-x,-y,-z
x,-y,z
loop_
_atom_site_type_symbol
_atom_site_label
_atom_site_fract_x
_atom_site_fract_y
_atom_site_fract_z
Si Si1 0.657178 0.405120 0.551772
Si Si2 0.322715 0.145186 0.142715
Si Si3 0.749912 0.594908 0.280352
Si Si4 0.832475 0.718245 0.908136
Si Si5 0.454919 0.706198 0.134491
Si Si6 0.500000 0.000000 0.500000
Si Si7 0.917537 0.268328 0.630212
Si Si8 0.127440 0.908121 0.596603
O O1 0.623264 0.500000 0.553937
O O2 0.706872 0.409632 0.422764
O O3 0.756167 0.365933 0.813512
O O4 0.554464 0.338070 0.387970
O O5 0.250850 0.203160 0.175181
O O6 0.402780 0.210135 0.146236
O O7 0.400949 0.073975 0.336998
O O8 0.227355 0.104350 0.880144
O O9 0.776522 0.500000 0.260997
O O10 0.855184 0.659751 0.430248
O O11 0.645479 0.637390 0.029806
O O12 0.879682 0.718476 0.777337
O O13 0.944896 0.725956 0.187036
O O14 0.500000 0.724083 0.000000
O O15 0.872693 0.175746 0.518830
O O16 0.000000 0.909281 0.500000
O O17 0.144176 0.000000 0.532613
#
# Coordination Sequence:
#
# PCOD9150574 Si02
#       8
#     4   4   4   4   4   1   4   4
#     4   9  18  34  55  83 118 161 206 243 289 352
#     4  12  23  43  62  84 122 156 192 248 309 356
#     4   9  17  31  58  90 120 155 201 250 294 348
#     4  10  22  38  61  87 123 162 189 246 303 357
#     4  10  20  36  60  85 115 159 207 248 294 349
#     4  12  28  44  60  90 118 154 196 238 310 370
#     4  10  20  39  62  92 122 154 203 240 300 358
#     4  11  22  41  67  91 114 154 202 248 299 362
#
# _framework density 20.604880000000001
#
# number of rings (size 3 to 8) (size 9 to 14) (size 15 to 20)
#    0.000    1.793    3.448    1.241    0.000    2.207 
#    1.241    5.862    0.000    1.241    0.000    0.000 
#    0.000    0.000    0.000    0.000    0.000    0.000 
#
# Total GULP energy -161727.333760 kJ/mol
# GULP energy per Si atom -5576.804612 kJ/mol
# Density = 2.055798 g / cm^3
# Si number density = 20.604880 Si / 1000 Ang^3
#
#
#
# Elastic Constant Matrix: (Units=GPa)
#
#
# Indices 1 2 3 4 5 6 
#
# 1 77.9774 37.0921 22.8079 0.0000 12.2633 0.0000
# 2 37.0921 165.1901 39.9289 0.0000 27.2139 0.0000
# 3 22.8079 39.9289 85.2405 0.0000 44.1077 0.0000
# 4 0.0000 0.0000 0.0000 22.4370 0.0000 -0.9468
# 5 12.2633 27.2139 44.1077 0.0000 30.0253 0.0000
# 6 0.0000 0.0000 0.0000 -0.9468 0.0000 7.7519
#
#
#
# Elastic Compliance Matrix: (Units=1/GPa)
#
#
# Indices 1 2 3 4 5 6 
#
# 1 0.014917 -0.002759 -0.003503 0.000000 0.001554 0.000000
# 2 -0.002759 0.007626 0.000665 0.000000 -0.006762 0.000000
# 3 -0.003503 0.000665 0.049733 0.000000 -0.072230 0.000000
# 4 0.000000 0.000000 0.000000 0.044800 0.000000 0.005472
# 5 0.001554 -0.006762 -0.072230 0.000000 0.144906 0.000000
# 6 0.000000 0.000000 0.000000 0.005472 0.000000 0.129669
#
#
# Mechanical properties :
#
#
# Convention : Reuss Voigt Hill
#
# Bulk Modulus (GPa) = 16.37156 58.67397 37.52276
# Shear Modulus (GPa) = 11.81458 27.28147 19.54803
#
# Velocity S-wave (km/s) = 2.39715 3.64267 3.08345
# Velocity P-wave (km/s) = 3.95278 6.79924 5.56121
#
# Compressibility (1/GPa) = 0.06108154
#
# Stress axis : x y z
#
# Youngs Moduli (GPa) = 67.03885 131.12343 20.10744
#
# Poissons Ratio (x) = 0.36173 0.07044
# Poissons Ratio (y) = 0.18494 -0.01337
# Poissons Ratio (z) = 0.23486 -0.08718
#
# Static dielectric constant tensor:
#      x y z
#    x 1.763590 0.000000 -0.006330 
#    y 0.000000 1.706110 0.000000 
#    z -0.006330 0.000000 1.749670 
# 
# From -- ./inp_files/32859.got.cif
#   From: 2010.05.17/outbox.cif.g08.bks.cpg/sg10_17_cif.got.tgz:32859.got - 2010.06.03 11:33:40.
