data_PCOD9150281
_publ_section_title
;
Structure prediction by ZEFSAII (Michael W. Deem and Ramdas Pophale) SiO2 
 PCOD9150281
Probable space group: P 2/M
;
_chemical_formula_sum "Si O2"
_cell_formula_units_Z 32
_cell_length_a 11.512085
_cell_length_b 16.264005
_cell_length_c 7.816045
_cell_angle_alpha 90.000000
_cell_angle_beta 95.037512
_cell_angle_gamma 90.000000
_cell_volume 1457.765923
_symmetry_space_group_name_H-M "P 2/M"
_symmetry_group_IT_number 10
_symmetry_cell_setting 'monoclinic'
loop_
_space_group_symop_operation_xyz
x,y,z
-x,y,-z
-x,-y,-z
x,-y,z
loop_
_atom_site_type_symbol
_atom_site_label
_atom_site_fract_x
_atom_site_fract_y
_atom_site_fract_z
Si Si1 0.877938 0.095207 0.090207
Si Si2 0.380796 0.795564 0.589516
Si Si3 0.040380 0.247112 0.702221
Si Si4 0.156921 0.407598 0.603332
Si Si5 0.196336 0.710964 0.313043
Si Si6 0.653602 0.411323 0.857771
Si Si7 0.595873 0.621570 0.243658
Si Si8 0.623793 0.902498 0.088834
O O1 0.745728 0.111722 0.000281
O O2 0.890387 0.168418 0.227964
O O3 0.872349 0.000000 0.153663
O O4 0.000000 0.097392 0.000000
O O5 0.500000 0.808821 0.500000
O O6 0.275068 0.767465 0.449054
O O7 0.402062 0.717810 0.716800
O O8 0.358348 0.869414 0.716396
O O9 0.916722 0.248396 0.783272
O O10 0.000000 0.235003 0.500000
O O11 0.109211 0.334215 0.720140
O O12 0.110453 0.500000 0.621412
O O13 0.141708 0.365601 0.416448
O O14 0.296088 0.412427 0.637688
O O15 0.275904 0.667836 0.186170
O O16 0.711886 0.500000 0.838509
O O17 0.533294 0.409324 0.736469
O O18 0.622793 0.401931 0.052346
O O19 0.609714 0.000000 0.093805
O O20 0.500000 0.868360 0.000000
#
# Coordination Sequence:
#
# PCOD9150281 Si02
#       8
#     4   4   4   4   4   4   4   4
#     4  10  22  43  68  94 125 162 204 252 309 373
#     4  11  22  39  60  88 125 162 204 252 314 373
#     4  10  22  39  59  87 123 158 202 250 299 363
#     4  10  20  36  57  80 117 164 206 250 305 361
#     4  10  22  37  56  87 119 157 206 252 301 362
#     4  11  21  35  56  83 117 156 204 258 308 356
#     4  10  21  36  54  82 115 155 204 252 302 358
#     4  10  23  42  67  98 128 161 201 252 311 375
#
# _framework density 21.951398000000001
#
# number of rings (size 3 to 8) (size 9 to 14) (size 15 to 20)
#    0.000    1.750    1.250    4.125    1.750    6.250 
#    0.000    2.500    0.000    1.875    0.000    0.000 
#    0.000    0.000    0.000    0.000    0.000    0.000 
#
# Total GULP energy -178359.674976 kJ/mol
# GULP energy per Si atom -5573.739843 kJ/mol
# Density = 2.190144 g / cm^3
# Si number density = 21.951398 Si / 1000 Ang^3
#
#
#
# Elastic Constant Matrix: (Units=GPa)
#
#
# Indices 1 2 3 4 5 6 
#
# 1 139.9290 44.7638 14.0110 0.0000 -5.9048 0.0000
# 2 44.7638 67.8034 13.5821 0.0000 4.0528 0.0000
# 3 14.0110 13.5821 17.4489 0.0000 -2.0934 0.0000
# 4 0.0000 0.0000 0.0000 -42.3470 0.0000 -13.6643
# 5 -5.9048 4.0528 -2.0934 0.0000 22.5386 0.0000
# 6 0.0000 0.0000 0.0000 -13.6643 0.0000 8.8702
#
#
#
# Elastic Compliance Matrix: (Units=1/GPa)
#
#
# Indices 1 2 3 4 5 6 
#
# 1 0.009434 -0.005908 -0.002581 0.000000 0.003294 0.000000
# 2 -0.005908 0.021627 -0.012886 0.000000 -0.006634 0.000000
# 3 -0.002581 -0.012886 0.070394 0.000000 0.008179 0.000000
# 4 0.000000 0.000000 0.000000 -0.015774 0.000000 -0.024299
# 5 0.003294 -0.006634 0.008179 0.000000 0.047184 0.000000
# 6 0.000000 0.000000 0.000000 -0.024299 0.000000 0.075305
#
#
# Mechanical properties :
#
#
# Convention : Reuss Voigt Hill
#
# Bulk Modulus (GPa) = 17.03436 41.09944 29.06690
# Shear Modulus (GPa) = 18.48499 8.00064 13.24282
#
# Velocity S-wave (km/s) = 2.90502 1.91118 2.45884
# Velocity P-wave (km/s) = 4.36223 4.86145 4.61859
#
# Compressibility (1/GPa) = 0.05870488
#
# Stress axis : x y z
#
# Youngs Moduli (GPa) = 105.99965 46.23880 14.20566
#
# Poissons Ratio (x) = 0.27319 0.03667
# Poissons Ratio (y) = 0.62627 0.18305
# Poissons Ratio (z) = 0.27360 0.59583
#
# Static dielectric constant tensor:
#      x y z
#    x 1.947250 0.000000 -0.021800 
#    y 0.000000 1.821980 0.000000 
#    z -0.021800 0.000000 1.813350 
# 
# From -- ./inp_files/25317.got.cif
#   From: 2010.05.17/outbox.cif.g08.bks.cpg/sg10_13_cif.got.tgz:25317.got - 2010.06.03 11:33:40.
