data_PCOD9151703
_publ_section_title
;
Structure prediction by ZEFSAII (Michael W. Deem and Ramdas Pophale) SiO2 
 PCOD9151703
Probable space group: P 2/M
;
_chemical_formula_sum "Si O2"
_cell_formula_units_Z 28
_cell_length_a 19.089524
_cell_length_b 14.280387
_cell_length_c 7.752802
_cell_angle_alpha 90.000000
_cell_angle_beta 144.252641
_cell_angle_gamma 90.000000
_cell_volume 1234.708485
_symmetry_space_group_name_H-M "P 2/M"
_symmetry_group_IT_number 10
_symmetry_cell_setting 'monoclinic'
loop_
_space_group_symop_operation_xyz
x,y,z
-x,y,-z
-x,-y,-z
x,-y,z
loop_
_atom_site_type_symbol
_atom_site_label
_atom_site_fract_x
_atom_site_fract_y
_atom_site_fract_z
Si Si1 0.130693 0.110905 0.551962
Si Si2 0.266945 0.393357 0.735221
Si Si3 0.130245 0.889099 0.969754
Si Si4 0.369802 0.205087 0.440284
Si Si5 0.733547 0.393373 0.668953
Si Si6 0.629712 0.205087 0.960591
Si Si7 0.000199 0.613500 0.304428
O O1 0.129971 0.122367 0.759865
O O2 0.000250 0.146370 0.229550
O O3 0.135931 0.000000 0.528375
O O4 0.251020 0.158638 0.723679
O O5 0.278107 0.500000 0.824213
O O6 0.296296 0.394332 0.592203
O O7 0.127611 0.362717 0.476846
O O8 0.348152 0.316212 0.986477
O O9 0.135425 0.000000 0.014191
O O10 0.250472 0.841341 0.279011
O O11 0.347525 0.316207 0.403913
O O12 0.499625 0.181744 0.776921
O O13 0.373588 0.176731 0.246946
O O14 0.722476 0.500000 0.713610
O O15 0.872936 0.362803 0.967283
O O16 0.000260 0.500000 0.306584
O O17 0.000000 0.648925 0.500000
#
# Coordination Sequence:
#
# PCOD9151703 Si02
#       7
#     4   4   4   4   4   4   4
#     4   8  15  30  53  80 108 138 175 222 276 332
#     4  10  21  36  53  75 107 147 189 228 270 325
#     4   8  15  30  53  80 108 138 175 222 276 332
#     4  10  21  34  51  80 112 143 184 231 277 324
#     4  10  21  36  53  75 107 147 189 228 270 325
#     4  10  21  34  51  80 112 143 184 231 277 324
#     4   9  17  31  53  79 104 133 174 225 277 320
#
# _framework density 22.677417999999999
#
# number of rings (size 3 to 8) (size 9 to 14) (size 15 to 20)
#    0.000    2.714    0.000    2.143    2.000    5.143 
#    0.000    5.714    0.000    0.857    0.000    4.000 
#    0.000    0.000    0.000    0.000    0.000    0.000 
#
# Total GULP energy -156281.469670 kJ/mol
# GULP energy per Si atom -5581.481060 kJ/mol
# Density = 2.262580 g / cm^3
# Si number density = 22.677418 Si / 1000 Ang^3
#
#
#
# Elastic Constant Matrix: (Units=GPa)
#
#
# Indices 1 2 3 4 5 6 
#
# 1 36.6658 13.5363 49.6849 0.0000 13.6169 0.0000
# 2 13.5363 61.6327 52.7427 0.0000 35.0762 0.0000
# 3 49.6849 52.7427 126.0363 0.0000 65.4484 0.0000
# 4 0.0000 0.0000 0.0000 0.7187 0.0000 11.5053
# 5 13.6169 35.0762 65.4484 0.0000 48.0141 0.0000
# 6 0.0000 0.0000 0.0000 11.5053 0.0000 -12.1126
#
#
#
# Elastic Compliance Matrix: (Units=1/GPa)
#
#
# Indices 1 2 3 4 5 6 
#
# 1 0.154123 0.002522 -0.130605 0.000000 0.132476 0.000000
# 2 0.002522 0.028331 -0.005925 0.000000 -0.013336 0.000000
# 3 -0.130605 -0.005925 0.138340 0.000000 -0.147203 0.000000
# 4 0.000000 0.000000 0.000000 0.085859 0.000000 0.081554
# 5 0.132476 -0.013336 -0.147203 0.000000 0.193653 0.000000
# 6 0.000000 0.000000 0.000000 0.081554 0.000000 -0.005094
#
#
# Mechanical properties :
#
#
# Convention : Reuss Voigt Hill
#
# Bulk Modulus (GPa) = 18.94721 50.69585 34.82153
# Shear Modulus (GPa) = 5.67653 14.54877 10.11265
#
# Velocity S-wave (km/s) = 1.58386 2.53564 2.11401
# Velocity P-wave (km/s) = 3.42316 5.56564 4.62030
#
# Compressibility (1/GPa) = 0.05277822
#
# Stress axis : x y z
#
# Youngs Moduli (GPa) = 6.48833 35.29661 7.22859
#
# Poissons Ratio (x) = -0.08901 0.94409
# Poissons Ratio (y) = -0.01636 0.04283
# Poissons Ratio (z) = 0.84741 0.20912
#
# Static dielectric constant tensor:
#      x y z
#    x 1.835700 0.000000 0.021070 
#    y 0.000000 1.850170 0.000000 
#    z 0.021070 0.000000 1.859410 
# 
# From -- ./inp_files/35305.got.cif
#   From: 2010.05.17/outbox.cif.g08.bks.cpg/sg10_18_cif.got.tgz:35305.got - 2010.06.03 11:33:40.
