data_PCOD9151819
_publ_section_title
;
Structure prediction by ZEFSAII (Michael W. Deem and Ramdas Pophale) SiO2 
 PCOD9151819
Probable space group: P 2/M
;
_chemical_formula_sum "Si O2"
_cell_formula_units_Z 28
_cell_length_a 23.040889
_cell_length_b 8.809763
_cell_length_c 25.384554
_cell_angle_alpha 90.000000
_cell_angle_beta 16.939721
_cell_angle_gamma 90.000000
_cell_volume 1501.312294
_symmetry_space_group_name_H-M "P 2/M"
_symmetry_group_IT_number 10
_symmetry_cell_setting 'monoclinic'
loop_
_space_group_symop_operation_xyz
x,y,z
-x,y,-z
-x,-y,-z
x,-y,z
loop_
_atom_site_type_symbol
_atom_site_label
_atom_site_fract_x
_atom_site_fract_y
_atom_site_fract_z
Si Si1 0.146289 0.676154 0.917839
Si Si2 0.176995 0.319181 0.095303
Si Si3 0.491053 0.173894 0.445242
Si Si4 0.238173 0.177930 0.570822
Si Si5 0.203977 0.314960 0.295293
Si Si6 0.359829 0.315099 0.046908
Si Si7 0.667573 0.820000 0.145824
O O1 0.096892 0.500000 0.969128
O O2 0.360369 0.700350 0.705326
O O3 0.171874 0.758270 0.951298
O O4 0.000000 0.741158 0.000000
O O5 0.195427 0.500000 0.078053
O O6 0.264168 0.263385 0.075360
O O7 0.947168 0.273316 0.287751
O O8 0.294461 0.251553 0.943732
O O9 0.500000 0.179399 0.500000
O O10 0.286305 0.197479 0.591401
O O11 0.554868 0.000000 0.374227
O O12 0.445823 0.214101 0.360708
O O13 0.194436 0.000000 0.600286
O O14 0.199034 0.500000 0.300053
O O15 0.236694 0.268325 0.205962
O O16 0.000000 0.262411 0.500000
O O17 0.408872 0.269660 0.146738
O O18 0.358244 0.500000 0.048352
O O19 0.687510 0.000000 0.125233
#
# Coordination Sequence:
#
# PCOD9151819 Si02
#       7
#     4   4   4   4   4   4   4
#     4  10  21  35  52  79 107 130 165 220 284 337
#     4  11  22  34  54  83 116 148 177 223 285 334
#     4   9  19  35  54  76  99 133 179 221 266 326
#     4   9  20  38  55  75 103 140 186 228 268 324
#     4   8  13  25  46  69 102 146 183 215 254 307
#     4   8  16  28  42  72 110 141 178 217 260 320
#     4  10  22  40  58  75 102 144 190 229 267 326
#
# _framework density 18.65035
#
# number of rings (size 3 to 8) (size 9 to 14) (size 15 to 20)
#    0.000    2.714    0.000    3.000    2.000    5.429 
#    0.000    2.857    0.000    0.000    0.000    8.000 
#    0.000   13.714    0.000    0.000    0.000    0.000 
#
# Total GULP energy -156023.060311 kJ/mol
# GULP energy per Si atom -5572.252154 kJ/mol
# Density = 1.860790 g / cm^3
# Si number density = 18.650350 Si / 1000 Ang^3
#
#
#
# Elastic Constant Matrix: (Units=GPa)
#
#
# Indices 1 2 3 4 5 6 
#
# 1 192.2666 38.0430 76.9793 0.0000 -5.2714 0.0000
# 2 38.0430 21.7073 25.5889 0.0000 0.2219 0.0000
# 3 76.9793 25.5889 100.6824 0.0000 5.1716 0.0000
# 4 0.0000 0.0000 0.0000 -18.0600 0.0000 8.5428
# 5 -5.2714 0.2219 5.1716 0.0000 19.4952 0.0000
# 6 0.0000 0.0000 0.0000 8.5428 0.0000 -2.3416
#
#
#
# Elastic Compliance Matrix: (Units=1/GPa)
#
#
# Indices 1 2 3 4 5 6 
#
# 1 0.009285 -0.011010 -0.004498 0.000000 0.003829 0.000000
# 2 -0.011010 0.079098 -0.011645 0.000000 -0.000788 0.000000
# 3 -0.004498 -0.011645 0.016613 0.000000 -0.005491 0.000000
# 4 0.000000 0.000000 0.000000 0.076298 0.000000 0.278358
# 5 0.003829 -0.000788 -0.005491 0.000000 0.053796 0.000000
# 6 0.000000 0.000000 0.000000 0.278358 0.000000 0.588470
#
#
# Mechanical properties :
#
#
# Convention : Reuss Voigt Hill
#
# Bulk Modulus (GPa) = 19.72731 66.20873 42.96802
# Shear Modulus (GPa) = 5.58808 11.42173 8.50490
#
# Velocity S-wave (km/s) = 1.73284 2.47738 2.13778
# Velocity P-wave (km/s) = 3.82153 6.61516 5.40205
#
# Compressibility (1/GPa) = 0.05069114
#
# Stress axis : x y z
#
# Youngs Moduli (GPa) = 107.69515 12.64253 60.19494
#
# Poissons Ratio (x) = 0.13920 0.27075
# Poissons Ratio (y) = 1.18575 0.70094
# Poissons Ratio (z) = 0.48439 0.14722
#
# Static dielectric constant tensor:
#      x y z
#    x 1.660090 0.000000 -0.000800 
#    y 0.000000 1.635710 0.000000 
#    z -0.000800 0.000000 1.658110 
# 
# From -- ./inp_files/90367.got.cif
#   From: 2010.05.17/outbox.cif.g08.bks.cpg/sg10_46_cif.got.tgz:90367.got - 2010.06.03 11:33:40.
