data_PCOD9151840
_publ_section_title
;
Structure prediction by ZEFSAII (Michael W. Deem and Ramdas Pophale) SiO2 
 PCOD9151840
Probable space group: P 2/M
;
_chemical_formula_sum "Si O2"
_cell_formula_units_Z 28
_cell_length_a 9.795859
_cell_length_b 14.357755
_cell_length_c 12.035264
_cell_angle_alpha 90.000000
_cell_angle_beta 76.712615
_cell_angle_gamma 90.000000
_cell_volume 1647.403367
_symmetry_space_group_name_H-M "P 2/M"
_symmetry_group_IT_number 10
_symmetry_cell_setting 'monoclinic'
loop_
_space_group_symop_operation_xyz
x,y,z
-x,y,-z
-x,-y,-z
x,-y,z
loop_
_atom_site_type_symbol
_atom_site_label
_atom_site_fract_x
_atom_site_fract_y
_atom_site_fract_z
Si Si1 0.153274 0.795260 0.514196
Si Si2 0.289046 0.603961 0.452888
Si Si3 0.582106 0.111663 0.651012
Si Si4 0.596563 0.603714 0.314432
Si Si5 0.288710 0.203416 0.722616
Si Si6 0.373923 0.112901 0.102667
Si Si7 0.159295 0.112401 0.964092
O O1 0.184000 0.689931 0.465896
O O2 0.281503 0.856141 0.441638
O O3 0.176266 0.797287 0.643280
O O4 0.000000 0.825015 0.500000
O O5 0.232909 0.500000 0.440736
O O6 0.428863 0.618636 0.352929
O O7 0.347725 0.604051 0.568469
O O8 0.434498 0.159920 0.648087
O O9 0.609034 0.141132 0.773950
O O10 0.565815 0.000000 0.646660
O O11 0.623207 0.500000 0.264147
O O12 0.673736 0.691482 0.247781
O O13 0.236947 0.147690 0.839430
O O14 0.377474 0.000000 0.104155
O O15 0.500000 0.144211 0.000000
O O16 0.235638 0.141783 0.063130
O O17 0.163060 0.000000 0.958970
O O18 0.000000 0.143950 0.000000
#
# Coordination Sequence:
#
# PCOD9151840 Si02
#       7
#     4   4   4   4   4   4   4
#     4  11  24  35  47  77 113 141 169 206 260 321
#     4   8  14  29  51  73 100 132 168 212 254 295
#     4  11  22  36  54  73 102 141 178 214 253 307
#     4   8  14  27  51  78  99 126 169 215 252 296
#     4  11  20  35  56  77 102 137 177 212 256 314
#     4   9  17  33  54  75  94 123 175 223 255 287
#     4  10  21  35  54  78 103 131 172 223 261 296
#
# _framework density 16.996445000000001
#
# number of rings (size 3 to 8) (size 9 to 14) (size 15 to 20)
#    0.000    2.286    2.857    1.714    2.000    2.286 
#    0.000    0.000    0.000    0.429    0.000    3.000 
#    0.000    0.000    0.000    0.000    0.000    0.000 
#
# Total GULP energy -156005.477264 kJ/mol
# GULP energy per Si atom -5571.624188 kJ/mol
# Density = 1.695776 g / cm^3
# Si number density = 16.996445 Si / 1000 Ang^3
#
#
#
# Elastic Constant Matrix: (Units=GPa)
#
#
# Indices 1 2 3 4 5 6 
#
# 1 101.0862 16.1835 16.3702 0.0000 5.0677 0.0000
# 2 16.1835 54.5083 1.9485 0.0000 -1.0037 0.0000
# 3 16.3702 1.9485 39.3114 0.0000 5.6498 0.0000
# 4 0.0000 0.0000 0.0000 7.5647 0.0000 -6.0835
# 5 5.0677 -1.0037 5.6498 0.0000 22.0536 0.0000
# 6 0.0000 0.0000 0.0000 -6.0835 0.0000 15.8181
#
#
#
# Elastic Compliance Matrix: (Units=1/GPa)
#
#
# Indices 1 2 3 4 5 6 
#
# 1 0.011176 -0.003196 -0.004262 0.000000 -0.001622 0.000000
# 2 -0.003196 0.019318 0.000147 0.000000 0.001576 0.000000
# 3 -0.004262 0.000147 0.028098 0.000000 -0.006212 0.000000
# 4 0.000000 0.000000 0.000000 0.191385 0.000000 0.073605
# 5 -0.001622 0.001576 -0.006212 0.000000 0.047380 0.000000
# 6 0.000000 0.000000 0.000000 0.073605 0.000000 0.091526
#
#
# Mechanical properties :
#
#
# Convention : Reuss Voigt Hill
#
# Bulk Modulus (GPa) = 22.74280 29.32337 26.03309
# Shear Modulus (GPa) = 11.95705 19.78086 15.86895
#
# Velocity S-wave (km/s) = 2.65524 3.41519 3.05890
# Velocity P-wave (km/s) = 4.77602 5.73074 5.27503
#
# Compressibility (1/GPa) = 0.04396995
#
# Stress axis : x y z
#
# Youngs Moduli (GPa) = 89.47987 51.76427 35.58916
#
# Poissons Ratio (x) = 0.16542 0.15169
# Poissons Ratio (y) = 0.28594 -0.00522
# Poissons Ratio (z) = 0.38140 -0.00759
#
# Static dielectric constant tensor:
#      x y z
#    x 1.599000 0.000000 0.006860 
#    y 0.000000 1.603420 0.000000 
#    z 0.006860 0.000000 1.555050 
# 
# From -- ./inp_files/24951.got.cif
#   From: 2010.05.17/outbox.cif.g08.bks.cpg/sg10_13_cif.got.tgz:24951.got - 2010.06.03 11:33:40.
