data_PCOD9151750
_publ_section_title
;
Structure prediction by ZEFSAII (Michael W. Deem and Ramdas Pophale) SiO2 
 PCOD9151750
Probable space group: P 2/M
;
_chemical_formula_sum "Si O2"
_cell_formula_units_Z 18
_cell_length_a 9.369905
_cell_length_b 17.107159
_cell_length_c 4.807437
_cell_angle_alpha 90.000000
_cell_angle_beta 87.802661
_cell_angle_gamma 90.000000
_cell_volume 770.029257
_symmetry_space_group_name_H-M "P 2/M"
_symmetry_group_IT_number 10
_symmetry_cell_setting 'monoclinic'
loop_
_space_group_symop_operation_xyz
x,y,z
-x,y,-z
-x,-y,-z
x,-y,z
loop_
_atom_site_type_symbol
_atom_site_label
_atom_site_fract_x
_atom_site_fract_y
_atom_site_fract_z
Si Si1 0.336135 0.411072 0.614512
Si Si2 0.908080 0.799671 0.246972
Si Si3 0.500000 0.817336 0.000000
Si Si4 0.714779 0.308834 0.866991
Si Si5 0.340010 0.091029 0.631627
O O1 0.500000 0.409622 0.500000
O O2 0.284029 0.500000 0.604739
O O3 0.334020 0.377820 0.924239
O O4 0.249565 0.352126 0.420828
O O5 0.828353 0.737329 0.051426
O O6 0.794656 0.855033 0.416898
O O7 0.000000 0.768191 0.500000
O O8 0.000000 0.844102 0.000000
O O9 0.587751 0.753359 0.811554
O O10 0.625854 0.878245 0.061488
O O11 0.500000 0.108110 0.500000
O O12 0.312525 0.000000 0.602096
#
# Coordination Sequence:
#
# PCOD9151750 Si02
#       5
#     4   4   2   4   4
#     4  11  21  36  60 100 138 167 210 275 343 395
#     4  11  26  45  68  97 135 181 231 279 331 398
#     4  10  21  34  63  92 130 168 218 268 329 390
#     4  11  22  37  65  90 132 173 220 268 328 389
#     4  10  24  42  68  99 134 175 223 279 340 404
#
# _framework density 23.375737000000001
#
# number of rings (size 3 to 8) (size 9 to 14) (size 15 to 20)
#    0.000    1.333    2.222    2.333   12.444    2.667 
#    0.000    0.000    0.000   13.333    0.000    0.000 
#    0.000    0.000    0.000    0.000    0.000    0.000 
#
# Total GULP energy -100220.067321 kJ/mol
# GULP energy per Si atom -5567.781518 kJ/mol
# Density = 2.332253 g / cm^3
# Si number density = 23.375737 Si / 1000 Ang^3
#
#
#
# Elastic Constant Matrix: (Units=GPa)
#
#
# Indices 1 2 3 4 5 6 
#
# 1 77.8503 59.7296 29.6281 0.0000 7.6884 0.0000
# 2 59.7296 123.0381 28.4415 0.0000 11.9794 0.0000
# 3 29.6281 28.4415 112.2767 0.0000 3.2042 0.0000
# 4 0.0000 0.0000 0.0000 22.3502 0.0000 -2.4008
# 5 7.6884 11.9794 3.2042 0.0000 49.7536 0.0000
# 6 0.0000 0.0000 0.0000 -2.4008 0.0000 20.3840
#
#
#
# Elastic Compliance Matrix: (Units=1/GPa)
#
#
# Indices 1 2 3 4 5 6 
#
# 1 0.021543 -0.009636 -0.003221 0.000000 -0.000802 0.000000
# 2 -0.009636 0.013134 -0.000738 0.000000 -0.001626 0.000000
# 3 -0.003221 -0.000738 0.009943 0.000000 0.000035 0.000000
# 4 0.000000 0.000000 0.000000 0.045316 0.000000 0.005337
# 5 -0.000802 -0.001626 0.000035 0.000000 0.020612 0.000000
# 6 0.000000 0.000000 0.000000 0.005337 0.000000 0.049687
#
#
# Mechanical properties :
#
#
# Convention : Reuss Voigt Hill
#
# Bulk Modulus (GPa) = 57.37164 60.97372 59.17268
# Shear Modulus (GPa) = 25.87542 31.52194 28.69868
#
# Velocity S-wave (km/s) = 3.33067 3.67616 3.50767
# Velocity P-wave (km/s) = 6.27596 6.64528 6.46326
#
# Compressibility (1/GPa) = 0.01743021
#
# Stress axis : x y z
#
# Youngs Moduli (GPa) = 46.41885 76.13775 100.57800
#
# Poissons Ratio (x) = 0.73363 0.32398
# Poissons Ratio (y) = 0.44727 0.07423
# Poissons Ratio (z) = 0.14952 0.05619
#
# Static dielectric constant tensor:
#      x y z
#    x 2.050690 0.000000 0.086500 
#    y 0.000000 1.838570 0.000000 
#    z 0.086500 0.000000 2.273720 
# 
# From -- ./inp_files/4124.got.cif
#   From: 2010.05.17/outbox.cif.g08.bks.cpg/sg10_3_cif.got.tgz:4124.got - 2010.06.03 11:33:40.
