data_PCOD9151036
_publ_section_title
;
Structure prediction by ZEFSAII (Michael W. Deem and Ramdas Pophale) SiO2 
 PCOD9151036
Probable space group: P 2/M
;
_chemical_formula_sum "Si O2"
_cell_formula_units_Z 16
_cell_length_a 8.725495
_cell_length_b 7.982039
_cell_length_c 13.008119
_cell_angle_alpha 90.000000
_cell_angle_beta 107.176786
_cell_angle_gamma 90.000000
_cell_volume 865.571186
_symmetry_space_group_name_H-M "P 2/M"
_symmetry_group_IT_number 10
_symmetry_cell_setting 'monoclinic'
loop_
_space_group_symop_operation_xyz
x,y,z
-x,y,-z
-x,-y,-z
x,-y,z
loop_
_atom_site_type_symbol
_atom_site_label
_atom_site_fract_x
_atom_site_fract_y
_atom_site_fract_z
Si Si1 0.763337 0.306984 0.715664
Si Si2 0.321774 0.694351 0.514791
Si Si3 0.441524 0.815720 0.746967
Si Si4 0.983469 0.500000 0.118769
Si Si5 0.379858 0.500000 0.880411
O O1 0.696036 0.500000 0.693022
O O2 0.788522 0.250116 0.602968
O O3 0.625872 0.203514 0.744537
O O4 0.922268 0.340850 0.812892
O O5 0.500000 0.705550 0.500000
O O6 0.286418 0.500000 0.532256
O O7 0.332713 0.792361 0.623161
O O8 0.409137 0.664399 0.817503
O O9 0.416824 0.000000 0.786442
O O10 0.800847 0.500000 0.115096
O O11 0.000000 0.500000 0.000000
O O12 0.500000 0.500000 0.000000
#
# Coordination Sequence:
#
# PCOD9151036 Si02
#       5
#     4   4   4   2   2
#     4   8  16  33  56  86 112 147 193 225 273 325
#     4   8  13  27  52  82 116 145 184 224 265 328
#     4  11  20  34  60  89 117 149 186 229 281 335
#     4  10  20  37  62  81 103 152 196 236 287 332
#     4  12  24  41  60  79 115 146 188 242 285 340
#
# _framework density 18.484904
#
# number of rings (size 3 to 8) (size 9 to 14) (size 15 to 20)
#    0.750    1.750    2.500    3.000    0.000    5.000 
#    0.000    3.750    0.000    4.500    0.000    0.000 
#    0.000    0.000    0.000    0.000    0.000    0.000 
#
# Total GULP energy -89071.893636 kJ/mol
# GULP energy per Si atom -5566.993352 kJ/mol
# Density = 1.844283 g / cm^3
# Si number density = 18.484904 Si / 1000 Ang^3
#
#
#
# Elastic Constant Matrix: (Units=GPa)
#
#
# Indices 1 2 3 4 5 6 
#
# 1 68.9711 30.4628 58.8769 0.0000 5.6532 0.0000
# 2 30.4628 109.4540 52.3594 0.0000 -14.1463 0.0000
# 3 58.8769 52.3594 168.5936 0.0000 9.4003 0.0000
# 4 0.0000 0.0000 0.0000 -0.7000 0.0000 5.3898
# 5 5.6532 -14.1463 9.4003 0.0000 24.2021 0.0000
# 6 0.0000 0.0000 0.0000 5.3898 0.0000 3.2449
#
#
#
# Elastic Compliance Matrix: (Units=1/GPa)
#
#
# Indices 1 2 3 4 5 6 
#
# 1 0.021839 -0.003749 -0.006190 0.000000 -0.004888 0.000000
# 2 -0.003749 0.013006 -0.003273 0.000000 0.009749 0.000000
# 3 -0.006190 -0.003273 0.009338 0.000000 -0.004094 0.000000
# 4 0.000000 0.000000 0.000000 -0.103600 0.000000 0.172080
# 5 -0.004888 0.009749 -0.004094 0.000000 0.049749 0.000000
# 6 0.000000 0.000000 0.000000 0.172080 0.000000 0.022348
#
#
# Mechanical properties :
#
#
# Convention : Reuss Voigt Hill
#
# Bulk Modulus (GPa) = 56.31193 70.04634 63.17913
# Shear Modulus (GPa) = 111.04916 19.03736 65.04326
#
# Velocity S-wave (km/s) = 7.75925 3.21267 5.93832
# Velocity P-wave (km/s) = 10.52637 7.19289 9.01505
#
# Compressibility (1/GPa) = 0.01775823
#
# Stress axis : x y z
#
# Youngs Moduli (GPa) = 45.78886 76.89015 107.08909
#
# Poissons Ratio (x) = 0.28826 0.66288
# Poissons Ratio (y) = 0.17166 0.35055
# Poissons Ratio (z) = 0.28343 0.25169
#
# Static dielectric constant tensor:
#      x y z
#    x 1.624690 0.000000 0.022290 
#    y 0.000000 1.673100 0.000000 
#    z 0.022290 0.000000 1.685810 
# 
# From -- ./inp_files/59929.got.cif
#   From: 2010.05.17/outbox.cif.g08.bks.cpg/sg10_30_cif.got.tgz:59929.got - 2010.06.03 11:33:40.
