data_PCOD9151554
_publ_section_title
;
Structure prediction by ZEFSAII (Michael W. Deem and Ramdas Pophale) SiO2 
 PCOD9151554
Probable space group: P 2/M
;
_chemical_formula_sum "Si O2"
_cell_formula_units_Z 28
_cell_length_a 6.399086
_cell_length_b 14.056804
_cell_length_c 17.548276
_cell_angle_alpha 90.000000
_cell_angle_beta 64.394984
_cell_angle_gamma 90.000000
_cell_volume 1423.464593
_symmetry_space_group_name_H-M "P 2/M"
_symmetry_group_IT_number 10
_symmetry_cell_setting 'monoclinic'
loop_
_space_group_symop_operation_xyz
x,y,z
-x,y,-z
-x,-y,-z
x,-y,z
loop_
_atom_site_type_symbol
_atom_site_label
_atom_site_fract_x
_atom_site_fract_y
_atom_site_fract_z
Si Si1 0.437022 0.661790 0.305608
Si Si2 0.117747 0.887691 0.767656
Si Si3 0.304508 0.241201 0.173053
Si Si4 0.801377 0.220576 0.087157
Si Si5 0.367016 0.227672 0.593802
Si Si6 0.952073 0.602028 0.417647
Si Si7 0.066718 0.610352 0.833788
O O1 0.388679 0.733838 0.244460
O O2 0.449509 0.715184 0.383772
O O3 0.207767 0.599406 0.341092
O O4 0.691491 0.617019 0.252138
O O5 0.199353 0.841705 0.835035
O O6 0.246011 0.842040 0.673783
O O7 0.853880 0.851484 0.803083
O O8 0.143232 0.000000 0.764218
O O9 0.546079 0.225963 0.091615
O O10 0.141023 0.328426 0.171184
O O11 0.871704 0.327844 0.101358
O O12 0.000000 0.184036 0.000000
O O13 0.500000 0.184722 0.500000
O O14 0.186333 0.307261 0.591817
O O15 0.832168 0.500000 0.420705
O O16 0.000000 0.608610 0.500000
O O17 0.008873 0.500000 0.854058
#
# Coordination Sequence:
#
# PCOD9151554 Si02
#       7
#     4   4   4   4   4   4   4
#     4  11  19  38  58  84 124 170 208 253 304 362
#     4  11  24  44  67  94 120 156 211 263 319 381
#     4  10  20  40  64  90 124 163 202 257 310 369
#     4  10  23  44  66  92 129 165 200 253 317 374
#     4  12  23  40  63  89 130 166 208 261 309 367
#     4  11  23  35  56  89 125 169 213 254 304 362
#     4  10  21  36  61  94 126 167 212 252 299 365
#
# _framework density 19.670318999999999
#
# number of rings (size 3 to 8) (size 9 to 14) (size 15 to 20)
#    0.000    1.286    7.143    0.429    0.000    9.143 
#    0.000    1.429    0.000    1.286    0.000    0.000 
#    0.000    0.000    0.000    0.000    0.000    0.000 
#
# Total GULP energy -156097.539453 kJ/mol
# GULP energy per Si atom -5574.912123 kJ/mol
# Density = 1.962555 g / cm^3
# Si number density = 19.670319 Si / 1000 Ang^3
#
#
#
# Elastic Constant Matrix: (Units=GPa)
#
#
# Indices 1 2 3 4 5 6 
#
# 1 102.2382 35.5326 39.5056 0.0000 -21.0762 0.0000
# 2 35.5326 139.1288 47.2189 0.0000 -5.3092 0.0000
# 3 39.5056 47.2189 100.1797 0.0000 -19.9382 0.0000
# 4 0.0000 0.0000 0.0000 10.9584 0.0000 0.4448
# 5 -21.0762 -5.3092 -19.9382 0.0000 29.5271 0.0000
# 6 0.0000 0.0000 0.0000 0.4448 0.0000 -19.7925
#
#
#
# Elastic Compliance Matrix: (Units=1/GPa)
#
#
# Indices 1 2 3 4 5 6 
#
# 1 0.013036 -0.002134 -0.002725 0.000000 0.007081 0.000000
# 2 -0.002134 0.008954 -0.003883 0.000000 -0.002536 0.000000
# 3 -0.002725 -0.003883 0.014280 0.000000 0.006999 0.000000
# 4 0.000000 0.000000 0.000000 0.091171 0.000000 0.002049
# 5 0.007081 -0.002536 0.006999 0.000000 0.043192 0.000000
# 6 0.000000 0.000000 0.000000 0.002049 0.000000 -0.050478
#
#
# Mechanical properties :
#
#
# Convention : Reuss Voigt Hill
#
# Bulk Modulus (GPa) = 53.23728 65.11790 59.17759
# Shear Modulus (GPa) = 34.74609 18.75789 26.75199
#
# Velocity S-wave (km/s) = 4.20744 3.09141 3.69184
# Velocity P-wave (km/s) = 7.12229 6.77635 6.95147
#
# Compressibility (1/GPa) = 0.01878383
#
# Stress axis : x y z
#
# Youngs Moduli (GPa) = 76.71341 111.68404 70.02675
#
# Poissons Ratio (x) = 0.23833 0.19086
# Poissons Ratio (y) = 0.16371 0.27194
# Poissons Ratio (z) = 0.20908 0.43372
#
# Static dielectric constant tensor:
#      x y z
#    x 1.717510 0.000000 -0.039820 
#    y 0.000000 1.675920 0.000000 
#    z -0.039820 0.000000 1.766160 
# 
# From -- ./inp_files/73411.got.cif
#   From: 2010.05.17/outbox.cif.g08.bks.cpg/sg10_37_cif.got.tgz:73411.got - 2010.06.03 11:33:40.
