data_PCOD9151008
_publ_section_title
;
Structure prediction by ZEFSAII (Michael W. Deem and Ramdas Pophale) SiO2 
 PCOD9151008
Probable space group: P 2/M
;
_chemical_formula_sum "Si O2"
_cell_formula_units_Z 24
_cell_length_a 5.205447
_cell_length_b 24.739421
_cell_length_c 9.199868
_cell_angle_alpha 90.000000
_cell_angle_beta 74.106811
_cell_angle_gamma 90.000000
_cell_volume 1139.467991
_symmetry_space_group_name_H-M "P 2/M"
_symmetry_group_IT_number 10
_symmetry_cell_setting 'monoclinic'
loop_
_space_group_symop_operation_xyz
x,y,z
-x,y,-z
-x,-y,-z
x,-y,z
loop_
_atom_site_type_symbol
_atom_site_label
_atom_site_fract_x
_atom_site_fract_y
_atom_site_fract_z
Si Si1 0.079295 0.673898 0.817601
Si Si2 0.256214 0.060037 0.185024
Si Si3 0.705571 0.902405 0.337590
Si Si4 0.500000 0.847271 0.000000
Si Si5 0.578805 0.605657 0.816641
Si Si6 0.197539 0.206831 0.828357
Si Si7 0.300453 0.500000 0.392223
O O1 0.330017 0.634051 0.776463
O O2 0.159953 0.734809 0.764364
O O3 0.827155 0.647179 0.778684
O O4 0.000000 0.677627 0.000000
O O5 0.520285 0.071373 0.240063
O O6 0.266476 0.109109 0.067887
O O7 0.979764 0.065328 0.314853
O O8 0.261044 0.000000 0.121602
O O9 0.500000 0.900490 0.500000
O O10 0.807413 0.842197 0.282709
O O11 0.475324 0.807213 0.867708
O O12 0.651461 0.551828 0.718431
O O13 0.500000 0.595570 0.000000
O O14 0.000000 0.203833 0.000000
O O15 0.500000 0.500000 0.500000
O O16 0.000000 0.500000 0.500000
#
# Coordination Sequence:
#
# PCOD9151008 Si02
#       7
#     4   4   4   2   4   4   2
#     4   9  20  33  63  93 123 152 207 255 303 353
#     4  11  23  39  60  84 115 154 199 251 306 366
#     4  11  24  40  58  84 117 156 202 247 304 371
#     4  10  21  36  60  92 122 151 194 252 312 372
#     4  10  21  41  62  96 124 166 209 259 299 361
#     4  10  20  37  61  88 120 156 196 248 307 362
#     4  12  25  42  67  92 132 174 210 254 309 362
#
# _framework density 21.062460000000002
#
# number of rings (size 3 to 8) (size 9 to 14) (size 15 to 20)
#    0.000    1.667    1.667    2.500    5.833    2.000 
#    0.000    8.333    0.000    0.000    0.000    0.000 
#    0.000    0.000    0.000    0.000    0.000    0.000 
#
# Total GULP energy -133807.932179 kJ/mol
# GULP energy per Si atom -5575.330507 kJ/mol
# Density = 2.101452 g / cm^3
# Si number density = 21.062460 Si / 1000 Ang^3
#
#
#
# Elastic Constant Matrix: (Units=GPa)
#
#
# Indices 1 2 3 4 5 6 
#
# 1 90.6026 43.3327 31.0563 0.0000 -25.3119 0.0000
# 2 43.3327 158.0259 40.5225 0.0000 -17.7152 0.0000
# 3 31.0563 40.5225 82.4020 0.0000 -25.5563 0.0000
# 4 0.0000 0.0000 0.0000 8.5405 0.0000 -4.7062
# 5 -25.3119 -17.7152 -25.5563 0.0000 34.9657 0.0000
# 6 0.0000 0.0000 0.0000 -4.7062 0.0000 11.7901
#
#
#
# Elastic Compliance Matrix: (Units=1/GPa)
#
#
# Indices 1 2 3 4 5 6 
#
# 1 0.015333 -0.002804 -0.001808 0.000000 0.008358 0.000000
# 2 -0.002804 0.007806 -0.002825 0.000000 -0.000140 0.000000
# 3 -0.001808 -0.002825 0.017272 0.000000 0.009884 0.000000
# 4 0.000000 0.000000 0.000000 0.150105 0.000000 0.059916
# 5 0.008358 -0.000140 0.009884 0.000000 0.041803 0.000000
# 6 0.000000 0.000000 0.000000 0.059916 0.000000 0.108733
#
#
# Mechanical properties :
#
#
# Convention : Reuss Voigt Hill
#
# Bulk Modulus (GPa) = 39.16003 62.31707 50.73855
# Shear Modulus (GPa) = 13.71981 25.46719 19.59350
#
# Velocity S-wave (km/s) = 2.55500 3.48102 3.05332
# Velocity P-wave (km/s) = 5.22845 6.76814 6.04750
#
# Compressibility (1/GPa) = 0.02553624
#
# Stress axis : x y z
#
# Youngs Moduli (GPa) = 65.21946 128.11082 57.89813
#
# Poissons Ratio (x) = 0.35922 0.10467
# Poissons Ratio (y) = 0.18287 0.16358
# Poissons Ratio (z) = 0.11790 0.36195
#
# Static dielectric constant tensor:
#      x y z
#    x 1.861760 0.000000 0.002810 
#    y 0.000000 1.741840 0.000000 
#    z 0.002810 0.000000 1.806780 
# 
# From -- ./inp_files/39560.got.cif
#   From: 2010.05.17/outbox.cif.g08.bks.cpg/sg10_20_cif.got.tgz:39560.got - 2010.06.03 11:33:40.
