data_PCOD9151608
_publ_section_title
;
Structure prediction by ZEFSAII (Michael W. Deem and Ramdas Pophale) SiO2 
 PCOD9151608
Probable space group: P 2/M
;
_chemical_formula_sum "Si O2"
_cell_formula_units_Z 15
_cell_length_a 5.427568
_cell_length_b 21.212121
_cell_length_c 5.321478
_cell_angle_alpha 90.000000
_cell_angle_beta 86.391079
_cell_angle_gamma 90.000000
_cell_volume 611.448034
_symmetry_space_group_name_H-M "P 2/M"
_symmetry_group_IT_number 10
_symmetry_cell_setting 'monoclinic'
loop_
_space_group_symop_operation_xyz
x,y,z
-x,y,-z
-x,-y,-z
x,-y,z
loop_
_atom_site_type_symbol
_atom_site_label
_atom_site_fract_x
_atom_site_fract_y
_atom_site_fract_z
Si Si1 0.835680 0.636521 0.764491
Si Si2 0.355876 0.090935 0.255068
Si Si3 0.265474 0.500000 0.339339
Si Si4 0.000000 0.000000 0.500000
Si Si5 0.830765 0.771547 0.759651
O O1 0.717941 0.567517 0.797152
O O2 0.693860 0.703375 0.762269
O O3 0.000000 0.634531 0.500000
O O4 0.000000 0.642596 0.000000
O O5 0.500000 0.072077 0.500000
O O6 0.331615 0.166214 0.245479
O O7 0.098561 0.055557 0.300582
O O8 0.500000 0.070584 0.000000
O O9 0.500000 0.500000 0.500000
O O10 0.000000 0.500000 0.500000
O O11 0.000000 0.772690 0.500000
O O12 0.000000 0.776278 0.000000
#
# Coordination Sequence:
#
# PCOD9151608 Si02
#       5
#     4   4   2   1   4
#     4   9  19  37  64  95 134 180 231 281 348 418
#     4  12  27  45  71 104 134 179 236 282 350 428
#     4  10  21  40  64 100 140 188 238 296 358 428
#     4  12  28  50  72  96 146 182 218 294 358 410
#     4  10  20  41  68  95 134 180 221 284 350 407
#
# _framework density 24.531929000000002
#
# number of rings (size 3 to 8) (size 9 to 14) (size 15 to 20)
#    0.000    1.600    1.333    2.800    0.000    2.133 
#    0.000   16.000    0.000    0.000    0.000    0.000 
#    0.000    0.000    0.000    0.000    0.000    0.000 
#
# Total GULP energy -83580.594048 kJ/mol
# GULP energy per Si atom -5572.039603 kJ/mol
# Density = 2.447609 g / cm^3
# Si number density = 24.531929 Si / 1000 Ang^3
#
#
#
# Elastic Constant Matrix: (Units=GPa)
#
#
# Indices 1 2 3 4 5 6 
#
# 1 43.7418 14.5213 41.4915 0.0000 -10.3019 0.0000
# 2 14.5213 275.4361 26.1116 0.0000 -10.6016 0.0000
# 3 41.4915 26.1116 208.2385 0.0000 -19.4308 0.0000
# 4 0.0000 0.0000 0.0000 249.2586 0.0000 -38.0247
# 5 -10.3019 -10.6016 -19.4308 0.0000 57.3474 0.0000
# 6 0.0000 0.0000 0.0000 -38.0247 0.0000 74.0543
#
#
#
# Elastic Compliance Matrix: (Units=1/GPa)
#
#
# Indices 1 2 3 4 5 6 
#
# 1 0.029010 -0.000896 -0.005367 0.000000 0.003227 0.000000
# 2 -0.000896 0.003718 -0.000246 0.000000 0.000443 0.000000
# 3 -0.005367 -0.000246 0.005998 0.000000 0.001023 0.000000
# 4 0.000000 0.000000 0.000000 0.004353 0.000000 0.002235
# 5 0.003227 0.000443 0.001023 0.000000 0.018446 0.000000
# 6 0.000000 0.000000 0.000000 0.002235 0.000000 0.014651
#
#
# Mechanical properties :
#
#
# Convention : Reuss Voigt Hill
#
# Bulk Modulus (GPa) = 38.89997 76.85169 57.87583
# Shear Modulus (GPa) = 51.14397 105.81817 78.48107
#
# Velocity S-wave (km/s) = 4.57091 6.57484 5.66223
# Velocity P-wave (km/s) = 6.61429 9.43574 8.14807
#
# Compressibility (1/GPa) = 0.02570696
#
# Stress axis : x y z
#
# Youngs Moduli (GPa) = 34.47129 268.94265 166.72807
#
# Poissons Ratio (x) = 0.24109 0.89477
# Poissons Ratio (y) = 0.03090 0.04107
# Poissons Ratio (z) = 0.18499 0.06624
#
# Static dielectric constant tensor:
#      x y z
#    x 1.986080 0.000000 0.019100 
#    y 0.000000 2.145960 0.000000 
#    z 0.019100 0.000000 1.959910 
# 
# From -- ./inp_files/1201.got.cif
#   From: 2010.05.17/outbox.cif.g08.bks.cpg/sg10_1_cif.got.tgz:1201.got - 2010.06.03 11:33:40.
