data_PCOD9151695
_publ_section_title
;
Structure prediction by ZEFSAII (Michael W. Deem and Ramdas Pophale) SiO2 
 PCOD9151695
Probable space group: P 2/M
;
_chemical_formula_sum "Si O2"
_cell_formula_units_Z 32
_cell_length_a 11.242892
_cell_length_b 14.150924
_cell_length_c 12.035298
_cell_angle_alpha 90.000000
_cell_angle_beta 81.210001
_cell_angle_gamma 90.000000
_cell_volume 1892.294541
_symmetry_space_group_name_H-M "P 2/M"
_symmetry_group_IT_number 10
_symmetry_cell_setting 'monoclinic'
loop_
_space_group_symop_operation_xyz
x,y,z
-x,y,-z
-x,-y,-z
x,-y,z
loop_
_atom_site_type_symbol
_atom_site_label
_atom_site_fract_x
_atom_site_fract_y
_atom_site_fract_z
Si Si1 0.669780 0.607486 0.001900
Si Si2 0.547342 0.307050 0.224032
Si Si3 0.143296 0.289424 0.463712
Si Si4 0.083729 0.607658 0.896219
Si Si5 0.710704 0.386117 0.744621
Si Si6 0.545550 0.893046 0.314832
Si Si7 0.702165 0.892727 0.510203
Si Si8 0.774058 0.613789 0.325775
O O1 0.628776 0.500000 0.991578
O O2 0.575862 0.660366 0.094411
O O3 0.788566 0.603020 0.060756
O O4 0.708431 0.642743 0.875090
O O5 0.419808 0.350598 0.278860
O O6 0.549368 0.194084 0.231108
O O7 0.650987 0.346357 0.291005
O O8 0.186659 0.336099 0.342186
O O9 0.202630 0.186105 0.469412
O O10 0.201473 0.351626 0.554347
O O11 0.000000 0.287918 0.500000
O O12 0.035792 0.500000 0.885515
O O13 0.116230 0.647042 0.770848
O O14 0.000000 0.656082 0.000000
O O15 0.721107 0.500000 0.735572
O O16 0.649009 0.879132 0.393484
O O17 0.417054 0.886732 0.395946
O O18 0.557192 0.000000 0.268914
O O19 0.748895 0.000000 0.511758
O O20 0.770172 0.500000 0.320314
#
# Coordination Sequence:
#
# PCOD9151695 Si02
#       8
#     4   4   4   4   4   4   4   4
#     4   9  19  33  50  77 107 142 187 218 250 310
#     4  11  18  34  59  81 106 132 178 233 270 317
#     4  12  25  37  51  77 111 147 183 218 268 320
#     4   8  15  29  50  69  93 137 185 223 251 285
#     4  11  23  36  52  75 111 155 183 213 264 318
#     4   9  17  32  60  86 104 128 167 226 286 327
#     4   9  18  37  58  79 103 133 176 224 272 325
#     4  10  21  34  50  77 110 141 180 225 261 312
#
# _framework density 16.910686999999999
#
# number of rings (size 3 to 8) (size 9 to 14) (size 15 to 20)
#    0.000    2.125    2.500    3.375    1.750    2.750 
#    0.000    1.250    0.000    2.250    0.000    0.000 
#    0.000    5.000    0.000    0.000    0.000    0.000 
#
# Total GULP energy -178322.840593 kJ/mol
# GULP energy per Si atom -5572.588769 kJ/mol
# Density = 1.687220 g / cm^3
# Si number density = 16.910687 Si / 1000 Ang^3
#
#
#
# Elastic Constant Matrix: (Units=GPa)
#
#
# Indices 1 2 3 4 5 6 
#
# 1 61.6680 30.1979 25.0061 0.0000 -11.3451 0.0000
# 2 30.1979 101.0881 40.7904 0.0000 -9.2253 0.0000
# 3 25.0061 40.7904 93.3791 0.0000 -9.6047 0.0000
# 4 0.0000 0.0000 0.0000 7.9946 0.0000 -4.4408
# 5 -11.3451 -9.2253 -9.6047 0.0000 24.7998 0.0000
# 6 0.0000 0.0000 0.0000 -4.4408 0.0000 15.9994
#
#
#
# Elastic Compliance Matrix: (Units=1/GPa)
#
#
# Indices 1 2 3 4 5 6 
#
# 1 0.020813 -0.004411 -0.002954 0.000000 0.006736 0.000000
# 2 -0.004411 0.013099 -0.004423 0.000000 0.001142 0.000000
# 3 -0.002954 -0.004423 0.013669 0.000000 0.002297 0.000000
# 4 0.000000 0.000000 0.000000 0.147884 0.000000 0.041046
# 5 0.006736 0.001142 0.002297 0.000000 0.044719 0.000000
# 6 0.000000 0.000000 0.000000 0.041046 0.000000 0.073895
#
#
# Mechanical properties :
#
#
# Convention : Reuss Voigt Hill
#
# Bulk Modulus (GPa) = 41.65892 49.79156 45.72524
# Shear Modulus (GPa) = 14.46524 20.43480 17.45002
#
# Velocity S-wave (km/s) = 2.92788 3.47997 3.21579
# Velocity P-wave (km/s) = 6.00984 6.75682 6.39425
#
# Compressibility (1/GPa) = 0.02400446
#
# Stress axis : x y z
#
# Youngs Moduli (GPa) = 48.04729 76.34125 73.16049
#
# Poissons Ratio (x) = 0.33672 0.21611
# Poissons Ratio (y) = 0.21192 0.32362
# Poissons Ratio (z) = 0.14193 0.33769
#
# Static dielectric constant tensor:
#      x y z
#    x 1.593890 0.000000 -0.007240 
#    y 0.000000 1.559300 0.000000 
#    z -0.007240 0.000000 1.595660 
# 
# From -- ./inp_files/47190.got.cif
#   From: 2010.05.17/outbox.cif.g08.bks.cpg/sg10_24_cif.got.tgz:47190.got - 2010.06.03 11:33:40.
