data_PCOD9151353
_publ_section_title
;
Structure prediction by ZEFSAII (Michael W. Deem and Ramdas Pophale) SiO2 
 PCOD9151353
Probable space group: P 2/M
;
_chemical_formula_sum "Si O2"
_cell_formula_units_Z 28
_cell_length_a 13.103973
_cell_length_b 23.010783
_cell_length_c 7.842320
_cell_angle_alpha 90.000000
_cell_angle_beta 32.658648
_cell_angle_gamma 90.000000
_cell_volume 1276.078276
_symmetry_space_group_name_H-M "P 2/M"
_symmetry_group_IT_number 10
_symmetry_cell_setting 'monoclinic'
loop_
_space_group_symop_operation_xyz
x,y,z
-x,y,-z
-x,-y,-z
x,-y,z
loop_
_atom_site_type_symbol
_atom_site_label
_atom_site_fract_x
_atom_site_fract_y
_atom_site_fract_z
Si Si1 0.857294 0.827077 0.851593
Si Si2 0.370259 0.565219 0.850741
Si Si3 0.969305 0.432005 0.248267
Si Si4 0.635921 0.348433 0.678680
Si Si5 0.690950 0.249692 0.348900
Si Si6 0.181946 0.064299 0.862278
Si Si7 0.453807 0.857216 0.261475
O O1 0.000000 0.816270 0.500000
O O2 0.847643 0.774108 0.998388
O O3 0.886908 0.888092 0.905090
O O4 0.649834 0.837763 0.068495
O O5 0.500000 0.562801 0.500000
O O6 0.361561 0.500000 0.934790
O O7 0.483776 0.607529 0.812585
O O8 0.160794 0.581778 0.082083
O O9 0.922183 0.500000 0.349415
O O10 0.804576 0.386502 0.519761
O O11 0.000000 0.428827 0.000000
O O12 0.717286 0.308517 0.414231
O O13 0.500000 0.313055 0.000000
O O14 0.500000 0.255304 0.500000
O O15 0.674049 0.198946 0.515590
O O16 0.354376 0.091275 0.508660
O O17 0.230545 0.000000 0.861812
O O18 0.000000 0.058560 0.000000
O O19 0.500000 0.870097 0.000000
#
# Coordination Sequence:
#
# PCOD9151353 Si02
#       7
#     4   4   4   4   4   4   4
#     4  10  21  40  67  93 122 165 214 263 319 380
#     4  10  20  38  67  91 123 172 211 263 323 383
#     4  10  21  39  63  95 125 164 221 259 317 398
#     4  12  24  39  64  94 132 168 212 267 325 385
#     4   9  21  41  64  85 121 162 207 266 321 376
#     4  10  21  37  60  95 134 170 211 260 313 369
#     4  10  20  38  64  89 125 169 215 259 311 373
#
# _framework density 21.942226999999999
#
# number of rings (size 3 to 8) (size 9 to 14) (size 15 to 20)
#    0.000    1.857    1.429    3.429    0.000    3.429 
#    0.000    8.571    0.000    0.000    0.000    0.000 
#    0.000    0.000    0.000    0.000    0.000    0.000 
#
# Total GULP energy -156392.725563 kJ/mol
# GULP energy per Si atom -5585.454484 kJ/mol
# Density = 2.189229 g / cm^3
# Si number density = 21.942227 Si / 1000 Ang^3
#
#
#
# Elastic Constant Matrix: (Units=GPa)
#
#
# Indices 1 2 3 4 5 6 
#
# 1 51.7985 35.3774 28.9482 0.0000 -8.8555 0.0000
# 2 35.3774 108.7074 59.4792 0.0000 -6.9883 0.0000
# 3 28.9482 59.4792 149.8538 0.0000 7.2394 0.0000
# 4 0.0000 0.0000 0.0000 8.3707 0.0000 3.6858
# 5 -8.8555 -6.9883 7.2394 0.0000 31.8974 0.0000
# 6 0.0000 0.0000 0.0000 3.6858 0.0000 7.5285
#
#
#
# Elastic Compliance Matrix: (Units=1/GPa)
#
#
# Indices 1 2 3 4 5 6 
#
# 1 0.026555 -0.006696 -0.002788 0.000000 0.006538 0.000000
# 2 -0.006696 0.013881 -0.004321 0.000000 0.002163 0.000000
# 3 -0.002788 -0.004321 0.009110 0.000000 -0.003788 0.000000
# 4 0.000000 0.000000 0.000000 0.152294 0.000000 -0.074559
# 5 0.006538 0.002163 -0.003788 0.000000 0.034499 0.000000
# 6 0.000000 0.000000 0.000000 -0.074559 0.000000 0.169330
#
#
# Mechanical properties :
#
#
# Convention : Reuss Voigt Hill
#
# Bulk Modulus (GPa) = 45.58647 61.99660 53.79153
# Shear Modulus (GPa) = 11.34840 21.99631 16.67236
#
# Velocity S-wave (km/s) = 2.27666 3.16961 2.75949
# Velocity P-wave (km/s) = 5.26609 6.45841 5.89248
#
# Compressibility (1/GPa) = 0.02193634
#
# Stress axis : x y z
#
# Youngs Moduli (GPa) = 37.65812 72.03947 109.77418
#
# Poissons Ratio (x) = 0.48240 0.30602
# Poissons Ratio (y) = 0.25217 0.47429
# Poissons Ratio (z) = 0.10498 0.31125
#
# Static dielectric constant tensor:
#      x y z
#    x 1.751450 0.000000 0.012660 
#    y 0.000000 1.844660 0.000000 
#    z 0.012660 0.000000 1.836850 
# 
# From -- ./inp_files/30404.got.cif
#   From: 2010.05.17/outbox.cif.g08.bks.cpg/sg10_16_cif.got.tgz:30404.got - 2010.06.03 11:33:40.
