data_PCOD9151644
_publ_section_title
;
Structure prediction by ZEFSAII (Michael W. Deem and Ramdas Pophale) SiO2 
 PCOD9151644
Probable space group: P 2/M
;
_chemical_formula_sum "Si O2"
_cell_formula_units_Z 32
_cell_length_a 23.567053
_cell_length_b 7.394686
_cell_length_c 14.250851
_cell_angle_alpha 90.000000
_cell_angle_beta 143.634067
_cell_angle_gamma 90.000000
_cell_volume 1472.572601
_symmetry_space_group_name_H-M "P 2/M"
_symmetry_group_IT_number 10
_symmetry_cell_setting 'monoclinic'
loop_
_space_group_symop_operation_xyz
x,y,z
-x,y,-z
-x,-y,-z
x,-y,z
loop_
_atom_site_type_symbol
_atom_site_label
_atom_site_fract_x
_atom_site_fract_y
_atom_site_fract_z
Si Si1 0.594534 0.713912 0.677646
Si Si2 0.069462 0.209198 0.516744
Si Si3 0.431918 0.781968 0.137432
Si Si4 0.579818 0.789637 0.189812
Si Si5 0.282315 0.222172 0.778583
Si Si6 0.205788 0.721520 0.144832
Si Si7 0.006019 0.719625 0.785355
Si Si8 0.104474 0.710264 0.190083
O O1 0.500000 0.787926 0.500000
O O2 0.596723 0.500000 0.661064
O O3 0.584559 0.734158 0.776553
O O4 0.694932 0.783762 0.768775
O O5 0.175001 0.286675 0.647977
O O6 0.000000 0.294783 0.500000
O O7 0.017066 0.216887 0.348243
O O8 0.084974 0.000000 0.565538
O O9 0.529383 0.714747 0.215980
O O10 0.434735 0.000000 0.137147
O O11 0.346758 0.724648 0.953822
O O12 0.671402 0.713313 0.257912
O O13 0.600182 0.000000 0.237142
O O14 0.500000 0.784854 0.000000
O O15 0.285065 0.000000 0.778802
O O16 0.205945 0.500000 0.146444
O O17 0.181788 0.783379 0.219385
O O18 0.111704 0.774660 0.960263
O O19 0.004513 0.500000 0.786301
O O20 0.922794 0.787097 0.745218
O O21 0.129748 0.500000 0.237202
O O22 0.000000 0.714855 0.000000
#
# Coordination Sequence:
#
# PCOD9151644 Si02
#       8
#     4   4   4   4   4   4   4   4
#     4  10  21  35  48  69 101 131 155 186 241 302
#     4  10  21  33  45  68 105 138 158 184 234 293
#     4   9  17  31  55  76  90 119 165 207 234 268
#     4   7  11  24  48  73  90 113 157 201 231 268
#     4   8  15  30  50  71  96 128 162 193 231 284
#     4   8  15  30  52  71  92 127 163 193 233 289
#     4   9  17  31  52  75  93 119 165 209 234 263
#     4   7  11  24  48  72  88 110 155 203 232 265
#
# _framework density 21.730677
#
# number of rings (size 3 to 8) (size 9 to 14) (size 15 to 20)
#    0.000    3.500    0.000    3.000    1.750    0.500 
#    2.250    0.625    0.000    7.500    0.000    0.000 
#    0.000    0.000    0.000    0.000    0.000    0.000 
#
# Total GULP energy -178318.119350 kJ/mol
# GULP energy per Si atom -5572.441230 kJ/mol
# Density = 2.168122 g / cm^3
# Si number density = 21.730677 Si / 1000 Ang^3
#
#
#
# Elastic Constant Matrix: (Units=GPa)
#
#
# Indices 1 2 3 4 5 6 
#
# 1 268.0241 4.6000 95.6748 0.0000 15.7215 0.0000
# 2 4.6000 73.0008 -2.2180 0.0000 7.9511 0.0000
# 3 95.6748 -2.2180 69.2884 0.0000 11.5999 0.0000
# 4 0.0000 0.0000 0.0000 -26.3280 0.0000 35.8288
# 5 15.7215 7.9511 11.5999 0.0000 33.4520 0.0000
# 6 0.0000 0.0000 0.0000 35.8288 0.0000 -67.0694
#
#
#
# Elastic Compliance Matrix: (Units=1/GPa)
#
#
# Indices 1 2 3 4 5 6 
#
# 1 0.007404 -0.000810 -0.010297 0.000000 0.000284 0.000000
# 2 -0.000810 0.014227 0.002205 0.000000 -0.003765 0.000000
# 3 -0.010297 0.002205 0.029724 0.000000 -0.005992 0.000000
# 4 0.000000 0.000000 0.000000 -0.139120 0.000000 -0.074318
# 5 0.000284 -0.003765 -0.005992 0.000000 0.032733 0.000000
# 6 0.000000 0.000000 0.000000 -0.074318 0.000000 -0.054611
#
#
# Mechanical properties :
#
#
# Convention : Reuss Voigt Hill
#
# Bulk Modulus (GPa) = 29.80656 67.38078 48.59367
# Shear Modulus (GPa) = -61.99261 8.82802 -26.58230
#
# Velocity S-wave (km/s) = -5.34693 2.01774 -3.50131
# Velocity P-wave (km/s) = 4.93694 6.04176 2.46268
#
# Compressibility (1/GPa) = 0.03354966
#
# Stress axis : x y z
#
# Youngs Moduli (GPa) = 135.06458 70.29081 33.64264
#
# Poissons Ratio (x) = 0.05695 0.34641
# Poissons Ratio (y) = 0.10944 -0.07417
# Poissons Ratio (z) = 1.39073 -0.15496
#
# Static dielectric constant tensor:
#      x y z
#    x 1.825100 0.000000 0.017440 
#    y 0.000000 1.836170 0.000000 
#    z 0.017440 0.000000 1.753270 
# 
# From -- ./inp_files/55734.got.cif
#   From: 2010.05.17/outbox.cif.g08.bks.cpg/sg10_28_cif.got.tgz:55734.got - 2010.06.03 11:33:40.
