data_PCOD9151747
_publ_section_title
;
Structure prediction by ZEFSAII (Michael W. Deem and Ramdas Pophale) SiO2 
 PCOD9151747
Probable space group: P 2/M
;
_chemical_formula_sum "Si O2"
_cell_formula_units_Z 19
_cell_length_a 11.386826
_cell_length_b 11.318313
_cell_length_c 19.572184
_cell_angle_alpha 90.000000
_cell_angle_beta 156.026892
_cell_angle_gamma 90.000000
_cell_volume 1024.893780
_symmetry_space_group_name_H-M "P 2/M"
_symmetry_group_IT_number 10
_symmetry_cell_setting 'monoclinic'
loop_
_space_group_symop_operation_xyz
x,y,z
-x,y,-z
-x,-y,-z
x,-y,z
loop_
_atom_site_type_symbol
_atom_site_label
_atom_site_fract_x
_atom_site_fract_y
_atom_site_fract_z
Si Si1 0.782857 0.271169 0.822893
Si Si2 0.500000 0.299029 0.000000
Si Si3 0.544661 0.500000 0.380684
Si Si4 0.833413 0.500000 0.257494
Si Si5 0.675239 0.859836 0.328570
Si Si6 0.000000 0.500000 0.500000
Si Si7 0.762457 0.138925 0.027429
O O1 0.651855 0.385069 0.717287
O O2 0.519191 0.201638 0.717921
O O3 0.964004 0.187888 0.868871
O O4 0.000000 0.305782 0.000000
O O5 0.318292 0.385073 0.854308
O O6 0.297239 0.215589 0.937685
O O7 0.698085 0.500000 0.387027
O O8 0.174968 0.500000 0.421926
O O9 0.816796 0.500000 0.330687
O O10 0.000000 0.808950 0.500000
O O11 0.691338 0.000000 0.351464
O O12 0.511764 0.846030 0.169659
O O13 0.792734 0.000000 0.058000
#
# Coordination Sequence:
#
# PCOD9151747 Si02
#       7
#     4   2   2   2   4   1   4
#     4  10  21  34  59  92 129 158 201 262 310 355
#     4  11  23  42  64  90 129 167 200 250 318 375
#     4  10  22  35  62  93 121 155 203 256 309 361
#     4   9  24  40  63  97 119 162 203 262 301 369
#     4   9  19  34  59  90 120 157 207 262 309 353
#     4   8  22  38  66  92 122 150 214 252 296 352
#     4  10  22  39  62  88 122 167 210 250 307 375
#
# _framework density 18.538506000000002
#
# number of rings (size 3 to 8) (size 9 to 14) (size 15 to 20)
#    0.632    1.684    0.000    1.263   10.316    4.211 
#    0.000    2.105    0.000    1.263    0.000    0.000 
#    0.000    0.000    0.000    0.000    0.000    0.000 
#
# Total GULP energy -105779.147504 kJ/mol
# GULP energy per Si atom -5567.323553 kJ/mol
# Density = 1.849631 g / cm^3
# Si number density = 18.538506 Si / 1000 Ang^3
#
#
#
# Elastic Constant Matrix: (Units=GPa)
#
#
# Indices 1 2 3 4 5 6 
#
# 1 75.5772 43.6847 38.0903 0.0000 -3.0659 0.0000
# 2 43.6847 101.1520 46.4859 0.0000 -6.9983 0.0000
# 3 38.0903 46.4859 107.1016 0.0000 13.7893 0.0000
# 4 0.0000 0.0000 0.0000 -11.0148 0.0000 -9.7853
# 5 -3.0659 -6.9983 13.7893 0.0000 27.3024 0.0000
# 6 0.0000 0.0000 0.0000 -9.7853 0.0000 1.2834
#
#
#
# Elastic Compliance Matrix: (Units=1/GPa)
#
#
# Indices 1 2 3 4 5 6 
#
# 1 0.019096 -0.005931 -0.004596 0.000000 0.002946 0.000000
# 2 -0.005931 0.015288 -0.005289 0.000000 0.005924 0.000000
# 3 -0.004596 -0.005289 0.014448 0.000000 -0.009169 0.000000
# 4 0.000000 0.000000 0.000000 -0.011679 0.000000 -0.089048
# 5 0.002946 0.005924 -0.009169 0.000000 0.043107 0.000000
# 6 0.000000 0.000000 0.000000 -0.089048 0.000000 0.100236
#
#
# Mechanical properties :
#
#
# Convention : Reuss Voigt Hill
#
# Bulk Modulus (GPa) = 58.14273 60.03919 59.09096
# Shear Modulus (GPa) = 22.95049 13.88553 18.41801
#
# Velocity S-wave (km/s) = 3.52233 2.73977 3.15540
# Velocity P-wave (km/s) = 6.92630 6.51652 6.72453
#
# Compressibility (1/GPa) = 0.01719906
#
# Stress axis : x y z
#
# Youngs Moduli (GPa) = 52.36819 65.41126 69.21516
#
# Poissons Ratio (x) = 0.38793 0.31814
# Poissons Ratio (y) = 0.31058 0.36608
# Poissons Ratio (z) = 0.24070 0.34596
#
# Static dielectric constant tensor:
#      x y z
#    x 1.610070 0.000000 0.006120 
#    y 0.000000 1.651590 0.000000 
#    z 0.006120 0.000000 1.646150 
# 
# From -- ./inp_files/75043.got.cif
#   From: 2010.05.17/outbox.cif.g08.bks.cpg/sg10_38_cif.got.tgz:75043.got - 2010.06.03 11:33:40.
