data_PCOD9151442
_publ_section_title
;
Structure prediction by ZEFSAII (Michael W. Deem and Ramdas Pophale) SiO2 
 PCOD9151442
Probable space group: P 2/M
;
_chemical_formula_sum "Si O2"
_cell_formula_units_Z 24
_cell_length_a 14.108857
_cell_length_b 8.371734
_cell_length_c 11.962319
_cell_angle_alpha 90.000000
_cell_angle_beta 42.078251
_cell_angle_gamma 90.000000
_cell_volume 946.872195
_symmetry_space_group_name_H-M "P 2/M"
_symmetry_group_IT_number 10
_symmetry_cell_setting 'monoclinic'
loop_
_space_group_symop_operation_xyz
x,y,z
-x,y,-z
-x,-y,-z
x,-y,z
loop_
_atom_site_type_symbol
_atom_site_label
_atom_site_fract_x
_atom_site_fract_y
_atom_site_fract_z
Si Si1 0.581144 0.316590 0.597726
Si Si2 0.782541 0.813994 0.695945
Si Si3 0.987080 0.318402 0.348039
Si Si4 0.261627 0.686180 0.864835
Si Si5 0.857008 0.816850 0.251305
Si Si6 0.407619 0.188831 0.942333
O O1 0.629327 0.500000 0.545497
O O2 0.574584 0.303617 0.322430
O O3 0.700612 0.204606 0.443016
O O4 0.535866 0.273344 0.764797
O O5 0.839552 0.709773 0.543642
O O6 0.907673 0.798175 0.678988
O O7 0.767558 0.000000 0.676161
O O8 0.647780 0.762057 0.887641
O O9 0.035148 0.500000 0.322284
O O10 0.958326 0.282647 0.244132
O O11 0.232585 0.500000 0.909211
O O12 0.161573 0.757447 0.858646
O O13 0.279399 0.775964 0.966590
O O14 0.899774 0.000000 0.217247
O O15 0.433485 0.000000 0.922751
#
# Coordination Sequence:
#
# PCOD9151442 Si02
#       6
#     4   4   4   4   4   4
#     4   9  19  33  53  80 112 145 177 216 262 316
#     4  10  20  39  61  81 107 136 179 224 266 317
#     4  11  23  37  58  81 106 140 180 222 269 318
#     4   9  19  33  53  80 112 145 177 216 262 316
#     4  12  22  34  54  80 112 142 180 224 266 315
#     4   9  18  33  56  82 107 142 178 215 262 317
#
# _framework density 25.346609999999998
#
# number of rings (size 3 to 8) (size 9 to 14) (size 15 to 20)
#    1.000    1.000    0.000    6.000    0.000    4.667 
#    0.000    1.667    0.000   10.000    0.000    0.000 
#    0.000    0.000    0.000    0.000    0.000    0.000 
#
# Total GULP energy -134278.405634 kJ/mol
# GULP energy per Si atom -5594.933568 kJ/mol
# Density = 2.528892 g / cm^3
# Si number density = 25.346610 Si / 1000 Ang^3
#
#
#
# Elastic Constant Matrix: (Units=GPa)
#
#
# Indices 1 2 3 4 5 6 
#
# 1 103.0683 6.2506 17.1056 0.0000 13.2953 0.0000
# 2 6.2506 76.8512 -2.8941 0.0000 8.1408 0.0000
# 3 17.1056 -2.8941 109.4226 0.0000 7.3661 0.0000
# 4 0.0000 0.0000 0.0000 100.7242 0.0000 34.8310
# 5 13.2953 8.1408 7.3661 0.0000 53.5026 0.0000
# 6 0.0000 0.0000 0.0000 34.8310 0.0000 29.0217
#
#
#
# Elastic Compliance Matrix: (Units=1/GPa)
#
#
# Indices 1 2 3 4 5 6 
#
# 1 0.010277 -0.000653 -0.001472 0.000000 -0.002252 0.000000
# 2 -0.000653 0.013293 0.000584 0.000000 -0.001941 0.000000
# 3 -0.001472 0.000584 0.009453 0.000000 -0.001025 0.000000
# 4 0.000000 0.000000 0.000000 0.016972 0.000000 -0.020369
# 5 -0.002252 -0.001941 -0.001025 0.000000 0.019687 0.000000
# 6 0.000000 0.000000 0.000000 -0.020369 0.000000 0.058903
#
#
# Mechanical properties :
#
#
# Convention : Reuss Voigt Hill
#
# Bulk Modulus (GPa) = 33.39833 36.69627 35.04730
# Shear Modulus (GPa) = 35.29907 54.57501 44.93704
#
# Velocity S-wave (km/s) = 3.73588 4.64524 4.21515
# Velocity P-wave (km/s) = 5.64042 6.57877 6.12758
#
# Compressibility (1/GPa) = 0.02994161
#
# Stress axis : x y z
#
# Youngs Moduli (GPa) = 97.30759 75.22840 105.78151
#
# Poissons Ratio (x) = 0.04911 0.15573
# Poissons Ratio (y) = 0.06352 -0.06181
# Poissons Ratio (z) = 0.14326 -0.04395
#
# Static dielectric constant tensor:
#      x y z
#    x 2.125240 0.000000 -0.065270 
#    y 0.000000 1.841250 0.000000 
#    z -0.065270 0.000000 2.075990 
# 
# From -- ./inp_files/52620.got.cif
#   From: 2010.05.17/outbox.cif.g08.bks.cpg/sg10_27_cif.got.tgz:52620.got - 2010.06.03 11:33:40.
