data_PCOD9151439
_publ_section_title
;
Structure prediction by ZEFSAII (Michael W. Deem and Ramdas Pophale) SiO2 
 PCOD9151439
Probable space group: P 2/M
;
_chemical_formula_sum "Si O2"
_cell_formula_units_Z 24
_cell_length_a 12.905757
_cell_length_b 8.537866
_cell_length_c 24.739408
_cell_angle_alpha 90.000000
_cell_angle_beta 29.396756
_cell_angle_gamma 90.000000
_cell_volume 1338.057672
_symmetry_space_group_name_H-M "P 2/M"
_symmetry_group_IT_number 10
_symmetry_cell_setting 'monoclinic'
loop_
_space_group_symop_operation_xyz
x,y,z
-x,y,-z
-x,-y,-z
x,-y,z
loop_
_atom_site_type_symbol
_atom_site_label
_atom_site_fract_x
_atom_site_fract_y
_atom_site_fract_z
Si Si1 0.398794 0.810820 0.739937
Si Si2 0.020821 0.687669 0.118626
Si Si3 0.122354 0.189320 0.499253
Si Si4 0.742728 0.690791 0.881130
Si Si5 0.195437 0.687901 0.268797
Si Si6 0.369208 0.188021 0.878184
O O1 0.633899 0.761831 0.615740
O O2 0.359690 0.761643 0.819907
O O3 0.213554 0.746087 0.786959
O O4 0.392424 0.000000 0.741746
O O5 0.024743 0.500000 0.116503
O O6 0.114699 0.742957 0.133469
O O7 0.176557 0.747790 0.000934
O O8 0.000000 0.236463 0.500000
O O9 0.998110 0.256203 0.606708
O O10 0.115081 0.000000 0.504968
O O11 0.742258 0.500000 0.882085
O O12 0.818805 0.739520 0.787219
O O13 0.500000 0.740816 0.000000
O O14 0.208088 0.500000 0.264070
O O15 0.411366 0.754437 0.195923
O O16 0.364628 0.000000 0.881454
#
# Coordination Sequence:
#
# PCOD9151439 Si02
#       6
#     4   4   4   4   4   4
#     4  10  22  39  57  79 115 155 184 222 282 343
#     4  11  22  37  58  84 114 149 188 233 280 331
#     4  10  20  39  60  80 112 153 187 224 281 337
#     4   9  18  36  57  79 114 150 180 226 287 331
#     4  11  21  35  59  88 113 142 189 239 277 322
#     4  11  21  36  57  83 117 152 183 224 285 342
#
# _framework density 17.936447000000001
#
# number of rings (size 3 to 8) (size 9 to 14) (size 15 to 20)
#    0.000    1.667    3.333    2.000    0.000    4.333 
#    0.000    5.000    0.000    5.000    0.000    0.000 
#    0.000    0.000    0.000    0.000    0.000    0.000 
#
# Total GULP energy -134060.276322 kJ/mol
# GULP energy per Si atom -5585.844847 kJ/mol
# Density = 1.789562 g / cm^3
# Si number density = 17.936447 Si / 1000 Ang^3
#
#
#
# Elastic Constant Matrix: (Units=GPa)
#
#
# Indices 1 2 3 4 5 6 
#
# 1 155.5392 30.6238 113.4264 0.0000 -9.2476 0.0000
# 2 30.6238 17.8217 20.9609 0.0000 -3.4786 0.0000
# 3 113.4264 20.9609 143.8130 0.0000 -3.8147 0.0000
# 4 0.0000 0.0000 0.0000 32.7367 0.0000 1.2157
# 5 -9.2476 -3.4786 -3.8147 0.0000 35.9264 0.0000
# 6 0.0000 0.0000 0.0000 1.2157 0.0000 36.2025
#
#
#
# Elastic Compliance Matrix: (Units=1/GPa)
#
#
# Indices 1 2 3 4 5 6 
#
# 1 0.019123 -0.017879 -0.012427 0.000000 0.001872 0.000000
# 2 -0.017879 0.085547 0.001735 0.000000 0.003865 0.000000
# 3 -0.012427 0.001735 0.016468 0.000000 -0.001282 0.000000
# 4 0.000000 0.000000 0.000000 0.030585 0.000000 -0.001027
# 5 0.001872 0.003865 -0.001282 0.000000 0.028555 0.000000
# 6 0.000000 0.000000 0.000000 -0.001027 0.000000 0.027657
#
#
# Mechanical properties :
#
#
# Convention : Reuss Voigt Hill
#
# Bulk Modulus (GPa) = 15.62585 71.91070 43.76828
# Shear Modulus (GPa) = 17.45767 31.11731 24.28749
#
# Velocity S-wave (km/s) = 3.12317 4.16969 3.68378
# Velocity P-wave (km/s) = 4.66222 7.95995 6.52292
#
# Compressibility (1/GPa) = 0.06399652
#
# Stress axis : x y z
#
# Youngs Moduli (GPa) = 52.29349 11.68949 60.72474
#
# Poissons Ratio (x) = 0.20899 0.75462
# Poissons Ratio (y) = 0.93493 -0.10535
# Poissons Ratio (z) = 0.64984 -0.02028
#
# Static dielectric constant tensor:
#      x y z
#    x 1.605140 0.000000 0.005810 
#    y 0.000000 1.616680 0.000000 
#    z 0.005810 0.000000 1.587200 
# 
# From -- ./inp_files/54600.got.cif
#   From: 2010.05.17/outbox.cif.g08.bks.cpg/sg10_28_cif.got.tgz:54600.got - 2010.06.03 11:33:40.
