data_PCOD9151345
_publ_section_title
;
Structure prediction by ZEFSAII (Michael W. Deem and Ramdas Pophale) SiO2 
 PCOD9151345
Probable space group: P 2/M
;
_chemical_formula_sum "Si O2"
_cell_formula_units_Z 32
_cell_length_a 28.674302
_cell_length_b 9.413820
_cell_length_c 11.367962
_cell_angle_alpha 90.000000
_cell_angle_beta 31.483800
_cell_angle_gamma 90.000000
_cell_volume 1602.603234
_symmetry_space_group_name_H-M "P 2/M"
_symmetry_group_IT_number 10
_symmetry_cell_setting 'monoclinic'
loop_
_space_group_symop_operation_xyz
x,y,z
-x,y,-z
-x,-y,-z
x,-y,z
loop_
_atom_site_type_symbol
_atom_site_label
_atom_site_fract_x
_atom_site_fract_y
_atom_site_fract_z
Si Si1 0.704046 0.832779 0.100150
Si Si2 0.654790 0.663618 0.990894
Si Si3 0.909730 0.164893 0.270158
Si Si4 0.742416 0.335332 0.544360
Si Si5 0.139623 0.333047 0.142247
Si Si6 0.962912 0.332164 0.388414
Si Si7 0.524932 0.838149 0.620725
Si Si8 0.407294 0.835801 0.261259
O O1 0.712837 0.755292 0.956498
O O2 0.601867 0.810258 0.360686
O O3 0.720137 0.000000 0.057405
O O4 0.772623 0.762110 0.043535
O O5 0.654417 0.500000 0.030270
O O6 0.556045 0.729415 0.203713
O O7 0.694359 0.670601 0.775304
O O8 0.833201 0.248911 0.365151
O O9 0.927481 0.239559 0.357378
O O10 0.884389 0.000000 0.341181
O O11 0.000000 0.170803 0.000000
O O12 0.758616 0.500000 0.479810
O O13 0.674395 0.261429 0.601139
O O14 0.161680 0.500000 0.084293
O O15 0.065472 0.298636 0.203485
O O16 0.091983 0.313220 0.372130
O O17 0.957138 0.500000 0.370621
O O18 0.573785 0.833690 0.641316
O O19 0.490249 0.000000 0.678595
O O20 0.390563 0.000000 0.260412
O O21 0.500000 0.790110 0.000000
#
# Coordination Sequence:
#
# PCOD9151345 Si02
#       8
#     4   4   4   4   4   4   4   4
#     4  11  23  36  54  83 119 153 190 236 285 343
#     4  11  23  38  58  84 115 150 193 240 286 342
#     4  11  25  42  60  86 120 156 196 243 292 347
#     4  11  24  40  62  90 118 152 196 246 294 346
#     4   9  19  37  60  86 116 149 187 235 289 347
#     4   9  19  38  63  87 114 149 190 237 290 346
#     4  10  22  39  57  82 115 152 192 237 289 342
#     4  10  20  38  64  87 114 154 196 241 293 346
#
# _framework density 19.967511999999999
#
# number of rings (size 3 to 8) (size 9 to 14) (size 15 to 20)
#    0.000    1.750    1.250    3.375    0.000   10.750 
#    0.000    5.000    0.000    0.000    0.000    0.000 
#    0.000    0.000    0.000    0.000    0.000    0.000 
#
# Total GULP energy -178906.723029 kJ/mol
# GULP energy per Si atom -5590.835095 kJ/mol
# Density = 1.992206 g / cm^3
# Si number density = 19.967512 Si / 1000 Ang^3
#
#
#
# Elastic Constant Matrix: (Units=GPa)
#
#
# Indices 1 2 3 4 5 6 
#
# 1 80.2067 42.7457 13.8736 0.0000 -20.6126 0.0000
# 2 42.7457 99.9125 42.4456 0.0000 -31.1503 0.0000
# 3 13.8736 42.4456 38.2327 0.0000 -20.4227 0.0000
# 4 0.0000 0.0000 0.0000 18.4695 0.0000 -14.3444
# 5 -20.6126 -31.1503 -20.4227 0.0000 36.7880 0.0000
# 6 0.0000 0.0000 0.0000 -14.3444 0.0000 5.9723
#
#
#
# Elastic Compliance Matrix: (Units=1/GPa)
#
#
# Indices 1 2 3 4 5 6 
#
# 1 0.017288 -0.007957 0.005879 0.000000 0.006213 0.000000
# 2 -0.007957 0.023657 -0.021405 0.000000 0.003690 0.000000
# 3 0.005879 -0.021405 0.056669 0.000000 0.016629 0.000000
# 4 0.000000 0.000000 0.000000 -0.062564 0.000000 -0.150270
# 5 0.006213 0.003690 0.016629 0.000000 0.043020 0.000000
# 6 0.000000 0.000000 0.000000 -0.150270 0.000000 -0.193483
#
#
# Mechanical properties :
#
#
# Convention : Reuss Voigt Hill
#
# Bulk Modulus (GPa) = 19.74432 46.27574 33.01003
# Shear Modulus (GPa) = -96.96438 20.19842 -38.38298
#
# Velocity S-wave (km/s) = -6.97614 3.18396 -4.38913
# Velocity P-wave (km/s) = 7.41478 6.06157 3.01963
#
# Compressibility (1/GPa) = 0.05064747
#
# Stress axis : x y z
#
# Youngs Moduli (GPa) = 57.84310 42.27067 17.64647
#
# Poissons Ratio (x) = 0.33635 -0.10374
# Poissons Ratio (y) = 0.46026 0.37773
# Poissons Ratio (z) = -0.34006 0.90481
#
# Static dielectric constant tensor:
#      x y z
#    x 1.704390 0.000000 0.006180 
#    y 0.000000 1.673600 0.000000 
#    z 0.006180 0.000000 1.712630 
# 
# From -- ./inp_files/58135.got.cif
#   From: 2010.05.17/outbox.cif.g08.bks.cpg/sg10_30_cif.got.tgz:58135.got - 2010.06.03 11:33:40.
