data_PCOD9151749
_publ_section_title
;
Structure prediction by ZEFSAII (Michael W. Deem and Ramdas Pophale) SiO2 
 PCOD9151749
Probable space group: P 2/M
;
_chemical_formula_sum "Si O2"
_cell_formula_units_Z 18
_cell_length_a 8.025955
_cell_length_b 19.270781
_cell_length_c 5.670181
_cell_angle_alpha 90.000000
_cell_angle_beta 58.961943
_cell_angle_gamma 90.000000
_cell_volume 751.424057
_symmetry_space_group_name_H-M "P 2/M"
_symmetry_group_IT_number 10
_symmetry_cell_setting 'monoclinic'
loop_
_space_group_symop_operation_xyz
x,y,z
-x,y,-z
-x,-y,-z
x,-y,z
loop_
_atom_site_type_symbol
_atom_site_label
_atom_site_fract_x
_atom_site_fract_y
_atom_site_fract_z
Si Si1 0.500000 0.378713 0.500000
Si Si2 0.764070 0.918314 0.172530
Si Si3 0.220923 0.138179 0.338082
Si Si4 0.173552 0.424848 0.062933
Si Si5 0.709221 0.298497 0.720213
O O1 0.661282 0.330142 0.501584
O O2 0.381805 0.421682 0.778142
O O3 0.693789 0.888266 0.475501
O O4 0.724043 0.000000 0.193086
O O5 0.694628 0.883939 0.977849
O O6 0.000000 0.908049 0.000000
O O7 0.212755 0.221362 0.349535
O O8 0.000000 0.109513 0.500000
O O9 0.163004 0.500000 0.195127
O O10 0.172020 0.356376 0.223358
O O11 0.000000 0.422774 0.000000
O O12 0.500000 0.293018 0.000000
#
# Coordination Sequence:
#
# PCOD9151749 Si02
#       5
#     2   4   4   4   4
#     4  10  23  40  62  88 123 174 210 272 325 392
#     4   9  18  34  57  91 126 158 205 264 324 384
#     4  10  21  34  62  91 120 164 210 265 321 384
#     4  10  23  41  64  92 124 164 216 273 328 390
#     4  10  24  40  59  87 124 166 211 263 325 389
#
# _framework density 23.954518
#
# number of rings (size 3 to 8) (size 9 to 14) (size 15 to 20)
#    0.000    2.222    0.000    1.000    9.333    8.444 
#    0.000    2.222    0.000    4.000    0.000    0.000 
#    0.000    0.000    0.000    0.000    0.000    0.000 
#
# Total GULP energy -100639.887247 kJ/mol
# GULP energy per Si atom -5591.104847 kJ/mol
# Density = 2.390000 g / cm^3
# Si number density = 23.954518 Si / 1000 Ang^3
#
#
#
# Elastic Constant Matrix: (Units=GPa)
#
#
# Indices 1 2 3 4 5 6 
#
# 1 100.4020 44.8721 39.3773 0.0000 24.8309 0.0000
# 2 44.8721 177.3559 78.1634 0.0000 51.0843 0.0000
# 3 39.3773 78.1634 159.2635 0.0000 22.8357 0.0000
# 4 0.0000 0.0000 0.0000 -3.5342 0.0000 -41.7804
# 5 24.8309 51.0843 22.8357 0.0000 56.2854 0.0000
# 6 0.0000 0.0000 0.0000 -41.7804 0.0000 -53.0558
#
#
#
# Elastic Compliance Matrix: (Units=1/GPa)
#
#
# Indices 1 2 3 4 5 6 
#
# 1 0.012108 -0.001235 -0.001893 0.000000 -0.003453 0.000000
# 2 -0.001235 0.009300 -0.003320 0.000000 -0.006549 0.000000
# 3 -0.001893 -0.003320 0.008308 0.000000 0.000478 0.000000
# 4 0.000000 0.000000 0.000000 0.034052 0.000000 -0.026815
# 5 -0.003453 -0.006549 0.000478 0.000000 0.025040 0.000000
# 6 0.000000 0.000000 0.000000 -0.026815 0.000000 0.002268
#
#
# Mechanical properties :
#
#
# Convention : Reuss Voigt Hill
#
# Bulk Modulus (GPa) = 59.44795 84.64967 72.04881
# Shear Modulus (GPa) = 45.62938 18.24631 31.93784
#
# Velocity S-wave (km/s) = 4.36918 2.76290 3.65536
# Velocity P-wave (km/s) = 7.09393 6.75222 6.92518
#
# Compressibility (1/GPa) = 0.01682144
#
# Stress axis : x y z
#
# Youngs Moduli (GPa) = 82.58967 107.52231 120.36884
#
# Poissons Ratio (x) = 0.13276 0.22781
# Poissons Ratio (y) = 0.10197 0.39964
# Poissons Ratio (z) = 0.15631 0.35699
#
# Static dielectric constant tensor:
#      x y z
#    x 1.957560 0.000000 -0.023440 
#    y 0.000000 1.825960 0.000000 
#    z -0.023440 0.000000 1.936780 
# 
# From -- ./inp_files/4429.got.cif
#   From: 2010.05.17/outbox.cif.g08.bks.cpg/sg10_3_cif.got.tgz:4429.got - 2010.06.03 11:33:40.
