data_PCOD9151571
_publ_section_title
;
Structure prediction by ZEFSAII (Michael W. Deem and Ramdas Pophale) SiO2 
 PCOD9151571
Probable space group: P 2/M
;
_chemical_formula_sum "Si O2"
_cell_formula_units_Z 16
_cell_length_a 7.600557
_cell_length_b 12.595480
_cell_length_c 8.211211
_cell_angle_alpha 90.000000
_cell_angle_beta 100.297836
_cell_angle_gamma 90.000000
_cell_volume 773.418742
_symmetry_space_group_name_H-M "P 2/M"
_symmetry_group_IT_number 10
_symmetry_cell_setting 'monoclinic'
loop_
_space_group_symop_operation_xyz
x,y,z
-x,y,-z
-x,-y,-z
x,-y,z
loop_
_atom_site_type_symbol
_atom_site_label
_atom_site_fract_x
_atom_site_fract_y
_atom_site_fract_z
Si Si1 0.769562 0.225286 0.340634
Si Si2 0.809886 0.623147 0.061584
Si Si3 0.890378 0.118601 0.679167
Si Si4 0.399858 0.187417 0.134673
O O1 0.812283 0.333007 0.248070
O O2 0.823783 0.205995 0.536531
O O3 0.560135 0.203039 0.288564
O O4 0.899911 0.142533 0.266608
O O5 0.759298 0.500000 0.049022
O O6 0.674005 0.700361 0.944816
O O7 0.000000 0.634293 0.000000
O O8 0.769742 0.130599 0.817077
O O9 0.862771 0.000000 0.609316
O O10 0.500000 0.133395 0.000000
#
# Coordination Sequence:
#
# PCOD9151571 Si02
#       4
#     4   4   4   4
#     4  10  21  38  62  89 120 156 201 242 297 354
#     4  10  20  40  66  88 119 157 194 246 306 355
#     4  11  23  41  61  86 125 163 199 245 296 347
#     4  10  22  38  62  91 120 155 201 248 293 354
#
# _framework density 20.687372
#
# number of rings (size 3 to 8) (size 9 to 14) (size 15 to 20)
#    0.000    1.750    2.500    2.250    0.000    8.000 
#    0.000   16.250    0.000    7.500    0.000    0.000 
#    0.000    0.000    0.000    0.000    0.000    0.000 
#
# Total GULP energy -89178.769356 kJ/mol
# GULP energy per Si atom -5573.673085 kJ/mol
# Density = 2.064029 g / cm^3
# Si number density = 20.687372 Si / 1000 Ang^3
#
#
#
# Elastic Constant Matrix: (Units=GPa)
#
#
# Indices 1 2 3 4 5 6 
#
# 1 110.5765 28.2281 20.8365 0.0000 -14.6389 0.0000
# 2 28.2281 89.7126 30.6025 0.0000 2.3322 0.0000
# 3 20.8365 30.6025 58.2349 0.0000 -9.1170 0.0000
# 4 0.0000 0.0000 0.0000 211.6744 0.0000 -6.2445
# 5 -14.6389 2.3322 -9.1170 0.0000 48.5841 0.0000
# 6 0.0000 0.0000 0.0000 -6.2445 0.0000 -8.0286
#
#
#
# Elastic Compliance Matrix: (Units=1/GPa)
#
#
# Indices 1 2 3 4 5 6 
#
# 1 0.010482 -0.002744 -0.001847 0.000000 0.002943 0.000000
# 2 -0.002744 0.014501 -0.007085 0.000000 -0.002853 0.000000
# 3 -0.001847 -0.007085 0.022174 0.000000 0.003944 0.000000
# 4 0.000000 0.000000 0.000000 0.004618 0.000000 -0.003592
# 5 0.002943 -0.002853 0.003944 0.000000 0.022347 0.000000
# 6 0.000000 0.000000 0.000000 -0.003592 0.000000 -0.121761
#
#
# Mechanical properties :
#
#
# Convention : Reuss Voigt Hill
#
# Bulk Modulus (GPa) = 42.01173 46.42869 44.22021
# Shear Modulus (GPa) = -305.79267 62.36978 -121.71145
#
# Velocity S-wave (km/s) = -12.17115 5.49674 -7.67863
# Velocity P-wave (km/s) = 13.31030 7.92321 7.56263
#
# Compressibility (1/GPa) = 0.02380287
#
# Stress axis : x y z
#
# Youngs Moduli (GPa) = 95.40253 68.95967 45.09880
#
# Poissons Ratio (x) = 0.18926 0.08332
# Poissons Ratio (y) = 0.26183 0.31953
# Poissons Ratio (z) = 0.17625 0.48858
#
# Static dielectric constant tensor:
#      x y z
#    x 1.768770 0.000000 -0.003290 
#    y 0.000000 1.697930 0.000000 
#    z -0.003290 0.000000 1.797900 
# 
# From -- ./inp_files/16699.got.cif
#   From: 2010.05.17/outbox.cif.g08.bks.cpg/sg10_9_cif.got.tgz:16699.got - 2010.06.03 11:33:40.
