data_PCOD9151986
_publ_section_title
;
Structure prediction by ZEFSAII (Michael W. Deem and Ramdas Pophale) SiO2 
 PCOD9151986
Probable space group: P 2/M
;
_chemical_formula_sum "Si O2"
_cell_formula_units_Z 20
_cell_length_a 10.378342
_cell_length_b 19.640203
_cell_length_c 5.077061
_cell_angle_alpha 90.000000
_cell_angle_beta 118.187248
_cell_angle_gamma 90.000000
_cell_volume 912.144444
_symmetry_space_group_name_H-M "P 2/M"
_symmetry_group_IT_number 10
_symmetry_cell_setting 'monoclinic'
loop_
_space_group_symop_operation_xyz
x,y,z
-x,y,-z
-x,-y,-z
x,-y,z
loop_
_atom_site_type_symbol
_atom_site_label
_atom_site_fract_x
_atom_site_fract_y
_atom_site_fract_z
Si Si1 0.832485 0.714865 0.745848
Si Si2 0.103990 0.858817 0.357511
Si Si3 0.893431 0.574535 0.644791
Si Si4 0.603424 0.217065 0.857941
Si Si5 0.333966 0.073624 0.240976
O O1 0.828907 0.782254 0.558748
O O2 0.796682 0.642261 0.582837
O O3 0.730530 0.731699 0.895481
O O4 0.000000 0.710086 0.000000
O O5 0.230742 0.909854 0.390102
O O6 0.000000 0.875738 0.500000
O O7 0.000000 0.856920 0.000000
O O8 0.820099 0.500000 0.549805
O O9 0.000000 0.583901 0.500000
O O10 0.000000 0.570882 0.000000
O O11 0.500000 0.214805 0.500000
O O12 0.670773 0.140662 0.946958
O O13 0.500000 0.234256 0.000000
O O14 0.500000 0.069605 0.500000
O O15 0.294065 0.000000 0.085827
#
# Coordination Sequence:
#
# PCOD9151986 Si02
#       5
#     4   4   4   4   4
#     4   9  19  34  56  80 105 136 176 216 255 304
#     4  10  21  36  54  78 106 135 170 214 262 308
#     4   9  17  29  48  77 108 135 168 212 256 297
#     4  10  22  38  55  77 106 138 172 214 263 310
#     4   9  20  37  56  77 103 137 175 214 258 311
#
# _framework density 21.926352999999999
#
# number of rings (size 3 to 8) (size 9 to 14) (size 15 to 20)
#    0.000    2.600    0.000    0.600    0.000   18.800 
#    0.000    4.000    0.000    1.200    0.000    0.000 
#    0.000    0.000    0.000    0.000    0.000    0.000 
#
# Total GULP energy -111694.562352 kJ/mol
# GULP energy per Si atom -5584.728118 kJ/mol
# Density = 2.187645 g / cm^3
# Si number density = 21.926353 Si / 1000 Ang^3
#
#
#
# Elastic Constant Matrix: (Units=GPa)
#
#
# Indices 1 2 3 4 5 6 
#
# 1 178.6472 71.5094 37.3398 0.0000 -35.6386 0.0000
# 2 71.5094 178.7680 12.7797 0.0000 -13.8258 0.0000
# 3 37.3398 12.7797 76.7142 0.0000 -32.1623 0.0000
# 4 0.0000 0.0000 0.0000 14.1662 0.0000 -7.7756
# 5 -35.6386 -13.8258 -32.1623 0.0000 34.9865 0.0000
# 6 0.0000 0.0000 0.0000 -7.7756 0.0000 0.4627
#
#
#
# Elastic Compliance Matrix: (Units=1/GPa)
#
#
# Indices 1 2 3 4 5 6 
#
# 1 0.008138 -0.002696 -0.000786 0.000000 0.006502 0.000000
# 2 -0.002696 0.006664 0.000252 0.000000 0.000118 0.000000
# 3 -0.000786 0.000252 0.021286 0.000000 0.018866 0.000000
# 4 0.000000 0.000000 0.000000 -0.008584 0.000000 -0.144246
# 5 0.006502 0.000118 0.018866 0.000000 0.052595 0.000000
# 6 0.000000 0.000000 0.000000 -0.144246 0.000000 -0.262800
#
#
# Mechanical properties :
#
#
# Convention : Reuss Voigt Hill
#
# Bulk Modulus (GPa) = 33.75382 75.26526 54.50954
# Shear Modulus (GPa) = -30.05468 30.75645 0.35088
#
# Velocity S-wave (km/s) = -3.70633 3.74935 0.40047
# Velocity P-wave (km/s) = 1.69948 7.29002 5.01279
#
# Compressibility (1/GPa) = 0.02962627
#
# Stress axis : x y z
#
# Youngs Moduli (GPa) = 122.87587 150.06993 46.97976
#
# Poissons Ratio (x) = 0.40464 0.03694
# Poissons Ratio (y) = 0.33132 -0.01184
# Poissons Ratio (z) = 0.09661 -0.03781
#
# Static dielectric constant tensor:
#      x y z
#    x 1.768840 0.000000 0.036910 
#    y 0.000000 1.893380 0.000000 
#    z 0.036910 0.000000 1.866990 
# 
# From -- ./inp_files/4746.got.cif
#   From: 2010.05.17/outbox.cif.g08.bks.cpg/sg10_3_cif.got.tgz:4746.got - 2010.06.03 11:33:40.
