data_PCOD9151106
_publ_section_title
;
Structure prediction by ZEFSAII (Michael W. Deem and Ramdas Pophale) SiO2 
 PCOD9151106
Probable space group: P 2/M
;
_chemical_formula_sum "Si O2"
_cell_formula_units_Z 28
_cell_length_a 11.509808
_cell_length_b 9.291998
_cell_length_c 16.661408
_cell_angle_alpha 90.000000
_cell_angle_beta 126.507567
_cell_angle_gamma 90.000000
_cell_volume 1432.270876
_symmetry_space_group_name_H-M "P 2/M"
_symmetry_group_IT_number 10
_symmetry_cell_setting 'monoclinic'
loop_
_space_group_symop_operation_xyz
x,y,z
-x,y,-z
-x,-y,-z
x,-y,z
loop_
_atom_site_type_symbol
_atom_site_label
_atom_site_fract_x
_atom_site_fract_y
_atom_site_fract_z
Si Si1 0.690205 0.169344 0.376459
Si Si2 0.909698 0.334309 0.571872
Si Si3 0.138871 0.332523 0.263555
Si Si4 0.473206 0.663770 0.393703
Si Si5 0.069955 0.173132 0.943443
Si Si6 0.670922 0.173067 0.059116
Si Si7 0.754525 0.666070 0.251725
O O1 0.834632 0.229447 0.478640
O O2 0.564569 0.219810 0.384247
O O3 0.665821 0.247391 0.281676
O O4 0.697441 0.000000 0.368619
O O5 0.867481 0.500000 0.535801
O O6 0.859738 0.297608 0.641415
O O7 0.081626 0.330267 0.648573
O O8 0.092032 0.500000 0.238365
O O9 0.304554 0.321540 0.304882
O O10 0.033624 0.235532 0.168241
O O11 0.500000 0.677153 0.500000
O O12 0.518590 0.500000 0.390609
O O13 0.235448 0.210301 0.983011
O O14 0.063427 0.000000 0.941413
O O15 0.000000 0.222667 0.000000
O O16 0.746749 0.255107 0.163652
O O17 0.682228 0.000000 0.073154
O O18 0.500000 0.208651 0.000000
O O19 0.710010 0.500000 0.226227
#
# Coordination Sequence:
#
# PCOD9151106 Si02
#       7
#     4   4   4   4   4   4   4
#     4  12  25  37  56  89 127 162 204 250 298 360
#     4  10  20  38  61  86 118 158 202 246 298 355
#     4  10  20  37  63  90 115 153 201 247 296 352
#     4  10  20  38  60  82 118 161 200 244 297 356
#     4  10  22  40  62  89 122 159 200 250 311 374
#     4  10  22  41  64  90 124 163 203 254 316 372
#     4  11  23  40  63  88 119 159 206 253 303 361
#
# _framework density 19.549375000000001
#
# number of rings (size 3 to 8) (size 9 to 14) (size 15 to 20)
#    0.000    1.571    2.857    2.143    0.000    6.000 
#    0.000    1.429    0.000    0.000    0.000    0.000 
#    0.000    0.000    0.000    0.000    0.000    0.000 
#
# Total GULP energy -156270.493564 kJ/mol
# GULP energy per Si atom -5581.089056 kJ/mol
# Density = 1.950488 g / cm^3
# Si number density = 19.549375 Si / 1000 Ang^3
#
#
#
# Elastic Constant Matrix: (Units=GPa)
#
#
# Indices 1 2 3 4 5 6 
#
# 1 108.1852 37.1298 44.1780 0.0000 -8.1200 0.0000
# 2 37.1298 46.6707 24.8094 0.0000 -11.0185 0.0000
# 3 44.1780 24.8094 40.7110 0.0000 -14.4808 0.0000
# 4 0.0000 0.0000 0.0000 30.1694 0.0000 -3.6152
# 5 -8.1200 -11.0185 -14.4808 0.0000 31.4567 0.0000
# 6 0.0000 0.0000 0.0000 -3.6152 0.0000 28.0669
#
#
#
# Elastic Compliance Matrix: (Units=1/GPa)
#
#
# Indices 1 2 3 4 5 6 
#
# 1 0.018414 -0.006364 -0.018184 0.000000 -0.005847 0.000000
# 2 -0.006364 0.034078 -0.012197 0.000000 0.004679 0.000000
# 3 -0.018184 -0.012197 0.058044 0.000000 0.017754 0.000000
# 4 0.000000 0.000000 0.000000 0.033666 0.000000 0.004336
# 5 -0.005847 0.004679 0.017754 0.000000 0.040092 0.000000
# 6 0.000000 0.000000 0.000000 0.004336 0.000000 0.036188
#
#
# Mechanical properties :
#
#
# Convention : Reuss Voigt Hill
#
# Bulk Modulus (GPa) = 26.99316 45.31125 36.15220
# Shear Modulus (GPa) = 16.32280 23.90192 20.11236
#
# Velocity S-wave (km/s) = 2.89269 3.50043 3.21097
# Velocity P-wave (km/s) = 4.99945 6.29011 5.68155
#
# Compressibility (1/GPa) = 0.03704643
#
# Stress axis : x y z
#
# Youngs Moduli (GPa) = 54.30612 29.34431 17.22843
#
# Poissons Ratio (x) = 0.18674 0.31328
# Poissons Ratio (y) = 0.34560 0.21014
# Poissons Ratio (z) = 0.98749 0.35792
#
# Static dielectric constant tensor:
#      x y z
#    x 1.766620 0.000000 -0.005370 
#    y 0.000000 1.653110 0.000000 
#    z -0.005370 0.000000 1.657710 
# 
# From -- ./inp_files/63922.got.cif
#   From: 2010.05.17/outbox.cif.g08.bks.cpg/sg10_32_cif.got.tgz:63922.got - 2010.06.03 11:33:40.
