data_PCOD9151648
_publ_section_title
;
Structure prediction by ZEFSAII (Michael W. Deem and Ramdas Pophale) SiO2 
 PCOD9151648
Probable space group: P 2/M
;
_chemical_formula_sum "Si O2"
_cell_formula_units_Z 20
_cell_length_a 5.221054
_cell_length_b 14.461080
_cell_length_c 16.440735
_cell_angle_alpha 90.000000
_cell_angle_beta 59.775898
_cell_angle_gamma 90.000000
_cell_volume 1072.569924
_symmetry_space_group_name_H-M "P 2/M"
_symmetry_group_IT_number 10
_symmetry_cell_setting 'monoclinic'
loop_
_space_group_symop_operation_xyz
x,y,z
-x,y,-z
-x,-y,-z
x,-y,z
loop_
_atom_site_type_symbol
_atom_site_label
_atom_site_fract_x
_atom_site_fract_y
_atom_site_fract_z
Si Si1 0.661926 0.836825 0.390302
Si Si2 0.155964 0.393519 0.062763
Si Si3 0.151901 0.108762 0.059343
Si Si4 0.324849 0.101029 0.291787
Si Si5 0.210741 0.757674 0.784885
O O1 0.500000 0.817271 0.500000
O O2 0.458662 0.896433 0.361747
O O3 0.730506 0.749362 0.320450
O O4 0.976114 0.885098 0.353266
O O5 0.169367 0.500000 0.089766
O O6 0.942120 0.330615 0.151816
O O7 0.500000 0.360805 0.000000
O O8 0.000000 0.392530 0.000000
O O9 0.018768 0.159946 0.158033
O O10 0.092106 0.000000 0.074914
O O11 0.500000 0.123132 0.000000
O O12 0.000000 0.143769 0.000000
O O13 0.489654 0.192148 0.228173
O O14 0.393194 0.000000 0.242881
#
# Coordination Sequence:
#
# PCOD9151648 Si02
#       5
#     4   4   4   4   4
#     4  10  23  37  54  80 110 151 190 233 274 324
#     4  10  22  39  62  89 114 141 182 230 279 338
#     4  10  21  33  47  71 104 141 177 212 256 319
#     4  10  22  35  53  79 111 150 191 230 271 320
#     4  10  23  35  58  79 111 146 182 228 279 325
#
# _framework density 18.646801
#
# number of rings (size 3 to 8) (size 9 to 14) (size 15 to 20)
#    1.200    0.800    0.000    3.000    5.600    2.400 
#    0.000    0.000    0.000    0.600    0.000    1.400 
#    0.000    0.000    0.000    0.000    0.000    0.000 
#
# Total GULP energy -111371.489667 kJ/mol
# GULP energy per Si atom -5568.574483 kJ/mol
# Density = 1.860436 g / cm^3
# Si number density = 18.646801 Si / 1000 Ang^3
#
#
#
# Elastic Constant Matrix: (Units=GPa)
#
#
# Indices 1 2 3 4 5 6 
#
# 1 114.0613 17.2263 31.5586 0.0000 -15.8756 0.0000
# 2 17.2263 83.2114 41.5761 0.0000 -5.4172 0.0000
# 3 31.5586 41.5761 106.6899 0.0000 -8.9503 0.0000
# 4 0.0000 0.0000 0.0000 4.9870 0.0000 -5.0442
# 5 -15.8756 -5.4172 -8.9503 0.0000 20.5961 0.0000
# 6 0.0000 0.0000 0.0000 -5.0442 0.0000 0.7753
#
#
#
# Elastic Compliance Matrix: (Units=1/GPa)
#
#
# Indices 1 2 3 4 5 6 
#
# 1 0.010448 -0.000569 -0.002289 0.000000 0.006909 0.000000
# 2 -0.000569 0.014996 -0.005585 0.000000 0.001078 0.000000
# 3 -0.002289 -0.005585 0.012408 0.000000 0.002158 0.000000
# 4 0.000000 0.000000 0.000000 -0.035929 0.000000 -0.233767
# 5 0.006909 0.001078 0.002158 0.000000 0.055100 0.000000
# 6 0.000000 0.000000 0.000000 -0.233767 0.000000 -0.231113
#
#
# Mechanical properties :
#
#
# Convention : Reuss Voigt Hill
#
# Bulk Modulus (GPa) = 47.69864 53.85384 50.77624
# Shear Modulus (GPa) = -33.28577 19.51178 -6.88700
#
# Velocity S-wave (km/s) = -4.22959 3.23830 -1.92391
# Velocity P-wave (km/s) = 1.33531 6.55178 4.72805
#
# Compressibility (1/GPa) = 0.02096496
#
# Stress axis : x y z
#
# Youngs Moduli (GPa) = 95.71037 66.68368 80.59625
#
# Poissons Ratio (x) = 0.03798 0.18449
# Poissons Ratio (y) = 0.05451 0.45013
# Poissons Ratio (z) = 0.21908 0.37243
#
# Static dielectric constant tensor:
#      x y z
#    x 1.707540 0.000000 0.010960 
#    y 0.000000 1.663380 0.000000 
#    z 0.010960 0.000000 1.697530 
# 
# From -- ./inp_files/73328.got.cif
#   From: 2010.05.17/outbox.cif.g08.bks.cpg/sg10_37_cif.got.tgz:73328.got - 2010.06.03 11:33:40.
