data_PCOD9151054
_publ_section_title
;
Structure prediction by ZEFSAII (Michael W. Deem and Ramdas Pophale) SiO2 
 PCOD9151054
Probable space group: P 2/M
;
_chemical_formula_sum "Si O2"
_cell_formula_units_Z 28
_cell_length_a 18.907823
_cell_length_b 9.042740
_cell_length_c 14.087874
_cell_angle_alpha 90.000000
_cell_angle_beta 31.094579
_cell_angle_gamma 90.000000
_cell_volume 1243.991052
_symmetry_space_group_name_H-M "P 2/M"
_symmetry_group_IT_number 10
_symmetry_cell_setting 'monoclinic'
loop_
_space_group_symop_operation_xyz
x,y,z
-x,y,-z
-x,-y,-z
x,-y,z
loop_
_atom_site_type_symbol
_atom_site_label
_atom_site_fract_x
_atom_site_fract_y
_atom_site_fract_z
Si Si1 0.812020 0.670355 0.578319
Si Si2 0.086697 0.823899 0.249803
Si Si3 0.780009 0.329244 0.387176
Si Si4 0.916155 0.322243 0.955539
Si Si5 0.338817 0.674919 0.068520
Si Si6 0.643516 0.825758 0.291337
Si Si7 0.489734 0.828873 0.278489
O O1 0.856071 0.500000 0.547351
O O2 0.785487 0.677973 0.496583
O O3 0.682446 0.699488 0.794817
O O4 0.935897 0.779969 0.460051
O O5 0.089003 0.754002 0.141785
O O6 0.204209 0.746919 0.175936
O O7 0.105324 0.000000 0.225329
O O8 0.756629 0.500000 0.386726
O O9 0.649553 0.230544 0.514602
O O10 0.932527 0.285236 0.178818
O O11 0.912063 0.500000 0.951893
O O12 0.778632 0.264031 0.162948
O O13 0.341026 0.500000 0.049050
O O14 0.465793 0.743545 0.866731
O O15 0.500000 0.774044 0.500000
O O16 0.611204 0.813793 0.215908
O O17 0.661268 0.000000 0.293554
O O18 0.471936 0.000000 0.277115
#
# Coordination Sequence:
#
# PCOD9151054 Si02
#       7
#     4   4   4   4   4   4   4
#     4   9  20  36  53  77 110 155 203 239 279 335
#     4  11  20  31  51  81 116 151 191 241 291 338
#     4   9  20  39  59  81 115 156 197 236 280 339
#     4  10  20  37  62  88 114 152 196 235 282 343
#     4  11  21  34  54  78 112 154 196 243 288 333
#     4  10  22  41  64  90 119 148 183 234 293 351
#     4  11  23  38  58  86 116 150 192 237 291 350
#
# _framework density 22.508201
#
# number of rings (size 3 to 8) (size 9 to 14) (size 15 to 20)
#    0.000    1.857    1.429    3.857    0.000    7.143 
#    0.000    3.571    0.000    4.286    0.000    0.000 
#    0.000    0.000    0.000    0.000    0.000    0.000 
#
# Total GULP energy -156541.592218 kJ/mol
# GULP energy per Si atom -5590.771151 kJ/mol
# Density = 2.245697 g / cm^3
# Si number density = 22.508201 Si / 1000 Ang^3
#
#
#
# Elastic Constant Matrix: (Units=GPa)
#
#
# Indices 1 2 3 4 5 6 
#
# 1 62.5460 38.1456 29.8718 0.0000 -13.8856 0.0000
# 2 38.1456 91.9389 64.6779 0.0000 -20.7087 0.0000
# 3 29.8718 64.6779 174.5197 0.0000 -15.9999 0.0000
# 4 0.0000 0.0000 0.0000 22.6225 0.0000 4.1167
# 5 -13.8856 -20.7087 -15.9999 0.0000 39.6795 0.0000
# 6 0.0000 0.0000 0.0000 4.1167 0.0000 6.7450
#
#
#
# Elastic Compliance Matrix: (Units=1/GPa)
#
#
# Indices 1 2 3 4 5 6 
#
# 1 0.021807 -0.007974 -0.000477 0.000000 0.003277 0.000000
# 2 -0.007974 0.018979 -0.005209 0.000000 0.005014 0.000000
# 3 -0.000477 -0.005209 0.007765 0.000000 0.000245 0.000000
# 4 0.000000 0.000000 0.000000 0.049727 0.000000 -0.030350
# 5 0.003277 0.005014 0.000245 0.000000 0.029065 0.000000
# 6 0.000000 0.000000 0.000000 -0.030350 0.000000 0.166783
#
#
# Mechanical properties :
#
#
# Convention : Reuss Voigt Hill
#
# Bulk Modulus (GPa) = 47.10210 66.04394 56.57302
# Shear Modulus (GPa) = 15.21966 26.89667 21.05817
#
# Velocity S-wave (km/s) = 2.60317 3.46059 3.06204
# Velocity P-wave (km/s) = 5.47790 6.73598 6.13925
#
# Compressibility (1/GPa) = 0.02123048
#
# Stress axis : x y z
#
# Youngs Moduli (GPa) = 45.85735 52.68898 128.78781
#
# Poissons Ratio (x) = 0.42014 0.06142
# Poissons Ratio (y) = 0.36567 0.67089
# Poissons Ratio (z) = 0.02187 0.27447
#
# Static dielectric constant tensor:
#      x y z
#    x 1.860570 0.000000 0.046040 
#    y 0.000000 1.747460 0.000000 
#    z 0.046040 0.000000 1.896210 
# 
# From -- ./inp_files/70172.got.cif
#   From: 2010.05.17/outbox.cif.g08.bks.cpg/sg10_36_cif.got.tgz:70172.got - 2010.06.03 11:33:40.
