data_PCOD9151128
_publ_section_title
;
Structure prediction by ZEFSAII (Michael W. Deem and Ramdas Pophale) SiO2 
 PCOD9151128
Probable space group: P 2/M
;
_chemical_formula_sum "Si O2"
_cell_formula_units_Z 28
_cell_length_a 7.376771
_cell_length_b 13.739521
_cell_length_c 17.605620
_cell_angle_alpha 90.000000
_cell_angle_beta 125.364704
_cell_angle_gamma 90.000000
_cell_volume 1455.140494
_symmetry_space_group_name_H-M "P 2/M"
_symmetry_group_IT_number 10
_symmetry_cell_setting 'monoclinic'
loop_
_space_group_symop_operation_xyz
x,y,z
-x,y,-z
-x,-y,-z
x,-y,z
loop_
_atom_site_type_symbol
_atom_site_label
_atom_site_fract_x
_atom_site_fract_y
_atom_site_fract_z
Si Si1 0.703136 0.749793 0.606129
Si Si2 0.016535 0.615089 0.228280
Si Si3 0.256213 0.114277 0.081137
Si Si4 0.442476 0.885587 0.289735
Si Si5 0.443273 0.280453 0.900343
Si Si6 0.042419 0.112039 0.600484
Si Si7 0.196070 0.386395 0.102764
O O1 0.500000 0.730687 0.500000
O O2 0.816154 0.652981 0.666907
O O3 0.618179 0.815443 0.656030
O O4 0.887234 0.813759 0.607038
O O5 0.953786 0.500000 0.221516
O O6 0.132702 0.625552 0.174483
O O7 0.810299 0.690463 0.175803
O O8 0.290616 0.131233 0.179385
O O9 0.446605 0.173889 0.082640
O O10 0.287626 0.000000 0.074169
O O11 0.000000 0.138286 0.000000
O O12 0.696394 0.869318 0.324821
O O13 0.426343 0.000000 0.308477
O O14 0.580522 0.337081 0.869649
O O15 0.500000 0.313993 0.000000
O O16 0.000000 0.119412 0.500000
O O17 0.993558 0.000000 0.611308
O O18 0.219866 0.500000 0.093064
O O19 0.000000 0.350271 0.000000
#
# Coordination Sequence:
#
# PCOD9151128 Si02
#       7
#     4   4   4   4   4   4   4
#     4  12  24  39  64  90 120 165 211 257 314 377
#     4  11  26  44  63  92 124 161 211 266 321 376
#     4  10  23  42  62  91 136 177 207 245 298 373
#     4  10  21  39  63  91 126 164 207 254 302 360
#     4  12  23  37  67  95 124 166 210 253 308 372
#     4  10  20  37  63  96 127 156 199 260 313 361
#     4  10  20  38  63  91 123 153 197 261 318 362
#
# _framework density 19.24213
#
# number of rings (size 3 to 8) (size 9 to 14) (size 15 to 20)
#    0.000    1.286    2.857    3.000    2.000    1.714 
#    0.000    0.714    0.000    0.429    0.000    0.000 
#    0.000    0.000    0.000    0.000    0.000    0.000 
#
# Total GULP energy -156373.356869 kJ/mol
# GULP energy per Si atom -5584.762745 kJ/mol
# Density = 1.919833 g / cm^3
# Si number density = 19.242130 Si / 1000 Ang^3
#
#
#
# Elastic Constant Matrix: (Units=GPa)
#
#
# Indices 1 2 3 4 5 6 
#
# 1 57.2377 45.9259 24.9895 0.0000 2.3567 0.0000
# 2 45.9259 102.3728 39.0313 0.0000 1.7678 0.0000
# 3 24.9895 39.0313 135.5604 0.0000 19.0791 0.0000
# 4 0.0000 0.0000 0.0000 26.0512 0.0000 -0.6074
# 5 2.3567 1.7678 19.0791 0.0000 20.2132 0.0000
# 6 0.0000 0.0000 0.0000 -0.6074 0.0000 27.2298
#
#
#
# Elastic Compliance Matrix: (Units=1/GPa)
#
#
# Indices 1 2 3 4 5 6 
#
# 1 0.027654 -0.011780 -0.001611 0.000000 -0.000673 0.000000
# 2 -0.011780 0.016087 -0.002832 0.000000 0.002639 0.000000
# 3 -0.001611 -0.002832 0.009719 0.000000 -0.008738 0.000000
# 4 0.000000 0.000000 0.000000 0.038406 0.000000 0.000857
# 5 -0.000673 0.002639 -0.008738 0.000000 0.057568 0.000000
# 6 0.000000 0.000000 0.000000 0.000857 0.000000 0.036744
#
#
# Mechanical properties :
#
#
# Convention : Reuss Voigt Hill
#
# Bulk Modulus (GPa) = 47.58768 57.22937 52.40852
# Shear Modulus (GPa) = 22.16028 27.04712 24.60370
#
# Velocity S-wave (km/s) = 3.39728 3.75323 3.57968
# Velocity P-wave (km/s) = 6.33825 6.97055 6.66190
#
# Compressibility (1/GPa) = 0.02101384
#
# Stress axis : x y z
#
# Youngs Moduli (GPa) = 36.16083 62.16183 102.89142
#
# Poissons Ratio (x) = 0.73227 0.16579
# Poissons Ratio (y) = 0.42598 0.29137
# Poissons Ratio (z) = 0.05827 0.17603
#
# Static dielectric constant tensor:
#      x y z
#    x 1.581520 0.000000 -0.044160 
#    y 0.000000 1.710810 0.000000 
#    z -0.044160 0.000000 1.625960 
# 
# From -- ./inp_files/73569.got.cif
#   From: 2010.05.17/outbox.cif.g08.bks.cpg/sg10_37_cif.got.tgz:73569.got - 2010.06.03 11:33:40.
