data_PCOD9151471
_publ_section_title
;
Structure prediction by ZEFSAII (Michael W. Deem and Ramdas Pophale) SiO2 
 PCOD9151471
Probable space group: P 2/M
;
_chemical_formula_sum "Si O2"
_cell_formula_units_Z 28
_cell_length_a 9.690582
_cell_length_b 9.238931
_cell_length_c 26.813387
_cell_angle_alpha 90.000000
_cell_angle_beta 142.156793
_cell_angle_gamma 90.000000
_cell_volume 1472.786405
_symmetry_space_group_name_H-M "P 2/M"
_symmetry_group_IT_number 10
_symmetry_cell_setting 'monoclinic'
loop_
_space_group_symop_operation_xyz
x,y,z
-x,y,-z
-x,-y,-z
x,-y,z
loop_
_atom_site_type_symbol
_atom_site_label
_atom_site_fract_x
_atom_site_fract_y
_atom_site_fract_z
Si Si1 0.573053 0.671811 0.180009
Si Si2 0.764489 0.327869 0.073127
Si Si3 0.812700 0.170975 0.988262
Si Si4 0.112060 0.664065 0.476812
Si Si5 0.629745 0.325990 0.308065
Si Si6 0.982256 0.329065 0.750383
Si Si7 0.476523 0.172398 0.365577
O O1 0.532054 0.500000 0.161063
O O2 0.414586 0.759354 0.097921
O O3 0.529553 0.707681 0.225376
O O4 0.831817 0.696980 0.238923
O O5 0.774566 0.500000 0.066761
O O6 0.891363 0.299655 0.161027
O O7 0.500000 0.287872 0.000000
O O8 0.870821 0.244375 0.057210
O O9 0.787450 0.000000 0.987642
O O10 0.000000 0.198934 0.000000
O O11 0.184276 0.500000 0.485041
O O12 0.322774 0.769061 0.541808
O O13 0.000000 0.659788 0.500000
O O14 0.897830 0.706118 0.382511
O O15 0.609445 0.500000 0.311126
O O16 0.522908 0.241794 0.323955
O O17 0.921857 0.500000 0.732575
O O18 0.760995 0.233385 0.683718
O O19 0.480085 0.000000 0.363615
#
# Coordination Sequence:
#
# PCOD9151471 Si02
#       7
#     4   4   4   4   4   4   4
#     4  10  21  40  62  83 108 143 188 232 278 326
#     4  10  20  39  63  84 105 141 192 235 273 320
#     4  11  25  40  55  82 119 150 180 223 277 334
#     4   8  15  32  56  81 110 142 183 230 274 320
#     4   9  19  36  60  86 110 142 184 233 281 323
#     4  10  21  38  59  82 110 143 185 234 276 322
#     4  11  22  34  54  84 116 149 185 222 270 333
#
# _framework density 19.011583000000002
#
# number of rings (size 3 to 8) (size 9 to 14) (size 15 to 20)
#    0.000    2.143    1.429    2.571    2.000    5.714 
#    0.000    0.714    0.000    4.286    0.000    0.000 
#    0.000    0.000    0.000    0.000    0.000    0.000 
#
# Total GULP energy -156316.619721 kJ/mol
# GULP energy per Si atom -5582.736419 kJ/mol
# Density = 1.896831 g / cm^3
# Si number density = 19.011583 Si / 1000 Ang^3
#
#
#
# Elastic Constant Matrix: (Units=GPa)
#
#
# Indices 1 2 3 4 5 6 
#
# 1 33.7750 22.4471 -2.5114 0.0000 0.6985 0.0000
# 2 22.4471 36.1261 7.1212 0.0000 14.9950 0.0000
# 3 -2.5114 7.1212 22.8405 0.0000 10.0444 0.0000
# 4 0.0000 0.0000 0.0000 5.2859 0.0000 -0.0618
# 5 0.6985 14.9950 10.0444 0.0000 28.6025 0.0000
# 6 0.0000 0.0000 0.0000 -0.0618 0.0000 231.5786
#
#
#
# Elastic Compliance Matrix: (Units=1/GPa)
#
#
# Indices 1 2 3 4 5 6 
#
# 1 0.064160 -0.051046 0.014062 0.000000 0.020256 0.000000
# 2 -0.051046 0.076216 -0.014608 0.000000 -0.033580 0.000000
# 3 0.014062 -0.014608 0.055189 0.000000 -0.012066 0.000000
# 4 0.000000 0.000000 0.000000 0.189184 0.000000 0.000050
# 5 0.020256 -0.033580 -0.012066 0.000000 0.056309 0.000000
# 6 0.000000 0.000000 0.000000 0.000050 0.000000 0.004318
#
#
# Mechanical properties :
#
#
# Convention : Reuss Voigt Hill
#
# Bulk Modulus (GPa) = 10.82477 16.31725 13.57101
# Shear Modulus (GPa) = 8.63032 57.47236 33.05134
#
# Velocity S-wave (km/s) = 2.13292 5.50416 4.17404
# Velocity P-wave (km/s) = 3.43103 6.99970 5.51216
#
# Compressibility (1/GPa) = 0.09238073
#
# Stress axis : x y z
#
# Youngs Moduli (GPa) = 15.58611 13.12061 18.11970
#
# Poissons Ratio (x) = 0.66975 -0.25480
# Poissons Ratio (y) = 0.79560 0.26470
# Poissons Ratio (z) = -0.21917 0.19167
#
# Static dielectric constant tensor:
#      x y z
#    x 1.654270 0.000000 0.008090 
#    y 0.000000 1.628250 0.000000 
#    z 0.008090 0.000000 1.669910 
# 
# From -- ./inp_files/37007.got.cif
#   From: 2010.05.17/outbox.cif.g08.bks.cpg/sg10_19_cif.got.tgz:37007.got - 2010.06.03 11:33:40.
