data_PCOD9151863
_publ_section_title
;
Structure prediction by ZEFSAII (Michael W. Deem and Ramdas Pophale) SiO2 
 PCOD9151863
Probable space group: P 2/M
;
_chemical_formula_sum "Si O2"
_cell_formula_units_Z 24
_cell_length_a 11.253088
_cell_length_b 7.498470
_cell_length_c 16.938266
_cell_angle_alpha 90.000000
_cell_angle_beta 131.113560
_cell_angle_gamma 90.000000
_cell_volume 1076.820785
_symmetry_space_group_name_H-M "P 2/M"
_symmetry_group_IT_number 10
_symmetry_cell_setting 'monoclinic'
loop_
_space_group_symop_operation_xyz
x,y,z
-x,y,-z
-x,-y,-z
x,-y,z
loop_
_atom_site_type_symbol
_atom_site_label
_atom_site_fract_x
_atom_site_fract_y
_atom_site_fract_z
Si Si1 0.441559 0.784834 0.723537
Si Si2 0.874623 0.289079 0.506809
Si Si3 0.080517 0.711241 0.297504
Si Si4 0.549316 0.781511 0.934413
Si Si5 0.238871 0.785561 0.216992
Si Si6 0.899907 0.203329 0.072020
O O1 0.296568 0.730462 0.606165
O O2 0.435314 0.729169 0.812560
O O3 0.606900 0.720115 0.759029
O O4 0.445649 0.000000 0.724787
O O5 0.906293 0.500000 0.527762
O O6 0.894302 0.217856 0.603982
O O7 0.000000 0.212061 0.500000
O O8 0.050488 0.500000 0.286046
O O9 0.232073 0.742584 0.307206
O O10 0.940980 0.796678 0.184209
O O11 0.554628 0.000000 0.939163
O O12 0.500000 0.721639 0.000000
O O13 0.726247 0.719519 0.988630
O O14 0.065983 0.719005 0.112659
O O15 0.234723 0.000000 0.207506
O O16 0.889473 0.000000 0.038130
#
# Coordination Sequence:
#
# PCOD9151863 Si02
#       6
#     4   4   4   4   4   4
#     4  10  21  35  55  84 109 135 178 222 263 314
#     4  10  23  40  55  74 107 145 178 217 266 320
#     4   9  18  34  56  77 100 139 183 216 257 314
#     4   9  18  32  53  81 110 139 175 219 263 314
#     4   8  17  33  53  81 110 138 172 217 268 314
#     4   8  16  32  54  77 106 140 170 214 269 311
#
# _framework density 22.28783
#
# number of rings (size 3 to 8) (size 9 to 14) (size 15 to 20)
#    1.000    2.000    0.000    0.000    2.333    3.667 
#    0.000    7.500    0.000    2.000    0.000    0.000 
#    0.000    0.000    0.000    0.000    0.000    0.000 
#
# Total GULP energy -133697.218290 kJ/mol
# GULP energy per Si atom -5570.717429 kJ/mol
# Density = 2.223710 g / cm^3
# Si number density = 22.287830 Si / 1000 Ang^3
#
#
#
# Elastic Constant Matrix: (Units=GPa)
#
#
# Indices 1 2 3 4 5 6 
#
# 1 75.3404 -0.9916 32.0080 0.0000 -9.7029 0.0000
# 2 -0.9916 67.7241 -5.3824 0.0000 -4.9669 0.0000
# 3 32.0080 -5.3824 122.5243 0.0000 -24.1539 0.0000
# 4 0.0000 0.0000 0.0000 44.1266 0.0000 -4.7894
# 5 -9.7029 -4.9669 -24.1539 0.0000 40.4256 0.0000
# 6 0.0000 0.0000 0.0000 -4.7894 0.0000 11.1231
#
#
#
# Elastic Compliance Matrix: (Units=1/GPa)
#
#
# Indices 1 2 3 4 5 6 
#
# 1 0.015003 0.000036 -0.003635 0.000000 0.001433 0.000000
# 2 0.000036 0.015045 0.001153 0.000000 0.002546 0.000000
# 3 -0.003635 0.001153 0.010222 0.000000 0.005377 0.000000
# 4 0.000000 0.000000 0.000000 0.023773 0.000000 0.010236
# 5 0.001433 0.002546 0.005377 0.000000 0.028606 0.000000
# 6 0.000000 0.000000 0.000000 0.010236 0.000000 0.094310
#
#
# Mechanical properties :
#
#
# Convention : Reuss Voigt Hill
#
# Bulk Modulus (GPa) = 28.26635 35.20629 31.73632
# Shear Modulus (GPa) = 24.55278 35.13205 29.84242
#
# Velocity S-wave (km/s) = 3.32267 3.97456 3.66314
# Velocity P-wave (km/s) = 5.23738 6.07399 5.67113
#
# Compressibility (1/GPa) = 0.03537776
#
# Stress axis : x y z
#
# Youngs Moduli (GPa) = 66.65552 66.46837 97.82938
#
# Poissons Ratio (x) = -0.00239 0.35562
# Poissons Ratio (y) = -0.00239 -0.11285
# Poissons Ratio (z) = 0.24230 -0.07667
#
# Static dielectric constant tensor:
#      x y z
#    x 1.851650 0.000000 -0.037720 
#    y 0.000000 1.905210 0.000000 
#    z -0.037720 0.000000 1.816150 
# 
# From -- ./inp_files/76051.got.cif
#   From: 2010.05.17/outbox.cif.g08.bks.cpg/sg10_39_cif.got.tgz:76051.got - 2010.06.03 11:33:40.
