data_PCOD9151408
_publ_section_title
;
Structure prediction by ZEFSAII (Michael W. Deem and Ramdas Pophale) SiO2 
 PCOD9151408
Probable space group: P 2/M
;
_chemical_formula_sum "Si O2"
_cell_formula_units_Z 28
_cell_length_a 5.260148
_cell_length_b 11.705441
_cell_length_c 24.713362
_cell_angle_alpha 90.000000
_cell_angle_beta 66.347659
_cell_angle_gamma 90.000000
_cell_volume 1393.835256
_symmetry_space_group_name_H-M "P 2/M"
_symmetry_group_IT_number 10
_symmetry_cell_setting 'monoclinic'
loop_
_space_group_symop_operation_xyz
x,y,z
-x,y,-z
-x,-y,-z
x,-y,z
loop_
_atom_site_type_symbol
_atom_site_label
_atom_site_fract_x
_atom_site_fract_y
_atom_site_fract_z
Si Si1 0.076847 0.131985 0.282095
Si Si2 0.524160 0.136132 0.853533
Si Si3 0.231218 0.301983 0.356701
Si Si4 0.329121 0.367029 0.461671
Si Si5 0.777879 0.329649 0.259810
Si Si6 0.825646 0.500000 0.959862
Si Si7 0.975308 0.500000 0.333419
Si Si8 0.988845 0.281535 0.874480
O O1 0.335100 0.147844 0.218269
O O2 0.139243 0.188618 0.334424
O O3 0.827766 0.199318 0.274107
O O4 0.016416 0.000000 0.291623
O O5 0.228410 0.199397 0.877973
O O6 0.505806 0.000000 0.866461
O O7 0.267239 0.202897 0.123994
O O8 0.370087 0.294233 0.403473
O O9 0.461928 0.361710 0.298135
O O10 0.996270 0.398139 0.377480
O O11 0.500000 0.331451 0.500000
O O12 0.402611 0.500000 0.442333
O O13 0.000000 0.360886 0.500000
O O14 0.949226 0.402426 0.287843
O O15 0.879459 0.339564 0.190481
O O16 0.899391 0.384496 0.920778
O O17 0.500000 0.500000 0.000000
O O18 0.000000 0.500000 0.000000
#
# Coordination Sequence:
#
# PCOD9151408 Si02
#       8
#     4   4   4   4   4   2   2   4
#     4   9  20  35  55  86 125 158 194 241 312 381
#     4  10  20  38  66  99 131 163 204 262 324 378
#     4  11  20  35  57  83 119 153 195 249 306 367
#     4  10  23  37  56  79 112 157 202 246 303 364
#     4  10  21  34  56  91 119 155 191 246 313 359
#     4  12  27  47  68  92 130 187 220 255 298 373
#     4  10  21  31  50  81 120 144 184 234 306 362
#     4  11  22  42  64  95 129 168 212 255 311 373
#
# _framework density 20.088456999999998
#
# number of rings (size 3 to 8) (size 9 to 14) (size 15 to 20)
#    0.000    1.714    2.143    2.143    4.000    1.143 
#    2.571    0.000    0.000    9.429    0.000    0.000 
#    0.000    0.000    0.000    0.000    0.000    0.000 
#
# Total GULP energy -155893.939748 kJ/mol
# GULP energy per Si atom -5567.640705 kJ/mol
# Density = 2.004273 g / cm^3
# Si number density = 20.088457 Si / 1000 Ang^3
#
#
#
# Elastic Constant Matrix: (Units=GPa)
#
#
# Indices 1 2 3 4 5 6 
#
# 1 129.3717 39.4371 34.9350 0.0000 12.6711 0.0000
# 2 39.4371 131.0331 33.6883 0.0000 12.0817 0.0000
# 3 34.9350 33.6883 59.0433 0.0000 17.3975 0.0000
# 4 0.0000 0.0000 0.0000 15.5037 0.0000 -13.6767
# 5 12.6711 12.0817 17.3975 0.0000 31.4308 0.0000
# 6 0.0000 0.0000 0.0000 -13.6767 0.0000 0.3474
#
#
#
# Elastic Compliance Matrix: (Units=1/GPa)
#
#
# Indices 1 2 3 4 5 6 
#
# 1 0.009511 -0.001645 -0.004475 0.000000 -0.000725 0.000000
# 2 -0.001645 0.009242 -0.004121 0.000000 -0.000609 0.000000
# 3 -0.004475 -0.004121 0.025018 0.000000 -0.010460 0.000000
# 4 0.000000 0.000000 0.000000 -0.001913 0.000000 -0.075285
# 5 -0.000725 -0.000609 -0.010460 0.000000 0.038132 0.000000
# 6 0.000000 0.000000 0.000000 -0.075285 0.000000 -0.085342
#
#
# Mechanical properties :
#
#
# Convention : Reuss Voigt Hill
#
# Bulk Modulus (GPa) = 42.93889 59.50766 51.22328
# Shear Modulus (GPa) = 218.41460 23.54891 120.98175
#
# Velocity S-wave (km/s) = 10.43851 3.42754 7.76886
# Velocity P-wave (km/s) = 12.91141 6.73433 10.29698
#
# Compressibility (1/GPa) = 0.02328891
#
# Stress axis : x y z
#
# Youngs Moduli (GPa) = 105.14638 108.19806 39.97166
#
# Poissons Ratio (x) = 0.17799 0.17888
# Poissons Ratio (y) = 0.17297 0.16471
# Poissons Ratio (z) = 0.47054 0.44585
#
# Static dielectric constant tensor:
#      x y z
#    x 1.899960 0.000000 -0.057160 
#    y 0.000000 1.704360 0.000000 
#    z -0.057160 0.000000 1.744020 
# 
# From -- ./inp_files/81190.got.cif
#   From: 2010.05.17/outbox.cif.g08.bks.cpg/sg10_41_cif.got.tgz:81190.got - 2010.06.03 11:33:40.
