data_PCOD9151117
_publ_section_title
;
Structure prediction by ZEFSAII (Michael W. Deem and Ramdas Pophale) SiO2 
 PCOD9151117
Probable space group: P 2/M
;
_chemical_formula_sum "Si O2"
_cell_formula_units_Z 28
_cell_length_a 17.204687
_cell_length_b 8.741917
_cell_length_c 13.984863
_cell_angle_alpha 90.000000
_cell_angle_beta 138.474838
_cell_angle_gamma 90.000000
_cell_volume 1394.413961
_symmetry_space_group_name_H-M "P 2/M"
_symmetry_group_IT_number 10
_symmetry_cell_setting 'monoclinic'
loop_
_space_group_symop_operation_xyz
x,y,z
-x,y,-z
-x,-y,-z
x,-y,z
loop_
_atom_site_type_symbol
_atom_site_label
_atom_site_fract_x
_atom_site_fract_y
_atom_site_fract_z
Si Si1 0.976272 0.317089 0.087946
Si Si2 0.467674 0.816509 0.179444
Si Si3 0.200520 0.182418 0.396176
Si Si4 0.571413 0.316729 0.470079
Si Si5 0.305593 0.683093 0.688261
Si Si6 0.198410 0.818006 0.936129
Si Si7 0.114051 0.683627 0.666853
O O1 0.982821 0.500000 0.101044
O O2 0.853005 0.260330 0.016565
O O3 0.076763 0.243050 0.245854
O O4 0.000000 0.273101 0.000000
O O5 0.504935 0.749597 0.316634
O O6 0.563590 0.750361 0.194577
O O7 0.477863 0.000000 0.190345
O O8 0.332898 0.774033 0.038557
O O9 0.300395 0.241756 0.415247
O O10 0.237914 0.251392 0.533087
O O11 0.201771 0.000000 0.402924
O O12 0.500000 0.282041 0.500000
O O13 0.582780 0.500000 0.471378
O O14 0.310960 0.500000 0.684439
O O15 0.229082 0.721494 0.710461
O O16 0.121892 0.765072 0.775388
O O17 0.192789 0.000000 0.942197
O O18 0.110133 0.500000 0.677964
O O19 0.000000 0.725994 0.500000
#
# Coordination Sequence:
#
# PCOD9151117 Si02
#       7
#     4   4   4   4   4   4   4
#     4  11  25  43  63  86 117 159 203 249 304 363
#     4  10  22  39  58  86 124 162 201 248 308 364
#     4  11  22  37  60  88 120 155 195 247 304 360
#     4  10  21  36  58  86 116 155 205 251 296 355
#     4  10  20  37  63  92 122 160 207 251 298 358
#     4  11  25  42  62  91 124 160 202 252 308 367
#     4  10  22  40  64  92 122 160 204 253 305 361
#
# _framework density 20.080120000000001
#
# number of rings (size 3 to 8) (size 9 to 14) (size 15 to 20)
#    0.000    1.571    0.000    6.000    2.000    7.714 
#    0.000    2.857    0.000    0.000    0.000    0.000 
#    0.000    0.000    0.000    0.000    0.000    0.000 
#
# Total GULP energy -156574.506493 kJ/mol
# GULP energy per Si atom -5591.946660 kJ/mol
# Density = 2.003442 g / cm^3
# Si number density = 20.080120 Si / 1000 Ang^3
#
#
#
# Elastic Constant Matrix: (Units=GPa)
#
#
# Indices 1 2 3 4 5 6 
#
# 1 133.5663 48.5269 32.5820 0.0000 4.3724 0.0000
# 2 48.5269 64.7793 22.1266 0.0000 3.3466 0.0000
# 3 32.5820 22.1266 64.3433 0.0000 17.0727 0.0000
# 4 0.0000 0.0000 0.0000 5.7700 0.0000 27.0764
# 5 4.3724 3.3466 17.0727 0.0000 23.8804 0.0000
# 6 0.0000 0.0000 0.0000 27.0764 0.0000 13.8344
#
#
#
# Elastic Compliance Matrix: (Units=1/GPa)
#
#
# Indices 1 2 3 4 5 6 
#
# 1 0.010829 -0.007004 -0.003467 0.000000 0.001477 0.000000
# 2 -0.007004 0.022123 -0.004416 0.000000 0.001340 0.000000
# 3 -0.003467 -0.004416 0.022810 0.000000 -0.015054 0.000000
# 4 0.000000 0.000000 0.000000 -0.021176 0.000000 0.041445
# 5 0.001477 0.001340 -0.015054 0.000000 0.052179 0.000000
# 6 0.000000 0.000000 0.000000 0.041445 0.000000 -0.008832
#
#
# Mechanical properties :
#
#
# Convention : Reuss Voigt Hill
#
# Bulk Modulus (GPa) = 38.48031 52.12889 45.30460
# Shear Modulus (GPa) = 42.96555 19.32719 31.14637
#
# Velocity S-wave (km/s) = 4.63071 3.10579 3.94268
# Velocity P-wave (km/s) = 6.91349 6.23523 6.58310
#
# Compressibility (1/GPa) = 0.02598731
#
# Stress axis : x y z
#
# Youngs Moduli (GPa) = 92.34424 45.20113 43.83972
#
# Poissons Ratio (x) = 0.31660 0.15199
# Poissons Ratio (y) = 0.64680 0.19362
# Poissons Ratio (z) = 0.32015 0.19963
#
# Static dielectric constant tensor:
#      x y z
#    x 1.732200 0.000000 0.026640 
#    y 0.000000 1.668840 0.000000 
#    z 0.026640 0.000000 1.693190 
# 
# From -- ./inp_files/68695.got.cif
#   From: 2010.05.17/outbox.cif.g08.bks.cpg/sg10_35_cif.got.tgz:68695.got - 2010.06.03 11:33:40.
