data_PCOD9151289
_publ_section_title
;
Structure prediction by ZEFSAII (Michael W. Deem and Ramdas Pophale) SiO2 
 PCOD9151289
Probable space group: P 2/M
;
_chemical_formula_sum "Si O2"
_cell_formula_units_Z 28
_cell_length_a 9.194020
_cell_length_b 14.204304
_cell_length_c 11.637608
_cell_angle_alpha 90.000000
_cell_angle_beta 62.136692
_cell_angle_gamma 90.000000
_cell_volume 1343.610466
_symmetry_space_group_name_H-M "P 2/M"
_symmetry_group_IT_number 10
_symmetry_cell_setting 'monoclinic'
loop_
_space_group_symop_operation_xyz
x,y,z
-x,y,-z
-x,-y,-z
x,-y,z
loop_
_atom_site_type_symbol
_atom_site_label
_atom_site_fract_x
_atom_site_fract_y
_atom_site_fract_z
Si Si1 0.530606 0.612400 0.855501
Si Si2 0.197513 0.232487 0.611551
Si Si3 0.321624 0.892684 0.012716
Si Si4 0.395690 0.107463 0.393482
Si Si5 0.101269 0.103881 0.318701
Si Si6 0.681035 0.239242 0.189344
Si Si7 0.801389 0.609410 0.571209
O O1 0.513471 0.500000 0.858965
O O2 0.393287 0.664339 0.830993
O O3 0.704962 0.634431 0.725929
O O4 0.500000 0.641309 0.000000
O O5 0.326397 0.149207 0.537069
O O6 0.202584 0.253893 0.744449
O O7 0.248444 0.319684 0.512222
O O8 0.024609 0.189375 0.635759
O O9 0.197176 0.894611 0.163790
O O10 0.340960 0.000000 0.960235
O O11 0.500000 0.865562 0.000000
O O12 0.256232 0.822104 0.940669
O O13 0.237788 0.110854 0.366548
O O14 0.528662 0.175772 0.289085
O O15 0.450852 0.000000 0.380171
O O16 0.019325 0.000000 0.358858
O O17 0.758803 0.500000 0.562271
O O18 0.000000 0.614431 0.500000
#
# Coordination Sequence:
#
# PCOD9151289 Si02
#       7
#     4   4   4   4   4   4   4
#     4  10  23  43  68  95 122 159 212 266 315 376
#     4  12  25  37  57  92 129 162 198 251 316 372
#     4  10  20  38  62  86 116 162 217 260 301 363
#     4  11  22  38  59  84 119 164 210 251 295 358
#     4  10  22  40  62  87 120 167 216 260 304 362
#     4  12  24  37  59  92 124 161 202 252 314 370
#     4  10  22  42  68  95 123 161 210 261 314 376
#
# _framework density 20.839372999999998
#
# number of rings (size 3 to 8) (size 9 to 14) (size 15 to 20)
#    0.000    1.286    2.857    3.000    0.000    5.143 
#    0.000    2.857    0.000    0.000    0.000    6.000 
#    0.000    0.000    0.000    0.000    0.000    0.000 
#
# Total GULP energy -156452.974030 kJ/mol
# GULP energy per Si atom -5587.606215 kJ/mol
# Density = 2.079194 g / cm^3
# Si number density = 20.839373 Si / 1000 Ang^3
#
#
#
# Elastic Constant Matrix: (Units=GPa)
#
#
# Indices 1 2 3 4 5 6 
#
# 1 44.9521 24.7494 25.4929 0.0000 14.2025 0.0000
# 2 24.7494 83.9383 38.7327 0.0000 5.3501 0.0000
# 3 25.4929 38.7327 136.8560 0.0000 17.2466 0.0000
# 4 0.0000 0.0000 0.0000 31.3202 0.0000 -2.6906
# 5 14.2025 5.3501 17.2466 0.0000 30.9608 0.0000
# 6 0.0000 0.0000 0.0000 -2.6906 0.0000 9.6315
#
#
#
# Elastic Compliance Matrix: (Units=1/GPa)
#
#
# Indices 1 2 3 4 5 6 
#
# 1 0.031368 -0.007461 -0.002238 0.000000 -0.011853 0.000000
# 2 -0.007461 0.015479 -0.003318 0.000000 0.002596 0.000000
# 3 -0.002238 -0.003318 0.009100 0.000000 -0.003469 0.000000
# 4 0.000000 0.000000 0.000000 0.032713 0.000000 0.009139
# 5 -0.011853 0.002596 -0.003469 0.000000 0.039220 0.000000
# 6 0.000000 0.000000 0.000000 0.009139 0.000000 0.106379
#
#
# Mechanical properties :
#
#
# Convention : Reuss Voigt Hill
#
# Bulk Modulus (GPa) = 33.42983 49.29962 41.36472
# Shear Modulus (GPa) = 18.50042 26.16724 22.33383
#
# Velocity S-wave (km/s) = 2.98277 3.54738 3.27725
# Velocity P-wave (km/s) = 5.28574 6.36293 5.84918
#
# Compressibility (1/GPa) = 0.02991340
#
# Stress axis : x y z
#
# Youngs Moduli (GPa) = 31.87989 64.60344 109.88878
#
# Poissons Ratio (x) = 0.48199 0.24590
# Poissons Ratio (y) = 0.23785 0.36464
# Poissons Ratio (z) = 0.07134 0.21437
#
# Static dielectric constant tensor:
#      x y z
#    x 1.764980 0.000000 -0.005050 
#    y 0.000000 1.753680 0.000000 
#    z -0.005050 0.000000 1.780260 
# 
# From -- ./inp_files/42653.got.cif
#   From: 2010.05.17/outbox.cif.g08.bks.cpg/sg10_22_cif.got.tgz:42653.got - 2010.06.03 11:33:40.
