data_PCOD9151823
_publ_section_title
;
Structure prediction by ZEFSAII (Michael W. Deem and Ramdas Pophale) SiO2 
 PCOD9151823
Probable space group: P 2/M
;
_chemical_formula_sum "Si O2"
_cell_formula_units_Z 26
_cell_length_a 12.942880
_cell_length_b 13.148441
_cell_length_c 9.756016
_cell_angle_alpha 90.000000
_cell_angle_beta 54.957385
_cell_angle_gamma 90.000000
_cell_volume 1359.301676
_symmetry_space_group_name_H-M "P 2/M"
_symmetry_group_IT_number 10
_symmetry_cell_setting 'monoclinic'
loop_
_space_group_symop_operation_xyz
x,y,z
-x,y,-z
-x,-y,-z
x,-y,z
loop_
_atom_site_type_symbol
_atom_site_label
_atom_site_fract_x
_atom_site_fract_y
_atom_site_fract_z
Si Si1 0.791867 0.211744 0.547618
Si Si2 0.199229 0.818697 0.147128
Si Si3 0.631406 0.000000 0.057237
Si Si4 0.762094 0.000000 0.251790
Si Si5 0.958215 0.177925 0.174010
Si Si6 0.649819 0.000000 0.614246
Si Si7 0.392971 0.387920 0.273818
Si Si8 0.677497 0.613053 0.996819
O O1 0.838833 0.211720 0.669072
O O2 0.892746 0.233414 0.352018
O O3 0.731347 0.100048 0.582863
O O4 0.682839 0.294397 0.609494
O O5 0.083508 0.866262 0.151363
O O6 0.239224 0.712771 0.044543
O O7 0.315620 0.898491 0.057665
O O8 0.482138 0.000000 0.203456
O O9 0.699458 0.000000 0.152410
O O10 0.855261 0.905011 0.205901
O O11 0.649288 0.000000 0.449103
O O12 0.000000 0.230740 0.000000
O O13 0.356970 0.500000 0.353565
O O14 0.542870 0.376050 0.173776
O O15 0.358829 0.386780 0.137434
O O16 0.729989 0.500000 0.987497
#
# Coordination Sequence:
#
# PCOD9151823 Si02
#       8
#     4   4   2   2   4   2   4   4
#     4  10  21  35  52  84 112 135 171 221 271 311
#     4  11  21  32  56  83 110 137 174 222 265 309
#     4  12  21  34  55  84 109 139 173 213 272 320
#     4  10  21  39  54  73 103 147 193 214 242 316
#     4  11  21  38  56  71 102 147 188 217 251 310
#     4  10  22  34  53  81 116 140 162 215 275 324
#     4   8  14  29  53  78 108 142 173 209 258 317
#     4   8  15  29  51  80 110 140 172 209 260 319
#
# _framework density 19.127469000000001
#
# number of rings (size 3 to 8) (size 9 to 14) (size 15 to 20)
#    0.000    2.154    1.538    3.692    0.000    2.462 
#    0.000    3.846    0.000    5.538    0.000    2.154 
#    0.000    0.000    0.000    0.000    0.000    0.000 
#
# Total GULP energy -144786.739547 kJ/mol
# GULP energy per Si atom -5568.720752 kJ/mol
# Density = 1.908393 g / cm^3
# Si number density = 19.127469 Si / 1000 Ang^3
#
#
#
# Elastic Constant Matrix: (Units=GPa)
#
#
# Indices 1 2 3 4 5 6 
#
# 1 46.1300 2.7469 17.5489 0.0000 -0.3610 0.0000
# 2 2.7469 92.9208 28.1456 0.0000 -13.4534 0.0000
# 3 17.5489 28.1456 125.5756 0.0000 -6.3384 0.0000
# 4 0.0000 0.0000 0.0000 109.0647 0.0000 10.5359
# 5 -0.3610 -13.4534 -6.3384 0.0000 26.7236 0.0000
# 6 0.0000 0.0000 0.0000 10.5359 0.0000 11.0555
#
#
#
# Elastic Compliance Matrix: (Units=1/GPa)
#
#
# Indices 1 2 3 4 5 6 
#
# 1 0.022906 0.000267 -0.003278 0.000000 -0.000333 0.000000
# 2 0.000267 0.012329 -0.002517 0.000000 0.005613 0.000000
# 3 -0.003278 -0.002517 0.009028 0.000000 0.000830 0.000000
# 4 0.000000 0.000000 0.000000 0.010099 0.000000 -0.009624
# 5 -0.000333 0.005613 0.000830 0.000000 0.040438 0.000000
# 6 0.000000 0.000000 0.000000 -0.009624 0.000000 0.099625
#
#
# Mechanical properties :
#
#
# Convention : Reuss Voigt Hill
#
# Bulk Modulus (GPa) = 30.11384 40.16769 35.14076
# Shear Modulus (GPa) = 23.08943 43.78109 33.43526
#
# Velocity S-wave (km/s) = 3.47815 4.78945 4.18547
# Velocity P-wave (km/s) = 5.64872 7.18545 6.46292
#
# Compressibility (1/GPa) = 0.03320733
#
# Stress axis : x y z
#
# Youngs Moduli (GPa) = 43.65611 81.10824 110.77253
#
# Poissons Ratio (x) = -0.02169 0.36310
# Poissons Ratio (y) = -0.01168 0.27886
# Poissons Ratio (z) = 0.14310 0.20418
#
# Static dielectric constant tensor:
#      x y z
#    x 1.667450 0.000000 0.002870 
#    y 0.000000 1.656940 0.000000 
#    z 0.002870 0.000000 1.721380 
# 
# From -- ./inp_files/24848.got.cif
#   From: 2010.05.17/outbox.cif.g08.bks.cpg/sg10_13_cif.got.tgz:24848.got - 2010.06.03 11:33:40.
