data_PCOD9151727
_publ_section_title
;
Structure prediction by ZEFSAII (Michael W. Deem and Ramdas Pophale) SiO2 
 PCOD9151727
Probable space group: P 2/M
;
_chemical_formula_sum "Si O2"
_cell_formula_units_Z 32
_cell_length_a 22.913725
_cell_length_b 13.718246
_cell_length_c 16.883393
_cell_angle_alpha 90.000000
_cell_angle_beta 21.472496
_cell_angle_gamma 90.000000
_cell_volume 1942.673535
_symmetry_space_group_name_H-M "P 2/M"
_symmetry_group_IT_number 10
_symmetry_cell_setting 'monoclinic'
loop_
_space_group_symop_operation_xyz
x,y,z
-x,y,-z
-x,-y,-z
x,-y,z
loop_
_atom_site_type_symbol
_atom_site_label
_atom_site_fract_x
_atom_site_fract_y
_atom_site_fract_z
Si Si1 0.107432 0.301858 0.144115
Si Si2 0.158776 0.383848 0.253963
Si Si3 0.736232 0.885989 0.808126
Si Si4 0.043707 0.114356 0.314537
Si Si5 0.784977 0.381825 0.474037
Si Si6 0.689114 0.385890 0.253932
Si Si7 0.816172 0.390500 0.254308
Si Si8 0.466845 0.297693 0.950592
O O1 0.157562 0.346050 0.165690
O O2 0.082217 0.187874 0.195220
O O3 0.939981 0.347761 0.326817
O O4 0.236095 0.329194 0.914517
O O5 0.152564 0.500000 0.259331
O O6 0.000000 0.347755 0.500000
O O7 0.314352 0.352178 0.105908
O O8 0.828705 0.871607 0.775004
O O9 0.869750 0.863879 0.572361
O O10 0.695263 0.000000 0.853818
O O11 0.586379 0.815054 0.989819
O O12 0.046877 0.000000 0.289462
O O13 0.773980 0.500000 0.492931
O O14 0.803286 0.351920 0.358879
O O15 0.625569 0.331005 0.705931
O O16 0.500000 0.387887 0.500000
O O17 0.746256 0.500000 0.175568
O O18 0.742608 0.340948 0.270376
O O19 0.743745 0.500000 0.348853
O O20 0.000000 0.398777 0.000000
O O21 0.500000 0.321240 0.000000
#
# Coordination Sequence:
#
# PCOD9151727 Si02
#       8
#     4   4   4   4   4   4   4   4
#     4  12  21  36  59  81 108 145 190 230 279 336
#     4  11  23  36  51  73 108 150 187 220 261 326
#     4   9  18  36  58  80 107 141 184 238 287 323
#     4   9  18  34  60  85 106 137 183 238 288 332
#     4  11  23  36  54  80 115 156 189 223 272 332
#     4  10  21  34  54  84 112 140 184 238 276 319
#     4   9  17  34  53  73 105 143 182 222 271 320
#     4  12  24  36  52  79 114 150 186 226 273 333
#
# _framework density 16.472145999999999
#
# number of rings (size 3 to 8) (size 9 to 14) (size 15 to 20)
#    0.000    1.625    2.500    4.500    1.750    2.250 
#    0.000    0.625    0.000    0.375    0.000    2.625 
#    0.000    0.000    0.000    0.000    0.000    0.000 
#
# Total GULP energy -178476.344710 kJ/mol
# GULP energy per Si atom -5577.385772 kJ/mol
# Density = 1.643465 g / cm^3
# Si number density = 16.472146 Si / 1000 Ang^3
#
#
#
# Elastic Constant Matrix: (Units=GPa)
#
#
# Indices 1 2 3 4 5 6 
#
# 1 131.0960 40.8387 62.2008 0.0000 9.0777 0.0000
# 2 40.8387 86.2156 45.6578 0.0000 11.6763 0.0000
# 3 62.2008 45.6578 113.3840 0.0000 6.5310 0.0000
# 4 0.0000 0.0000 0.0000 14.1432 0.0000 -6.4299
# 5 9.0777 11.6763 6.5310 0.0000 24.9903 0.0000
# 6 0.0000 0.0000 0.0000 -6.4299 0.0000 23.5212
#
#
#
# Elastic Compliance Matrix: (Units=1/GPa)
#
#
# Indices 1 2 3 4 5 6 
#
# 1 0.010775 -0.002301 -0.004895 0.000000 -0.001560 0.000000
# 2 -0.002301 0.015994 -0.004869 0.000000 -0.005365 0.000000
# 3 -0.004895 -0.004869 0.013434 0.000000 0.000542 0.000000
# 4 0.000000 0.000000 0.000000 0.080739 0.000000 0.022071
# 5 -0.001560 -0.005365 0.000542 0.000000 0.042947 0.000000
# 6 0.000000 0.000000 0.000000 0.022071 0.000000 0.048548
#
#
# Mechanical properties :
#
#
# Convention : Reuss Voigt Hill
#
# Bulk Modulus (GPa) = 62.21291 69.78779 66.00035
# Shear Modulus (GPa) = 20.66753 24.66418 22.66586
#
# Velocity S-wave (km/s) = 3.54601 3.87373 3.71349
# Velocity P-wave (km/s) = 7.39027 7.90360 7.65124
#
# Compressibility (1/GPa) = 0.01607383
#
# Stress axis : x y z
#
# Youngs Moduli (GPa) = 92.80661 62.52432 74.43580
#
# Poissons Ratio (x) = 0.14384 0.36435
# Poissons Ratio (y) = 0.21350 0.36246
# Poissons Ratio (z) = 0.45427 0.30445
#
# Static dielectric constant tensor:
#      x y z
#    x 1.506560 0.000000 0.029550 
#    y 0.000000 1.571520 0.000000 
#    z 0.029550 0.000000 1.471920 
# 
# From -- ./inp_files/70733.got.cif
#   From: 2010.05.17/outbox.cif.g08.bks.cpg/sg10_36_cif.got.tgz:70733.got - 2010.06.03 11:33:40.
