data_PCOD9151320
_publ_section_title
;
Structure prediction by ZEFSAII (Michael W. Deem and Ramdas Pophale) SiO2 
 PCOD9151320
Probable space group: P 2/M
;
_chemical_formula_sum "Si O2"
_cell_formula_units_Z 32
_cell_length_a 15.675367
_cell_length_b 8.886064
_cell_length_c 12.419242
_cell_angle_alpha 90.000000
_cell_angle_beta 90.992610
_cell_angle_gamma 90.000000
_cell_volume 1729.645368
_symmetry_space_group_name_H-M "P 2/M"
_symmetry_group_IT_number 10
_symmetry_cell_setting 'monoclinic'
loop_
_space_group_symop_operation_xyz
x,y,z
-x,y,-z
-x,-y,-z
x,-y,z
loop_
_atom_site_type_symbol
_atom_site_label
_atom_site_fract_x
_atom_site_fract_y
_atom_site_fract_z
Si Si1 0.002636 0.183310 0.875942
Si Si2 0.847696 0.818683 0.716238
Si Si3 0.653519 0.818676 0.771840
Si Si4 0.343574 0.320892 0.770451
Si Si5 0.496785 0.318106 0.374446
Si Si6 0.102044 0.328451 0.507119
Si Si7 0.398106 0.827100 0.991078
Si Si8 0.840865 0.179831 0.271861
O O1 0.088142 0.230736 0.814139
O O2 0.919172 0.228414 0.805266
O O3 0.002900 0.000000 0.877720
O O4 0.000000 0.234337 0.000000
O O5 0.751270 0.782140 0.747718
O O6 0.865983 0.742836 0.602757
O O7 0.854243 0.000000 0.705702
O O8 0.585363 0.746660 0.689269
O O9 0.643072 0.000000 0.766739
O O10 0.634850 0.772562 0.894260
O O11 0.336210 0.500000 0.761514
O O12 0.417611 0.271298 0.688301
O O13 0.371530 0.272985 0.890339
O O14 0.252303 0.247063 0.748103
O O15 0.500000 0.272253 0.500000
O O16 0.492401 0.500000 0.370913
O O17 0.133492 0.500000 0.519769
O O18 0.128776 0.232014 0.610310
O O19 0.000000 0.331057 0.500000
O O20 0.367735 0.000000 0.973339
O O21 0.500000 0.830465 0.000000
O O22 0.836819 0.000000 0.266478
#
# Coordination Sequence:
#
# PCOD9151320 Si02
#       8
#     4   4   4   4   4   4   4   4
#     4   9  19  36  60  88 119 155 194 240 293 349
#     4  10  21  38  61  90 121 153 198 246 293 350
#     4  10  22  38  61  92 120 151 196 251 295 344
#     4  11  24  40  60  88 122 158 200 247 298 358
#     4  10  23  42  60  81 117 161 198 239 297 361
#     4  11  23  40  62  86 120 158 198 247 297 352
#     4  10  20  38  63  88 118 154 198 249 297 348
#     4  11  23  39  64  90 118 157 201 249 298 350
#
# _framework density 18.500903000000001
#
# number of rings (size 3 to 8) (size 9 to 14) (size 15 to 20)
#    0.000    1.750    2.500    1.125    3.500    2.500 
#    0.000    0.000    0.000    1.875    0.000    0.000 
#    0.000    0.000    0.000    0.000    0.000    0.000 
#
# Total GULP energy -178705.336014 kJ/mol
# GULP energy per Si atom -5584.541750 kJ/mol
# Density = 1.845879 g / cm^3
# Si number density = 18.500903 Si / 1000 Ang^3
#
#
#
# Elastic Constant Matrix: (Units=GPa)
#
#
# Indices 1 2 3 4 5 6 
#
# 1 154.6459 44.9719 93.3209 0.0000 -8.7769 0.0000
# 2 44.9719 35.6260 39.5630 0.0000 -2.8079 0.0000
# 3 93.3209 39.5630 182.7852 0.0000 -16.7383 0.0000
# 4 0.0000 0.0000 0.0000 22.1481 0.0000 0.4272
# 5 -8.7769 -2.8079 -16.7383 0.0000 34.2103 0.0000
# 6 0.0000 0.0000 0.0000 0.4272 0.0000 22.4206
#
#
#
# Elastic Compliance Matrix: (Units=1/GPa)
#
#
# Indices 1 2 3 4 5 6 
#
# 1 0.011863 -0.010870 -0.003671 0.000000 0.000355 0.000000
# 2 -0.010870 0.046939 -0.004724 0.000000 -0.001248 0.000000
# 3 -0.003671 -0.004724 0.008633 0.000000 0.002894 0.000000
# 4 0.000000 0.000000 0.000000 0.045167 0.000000 -0.000861
# 5 0.000355 -0.001248 0.002894 0.000000 0.030636 0.000000
# 6 0.000000 0.000000 0.000000 -0.000861 0.000000 0.044618
#
#
# Mechanical properties :
#
#
# Convention : Reuss Voigt Hill
#
# Bulk Modulus (GPa) = 34.59782 80.97429 57.78606
# Shear Modulus (GPa) = 21.18444 28.76922 24.97683
#
# Velocity S-wave (km/s) = 3.38753 3.94765 3.67827
# Velocity P-wave (km/s) = 5.83452 8.03998 7.02435
#
# Compressibility (1/GPa) = 0.02890355
#
# Stress axis : x y z
#
# Youngs Moduli (GPa) = 84.29473 21.30422 115.83559
#
# Poissons Ratio (x) = 0.23158 0.42528
# Poissons Ratio (y) = 0.91629 0.54724
# Poissons Ratio (z) = 0.30948 0.10065
#
# Static dielectric constant tensor:
#      x y z
#    x 1.639380 0.000000 -0.008950 
#    y 0.000000 1.633580 0.000000 
#    z -0.008950 0.000000 1.601670 
# 
# From -- ./inp_files/49883.got.cif
#   From: 2010.05.17/outbox.cif.g08.bks.cpg/sg10_25_cif.got.tgz:49883.got - 2010.06.03 11:33:40.
