data_PCOD9151610
_publ_section_title
;
Structure prediction by ZEFSAII (Michael W. Deem and Ramdas Pophale) SiO2 
 PCOD9151610
Probable space group: P 2/M
;
_chemical_formula_sum "Si O2"
_cell_formula_units_Z 28
_cell_length_a 9.028992
_cell_length_b 13.935010
_cell_length_c 23.582370
_cell_angle_alpha 90.000000
_cell_angle_beta 28.405594
_cell_angle_gamma 90.000000
_cell_volume 1411.485318
_symmetry_space_group_name_H-M "P 2/M"
_symmetry_group_IT_number 10
_symmetry_cell_setting 'monoclinic'
loop_
_space_group_symop_operation_xyz
x,y,z
-x,y,-z
-x,-y,-z
x,-y,z
loop_
_atom_site_type_symbol
_atom_site_label
_atom_site_fract_x
_atom_site_fract_y
_atom_site_fract_z
Si Si1 0.735429 0.217073 0.159393
Si Si2 0.228134 0.395950 0.544286
Si Si3 0.442732 0.250440 0.952528
Si Si4 0.373576 0.892356 0.373750
Si Si5 0.291410 0.185903 0.514745
Si Si6 0.476404 0.391026 0.173820
Si Si7 0.320851 0.887965 0.216388
O O1 0.531850 0.187510 0.282148
O O2 0.645651 0.318481 0.160416
O O3 0.631057 0.140515 0.146845
O O4 0.090469 0.217099 0.058844
O O5 0.500000 0.397162 0.500000
O O6 0.244524 0.500000 0.508487
O O7 0.260623 0.294744 0.501453
O O8 0.890539 0.390027 0.687534
O O9 0.500000 0.259123 0.000000
O O10 0.484864 0.347770 0.902042
O O11 0.667462 0.174239 0.844982
O O12 0.450820 0.878606 0.413589
O O13 0.000000 0.882767 0.500000
O O14 0.452659 0.000000 0.326987
O O15 0.500000 0.189236 0.500000
O O16 0.960495 0.146026 0.647927
O O17 0.588397 0.500000 0.140644
O O18 0.298238 0.000000 0.213351
#
# Coordination Sequence:
#
# PCOD9151610 Si02
#       7
#     4   4   4   4   4   4   4
#     4  11  23  41  63  89 123 163 208 262 311 368
#     4   9  17  32  60  92 122 158 196 240 304 364
#     4  11  26  42  60  91 125 160 207 262 321 370
#     4  11  22  38  61  89 122 162 208 254 306 370
#     4  11  22  37  61  92 129 163 206 258 304 366
#     4  10  20  41  69  94 124 164 210 253 306 376
#     4  11  22  41  63  86 119 167 214 256 313 374
#
# _framework density 19.837257999999999
#
# number of rings (size 3 to 8) (size 9 to 14) (size 15 to 20)
#    0.000    1.429    4.286    2.571    2.000    4.571 
#    0.000    0.714    0.000    2.571    0.000    0.000 
#    0.000    0.000    0.000    0.000    0.000    0.000 
#
# Total GULP energy -156241.822033 kJ/mol
# GULP energy per Si atom -5580.065073 kJ/mol
# Density = 1.979211 g / cm^3
# Si number density = 19.837258 Si / 1000 Ang^3
#
#
#
# Elastic Constant Matrix: (Units=GPa)
#
#
# Indices 1 2 3 4 5 6 
#
# 1 77.5486 18.1942 35.5084 0.0000 15.9782 0.0000
# 2 18.1942 141.4943 31.0814 0.0000 20.1099 0.0000
# 3 35.5084 31.0814 72.6858 0.0000 13.2217 0.0000
# 4 0.0000 0.0000 0.0000 -3.6702 0.0000 4.4823
# 5 15.9782 20.1099 13.2217 0.0000 36.4686 0.0000
# 6 0.0000 0.0000 0.0000 4.4823 0.0000 9.2999
#
#
#
# Elastic Compliance Matrix: (Units=1/GPa)
#
#
# Indices 1 2 3 4 5 6 
#
# 1 0.017381 0.000147 -0.007659 0.000000 -0.004919 0.000000
# 2 0.000147 0.008193 -0.002935 0.000000 -0.003518 0.000000
# 3 -0.007659 -0.002935 0.019110 0.000000 -0.001954 0.000000
# 4 0.000000 0.000000 0.000000 -0.171511 0.000000 0.082664
# 5 -0.004919 -0.003518 -0.001954 0.000000 0.032225 0.000000
# 6 0.000000 0.000000 0.000000 0.082664 0.000000 0.067687
#
#
# Mechanical properties :
#
#
# Convention : Reuss Voigt Hill
#
# Bulk Modulus (GPa) = 42.03541 51.25520 46.64530
# Shear Modulus (GPa) = 2617.23810 22.21596 1319.72703
#
# Velocity S-wave (km/s) = 36.36233 3.35014 25.82095
# Velocity P-wave (km/s) = 42.23973 6.39207 30.20806
#
# Compressibility (1/GPa) = 0.02378947
#
# Stress axis : x y z
#
# Youngs Moduli (GPa) = 57.53327 122.05005 52.32877
#
# Poissons Ratio (x) = -0.01789 0.40078
# Poissons Ratio (y) = -0.00843 0.15360
# Poissons Ratio (z) = 0.44064 0.35825
#
# Static dielectric constant tensor:
#      x y z
#    x 1.721210 0.000000 -0.012060 
#    y 0.000000 1.729860 0.000000 
#    z -0.012060 0.000000 1.710250 
# 
# From -- ./inp_files/82904.got.cif
#   From: 2010.05.17/outbox.cif.g08.bks.cpg/sg10_42_cif.got.tgz:82904.got - 2010.06.03 11:33:40.
