data_PCOD9151685
_publ_section_title
;
Structure prediction by ZEFSAII (Michael W. Deem and Ramdas Pophale) SiO2 
 PCOD9151685
Probable space group: P 2/M
;
_chemical_formula_sum "Si O2"
_cell_formula_units_Z 28
_cell_length_a 12.982146
_cell_length_b 8.815163
_cell_length_c 16.252045
_cell_angle_alpha 90.000000
_cell_angle_beta 123.813201
_cell_angle_gamma 90.000000
_cell_volume 1545.292715
_symmetry_space_group_name_H-M "P 2/M"
_symmetry_group_IT_number 10
_symmetry_cell_setting 'monoclinic'
loop_
_space_group_symop_operation_xyz
x,y,z
-x,y,-z
-x,-y,-z
x,-y,z
loop_
_atom_site_type_symbol
_atom_site_label
_atom_site_fract_x
_atom_site_fract_y
_atom_site_fract_z
Si Si1 0.198284 0.684010 0.086067
Si Si2 0.827496 0.319062 0.510587
Si Si3 0.575214 0.181727 0.451177
Si Si4 0.005313 0.683573 0.137282
Si Si5 0.476122 0.316131 0.237976
Si Si6 0.045675 0.179729 0.708564
Si Si7 0.264168 0.318925 0.715146
O O1 0.198147 0.500000 0.085463
O O2 0.125854 0.728522 0.137261
O O3 0.340562 0.733234 0.148062
O O4 0.113179 0.729330 0.971166
O O5 0.834464 0.500000 0.522685
O O6 0.711713 0.254395 0.510610
O O7 0.795863 0.286213 0.401265
O O8 0.953023 0.246044 0.598649
O O9 0.500000 0.219979 0.500000
O O10 0.505913 0.246202 0.340124
O O11 0.585741 0.000000 0.449804
O O12 0.005548 0.500000 0.144678
O O13 0.997000 0.755359 0.222774
O O14 0.477863 0.500000 0.246744
O O15 0.591350 0.276340 0.229913
O O16 0.183491 0.235112 0.747119
O O17 0.039123 0.000000 0.705666
O O18 0.255903 0.500000 0.724899
#
# Coordination Sequence:
#
# PCOD9151685 Si02
#       7
#     4   4   4   4   4   4   4
#     4   8  16  34  60  85 106 134 178 227 272 318
#     4  10  21  37  57  78 103 141 186 227 267 312
#     4  10  21  34  48  76 116 147 176 214 259 320
#     4   9  18  35  58  83 109 138 177 224 270 320
#     4   9  18  34  57  81 104 138 183 225 269 319
#     4  12  24  35  52  79 112 144 180 221 271 328
#     4   9  19  36  55  77 105 139 183 227 267 317
#
# _framework density 18.119544999999999
#
# number of rings (size 3 to 8) (size 9 to 14) (size 15 to 20)
#    0.000    2.429    0.000    4.286    2.000    5.714 
#    0.000    2.857    0.000    4.286    0.000    0.000 
#    0.000    0.000    0.000    0.000    0.000    0.000 
#
# Total GULP energy -156250.689791 kJ/mol
# GULP energy per Si atom -5580.381778 kJ/mol
# Density = 1.807830 g / cm^3
# Si number density = 18.119545 Si / 1000 Ang^3
#
#
#
# Elastic Constant Matrix: (Units=GPa)
#
#
# Indices 1 2 3 4 5 6 
#
# 1 95.6911 27.8685 36.8014 0.0000 20.3710 0.0000
# 2 27.8685 29.7801 15.8275 0.0000 -1.0414 0.0000
# 3 36.8014 15.8275 38.7045 0.0000 19.3548 0.0000
# 4 0.0000 0.0000 0.0000 -4.3962 0.0000 13.8211
# 5 20.3710 -1.0414 19.3548 0.0000 28.7000 0.0000
# 6 0.0000 0.0000 0.0000 13.8211 0.0000 -10.0372
#
#
#
# Elastic Compliance Matrix: (Units=1/GPa)
#
#
# Indices 1 2 3 4 5 6 
#
# 1 0.019764 -0.014230 -0.008599 0.000000 -0.008745 0.000000
# 2 -0.014230 0.062628 -0.027562 0.000000 0.030960 0.000000
# 3 -0.008599 -0.027562 0.064476 0.000000 -0.038378 0.000000
# 4 0.000000 0.000000 0.000000 0.068328 0.000000 0.094087
# 5 -0.008745 0.030960 -0.038378 0.000000 0.068055 0.000000
# 6 0.000000 0.000000 0.000000 0.094087 0.000000 0.029927
#
#
# Mechanical properties :
#
#
# Convention : Reuss Voigt Hill
#
# Bulk Modulus (GPa) = 21.69987 36.13007 28.91497
# Shear Modulus (GPa) = 11.64629 8.43187 10.03908
#
# Velocity S-wave (km/s) = 2.53800 2.15953 2.35637
# Velocity P-wave (km/s) = 4.53768 5.11871 4.83693
#
# Compressibility (1/GPa) = 0.04608322
#
# Stress axis : x y z
#
# Youngs Moduli (GPa) = 50.59817 15.96740 15.50974
#
# Poissons Ratio (x) = 0.22722 0.13338
# Poissons Ratio (y) = 0.72003 0.42748
# Poissons Ratio (z) = 0.43512 0.44009
#
# Static dielectric constant tensor:
#      x y z
#    x 1.632750 0.000000 0.019080 
#    y 0.000000 1.599870 0.000000 
#    z 0.019080 0.000000 1.604430 
# 
# From -- ./inp_files/49351.got.cif
#   From: 2010.05.17/outbox.cif.g08.bks.cpg/sg10_25_cif.got.tgz:49351.got - 2010.06.03 11:33:40.
