data_PCOD9151097
_publ_section_title
;
Structure prediction by ZEFSAII (Michael W. Deem and Ramdas Pophale) SiO2 
 PCOD9151097
Probable space group: P 2/M
;
_chemical_formula_sum "Si O2"
_cell_formula_units_Z 26
_cell_length_a 16.829704
_cell_length_b 7.829156
_cell_length_c 16.092540
_cell_angle_alpha 90.000000
_cell_angle_beta 36.025494
_cell_angle_gamma 90.000000
_cell_volume 1247.097924
_symmetry_space_group_name_H-M "P 2/M"
_symmetry_group_IT_number 10
_symmetry_cell_setting 'monoclinic'
loop_
_space_group_symop_operation_xyz
x,y,z
-x,y,-z
-x,-y,-z
x,-y,z
loop_
_atom_site_type_symbol
_atom_site_label
_atom_site_fract_x
_atom_site_fract_y
_atom_site_fract_z
Si Si1 0.281160 0.698493 0.459047
Si Si2 0.367279 0.293527 0.563209
Si Si3 0.725427 0.692010 0.056014
Si Si4 0.969212 0.691973 0.722520
Si Si5 0.846320 0.799226 0.124080
Si Si6 0.395643 0.000000 0.936988
Si Si7 0.146456 0.000000 0.275691
Si Si8 0.695503 0.000000 0.691429
O O1 0.310905 0.500000 0.412231
O O2 0.367668 0.752401 0.465998
O O3 0.292896 0.831653 0.375017
O O4 0.123781 0.704718 0.619563
O O5 0.500000 0.234824 0.500000
O O6 0.362316 0.500000 0.570646
O O7 0.235620 0.226140 0.721931
O O8 0.675251 0.500000 0.083302
O O9 0.866129 0.715393 0.886188
O O10 0.761489 0.714008 0.121783
O O11 0.627361 0.834668 0.101800
O O12 0.947490 0.500000 0.708101
O O13 0.936252 0.833450 0.681976
O O14 0.854093 0.000000 0.097066
O O15 0.000000 0.733232 0.000000
O O16 0.542131 0.000000 0.853561
O O17 0.279973 0.000000 0.104509
O O18 0.194952 0.000000 0.328726
#
# Coordination Sequence:
#
# PCOD9151097 Si02
#       8
#     4   4   4   4   4   2   2   2
#     4  10  23  41  61  90 123 158 201 248 299 362
#     4  10  23  41  60  84 122 168 210 254 302 356
#     4  10  20  37  63  88 116 160 204 248 303 354
#     4   9  19  38  64  91 122 154 193 250 308 358
#     4  11  23  36  57  91 125 160 209 261 301 352
#     4  10  23  42  60  88 122 151 198 251 294 357
#     4  10  22  42  65  90 119 151 200 247 305 368
#     4  12  26  40  63  89 118 165 197 242 307 366
#
# _framework density 20.848400999999999
#
# number of rings (size 3 to 8) (size 9 to 14) (size 15 to 20)
#    0.000    1.846    0.769    2.077    3.231    5.231 
#    0.000    1.538    0.000    4.615    0.000    0.000 
#    0.000    0.000    0.000    0.000    0.000    0.000 
#
# Total GULP energy -145370.619810 kJ/mol
# GULP energy per Si atom -5591.177685 kJ/mol
# Density = 2.080095 g / cm^3
# Si number density = 20.848401 Si / 1000 Ang^3
#
#
#
# Elastic Constant Matrix: (Units=GPa)
#
#
# Indices 1 2 3 4 5 6 
#
# 1 113.9868 42.9967 6.9501 0.0000 19.6838 0.0000
# 2 42.9967 92.3449 9.2292 0.0000 16.8237 0.0000
# 3 6.9501 9.2292 44.0951 0.0000 -0.7515 0.0000
# 4 0.0000 0.0000 0.0000 -5.8011 0.0000 0.6188
# 5 19.6838 16.8237 -0.7515 0.0000 29.8651 0.0000
# 6 0.0000 0.0000 0.0000 0.6188 0.0000 15.8190
#
#
#
# Elastic Compliance Matrix: (Units=1/GPa)
#
#
# Indices 1 2 3 4 5 6 
#
# 1 0.011312 -0.004241 -0.000982 0.000000 -0.005091 0.000000
# 2 -0.004241 0.013974 -0.002344 0.000000 -0.005135 0.000000
# 3 -0.000982 -0.002344 0.023367 0.000000 0.002555 0.000000
# 4 0.000000 0.000000 0.000000 -0.171665 0.000000 0.006716
# 5 -0.005091 -0.005135 0.002555 0.000000 0.039797 0.000000
# 6 0.000000 0.000000 0.000000 0.006716 0.000000 0.062952
#
#
# Mechanical properties :
#
#
# Convention : Reuss Voigt Hill
#
# Bulk Modulus (GPa) = 29.83419 40.97540 35.40479
# Shear Modulus (GPa) = 827.42495 20.72664 424.07580
#
# Velocity S-wave (km/s) = 19.94338 3.15645 14.27763
# Velocity P-wave (km/s) = 23.33793 5.74290 16.99471
#
# Compressibility (1/GPa) = 0.03351860
#
# Stress axis : x y z
#
# Youngs Moduli (GPa) = 88.40327 71.56392 42.79512
#
# Poissons Ratio (x) = 0.30352 0.04202
# Poissons Ratio (y) = 0.37494 0.10030
# Poissons Ratio (z) = 0.08681 0.16772
#
# Static dielectric constant tensor:
#      x y z
#    x 1.700990 0.000000 -0.017870 
#    y 0.000000 1.744190 0.000000 
#    z -0.017870 0.000000 1.759390 
# 
# From -- ./inp_files/66831.got.cif
#   From: 2010.05.17/outbox.cif.g08.bks.cpg/sg10_34_cif.got.tgz:66831.got - 2010.06.03 11:33:40.
