data_PCOD9151887
_publ_section_title
;
Structure prediction by ZEFSAII (Michael W. Deem and Ramdas Pophale) SiO2 
 PCOD9151887
Probable space group: P 2/M
;
_chemical_formula_sum "Si O2"
_cell_formula_units_Z 24
_cell_length_a 8.809546
_cell_length_b 11.587374
_cell_length_c 24.923523
_cell_angle_alpha 90.000000
_cell_angle_beta 30.438713
_cell_angle_gamma 90.000000
_cell_volume 1288.923812
_symmetry_space_group_name_H-M "P 2/M"
_symmetry_group_IT_number 10
_symmetry_cell_setting 'monoclinic'
loop_
_space_group_symop_operation_xyz
x,y,z
-x,y,-z
-x,-y,-z
x,-y,z
loop_
_atom_site_type_symbol
_atom_site_label
_atom_site_fract_x
_atom_site_fract_y
_atom_site_fract_z
Si Si1 0.695282 0.769274 0.078685
Si Si2 0.741078 0.000000 0.003702
Si Si3 0.301781 0.637361 0.112342
Si Si4 0.300172 0.227147 0.708478
Si Si5 0.323585 0.864676 0.497676
Si Si6 0.927454 0.000000 0.823272
Si Si7 0.389608 0.862076 0.279191
O O1 0.819031 0.880563 0.008100
O O2 0.462844 0.700058 0.112892
O O3 0.527181 0.814282 0.182503
O O4 0.000000 0.700882 0.000000
O O5 0.382540 0.000000 0.112958
O O6 0.855411 0.000000 0.908389
O O7 0.321098 0.500000 0.111789
O O8 0.954364 0.674846 0.212300
O O9 0.500000 0.673462 0.000000
O O10 0.542598 0.223268 0.586965
O O11 0.463850 0.203747 0.715024
O O12 0.106017 0.113403 0.755384
O O13 0.500000 0.852066 0.500000
O O14 0.968749 0.847273 0.612296
O O15 0.359338 0.000000 0.469369
O O16 0.452226 0.000000 0.264975
#
# Coordination Sequence:
#
# PCOD9151887 Si02
#       7
#     4   2   4   4   4   2   4
#     4  12  23  36  58  89 124 157 191 245 298 358
#     4  11  21  32  51  86 125 149 185 236 303 365
#     4  11  25  44  63  83 113 160 212 252 293 343
#     4  12  21  38  60  85 121 157 198 246 295 353
#     4  10  21  35  56  87 126 164 195 231 291 364
#     4  11  20  30  55  85 114 155 189 237 299 361
#     4  11  22  35  57  93 130 159 189 232 299 372
#
# _framework density 18.620184999999999
#
# number of rings (size 3 to 8) (size 9 to 14) (size 15 to 20)
#    0.000    0.833    4.167    4.750    0.000    1.667 
#    0.000    0.833    0.000    6.500    0.000    0.000 
#    0.000    0.000    0.000    0.000    0.000    0.000 
#
# Total GULP energy -134108.352759 kJ/mol
# GULP energy per Si atom -5587.848032 kJ/mol
# Density = 1.857780 g / cm^3
# Si number density = 18.620185 Si / 1000 Ang^3
#
#
#
# Elastic Constant Matrix: (Units=GPa)
#
#
# Indices 1 2 3 4 5 6 
#
# 1 137.8626 36.7949 57.4348 0.0000 -14.9708 0.0000
# 2 36.7949 47.1316 32.4150 0.0000 -0.0386 0.0000
# 3 57.4348 32.4150 98.9766 0.0000 -6.2658 0.0000
# 4 0.0000 0.0000 0.0000 21.3282 0.0000 1.7157
# 5 -14.9708 -0.0386 -6.2658 0.0000 37.8169 0.0000
# 6 0.0000 0.0000 0.0000 1.7157 0.0000 22.5896
#
#
#
# Elastic Compliance Matrix: (Units=1/GPa)
#
#
# Indices 1 2 3 4 5 6 
#
# 1 0.010917 -0.005576 -0.004280 0.000000 0.003607 0.000000
# 2 -0.005576 0.030315 -0.006903 0.000000 -0.003320 0.000000
# 3 -0.004280 -0.006903 0.014897 0.000000 0.000767 0.000000
# 4 0.000000 0.000000 0.000000 0.047175 0.000000 -0.003583
# 5 0.003607 -0.003320 0.000767 0.000000 0.027995 0.000000
# 6 0.000000 0.000000 0.000000 -0.003583 0.000000 0.044540
#
#
# Mechanical properties :
#
#
# Convention : Reuss Voigt Hill
#
# Bulk Modulus (GPa) = 44.22807 59.69560 51.96184
# Shear Modulus (GPa) = 23.05297 26.83534 24.94416
#
# Velocity S-wave (km/s) = 3.52243 3.80043 3.66407
# Velocity P-wave (km/s) = 6.35198 7.16846 6.77254
#
# Compressibility (1/GPa) = 0.02261008
#
# Stress axis : x y z
#
# Youngs Moduli (GPa) = 91.60339 32.98728 67.12986
#
# Poissons Ratio (x) = 0.18392 0.28734
# Poissons Ratio (y) = 0.51074 0.46339
# Poissons Ratio (z) = 0.39210 0.22771
#
# Static dielectric constant tensor:
#      x y z
#    x 1.667290 0.000000 -0.003490 
#    y 0.000000 1.618350 0.000000 
#    z -0.003490 0.000000 1.662990 
# 
# From -- ./inp_files/88053.got.cif
#   From: 2010.05.17/outbox.cif.g08.bks.cpg/sg10_45_cif.got.tgz:88053.got - 2010.06.03 11:33:40.
