data_PCOD9151700
_publ_section_title
;
Structure prediction by ZEFSAII (Michael W. Deem and Ramdas Pophale) SiO2 
 PCOD9151700
Probable space group: P 2/M
;
_chemical_formula_sum "Si O2"
_cell_formula_units_Z 32
_cell_length_a 10.337994
_cell_length_b 7.500209
_cell_length_c 28.055750
_cell_angle_alpha 90.000000
_cell_angle_beta 142.572748
_cell_angle_gamma 90.000000
_cell_volume 1322.084098
_symmetry_space_group_name_H-M "P 2/M"
_symmetry_group_IT_number 10
_symmetry_cell_setting 'monoclinic'
loop_
_space_group_symop_operation_xyz
x,y,z
-x,y,-z
-x,-y,-z
x,-y,z
loop_
_atom_site_type_symbol
_atom_site_label
_atom_site_fract_x
_atom_site_fract_y
_atom_site_fract_z
Si Si1 0.537894 0.716466 0.879836
Si Si2 0.647041 0.785045 0.586420
Si Si3 0.292053 0.790980 0.967813
Si Si4 0.565860 0.707720 0.784544
Si Si5 0.057708 0.290145 0.752948
Si Si6 0.150046 0.215319 0.614847
Si Si7 0.134319 0.702853 0.206949
Si Si8 0.705621 0.216868 0.448089
O O1 0.535820 0.500000 0.877344
O O2 0.667655 0.769111 0.964385
O O3 0.619168 0.781235 0.852212
O O4 0.293953 0.781200 0.814603
O O5 0.500000 0.723292 0.500000
O O6 0.891144 0.729484 0.661316
O O7 0.516722 0.725134 0.595135
O O8 0.648519 0.000000 0.585118
O O9 0.270297 0.000000 0.950198
O O10 0.500000 0.723577 0.000000
O O11 0.078806 0.700082 0.887264
O O12 0.628350 0.500000 0.803332
O O13 0.312512 0.717709 0.701907
O O14 0.685260 0.788695 0.773691
O O15 0.086750 0.500000 0.770831
O O16 0.941000 0.211583 0.765485
O O17 0.244844 0.272917 0.591097
O O18 0.903521 0.270202 0.539862
O O19 0.152736 0.000000 0.617999
O O20 0.203072 0.500000 0.237994
O O21 0.706586 0.000000 0.447744
#
# Coordination Sequence:
#
# PCOD9151700 Si02
#       8
#     4   4   4   4   4   4   4   4
#     4  10  22  40  60  83 117 155 187 225 283 344
#     4  10  21  34  51  77 111 146 184 235 288 332
#     4  11  23  39  62  92 118 143 187 237 277 325
#     4  10  22  37  55  85 117 145 184 234 279 328
#     4  10  21  37  58  82 109 149 194 230 274 339
#     4   9  17  32  56  75 101 145 188 228 276 338
#     4  10  21  39  63  86 114 152 189 227 279 341
#     4   8  16  32  50  74 103 140 186 228 279 340
#
# _framework density 24.204205999999999
#
# number of rings (size 3 to 8) (size 9 to 14) (size 15 to 20)
#    0.000    2.250    1.250    1.875    1.750    3.250 
#    0.000    4.375    0.000    0.000    0.000    0.000 
#    0.000    0.000    0.000    0.000    0.000    0.000 
#
# Total GULP energy -178873.534871 kJ/mol
# GULP energy per Si atom -5589.797965 kJ/mol
# Density = 2.414912 g / cm^3
# Si number density = 24.204206 Si / 1000 Ang^3
#
#
#
# Elastic Constant Matrix: (Units=GPa)
#
#
# Indices 1 2 3 4 5 6 
#
# 1 49.7039 9.4632 -1.9123 0.0000 -0.7619 0.0000
# 2 9.4632 71.3373 -10.8729 0.0000 0.1274 0.0000
# 3 -1.9123 -10.8729 103.0116 0.0000 -0.7992 0.0000
# 4 0.0000 0.0000 0.0000 24.0586 0.0000 1.5752
# 5 -0.7619 0.1274 -0.7992 0.0000 37.9278 0.0000
# 6 0.0000 0.0000 0.0000 1.5752 0.0000 -4.3940
#
#
#
# Elastic Compliance Matrix: (Units=1/GPa)
#
#
# Indices 1 2 3 4 5 6 
#
# 1 0.020648 -0.002725 0.000099 0.000000 0.000426 0.000000
# 2 -0.002725 0.014607 0.001491 0.000000 -0.000072 0.000000
# 3 0.000099 0.001491 0.009868 0.000000 0.000205 0.000000
# 4 0.000000 0.000000 0.000000 0.040612 0.000000 0.014559
# 5 0.000426 -0.000072 0.000205 0.000000 0.026379 0.000000
# 6 0.000000 0.000000 0.000000 0.014559 0.000000 -0.222366
#
#
# Mechanical properties :
#
#
# Convention : Reuss Voigt Hill
#
# Bulk Modulus (GPa) = 23.33555 24.15653 23.74604
# Shear Modulus (GPa) = -53.36369 26.67682 -13.34344
#
# Velocity S-wave (km/s) = -4.70055 3.32348 -2.35049
# Velocity P-wave (km/s) = 4.44951 4.97286 1.57021
#
# Compressibility (1/GPa) = 0.04285308
#
# Stress axis : x y z
#
# Youngs Moduli (GPa) = 48.43027 68.46182 101.33350
#
# Poissons Ratio (x) = 0.18654 -0.01003
# Poissons Ratio (y) = 0.13196 -0.15105
# Poissons Ratio (z) = -0.00480 -0.10205
#
# Static dielectric constant tensor:
#      x y z
#    x 1.975840 0.000000 -0.016490 
#    y 0.000000 1.911600 0.000000 
#    z -0.016490 0.000000 1.887030 
# 
# From -- ./inp_files/95043.got.cif
#   From: 2010.05.17/outbox.cif.g08.bks.cpg/sg10_48_cif.got.tgz:95043.got - 2010.06.03 11:33:40.
