data_PCOD9151547
_publ_section_title
;
Structure prediction by ZEFSAII (Michael W. Deem and Ramdas Pophale) SiO2 
 PCOD9151547
Probable space group: P 2/M
;
_chemical_formula_sum "Si O2"
_cell_formula_units_Z 32
_cell_length_a 13.661963
_cell_length_b 9.184440
_cell_length_c 21.489418
_cell_angle_alpha 90.000000
_cell_angle_beta 146.892073
_cell_angle_gamma 90.000000
_cell_volume 1472.842586
_symmetry_space_group_name_H-M "P 2/M"
_symmetry_group_IT_number 10
_symmetry_cell_setting 'monoclinic'
loop_
_space_group_symop_operation_xyz
x,y,z
-x,y,-z
-x,-y,-z
x,-y,z
loop_
_atom_site_type_symbol
_atom_site_label
_atom_site_fract_x
_atom_site_fract_y
_atom_site_fract_z
Si Si1 0.969570 0.325331 0.158748
Si Si2 0.757329 0.665709 0.217362
Si Si3 0.552629 0.333614 0.455733
Si Si4 0.199282 0.664621 0.611336
Si Si5 0.218150 0.668619 0.183541
Si Si6 0.402302 0.168189 0.039497
Si Si7 0.101509 0.827137 0.347202
Si Si8 0.448525 0.834375 0.213826
O O1 0.983553 0.500000 0.174089
O O2 0.040641 0.290627 0.127340
O O3 0.093056 0.240854 0.273539
O O4 0.770916 0.266447 0.065383
O O5 0.751726 0.500000 0.189571
O O6 0.762623 0.655152 0.294930
O O7 0.581790 0.759278 0.108273
O O8 0.935097 0.749715 0.292011
O O9 0.500000 0.313426 0.500000
O O10 0.620657 0.500000 0.485701
O O11 0.380079 0.319755 0.320013
O O12 0.710898 0.223192 0.523977
O O13 0.192218 0.500000 0.581253
O O14 0.367439 0.749324 0.673078
O O15 0.000000 0.730404 0.500000
O O16 0.203378 0.500000 0.156758
O O17 0.281049 0.761897 0.158961
O O18 0.423874 0.167880 0.126204
O O19 0.378357 0.000000 0.006811
O O20 0.082081 0.000000 0.336244
O O21 0.466291 0.000000 0.243726
#
# Coordination Sequence:
#
# PCOD9151547 Si02
#       8
#     4   4   4   4   4   4   4   4
#     4  11  23  42  65  89 115 155 206 251 295 350
#     4  10  21  39  62  87 118 158 202 245 291 352
#     4  10  20  40  63  84 118 161 202 247 294 345
#     4   9  19  36  58  84 113 152 200 245 289 343
#     4  10  22  39  62  88 118 157 203 249 290 345
#     4  10  22  42  63  88 122 157 193 248 308 352
#     4  12  25  39  59  91 126 158 195 244 301 362
#     4  10  22  38  58  86 123 158 191 239 300 359
#
# _framework density 21.726693000000001
#
# number of rings (size 3 to 8) (size 9 to 14) (size 15 to 20)
#    0.000    1.750    1.250    2.625    1.750    5.000 
#    0.000    5.000    0.000    0.000    0.000    0.000 
#    0.000    0.000    0.000    0.000    0.000    0.000 
#
# Total GULP energy -178955.807318 kJ/mol
# GULP energy per Si atom -5592.368979 kJ/mol
# Density = 2.167724 g / cm^3
# Si number density = 21.726693 Si / 1000 Ang^3
#
#
#
# Elastic Constant Matrix: (Units=GPa)
#
#
# Indices 1 2 3 4 5 6 
#
# 1 84.4600 45.8087 -3.8633 0.0000 18.8000 0.0000
# 2 45.8087 127.1787 20.8946 0.0000 21.5024 0.0000
# 3 -3.8633 20.8946 52.3308 0.0000 13.1245 0.0000
# 4 0.0000 0.0000 0.0000 -37.6550 0.0000 -1.2241
# 5 18.8000 21.5024 13.1245 0.0000 33.9739 0.0000
# 6 0.0000 0.0000 0.0000 -1.2241 0.0000 26.1846
#
#
#
# Elastic Compliance Matrix: (Units=1/GPa)
#
#
# Indices 1 2 3 4 5 6 
#
# 1 0.016920 -0.005661 0.005491 0.000000 -0.007902 0.000000
# 2 -0.005661 0.010967 -0.004254 0.000000 -0.002165 0.000000
# 3 0.005491 -0.004254 0.023585 0.000000 -0.009457 0.000000
# 4 0.000000 0.000000 0.000000 -0.026517 0.000000 -0.001240
# 5 -0.007902 -0.002165 -0.009457 0.000000 0.038831 0.000000
# 6 0.000000 0.000000 0.000000 -0.001240 0.000000 0.038132
#
#
# Mechanical properties :
#
#
# Convention : Reuss Voigt Hill
#
# Bulk Modulus (GPa) = 23.46033 43.29440 33.37736
# Shear Modulus (GPa) = 40.00849 17.90933 28.95891
#
# Velocity S-wave (km/s) = 4.29586 2.87418 3.65481
# Velocity P-wave (km/s) = 5.95208 5.56638 5.76246
#
# Compressibility (1/GPa) = 0.04262515
#
# Stress axis : x y z
#
# Youngs Moduli (GPa) = 59.10139 91.18408 42.40003
#
# Poissons Ratio (x) = 0.51616 -0.23282
# Poissons Ratio (y) = 0.33455 0.18036
# Poissons Ratio (z) = -0.32453 0.38787
#
# Static dielectric constant tensor:
#      x y z
#    x 1.819130 0.000000 -0.029320 
#    y 0.000000 1.740830 0.000000 
#    z -0.029320 0.000000 1.812290 
# 
# From -- ./inp_files/71421.got.cif
#   From: 2010.05.17/outbox.cif.g08.bks.cpg/sg10_36_cif.got.tgz:71421.got - 2010.06.03 11:33:40.
