data_PCOD9151024
_publ_section_title
;
Structure prediction by ZEFSAII (Michael W. Deem and Ramdas Pophale) SiO2 
 PCOD9151024
Probable space group: P 2/M
;
_chemical_formula_sum "Si O2"
_cell_formula_units_Z 24
_cell_length_a 11.839461
_cell_length_b 7.251996
_cell_length_c 22.808592
_cell_angle_alpha 90.000000
_cell_angle_beta 35.888093
_cell_angle_gamma 90.000000
_cell_volume 1147.986404
_symmetry_space_group_name_H-M "P 2/M"
_symmetry_group_IT_number 10
_symmetry_cell_setting 'monoclinic'
loop_
_space_group_symop_operation_xyz
x,y,z
-x,y,-z
-x,-y,-z
x,-y,z
loop_
_atom_site_type_symbol
_atom_site_label
_atom_site_fract_x
_atom_site_fract_y
_atom_site_fract_z
Si Si1 0.002181 0.276081 0.798742
Si Si2 0.383261 0.721803 0.706865
Si Si3 0.149020 0.000000 0.350538
Si Si4 0.356612 0.276502 0.971227
Si Si5 0.711076 0.000000 0.575634
Si Si6 0.780853 0.721220 0.780218
Si Si7 0.778859 0.723680 0.098114
O O1 0.000164 0.500000 0.801896
O O2 0.947921 0.224996 0.755431
O O3 0.209038 0.221916 0.736961
O O4 0.825308 0.213225 0.914444
O O5 0.403613 0.500000 0.696066
O O6 0.582433 0.824499 0.611812
O O7 0.314653 0.776468 0.801228
O O8 0.255318 0.000000 0.368203
O O9 0.200158 0.824496 0.288982
O O10 0.921159 0.000000 0.459117
O O11 0.348036 0.500000 0.976973
O O12 0.574600 0.228760 0.896323
O O13 0.328793 0.218707 0.915460
O O14 0.782873 0.500000 0.771409
O O15 0.780446 0.500000 0.097516
O O16 0.000000 0.783295 0.000000
#
# Coordination Sequence:
#
# PCOD9151024 Si02
#       7
#     4   4   2   4   2   4   4
#     4   9  17  32  57  91 128 160 192 231 276 346
#     4  10  20  37  61  90 124 157 191 236 292 350
#     4  11  26  47  63  83 114 141 194 269 302 336
#     4   9  15  27  52  86 122 161 197 229 275 339
#     4  11  26  45  65  86 108 145 197 253 312 354
#     4  10  21  38  62  88 118 161 200 232 287 349
#     4   9  14  24  48  81 117 155 188 225 275 327
#
# _framework density 20.906171000000001
#
# number of rings (size 3 to 8) (size 9 to 14) (size 15 to 20)
#    0.000    2.333    1.667    1.500    0.000    5.333 
#    0.000    6.250    0.000    3.000    0.000    0.000 
#    0.000    0.000    0.000    0.000    0.000    0.000 
#
# Total GULP energy -134089.419055 kJ/mol
# GULP energy per Si atom -5587.059127 kJ/mol
# Density = 2.085859 g / cm^3
# Si number density = 20.906171 Si / 1000 Ang^3
#
#
#
# Elastic Constant Matrix: (Units=GPa)
#
#
# Indices 1 2 3 4 5 6 
#
# 1 110.5259 23.3093 36.6093 0.0000 -23.6518 0.0000
# 2 23.3093 105.5294 28.2360 0.0000 -8.5232 0.0000
# 3 36.6093 28.2360 88.0192 0.0000 -25.0998 0.0000
# 4 0.0000 0.0000 0.0000 21.3950 0.0000 -7.3589
# 5 -23.6518 -8.5232 -25.0998 0.0000 32.4792 0.0000
# 6 0.0000 0.0000 0.0000 -7.3589 0.0000 3.4234
#
#
#
# Elastic Compliance Matrix: (Units=1/GPa)
#
#
# Indices 1 2 3 4 5 6 
#
# 1 0.011484 -0.001348 -0.002643 0.000000 0.005967 0.000000
# 2 -0.001348 0.010525 -0.002960 0.000000 -0.000507 0.000000
# 3 -0.002643 -0.002960 0.016212 0.000000 0.009828 0.000000
# 4 0.000000 0.000000 0.000000 0.179327 0.000000 0.385478
# 5 0.005967 -0.000507 0.009828 0.000000 0.042596 0.000000
# 6 0.000000 0.000000 0.000000 0.385478 0.000000 1.120726
#
#
# Mechanical properties :
#
#
# Convention : Reuss Voigt Hill
#
# Bulk Modulus (GPa) = 41.11836 53.37596 47.24716
# Shear Modulus (GPa) = 3.56410 25.85418 14.70914
#
# Velocity S-wave (km/s) = 1.30710 3.52046 2.65538
# Velocity P-wave (km/s) = 4.68922 6.48933 5.66128
#
# Compressibility (1/GPa) = 0.02432004
#
# Stress axis : x y z
#
# Youngs Moduli (GPa) = 87.07719 95.01341 61.68087
#
# Poissons Ratio (x) = 0.12804 0.16300
# Poissons Ratio (y) = 0.11734 0.18260
# Poissons Ratio (z) = 0.23011 0.28128
#
# Static dielectric constant tensor:
#      x y z
#    x 1.747300 0.000000 -0.012160 
#    y 0.000000 1.803040 0.000000 
#    z -0.012160 0.000000 1.694600 
# 
# From -- ./inp_files/56577.got.cif
#   From: 2010.05.17/outbox.cif.g08.bks.cpg/sg10_29_cif.got.tgz:56577.got - 2010.06.03 11:33:40.
