data_PCOD9151053
_publ_section_title
;
Structure prediction by ZEFSAII (Michael W. Deem and Ramdas Pophale) SiO2 
 PCOD9151053
Probable space group: P 2/M
;
_chemical_formula_sum "Si O2"
_cell_formula_units_Z 28
_cell_length_a 9.400439
_cell_length_b 13.867977
_cell_length_c 19.018604
_cell_angle_alpha 90.000000
_cell_angle_beta 142.927347
_cell_angle_gamma 90.000000
_cell_volume 1494.626747
_symmetry_space_group_name_H-M "P 2/M"
_symmetry_group_IT_number 10
_symmetry_cell_setting 'monoclinic'
loop_
_space_group_symop_operation_xyz
x,y,z
-x,y,-z
-x,-y,-z
x,-y,z
loop_
_atom_site_type_symbol
_atom_site_label
_atom_site_fract_x
_atom_site_fract_y
_atom_site_fract_z
Si Si1 0.363313 0.749268 0.548083
Si Si2 0.781202 0.891226 0.112335
Si Si3 0.684086 0.276855 0.305588
Si Si4 0.951819 0.386269 0.649385
Si Si5 0.101738 0.278699 0.228264
Si Si6 0.950127 0.110224 0.340900
Si Si7 0.225062 0.609614 0.138701
O O1 0.292677 0.729219 0.601113
O O2 0.295363 0.653713 0.478016
O O3 0.641471 0.767497 0.653833
O O4 0.195473 0.833715 0.452178
O O5 0.878800 0.889155 0.230886
O O6 0.923803 0.804543 0.133012
O O7 0.823291 0.000000 0.101141
O O8 0.500000 0.874854 0.000000
O O9 0.751276 0.172167 0.302394
O O10 0.423196 0.316837 0.189873
O O11 0.860298 0.348655 0.334174
O O12 0.957980 0.500000 0.659835
O O13 0.993079 0.331872 0.739486
O O14 0.149171 0.355768 0.186020
O O15 0.963975 0.000000 0.370249
O O16 0.319472 0.500000 0.178466
O O17 0.000000 0.611182 0.000000
#
# Coordination Sequence:
#
# PCOD9151053 Si02
#       7
#     4   4   4   4   4   4   4
#     4  10  22  36  54  88 121 155 188 236 297 351
#     4  10  22  39  61  88 117 152 193 241 297 346
#     4  10  21  38  57  84 121 154 198 239 290 350
#     4  11  21  34  57  86 116 152 197 241 285 344
#     4  11  22  38  61  87 121 149 196 246 289 342
#     4  10  20  37  62  87 116 153 194 241 290 346
#     4  10  23  41  60  84 118 160 197 237 296 348
#
# _framework density 18.733775000000001
#
# number of rings (size 3 to 8) (size 9 to 14) (size 15 to 20)
#    0.000    1.714    2.857    3.000    2.000    6.286 
#    0.000    3.571    0.000    4.286    0.000    0.000 
#    0.000    0.000    0.000    0.000    0.000    0.000 
#
# Total GULP energy -156238.514534 kJ/mol
# GULP energy per Si atom -5579.946948 kJ/mol
# Density = 1.869114 g / cm^3
# Si number density = 18.733775 Si / 1000 Ang^3
#
#
#
# Elastic Constant Matrix: (Units=GPa)
#
#
# Indices 1 2 3 4 5 6 
#
# 1 67.5295 28.5996 11.1859 0.0000 5.8889 0.0000
# 2 28.5996 144.6121 31.9957 0.0000 17.3864 0.0000
# 3 11.1859 31.9957 73.1649 0.0000 15.3550 0.0000
# 4 0.0000 0.0000 0.0000 20.0864 0.0000 -6.7732
# 5 5.8889 17.3864 15.3550 0.0000 23.6059 0.0000
# 6 0.0000 0.0000 0.0000 -6.7732 0.0000 11.1701
#
#
#
# Elastic Compliance Matrix: (Units=1/GPa)
#
#
# Indices 1 2 3 4 5 6 
#
# 1 0.016291 -0.002847 -0.000964 0.000000 -0.001340 0.000000
# 2 -0.002847 0.008496 -0.002450 0.000000 -0.003953 0.000000
# 3 -0.000964 -0.002450 0.016743 0.000000 -0.008846 0.000000
# 4 0.000000 0.000000 0.000000 0.062581 0.000000 0.037948
# 5 -0.001340 -0.003953 -0.008846 0.000000 0.051362 0.000000
# 6 0.000000 0.000000 0.000000 0.037948 0.000000 0.112535
#
#
# Mechanical properties :
#
#
# Convention : Reuss Voigt Hill
#
# Bulk Modulus (GPa) = 34.47606 47.65209 41.06408
# Shear Modulus (GPa) = 17.22947 25.20748 21.21848
#
# Velocity S-wave (km/s) = 3.03595 3.67217 3.36911
# Velocity P-wave (km/s) = 5.54368 6.59329 6.09114
#
# Compressibility (1/GPa) = 0.02900563
#
# Stress axis : x y z
#
# Youngs Moduli (GPa) = 61.38434 117.70861 59.72594
#
# Poissons Ratio (x) = 0.33516 0.05759
# Poissons Ratio (y) = 0.17478 0.14634
# Poissons Ratio (z) = 0.05919 0.28841
#
# Static dielectric constant tensor:
#      x y z
#    x 1.658840 0.000000 0.001610 
#    y 0.000000 1.647790 0.000000 
#    z 0.001610 0.000000 1.653160 
# 
# From -- ./inp_files/25070.got.cif
#   From: 2010.05.17/outbox.cif.g08.bks.cpg/sg10_13_cif.got.tgz:25070.got - 2010.06.03 11:33:40.
