data_PCOD9151546
_publ_section_title
;
Structure prediction by ZEFSAII (Michael W. Deem and Ramdas Pophale) SiO2 
 PCOD9151546
Probable space group: P 2/M
;
_chemical_formula_sum "Si O2"
_cell_formula_units_Z 32
_cell_length_a 11.754767
_cell_length_b 8.799682
_cell_length_c 29.408919
_cell_angle_alpha 90.000000
_cell_angle_beta 31.934312
_cell_angle_gamma 90.000000
_cell_volume 1609.058884
_symmetry_space_group_name_H-M "P 2/M"
_symmetry_group_IT_number 10
_symmetry_cell_setting 'monoclinic'
loop_
_space_group_symop_operation_xyz
x,y,z
-x,y,-z
-x,-y,-z
x,-y,z
loop_
_atom_site_type_symbol
_atom_site_label
_atom_site_fract_x
_atom_site_fract_y
_atom_site_fract_z
Si Si1 0.745458 0.321504 0.413745
Si Si2 0.907231 0.681238 0.962774
Si Si3 0.750396 0.816472 0.921169
Si Si4 0.513921 0.680518 0.346354
Si Si5 0.616903 0.178707 0.698910
Si Si6 0.690909 0.818712 0.118997
Si Si7 0.924168 0.677945 0.454642
Si Si8 0.093923 0.819036 0.730634
O O1 0.500000 0.261455 0.500000
O O2 0.728604 0.500000 0.407519
O O3 0.849582 0.308333 0.427835
O O4 0.883180 0.243597 0.327867
O O5 0.936428 0.500000 0.953672
O O6 0.850410 0.739342 0.931933
O O7 0.117188 0.763144 0.912772
O O8 0.721344 0.731461 0.061407
O O9 0.886714 0.771781 0.830358
O O10 0.766538 0.000000 0.921131
O O11 0.500000 0.777683 0.000000
O O12 0.537608 0.500000 0.343219
O O13 0.517760 0.729855 0.292855
O O14 0.279309 0.722437 0.445717
O O15 0.698014 0.761002 0.312573
O O16 0.527434 0.212542 0.779527
O O17 0.863567 0.225369 0.610116
O O18 0.586517 0.000000 0.701048
O O19 0.710505 0.000000 0.104798
O O20 0.973444 0.500000 0.447368
O O21 0.095613 0.000000 0.728294
#
# Coordination Sequence:
#
# PCOD9151546 Si02
#       8
#     4   4   4   4   4   4   4   4
#     4  10  20  40  63  84 116 156 199 241 290 355
#     4  11  22  37  62  92 117 145 195 251 293 341
#     4  10  23  43  62  83 120 163 198 238 297 364
#     4  11  22  39  61  84 117 159 198 238 294 358
#     4  11  24  38  56  87 121 153 195 244 293 347
#     4  10  21  39  61  84 117 159 194 232 294 362
#     4  10  22  39  59  83 115 159 199 236 292 355
#     4  11  23  38  62  93 118 151 201 251 297 346
#
# _framework density 19.887401000000001
#
# number of rings (size 3 to 8) (size 9 to 14) (size 15 to 20)
#    0.000    1.500    1.250    4.500    0.000   10.500 
#    0.000    3.750    0.000    0.000    0.000    0.000 
#    0.000    0.000    0.000    0.000    0.000    0.000 
#
# Total GULP energy -178902.948580 kJ/mol
# GULP energy per Si atom -5590.717143 kJ/mol
# Density = 1.984214 g / cm^3
# Si number density = 19.887401 Si / 1000 Ang^3
#
#
#
# Elastic Constant Matrix: (Units=GPa)
#
#
# Indices 1 2 3 4 5 6 
#
# 1 37.0742 14.6364 18.7845 0.0000 17.4038 0.0000
# 2 14.6364 36.2093 27.0115 0.0000 8.5367 0.0000
# 3 18.7845 27.0115 115.2964 0.0000 23.6891 0.0000
# 4 0.0000 0.0000 0.0000 12.6087 0.0000 -2.4288
# 5 17.4038 8.5367 23.6891 0.0000 27.9448 0.0000
# 6 0.0000 0.0000 0.0000 -2.4288 0.0000 69.8960
#
#
#
# Elastic Compliance Matrix: (Units=1/GPa)
#
#
# Indices 1 2 3 4 5 6 
#
# 1 0.042328 -0.012173 0.000736 0.000000 -0.023267 0.000000
# 2 -0.012173 0.037406 -0.007253 0.000000 0.002303 0.000000
# 3 0.000736 -0.007253 0.011978 0.000000 -0.008396 0.000000
# 4 0.000000 0.000000 0.000000 0.079845 0.000000 0.002775
# 5 -0.023267 0.002303 -0.008396 0.000000 0.056689 0.000000
# 6 0.000000 0.000000 0.000000 0.002775 0.000000 0.014403
#
#
# Mechanical properties :
#
#
# Convention : Reuss Voigt Hill
#
# Bulk Modulus (GPa) = 18.40590 34.38274 26.39432
# Shear Modulus (GPa) = 16.77063 30.63306 23.70185
#
# Velocity S-wave (km/s) = 2.90708 3.92896 3.45599
# Velocity P-wave (km/s) = 4.53247 6.15699 5.40610
#
# Compressibility (1/GPa) = 0.05433040
#
# Stress axis : x y z
#
# Youngs Moduli (GPa) = 23.62506 26.73388 83.48785
#
# Poissons Ratio (x) = 0.32544 -0.06146
# Poissons Ratio (y) = 0.28760 0.60556
# Poissons Ratio (z) = -0.01739 0.19391
#
# Static dielectric constant tensor:
#      x y z
#    x 1.671170 0.000000 0.008190 
#    y 0.000000 1.669050 0.000000 
#    z 0.008190 0.000000 1.721090 
# 
# From -- ./inp_files/95004.got.cif
#   From: 2010.05.17/outbox.cif.g08.bks.cpg/sg10_48_cif.got.tgz:95004.got - 2010.06.03 11:33:40.
