data_PCOD9151488
_publ_section_title
;
Structure prediction by ZEFSAII (Michael W. Deem and Ramdas Pophale) SiO2 
 PCOD9151488
Probable space group: P 2/M
;
_chemical_formula_sum "Si O2"
_cell_formula_units_Z 32
_cell_length_a 12.653023
_cell_length_b 19.689307
_cell_length_c 8.888940
_cell_angle_alpha 90.000000
_cell_angle_beta 50.804131
_cell_angle_gamma 90.000000
_cell_volume 1716.211599
_symmetry_space_group_name_H-M "P 2/M"
_symmetry_group_IT_number 10
_symmetry_cell_setting 'monoclinic'
loop_
_space_group_symop_operation_xyz
x,y,z
-x,y,-z
-x,-y,-z
x,-y,z
loop_
_atom_site_type_symbol
_atom_site_label
_atom_site_fract_x
_atom_site_fract_y
_atom_site_fract_z
Si Si1 0.416335 0.819363 0.719801
Si Si2 0.888455 0.832826 0.970787
Si Si3 0.602138 0.696054 0.036051
Si Si4 0.585373 0.580074 0.273289
Si Si5 0.411374 0.077998 0.231556
Si Si6 0.915949 0.296755 0.728460
Si Si7 0.148466 0.921077 0.293802
Si Si8 0.095552 0.577245 0.058377
O O1 0.500000 0.799871 0.500000
O O2 0.401402 0.755074 0.839616
O O3 0.502472 0.877635 0.728342
O O4 0.260318 0.835344 0.818497
O O5 0.924013 0.762790 0.848065
O O6 0.865832 0.884715 0.852822
O O7 0.000000 0.846123 0.000000
O O8 0.551974 0.627157 0.161338
O O9 0.500000 0.716114 0.000000
O O10 0.755743 0.693454 0.836397
O O11 0.500000 0.598562 0.500000
O O12 0.561478 0.500000 0.268077
O O13 0.749205 0.590862 0.137300
O O14 0.264643 0.105928 0.304535
O O15 0.393737 0.000000 0.302140
O O16 0.500000 0.076363 0.000000
O O17 0.952393 0.367441 0.777688
O O18 0.000000 0.282836 0.500000
O O19 0.000000 0.917009 0.500000
O O20 0.185463 0.000000 0.236314
O O21 0.092945 0.500000 0.120741
O O22 0.000000 0.580889 0.000000
#
# Coordination Sequence:
#
# PCOD9151488 Si02
#       8
#     4   4   4   4   4   4   4   4
#     4  11  24  38  58  85 114 150 191 236 286 338
#     4  11  24  39  57  84 117 150 188 237 286 339
#     4  10  22  37  56  81 112 146 188 238 282 332
#     4   9  18  34  55  80 112 148 185 227 280 338
#     4  10  20  39  64  85 114 152 190 234 280 335
#     4  10  22  38  56  81 111 148 189 233 285 338
#     4  10  22  40  63  89 116 151 191 231 281 339
#     4   9  18  34  56  81 111 146 185 231 280 333
#
# _framework density 18.645719
#
# number of rings (size 3 to 8) (size 9 to 14) (size 15 to 20)
#    0.000    2.000    1.250    1.500    3.500    3.000 
#    0.000    0.000    0.000    0.000    0.000    0.000 
#    0.000    0.000    0.000    0.000    0.000    0.000 
#
# Total GULP energy -178376.816194 kJ/mol
# GULP energy per Si atom -5574.275506 kJ/mol
# Density = 1.860328 g / cm^3
# Si number density = 18.645719 Si / 1000 Ang^3
#
#
#
# Elastic Constant Matrix: (Units=GPa)
#
#
# Indices 1 2 3 4 5 6 
#
# 1 105.6872 12.6204 22.9319 0.0000 -17.2467 0.0000
# 2 12.6204 35.4231 14.3668 0.0000 -11.7072 0.0000
# 3 22.9319 14.3668 86.6838 0.0000 -12.1679 0.0000
# 4 0.0000 0.0000 0.0000 7.6956 0.0000 3.1735
# 5 -17.2467 -11.7072 -12.1679 0.0000 10.3163 0.0000
# 6 0.0000 0.0000 0.0000 3.1735 0.0000 21.5843
#
#
#
# Elastic Compliance Matrix: (Units=1/GPa)
#
#
# Indices 1 2 3 4 5 6 
#
# 1 0.013411 0.004224 -0.000513 0.000000 0.026609 0.000000
# 2 0.004224 0.046512 -0.000510 0.000000 0.059243 0.000000
# 3 -0.000513 -0.000510 0.013847 0.000000 0.014897 0.000000
# 4 0.000000 0.000000 0.000000 0.138331 0.000000 -0.020338
# 5 0.026609 0.059243 0.014897 0.000000 0.226219 0.000000
# 6 0.000000 0.000000 0.000000 -0.020338 0.000000 0.049320
#
#
# Mechanical properties :
#
#
# Convention : Reuss Voigt Hill
#
# Bulk Modulus (GPa) = 12.47309 36.40358 24.43834
# Shear Modulus (GPa) = 9.84325 19.77759 14.81042
#
# Velocity S-wave (km/s) = 2.30012 3.26038 2.82140
# Velocity P-wave (km/s) = 3.70919 5.80858 4.87328
#
# Compressibility (1/GPa) = 0.08017259
#
# Stress axis : x y z
#
# Youngs Moduli (GPa) = 74.56583 21.49996 72.21548
#
# Poissons Ratio (x) = -0.09082 0.03703
# Poissons Ratio (y) = -0.31498 0.03685
# Poissons Ratio (z) = 0.03823 0.01097
#
# Static dielectric constant tensor:
#      x y z
#    x 1.651390 0.000000 -0.020180 
#    y 0.000000 1.685000 0.000000 
#    z -0.020180 0.000000 1.613780 
# 
# From -- ./inp_files/26073.got.cif
#   From: 2010.05.17/outbox.cif.g08.bks.cpg/sg10_14_cif.got.tgz:26073.got - 2010.06.03 11:33:40.
