data_PCOD9151569
_publ_section_title
;
Structure prediction by ZEFSAII (Michael W. Deem and Ramdas Pophale) SiO2 
 PCOD9151569
Probable space group: P 2/M
;
_chemical_formula_sum "Si O2"
_cell_formula_units_Z 28
_cell_length_a 15.301231
_cell_length_b 8.791537
_cell_length_c 11.796771
_cell_angle_alpha 90.000000
_cell_angle_beta 117.593304
_cell_angle_gamma 90.000000
_cell_volume 1406.417814
_symmetry_space_group_name_H-M "P 2/M"
_symmetry_group_IT_number 10
_symmetry_cell_setting 'monoclinic'
loop_
_space_group_symop_operation_xyz
x,y,z
-x,y,-z
-x,-y,-z
x,-y,z
loop_
_atom_site_type_symbol
_atom_site_label
_atom_site_fract_x
_atom_site_fract_y
_atom_site_fract_z
Si Si1 0.384975 0.181515 0.415516
Si Si2 0.824017 0.179507 0.124275
Si Si3 0.224844 0.324618 0.474003
Si Si4 0.993115 0.315729 0.628850
Si Si5 0.497159 0.827037 0.134049
Si Si6 0.308478 0.681159 0.135939
Si Si7 0.303257 0.327107 0.764728
O O1 0.500000 0.231104 0.500000
O O2 0.313328 0.227786 0.475359
O O3 0.333043 0.256482 0.275243
O O4 0.386500 0.000000 0.402807
O O5 0.738073 0.218121 0.163655
O O6 0.920550 0.249553 0.241238
O O7 0.833519 0.000000 0.116135
O O8 0.788413 0.253936 0.985062
O O9 0.237114 0.500000 0.442928
O O10 0.113567 0.272198 0.383868
O O11 0.231540 0.326679 0.614362
O O12 0.999579 0.500000 0.633239
O O13 0.000000 0.267607 0.500000
O O14 0.400895 0.742591 0.118894
O O15 0.593120 0.730238 0.220747
O O16 0.500449 0.000000 0.181313
O O17 0.500000 0.834718 0.000000
O O18 0.305001 0.500000 0.134227
O O19 0.310892 0.500000 0.813577
#
# Coordination Sequence:
#
# PCOD9151569 Si02
#       7
#     4   4   4   4   4   4   4
#     4  11  25  45  68  94 129 169 210 262 321 379
#     4  12  24  38  59  92 130 165 206 261 321 379
#     4  10  22  40  65  94 125 164 214 264 311 371
#     4  10  20  40  65  93 130 171 212 262 317 379
#     4  11  22  35  54  86 125 160 198 255 316 376
#     4  12  25  42  65  89 122 169 217 264 315 380
#     4  11  21  36  59  89 124 166 210 255 310 377
#
# _framework density 19.908733999999999
#
# number of rings (size 3 to 8) (size 9 to 14) (size 15 to 20)
#    0.000    1.000    2.857    4.714    0.000    6.000 
#    0.000    0.714    0.000    4.286    0.000    0.000 
#    0.000    0.000    0.000    0.000    0.000    0.000 
#
# Total GULP energy -156452.685899 kJ/mol
# GULP energy per Si atom -5587.595925 kJ/mol
# Density = 1.986342 g / cm^3
# Si number density = 19.908734 Si / 1000 Ang^3
#
#
#
# Elastic Constant Matrix: (Units=GPa)
#
#
# Indices 1 2 3 4 5 6 
#
# 1 57.6929 11.9328 13.6145 0.0000 15.0052 0.0000
# 2 11.9328 79.3012 18.6301 0.0000 5.0641 0.0000
# 3 13.6145 18.6301 95.3198 0.0000 12.8543 0.0000
# 4 0.0000 0.0000 0.0000 27.0110 0.0000 -0.4401
# 5 15.0052 5.0641 12.8543 0.0000 37.7700 0.0000
# 6 0.0000 0.0000 0.0000 -0.4401 0.0000 29.7542
#
#
#
# Elastic Compliance Matrix: (Units=1/GPa)
#
#
# Indices 1 2 3 4 5 6 
#
# 1 0.019994 -0.002209 -0.001460 0.000000 -0.007150 0.000000
# 2 -0.002209 0.013493 -0.002302 0.000000 -0.000148 0.000000
# 3 -0.001460 -0.002302 0.011560 0.000000 -0.003046 0.000000
# 4 0.000000 0.000000 0.000000 0.037031 0.000000 0.000548
# 5 -0.007150 -0.000148 -0.003046 0.000000 0.030373 0.000000
# 6 0.000000 0.000000 0.000000 0.000548 0.000000 0.033617
#
#
# Mechanical properties :
#
#
# Convention : Reuss Voigt Hill
#
# Bulk Modulus (GPa) = 30.20589 35.62985 32.91787
# Shear Modulus (GPa) = 29.57807 31.44948 30.51378
#
# Velocity S-wave (km/s) = 3.85864 3.97883 3.91920
# Velocity P-wave (km/s) = 5.92091 6.24849 6.08691
#
# Compressibility (1/GPa) = 0.03310613
#
# Stress axis : x y z
#
# Youngs Moduli (GPa) = 50.01433 74.11393 86.50465
#
# Poissons Ratio (x) = 0.16372 0.12628
# Poissons Ratio (y) = 0.11049 0.19910
# Poissons Ratio (z) = 0.07301 0.17058
#
# Static dielectric constant tensor:
#      x y z
#    x 1.724770 0.000000 0.010400 
#    y 0.000000 1.674600 0.000000 
#    z 0.010400 0.000000 1.753470 
# 
# From -- ./inp_files/50050.got.cif
#   From: 2010.05.17/outbox.cif.g08.bks.cpg/sg10_26_cif.got.tgz:50050.got - 2010.06.03 11:33:40.
