data_PCOD9151684
_publ_section_title
;
Structure prediction by ZEFSAII (Michael W. Deem and Ramdas Pophale) SiO2 
 PCOD9151684
Probable space group: P 2/M
;
_chemical_formula_sum "Si O2"
_cell_formula_units_Z 32
_cell_length_a 9.330242
_cell_length_b 13.790199
_cell_length_c 32.291294
_cell_angle_alpha 90.000000
_cell_angle_beta 150.634967
_cell_angle_gamma 90.000000
_cell_volume 2037.391677
_symmetry_space_group_name_H-M "P 2/M"
_symmetry_group_IT_number 10
_symmetry_cell_setting 'monoclinic'
loop_
_space_group_symop_operation_xyz
x,y,z
-x,y,-z
-x,-y,-z
x,-y,z
loop_
_atom_site_type_symbol
_atom_site_label
_atom_site_fract_x
_atom_site_fract_y
_atom_site_fract_z
Si Si1 0.221957 0.382760 0.269134
Si Si2 0.662384 0.615529 0.080770
Si Si3 0.891157 0.699407 0.265828
Si Si4 0.137943 0.887021 0.455742
Si Si5 0.340586 0.615086 0.086638
Si Si6 0.165233 0.615380 0.417576
Si Si7 0.859474 0.702980 0.420277
Si Si8 0.820689 0.886538 0.633130
O O1 0.255612 0.500000 0.276852
O O2 0.525862 0.329914 0.338243
O O3 0.985786 0.351491 0.174865
O O4 0.081438 0.352458 0.277776
O O5 0.693848 0.500000 0.081841
O O6 0.465830 0.627636 0.071977
O O7 0.500000 0.657684 0.000000
O O8 0.555438 0.675454 0.170431
O O9 0.985090 0.656392 0.333636
O O10 0.981572 0.812010 0.291629
O O11 0.475534 0.865043 0.552832
O O12 0.121771 0.874166 0.401776
O O13 0.920648 0.814947 0.424168
O O14 0.083448 0.000000 0.450904
O O15 0.366014 0.500000 0.103683
O O16 0.000000 0.640937 0.000000
O O17 0.500000 0.651627 0.500000
O O18 0.169654 0.500000 0.415387
O O19 0.023609 0.645933 0.425080
O O20 0.000000 0.681472 0.500000
O O21 0.868370 0.000000 0.654735
#
# Coordination Sequence:
#
# PCOD9151684 Si02
#       8
#     4   4   4   4   4   4   4   4
#     4  10  21  34  48  71 104 139 169 201 247 297
#     4   8  15  30  49  66  91 128 164 198 240 289
#     4  11  19  34  55  73 100 132 172 210 254 305
#     4   9  18  34  53  73  97 127 167 216 263 300
#     4   9  18  31  49  75 103 130 165 209 249 288
#     4  11  22  33  47  68  96 135 176 205 240 296
#     4  12  23  33  47  69 102 136 168 207 246 295
#     4   9  17  32  56  77  95 124 166 217 265 305
#
# _framework density 15.706357000000001
#
# number of rings (size 3 to 8) (size 9 to 14) (size 15 to 20)
#    0.000    2.125    1.250    5.250    0.000    3.250 
#    0.000    3.125    0.000    0.375    0.000    0.000 
#    0.000    3.000    0.000    0.000    0.000    0.000 
#
# Total GULP energy -178463.093041 kJ/mol
# GULP energy per Si atom -5576.971658 kJ/mol
# Density = 1.567061 g / cm^3
# Si number density = 15.706357 Si / 1000 Ang^3
#
#
#
# Elastic Constant Matrix: (Units=GPa)
#
#
# Indices 1 2 3 4 5 6 
#
# 1 64.8565 26.5881 61.8908 0.0000 8.1136 0.0000
# 2 26.5881 84.9547 62.9550 0.0000 6.1168 0.0000
# 3 61.8908 62.9550 151.2794 0.0000 11.5527 0.0000
# 4 0.0000 0.0000 0.0000 16.3319 0.0000 -5.5048
# 5 8.1136 6.1168 11.5527 0.0000 30.8315 0.0000
# 6 0.0000 0.0000 0.0000 -5.5048 0.0000 22.0392
#
#
#
# Elastic Compliance Matrix: (Units=1/GPa)
#
#
# Indices 1 2 3 4 5 6 
#
# 1 0.025546 -0.000298 -0.010108 0.000000 -0.002876 0.000000
# 2 -0.000298 0.017040 -0.006915 0.000000 -0.000711 0.000000
# 3 -0.010108 -0.006915 0.013708 0.000000 -0.001104 0.000000
# 4 0.000000 0.000000 0.000000 0.066859 0.000000 0.016699
# 5 -0.002876 -0.000711 -0.001104 0.000000 0.033746 0.000000
# 6 0.000000 0.000000 0.000000 0.016699 0.000000 0.049545
#
#
# Mechanical properties :
#
#
# Convention : Reuss Voigt Hill
#
# Bulk Modulus (GPa) = 46.18433 67.10648 56.64541
# Shear Modulus (GPa) = 20.13685 23.81763 21.97724
#
# Velocity S-wave (km/s) = 3.58450 3.89836 3.74472
# Velocity P-wave (km/s) = 6.82644 7.94238 7.40546
#
# Compressibility (1/GPa) = 0.02165237
#
# Stress axis : x y z
#
# Youngs Moduli (GPa) = 39.14495 58.68679 72.95268
#
# Poissons Ratio (x) = 0.01747 0.73739
# Poissons Ratio (y) = 0.01166 0.50446
# Poissons Ratio (z) = 0.39567 0.40581
#
# Static dielectric constant tensor:
#      x y z
#    x 1.521450 0.000000 -0.004000 
#    y 0.000000 1.533880 0.000000 
#    z -0.004000 0.000000 1.521520 
# 
# From -- ./inp_files/94684.got.cif
#   From: 2010.05.17/outbox.cif.g08.bks.cpg/sg10_48_cif.got.tgz:94684.got - 2010.06.03 11:33:40.
