data_PCOD9151203
_publ_section_title
;
Structure prediction by ZEFSAII (Michael W. Deem and Ramdas Pophale) SiO2 
 PCOD9151203
Probable space group: P 2/M
;
_chemical_formula_sum "Si O2"
_cell_formula_units_Z 24
_cell_length_a 13.099986
_cell_length_b 14.834978
_cell_length_c 18.630446
_cell_angle_alpha 90.000000
_cell_angle_beta 19.538255
_cell_angle_gamma 90.000000
_cell_volume 1210.860808
_symmetry_space_group_name_H-M "P 2/M"
_symmetry_group_IT_number 10
_symmetry_cell_setting 'monoclinic'
loop_
_space_group_symop_operation_xyz
x,y,z
-x,y,-z
-x,-y,-z
x,-y,z
loop_
_atom_site_type_symbol
_atom_site_label
_atom_site_fract_x
_atom_site_fract_y
_atom_site_fract_z
Si Si1 0.554633 0.500000 0.832048
Si Si2 0.970979 0.193250 0.796354
Si Si3 0.833416 0.500000 0.488650
Si Si4 0.802987 0.803666 0.058238
Si Si5 0.673632 0.000000 0.177378
Si Si6 0.778179 0.302116 0.505915
Si Si7 0.431502 0.311207 0.128228
Si Si8 0.258995 0.000000 0.593113
O O1 0.685298 0.500000 0.665609
O O2 0.427786 0.398687 0.925066
O O3 0.809089 0.500000 0.727151
O O4 0.141074 0.246793 0.619741
O O5 0.022797 0.217814 0.845469
O O6 0.615739 0.221270 0.024740
O O7 0.059154 0.089768 0.729779
O O8 0.746507 0.407584 0.508287
O O9 0.518862 0.737384 0.258824
O O10 0.669672 0.905594 0.137754
O O11 0.000000 0.802092 0.000000
O O12 0.432878 0.000000 0.401759
O O13 0.000000 0.000000 0.000000
O O14 0.066288 0.299868 0.370484
O O15 0.500000 0.328845 0.000000
O O16 0.500000 0.000000 0.500000
#
# Coordination Sequence:
#
# PCOD9151203 Si02
#       8
#     2   4   2   4   2   4   4   2
#     4   9  15  30  58  88 120 158 200 247 294 340
#     4  11  23  37  61  90 118 156 196 248 303 356
#     4   9  18  32  57  87 119 159 205 245 289 359
#     4  11  22  38  60  88 116 154 206 249 298 359
#     4  10  20  38  59  86 112 141 195 254 290 345
#     4  10  21  39  59  88 125 159 197 248 299 352
#     4   9  19  35  57  92 123 160 199 245 298 364
#     4  12  22  40  64  89 119 155 200 256 298 349
#
# _framework density 19.820609999999999
#
# number of rings (size 3 to 8) (size 9 to 14) (size 15 to 20)
#    0.000    1.833    1.667    3.750    0.000    4.000 
#    0.000    5.833    0.000    3.000    0.000    0.000 
#    0.000    0.000    0.000    0.000    0.000    0.000 
#
# Total GULP energy -133750.370730 kJ/mol
# GULP energy per Si atom -5572.932114 kJ/mol
# Density = 1.977550 g / cm^3
# Si number density = 19.820610 Si / 1000 Ang^3
#
#
#
# Elastic Constant Matrix: (Units=GPa)
#
#
# Indices 1 2 3 4 5 6 
#
# 1 62.3912 38.4076 17.8994 0.0000 24.7528 0.0000
# 2 38.4076 183.7121 52.7501 0.0000 -5.8310 0.0000
# 3 17.8994 52.7501 69.0247 0.0000 7.4045 0.0000
# 4 0.0000 0.0000 0.0000 19.5028 0.0000 15.3168
# 5 24.7528 -5.8310 7.4045 0.0000 30.8193 0.0000
# 6 0.0000 0.0000 0.0000 15.3168 0.0000 7.2619
#
#
#
# Elastic Compliance Matrix: (Units=1/GPa)
#
#
# Indices 1 2 3 4 5 6 
#
# 1 0.030932 -0.007447 0.000499 0.000000 -0.026372 0.000000
# 2 -0.007447 0.008987 -0.005913 0.000000 0.009102 0.000000
# 3 0.000499 -0.005913 0.019544 0.000000 -0.006215 0.000000
# 4 0.000000 0.000000 0.000000 -0.078102 0.000000 0.164735
# 5 -0.026372 0.009102 -0.006215 0.000000 0.056844 0.000000
# 6 0.000000 0.000000 0.000000 0.164735 0.000000 -0.209755
#
#
# Mechanical properties :
#
#
# Convention : Reuss Voigt Hill
#
# Bulk Modulus (GPa) = 29.63836 59.24915 44.44376
# Shear Modulus (GPa) = -37.15212 25.25486 -5.94863
#
# Velocity S-wave (km/s) = -4.33415 3.57343 -1.73429
# Velocity P-wave (km/s) = 3.17187 6.85445 4.29667
#
# Compressibility (1/GPa) = 0.03374005
#
# Stress axis : x y z
#
# Youngs Moduli (GPa) = 32.32915 111.27120 51.16665
#
# Poissons Ratio (x) = 0.82865 -0.02553
# Poissons Ratio (y) = 0.24076 0.30257
# Poissons Ratio (z) = -0.01613 0.65799
#
# Static dielectric constant tensor:
#      x y z
#    x 1.829660 0.000000 0.041410 
#    y 0.000000 1.756550 0.000000 
#    z 0.041410 0.000000 1.749280 
# 
# From -- ./inp_files/70615.got.cif
#   From: 2010.05.17/outbox.cif.g08.bks.cpg/sg10_36_cif.got.tgz:70615.got - 2010.06.03 11:33:40.
