data_PCOD9151123
_publ_section_title
;
Structure prediction by ZEFSAII (Michael W. Deem and Ramdas Pophale) SiO2 
 PCOD9151123
Probable space group: P 2/M
;
_chemical_formula_sum "Si O2"
_cell_formula_units_Z 28
_cell_length_a 8.539867
_cell_length_b 13.977694
_cell_length_c 11.709481
_cell_angle_alpha 90.000000
_cell_angle_beta 111.347641
_cell_angle_gamma 90.000000
_cell_volume 1301.833141
_symmetry_space_group_name_H-M "P 2/M"
_symmetry_group_IT_number 10
_symmetry_cell_setting 'monoclinic'
loop_
_space_group_symop_operation_xyz
x,y,z
-x,y,-z
-x,-y,-z
x,-y,z
loop_
_atom_site_type_symbol
_atom_site_label
_atom_site_fract_x
_atom_site_fract_y
_atom_site_fract_z
Si Si1 0.142644 0.109512 0.956879
Si Si2 0.806989 0.392123 0.492572
Si Si3 0.634839 0.764792 0.849942
Si Si4 0.689155 0.208789 0.598756
Si Si5 0.702644 0.609276 0.030249
Si Si6 0.743549 0.717282 0.265347
Si Si7 0.027656 0.108608 0.664519
O O1 0.080733 0.111643 0.811811
O O2 0.165770 0.000000 0.997398
O O3 0.307864 0.164176 0.035290
O O4 0.000000 0.153290 0.000000
O O5 0.772438 0.500000 0.522342
O O6 0.755497 0.311316 0.569412
O O7 0.711767 0.364618 0.350755
O O8 0.000000 0.387604 0.500000
O O9 0.686829 0.790808 0.735636
O O10 0.435026 0.765276 0.799194
O O11 0.713818 0.664614 0.913554
O O12 0.500000 0.193002 0.500000
O O13 0.830294 0.131654 0.599427
O O14 0.759812 0.500000 0.042829
O O15 0.790655 0.667236 0.157795
O O16 0.500000 0.609576 0.000000
O O17 0.868248 0.798135 0.349302
O O18 0.067423 0.000000 0.635637
#
# Coordination Sequence:
#
# PCOD9151123 Si02
#       7
#     4   4   4   4   4   4   4
#     4  10  20  37  63  93 126 165 207 257 323 388
#     4  11  24  43  68  94 126 177 223 260 311 383
#     4  11  22  37  65  97 129 168 206 270 319 376
#     4  12  25  44  65  93 133 170 217 266 317 382
#     4   9  19  35  58  91 126 163 203 256 320 378
#     4  11  21  41  65  93 131 166 214 267 324 381
#     4  11  24  42  68  94 125 168 215 269 332 389
#
# _framework density 21.508132
#
# number of rings (size 3 to 8) (size 9 to 14) (size 15 to 20)
#    0.000    1.286    5.714    0.429    0.000    2.286 
#    0.000    2.857    0.000    1.286    0.000    0.000 
#    0.000    0.000    0.000    0.000    0.000    0.000 
#
# Total GULP energy -156246.940639 kJ/mol
# GULP energy per Si atom -5580.247880 kJ/mol
# Density = 2.145918 g / cm^3
# Si number density = 21.508132 Si / 1000 Ang^3
#
#
#
# Elastic Constant Matrix: (Units=GPa)
#
#
# Indices 1 2 3 4 5 6 
#
# 1 38.3913 19.3504 16.3950 0.0000 21.5386 0.0000
# 2 19.3504 111.9079 21.9148 0.0000 19.8704 0.0000
# 3 16.3950 21.9148 100.8847 0.0000 1.8054 0.0000
# 4 0.0000 0.0000 0.0000 15.9667 0.0000 3.3564
# 5 21.5386 19.8704 1.8054 0.0000 37.9138 0.0000
# 6 0.0000 0.0000 0.0000 3.3564 0.0000 21.6253
#
#
#
# Elastic Compliance Matrix: (Units=1/GPa)
#
#
# Indices 1 2 3 4 5 6 
#
# 1 0.042430 -0.002125 -0.006027 0.000000 -0.022703 0.000000
# 2 -0.002125 0.010402 -0.001840 0.000000 -0.004157 0.000000
# 3 -0.006027 -0.001840 0.011223 0.000000 0.003854 0.000000
# 4 0.000000 0.000000 0.000000 0.064743 0.000000 -0.010049
# 5 -0.022703 -0.004157 0.003854 0.000000 0.041268 0.000000
# 6 0.000000 0.000000 0.000000 -0.010049 0.000000 0.047802
#
#
# Mechanical properties :
#
#
# Convention : Reuss Voigt Hill
#
# Bulk Modulus (GPa) = 22.69147 40.72270 31.70708
# Shear Modulus (GPa) = 19.79871 28.00272 23.90072
#
# Velocity S-wave (km/s) = 3.03730 3.61218 3.33714
# Velocity P-wave (km/s) = 4.78261 6.03091 5.44267
#
# Compressibility (1/GPa) = 0.04406943
#
# Stress axis : x y z
#
# Youngs Moduli (GPa) = 23.56827 96.13796 89.10648
#
# Poissons Ratio (x) = 0.20430 0.53709
# Poissons Ratio (y) = 0.05009 0.16394
# Poissons Ratio (z) = 0.14206 0.17687
#
# Static dielectric constant tensor:
#      x y z
#    x 1.936480 0.000000 0.095800 
#    y 0.000000 1.793950 0.000000 
#    z 0.095800 0.000000 1.887300 
# 
# From -- ./inp_files/25407.got.cif
#   From: 2010.05.17/outbox.cif.g08.bks.cpg/sg10_13_cif.got.tgz:25407.got - 2010.06.03 11:33:40.
