data_PCOD9151553
_publ_section_title
;
Structure prediction by ZEFSAII (Michael W. Deem and Ramdas Pophale) SiO2 
 PCOD9151553
Probable space group: P 2/M
;
_chemical_formula_sum "Si O2"
_cell_formula_units_Z 26
_cell_length_a 12.876072
_cell_length_b 14.440785
_cell_length_c 7.032543
_cell_angle_alpha 90.000000
_cell_angle_beta 119.810598
_cell_angle_gamma 90.000000
_cell_volume 1134.600407
_symmetry_space_group_name_H-M "P 2/M"
_symmetry_group_IT_number 10
_symmetry_cell_setting 'monoclinic'
loop_
_space_group_symop_operation_xyz
x,y,z
-x,y,-z
-x,-y,-z
x,-y,z
loop_
_atom_site_type_symbol
_atom_site_label
_atom_site_fract_x
_atom_site_fract_y
_atom_site_fract_z
Si Si1 0.711224 0.605456 0.254562
Si Si2 0.899285 0.698580 0.175234
Si Si3 0.429582 0.103131 0.200551
Si Si4 0.827913 0.700259 0.681152
Si Si5 0.500000 0.744572 0.000000
Si Si6 0.161873 0.900089 0.855398
Si Si7 0.241183 0.898648 0.344278
O O1 0.674481 0.500000 0.195373
O O2 0.833161 0.628248 0.252853
O O3 0.739312 0.629750 0.499053
O O4 0.613882 0.678184 0.092723
O O5 0.036567 0.678305 0.255721
O O6 0.827391 0.698701 0.909286
O O7 0.892805 0.802966 0.251778
O O8 0.305996 0.104590 0.961381
O O9 0.629135 0.111082 0.642438
O O10 0.480718 0.000000 0.223893
O O11 0.503737 0.187223 0.184953
O O12 0.793010 0.804672 0.584111
O O13 0.153370 0.902121 0.079575
O O14 0.117683 0.000000 0.745657
O O15 0.234657 0.000000 0.431645
#
# Coordination Sequence:
#
# PCOD9151553 Si02
#       7
#     4   4   4   4   2   4   4
#     4  12  27  44  61  86 116 153 209 267 311 354
#     4  10  20  40  64  90 124 161 192 244 304 360
#     4   8  15  30  59  91 121 160 195 231 289 355
#     4  10  21  38  65  93 120 158 201 239 299 368
#     4  12  20  40  64  84 120 162 198 254 306 354
#     4   7  12  27  53  85 120 156 187 222 280 349
#     4   7  13  30  53  86 126 157 190 230 279 352
#
# _framework density 22.915557
#
# number of rings (size 3 to 8) (size 9 to 14) (size 15 to 20)
#    0.923    1.846    1.538    0.923    0.000    2.462 
#    0.000   10.000    0.000    8.308    0.000    0.000 
#    0.000    0.000    0.000    0.000    0.000    0.000 
#
# Total GULP energy -145099.428700 kJ/mol
# GULP energy per Si atom -5580.747258 kJ/mol
# Density = 2.286340 g / cm^3
# Si number density = 22.915557 Si / 1000 Ang^3
#
#
#
# Elastic Constant Matrix: (Units=GPa)
#
#
# Indices 1 2 3 4 5 6 
#
# 1 54.5108 26.4519 17.3941 0.0000 -4.8204 0.0000
# 2 26.4519 139.6451 28.7557 0.0000 -8.0380 0.0000
# 3 17.3941 28.7557 72.8412 0.0000 -9.6540 0.0000
# 4 0.0000 0.0000 0.0000 -25.3525 0.0000 -52.8631
# 5 -4.8204 -8.0380 -9.6540 0.0000 23.0636 0.0000
# 6 0.0000 0.0000 0.0000 -52.8631 0.0000 -27.9545
#
#
#
# Elastic Compliance Matrix: (Units=1/GPa)
#
#
# Indices 1 2 3 4 5 6 
#
# 1 0.021184 -0.003174 -0.003563 0.000000 0.001830 0.000000
# 2 -0.003174 0.008320 -0.002361 0.000000 0.001248 0.000000
# 3 -0.003563 -0.002361 0.016203 0.000000 0.005214 0.000000
# 4 0.000000 0.000000 0.000000 0.013402 0.000000 -0.025344
# 5 0.001830 0.001248 0.005214 0.000000 0.046358 0.000000
# 6 0.000000 0.000000 0.000000 -0.025344 0.000000 0.012155
#
#
# Mechanical properties :
#
#
# Convention : Reuss Voigt Hill
#
# Bulk Modulus (GPa) = 36.34987 45.80002 41.07495
# Shear Modulus (GPa) = 34.48544 6.91104 20.69824
#
# Velocity S-wave (km/s) = 3.88350 1.73851 3.00865
# Velocity P-wave (km/s) = 6.00048 4.90507 5.48021
#
# Compressibility (1/GPa) = 0.02751042
#
# Stress axis : x y z
#
# Youngs Moduli (GPa) = 47.20582 120.18869 61.71828
#
# Poissons Ratio (x) = 0.38143 0.21991
# Poissons Ratio (y) = 0.14981 0.14574
# Poissons Ratio (z) = 0.16820 0.28381
#
# Static dielectric constant tensor:
#      x y z
#    x 1.858490 0.000000 0.005560 
#    y 0.000000 1.814550 0.000000 
#    z 0.005560 0.000000 2.002920 
# 
# From -- ./inp_files/28428.got.cif
#   From: 2010.05.17/outbox.cif.g08.bks.cpg/sg10_15_cif.got.tgz:28428.got - 2010.06.03 11:33:40.
