data_PCOD9151377
_publ_section_title
;
Structure prediction by ZEFSAII (Michael W. Deem and Ramdas Pophale) SiO2 
 PCOD9151377
Probable space group: P 2/M
;
_chemical_formula_sum "Si O2"
_cell_formula_units_Z 32
_cell_length_a 11.254502
_cell_length_b 18.474128
_cell_length_c 14.171056
_cell_angle_alpha 90.000000
_cell_angle_beta 30.529684
_cell_angle_gamma 90.000000
_cell_volume 1496.728641
_symmetry_space_group_name_H-M "P 2/M"
_symmetry_group_IT_number 10
_symmetry_cell_setting 'monoclinic'
loop_
_space_group_symop_operation_xyz
x,y,z
-x,y,-z
-x,-y,-z
x,-y,z
loop_
_atom_site_type_symbol
_atom_site_label
_atom_site_fract_x
_atom_site_fract_y
_atom_site_fract_z
Si Si1 0.398795 0.417166 0.469374
Si Si2 0.398477 0.416232 0.255233
Si Si3 0.075037 0.578601 0.112092
Si Si4 0.304793 0.083702 0.051822
Si Si5 0.953133 0.735636 0.929668
Si Si6 0.736711 0.711539 0.775729
Si Si7 0.465652 0.810373 0.238750
Si Si8 0.094218 0.797189 0.648028
O O1 0.500000 0.386206 0.500000
O O2 0.492273 0.500000 0.402430
O O3 0.435497 0.388377 0.338414
O O4 0.120998 0.420090 0.673902
O O5 0.316762 0.500000 0.314938
O O6 0.251752 0.362475 0.290914
O O7 0.660641 0.416453 0.032970
O O8 0.054680 0.500000 0.077639
O O9 0.025118 0.649364 0.085926
O O10 0.084838 0.135008 0.226411
O O11 0.238309 0.000000 0.088394
O O12 0.500000 0.090330 0.000000
O O13 0.428814 0.115217 0.873304
O O14 0.121224 0.769663 0.736122
O O15 0.687692 0.756824 0.086732
O O16 0.000000 0.766018 0.000000
O O17 0.708167 0.776096 0.719483
O O18 0.953923 0.732086 0.692301
O O19 0.500000 0.712243 0.000000
O O20 0.327563 0.813726 0.430849
#
# Coordination Sequence:
#
# PCOD9151377 Si02
#       8
#     4   4   4   4   4   4   4   4
#     4   9  20  36  53  78 112 150 201 265 329 384
#     4  10  22  38  58  85 117 160 215 268 321 382
#     4  10  21  37  57  81 116 158 206 267 331 376
#     4  10  20  38  65 103 141 164 197 250 300 366
#     4  11  25  42  61  91 125 163 218 274 318 372
#     4  12  20  40  63  85 123 168 212 257 315 379
#     4  11  22  41  65  94 127 169 206 248 308 382
#     4  11  23  42  66  93 128 174 207 245 317 382
#
# _framework density 21.379960000000001
#
# number of rings (size 3 to 8) (size 9 to 14) (size 15 to 20)
#    0.000    1.500    5.000    0.375    3.500    1.500 
#    2.250    1.875    0.000    8.250    0.000    7.000 
#    0.000    0.000    0.000    0.000    0.000    0.125 
#
# Total GULP energy -178790.751701 kJ/mol
# GULP energy per Si atom -5587.210991 kJ/mol
# Density = 2.133130 g / cm^3
# Si number density = 21.379960 Si / 1000 Ang^3
#
#
#
# Elastic Constant Matrix: (Units=GPa)
#
#
# Indices 1 2 3 4 5 6 
#
# 1 58.2343 25.3704 16.9976 0.0000 27.6643 0.0000
# 2 25.3704 126.4201 32.4972 0.0000 16.9740 0.0000
# 3 16.9976 32.4972 136.0143 0.0000 20.0015 0.0000
# 4 0.0000 0.0000 0.0000 10.8302 0.0000 6.8795
# 5 27.6643 16.9740 20.0015 0.0000 27.9136 0.0000
# 6 0.0000 0.0000 0.0000 6.8795 0.0000 -13.8778
#
#
#
# Elastic Compliance Matrix: (Units=1/GPa)
#
#
# Indices 1 2 3 4 5 6 
#
# 1 0.033301 -0.002665 0.001219 0.000000 -0.032256 0.000000
# 2 -0.002665 0.009086 -0.001580 0.000000 -0.001752 0.000000
# 3 0.001219 -0.001580 0.008511 0.000000 -0.006345 0.000000
# 4 0.000000 0.000000 0.000000 0.070222 0.000000 0.034811
# 5 -0.032256 -0.001752 -0.006345 0.000000 0.073404 0.000000
# 6 0.000000 0.000000 0.000000 0.034811 0.000000 -0.054801
#
#
# Mechanical properties :
#
#
# Convention : Reuss Voigt Hill
#
# Bulk Modulus (GPa) = 22.29979 52.26657 37.28318
# Shear Modulus (GPa) = 31.10920 21.36010 26.23465
#
# Velocity S-wave (km/s) = 3.81867 3.16424 3.50675
# Velocity P-wave (km/s) = 5.46771 6.15219 5.82002
#
# Compressibility (1/GPa) = 0.04484346
#
# Stress axis : x y z
#
# Youngs Moduli (GPa) = 30.02955 110.05444 117.50165
#
# Poissons Ratio (x) = 0.29332 -0.14319
# Poissons Ratio (y) = 0.08004 0.18569
# Poissons Ratio (z) = -0.03659 0.17392
#
# Static dielectric constant tensor:
#      x y z
#    x 1.808990 0.000000 0.000630 
#    y 0.000000 1.782730 0.000000 
#    z 0.000630 0.000000 1.796920 
# 
# From -- ./inp_files/65370.got.cif
#   From: 2010.05.17/outbox.cif.g08.bks.cpg/sg10_33_cif.got.tgz:65370.got - 2010.06.03 11:33:40.
