data_PCOD9151196
_publ_section_title
;
Structure prediction by ZEFSAII (Michael W. Deem and Ramdas Pophale) SiO2 
 PCOD9151196
Probable space group: P 2/M
;
_chemical_formula_sum "Si O2"
_cell_formula_units_Z 30
_cell_length_a 11.300556
_cell_length_b 17.056475
_cell_length_c 7.627151
_cell_angle_alpha 90.000000
_cell_angle_beta 64.678868
_cell_angle_gamma 90.000000
_cell_volume 1328.873905
_symmetry_space_group_name_H-M "P 2/M"
_symmetry_group_IT_number 10
_symmetry_cell_setting 'monoclinic'
loop_
_space_group_symop_operation_xyz
x,y,z
-x,y,-z
-x,-y,-z
x,-y,z
loop_
_atom_site_type_symbol
_atom_site_label
_atom_site_fract_x
_atom_site_fract_y
_atom_site_fract_z
Si Si1 0.607556 0.704278 0.813224
Si Si2 0.213879 0.083806 0.475388
Si Si3 0.064325 0.587657 0.174431
Si Si4 0.785384 0.911765 0.103062
Si Si5 0.851886 0.253967 0.901164
Si Si6 0.503790 0.139438 0.708331
Si Si7 0.000000 0.797259 0.500000
Si Si8 0.207496 0.413255 0.464809
O O1 0.718894 0.737443 0.873703
O O2 0.529843 0.776055 0.775052
O O3 0.683104 0.653714 0.619253
O O4 0.500000 0.659585 0.000000
O O5 0.204020 0.088759 0.692409
O O6 0.365575 0.091566 0.331174
O O7 0.126953 0.150237 0.446600
O O8 0.162896 0.000000 0.449402
O O9 0.089255 0.500000 0.086961
O O10 0.123427 0.661013 0.028140
O O11 0.139940 0.589315 0.314368
O O12 0.911332 0.594219 0.323177
O O13 0.632058 0.900583 0.152349
O O14 0.829916 0.000000 0.017035
O O15 0.851222 0.830588 0.996224
O O16 0.972582 0.251361 0.689153
O O17 0.500000 0.146814 0.500000
O O18 0.265563 0.500000 0.450843
#
# Coordination Sequence:
#
# PCOD9151196 Si02
#       8
#     4   4   4   4   4   4   2   4
#     4  11  19  32  52  83 115 143 188 242 285 338
#     4  10  22  39  59  82 110 149 196 241 287 342
#     4   8  15  30  53  81 112 150 190 229 277 342
#     4  10  22  40  59  81 114 155 196 239 288 341
#     4  11  21  35  56  86 118 150 189 239 291 342
#     4  10  20  38  59  79 107 149 199 237 281 338
#     4  12  23  36  57  84 116 148 188 238 290 342
#     4   8  15  28  50  80 113 146 182 229 287 345
#
# _framework density 22.575505
#
# number of rings (size 3 to 8) (size 9 to 14) (size 15 to 20)
#    0.000    2.133    2.667    3.000    0.000    3.467 
#    0.000    2.000    0.000    0.400    0.000    5.600 
#    0.000    0.000    0.000    0.000    0.000    0.000 
#
# Total GULP energy -167433.143273 kJ/mol
# GULP energy per Si atom -5581.104776 kJ/mol
# Density = 2.252412 g / cm^3
# Si number density = 22.575505 Si / 1000 Ang^3
#
#
#
# Elastic Constant Matrix: (Units=GPa)
#
#
# Indices 1 2 3 4 5 6 
#
# 1 59.6819 19.7405 0.5385 0.0000 -2.9595 0.0000
# 2 19.7405 186.7220 37.8518 0.0000 -11.7702 0.0000
# 3 0.5385 37.8518 38.1143 0.0000 -9.7415 0.0000
# 4 0.0000 0.0000 0.0000 23.7896 0.0000 -29.5290
# 5 -2.9595 -11.7702 -9.7415 0.0000 26.1744 0.0000
# 6 0.0000 0.0000 0.0000 -29.5290 0.0000 -82.0311
#
#
#
# Elastic Compliance Matrix: (Units=1/GPa)
#
#
# Indices 1 2 3 4 5 6 
#
# 1 0.017567 -0.002236 0.002456 0.000000 0.001895 0.000000
# 2 -0.002236 0.006998 -0.006828 0.000000 0.000353 0.000000
# 3 0.002456 -0.006828 0.035662 0.000000 0.010480 0.000000
# 4 0.000000 0.000000 0.000000 0.029054 0.000000 -0.010458
# 5 0.001895 0.000353 0.010480 0.000000 0.042479 0.000000
# 6 0.000000 0.000000 0.000000 -0.010458 0.000000 -0.008426
#
#
# Mechanical properties :
#
#
# Convention : Reuss Voigt Hill
#
# Bulk Modulus (GPa) = 21.27121 44.53111 32.90116
# Shear Modulus (GPa) = 32.84730 8.67907 20.76318
#
# Velocity S-wave (km/s) = 3.81858 1.96286 3.03598
# Velocity P-wave (km/s) = 5.37446 4.99052 5.18604
#
# Compressibility (1/GPa) = 0.04701189
#
# Stress axis : x y z
#
# Youngs Moduli (GPa) = 56.92563 142.88985 28.04105
#
# Poissons Ratio (x) = 0.31946 -0.06888
# Poissons Ratio (y) = 0.12727 0.19148
# Poissons Ratio (z) = -0.13984 0.97571
#
# Static dielectric constant tensor:
#      x y z
#    x 1.804810 0.000000 0.002560 
#    y 0.000000 1.910840 0.000000 
#    z 0.002560 0.000000 1.883270 
# 
# From -- ./inp_files/25839.got.cif
#   From: 2010.05.17/outbox.cif.g08.bks.cpg/sg10_13_cif.got.tgz:25839.got - 2010.06.03 11:33:40.
