data_PCOD9151681
_publ_section_title
;
Structure prediction by ZEFSAII (Michael W. Deem and Ramdas Pophale) SiO2 
 PCOD9151681
Probable space group: P 2/M
;
_chemical_formula_sum "Si O2"
_cell_formula_units_Z 32
_cell_length_a 11.918119
_cell_length_b 7.311025
_cell_length_c 21.055911
_cell_angle_alpha 90.000000
_cell_angle_beta 126.967798
_cell_angle_gamma 90.000000
_cell_volume 1465.859900
_symmetry_space_group_name_H-M "P 2/M"
_symmetry_group_IT_number 10
_symmetry_cell_setting 'monoclinic'
loop_
_space_group_symop_operation_xyz
x,y,z
-x,y,-z
-x,-y,-z
x,-y,z
loop_
_atom_site_type_symbol
_atom_site_label
_atom_site_fract_x
_atom_site_fract_y
_atom_site_fract_z
Si Si1 0.546674 0.288259 0.328589
Si Si2 0.057494 0.277690 0.117836
Si Si3 0.098750 0.276500 0.275112
Si Si4 0.172933 0.711396 0.744767
Si Si5 0.863218 0.780479 0.415325
Si Si6 0.404917 0.723643 0.408978
Si Si7 0.217749 0.277726 0.045717
Si Si8 0.478094 0.275578 0.824223
O O1 0.502815 0.500000 0.310001
O O2 0.714818 0.278982 0.394574
O O3 0.467921 0.212833 0.362998
O O4 0.517372 0.214202 0.248071
O O5 0.059346 0.500000 0.118475
O O6 0.101419 0.219417 0.202537
O O7 0.159529 0.221903 0.095233
O O8 0.899687 0.220554 0.044854
O O9 0.097043 0.500000 0.275697
O O10 0.242574 0.221401 0.358101
O O11 0.956922 0.210434 0.260401
O O12 0.183480 0.500000 0.768284
O O13 0.136465 0.717666 0.657552
O O14 0.330634 0.787766 0.803393
O O15 0.000000 0.717160 0.500000
O O16 0.863796 0.000000 0.415044
O O17 0.500000 0.783719 0.500000
O O18 0.409213 0.500000 0.410172
O O19 0.217596 0.500000 0.045037
O O20 0.378306 0.220021 0.093028
O O21 0.472905 0.500000 0.821447
#
# Coordination Sequence:
#
# PCOD9151681 Si02
#       8
#     4   4   4   4   4   4   4   4
#     4   9  17  29  47  68  89 113 147 186 224 265
#     4   8  13  20  32  54  82 120 153 176 220 270
#     4   9  16  26  39  59  92 121 148 188 225 265
#     4   9  18  30  46  67  89 119 152 185 226 267
#     4  10  21  34  48  65  87 115 149 190 230 267
#     4   9  17  26  39  63  88 113 146 185 227 265
#     4   8  12  19  34  54  83 118 152 181 213 268
#     4   8  13  23  37  57  82 110 144 182 219 253
#
# _framework density 21.830192
#
# number of rings (size 3 to 8) (size 9 to 14) (size 15 to 20)
#    0.000    3.250    0.000    2.625    1.750    4.000 
#    0.000    0.625    0.000    4.875    0.000    0.000 
#    0.000    8.000    0.000   32.875    0.000   26.250 
#
# Total GULP energy -178583.274744 kJ/mol
# GULP energy per Si atom -5580.727336 kJ/mol
# Density = 2.178051 g / cm^3
# Si number density = 21.830192 Si / 1000 Ang^3
#
#
#
# Elastic Constant Matrix: (Units=GPa)
#
#
# Indices 1 2 3 4 5 6 
#
# 1 98.3364 -0.3571 54.3705 0.0000 16.9923 0.0000
# 2 -0.3571 88.7566 -2.6513 0.0000 -2.7223 0.0000
# 3 54.3705 -2.6513 116.5832 0.0000 35.9376 0.0000
# 4 0.0000 0.0000 0.0000 -50.9092 0.0000 5.9759
# 5 16.9923 -2.7223 35.9376 0.0000 28.3306 0.0000
# 6 0.0000 0.0000 0.0000 5.9759 0.0000 -41.1451
#
#
#
# Elastic Compliance Matrix: (Units=1/GPa)
#
#
# Indices 1 2 3 4 5 6 
#
# 1 0.013705 -0.000140 -0.006333 0.000000 -0.000200 0.000000
# 2 -0.000140 0.011303 -0.000063 0.000000 0.001250 0.000000
# 3 -0.006333 -0.000063 0.017013 0.000000 -0.017789 0.000000
# 4 0.000000 0.000000 0.000000 -0.019983 0.000000 -0.002902
# 5 -0.000200 0.001250 -0.017789 0.000000 0.058103 0.000000
# 6 0.000000 0.000000 0.000000 -0.002902 0.000000 -0.024726
#
#
# Mechanical properties :
#
#
# Convention : Reuss Voigt Hill
#
# Bulk Modulus (GPa) = 34.54405 45.15560 39.84983
# Shear Modulus (GPa) = 63.99098 4.07619 34.03358
#
# Velocity S-wave (km/s) = 5.42003 1.36795 3.95272
# Velocity P-wave (km/s) = 7.41804 4.81922 6.25508
#
# Compressibility (1/GPa) = 0.02894854
#
# Stress axis : x y z
#
# Youngs Moduli (GPa) = 72.96742 88.47476 58.77782
#
# Poissons Ratio (x) = 0.01240 0.37224
# Poissons Ratio (y) = 0.01023 0.00370
# Poissons Ratio (z) = 0.46210 0.00556
#
# Static dielectric constant tensor:
#      x y z
#    x 1.771270 0.000000 0.027410 
#    y 0.000000 1.829350 0.000000 
#    z 0.027410 0.000000 1.758290 
# 
# From -- ./inp_files/83635.got.cif
#   From: 2010.05.17/outbox.cif.g08.bks.cpg/sg10_42_cif.got.tgz:83635.got - 2010.06.03 11:33:40.
