data_PCOD9151451
_publ_section_title
;
Structure prediction by ZEFSAII (Michael W. Deem and Ramdas Pophale) SiO2 
 PCOD9151451
Probable space group: P 2/M
;
_chemical_formula_sum "Si O2"
_cell_formula_units_Z 30
_cell_length_a 11.431346
_cell_length_b 12.486366
_cell_length_c 20.153513
_cell_angle_alpha 90.000000
_cell_angle_beta 29.041922
_cell_angle_gamma 90.000000
_cell_volume 1396.458988
_symmetry_space_group_name_H-M "P 2/M"
_symmetry_group_IT_number 10
_symmetry_cell_setting 'monoclinic'
loop_
_space_group_symop_operation_xyz
x,y,z
-x,y,-z
-x,-y,-z
x,-y,z
loop_
_atom_site_type_symbol
_atom_site_label
_atom_site_fract_x
_atom_site_fract_y
_atom_site_fract_z
Si Si1 0.415222 0.686826 0.610754
Si Si2 0.294077 0.185147 0.981824
Si Si3 0.472879 0.113398 0.760605
Si Si4 0.062784 0.877877 0.732846
Si Si5 0.950945 0.260977 0.381750
Si Si6 0.855185 0.303452 0.132062
Si Si7 0.605292 0.382979 0.874018
Si Si8 0.000000 0.814950 0.500000
O O1 0.500000 0.631206 0.500000
O O2 0.259350 0.791152 0.663053
O O3 0.668392 0.716096 0.518838
O O4 0.255991 0.635963 0.748967
O O5 0.428798 0.113822 0.861433
O O6 0.460625 0.287394 0.912111
O O7 0.185749 0.135945 0.102661
O O8 0.056572 0.225886 0.062335
O O9 0.345896 0.220557 0.795963
O O10 0.756433 0.120724 0.607658
O O11 0.375897 0.000000 0.780933
O O12 0.014146 0.844373 0.680918
O O13 0.147259 0.000000 0.697185
O O14 0.114277 0.351001 0.265517
O O15 0.037022 0.251758 0.414402
O O16 0.000000 0.360308 0.000000
O O17 0.570658 0.500000 0.860038
O O18 0.500000 0.387132 0.000000
#
# Coordination Sequence:
#
# PCOD9151451 Si02
#       8
#     4   4   4   4   4   4   4   2
#     4   9  19  35  57  86 119 162 203 254 295 346
#     4  10  20  39  61  88 117 153 205 262 306 353
#     4  11  22  35  55  87 128 172 209 237 287 366
#     4  10  21  37  61  91 124 166 205 244 297 362
#     4  11  22  40  61  85 125 162 203 255 304 361
#     4   9  19  34  57  83 117 166 202 246 291 349
#     4  11  23  43  70  90 111 149 202 261 332 387
#     4  12  23  38  53  82 128 172 201 238 289 360
#
# _framework density 21.482907999999998
#
# number of rings (size 3 to 8) (size 9 to 14) (size 15 to 20)
#    0.000    1.733    4.000    0.600    0.000    8.000 
#    0.000    1.000    0.000   10.400    0.000    0.000 
#    0.000    0.000    0.000    0.000    0.000    0.000 
#
# Total GULP energy -167154.701760 kJ/mol
# GULP energy per Si atom -5571.823392 kJ/mol
# Density = 2.143401 g / cm^3
# Si number density = 21.482908 Si / 1000 Ang^3
#
#
#
# Elastic Constant Matrix: (Units=GPa)
#
#
# Indices 1 2 3 4 5 6 
#
# 1 69.4930 13.6707 22.1723 0.0000 11.6887 0.0000
# 2 13.6707 68.3011 17.5311 0.0000 -7.5187 0.0000
# 3 22.1723 17.5311 152.2084 0.0000 26.6521 0.0000
# 4 0.0000 0.0000 0.0000 14.2606 0.0000 -8.0824
# 5 11.6887 -7.5187 26.6521 0.0000 45.3579 0.0000
# 6 0.0000 0.0000 0.0000 -8.0824 0.0000 4.4272
#
#
#
# Elastic Compliance Matrix: (Units=1/GPa)
#
#
# Indices 1 2 3 4 5 6 
#
# 1 0.016118 -0.003336 -0.001270 0.000000 -0.003960 0.000000
# 2 -0.003336 0.016432 -0.002267 0.000000 0.004916 0.000000
# 3 -0.001270 -0.002267 0.007830 0.000000 -0.004650 0.000000
# 4 0.000000 0.000000 0.000000 -2.019927 0.000000 -3.687662
# 5 -0.003960 0.004916 -0.004650 0.000000 0.026614 0.000000
# 6 0.000000 0.000000 0.000000 -3.687662 0.000000 -6.506472
#
#
# Mechanical properties :
#
#
# Convention : Reuss Voigt Hill
#
# Bulk Modulus (GPa) = 37.54791 44.08343 40.81567
# Shear Modulus (GPa) = -0.59264 28.58436 13.99586
#
# Velocity S-wave (km/s) = -0.52580 3.65165 2.55520
# Velocity P-wave (km/s) = 4.14094 6.19226 5.26742
#
# Compressibility (1/GPa) = 0.02663264
#
# Stress axis : x y z
#
# Youngs Moduli (GPa) = 62.04423 60.85735 127.70929
#
# Poissons Ratio (x) = 0.20301 0.16222
# Poissons Ratio (y) = 0.20697 0.28957
# Poissons Ratio (z) = 0.07881 0.13799
#
# Static dielectric constant tensor:
#      x y z
#    x 1.819200 0.000000 0.034540 
#    y 0.000000 1.776520 0.000000 
#    z 0.034540 0.000000 1.839130 
# 
# From -- ./inp_files/84030.got.cif
#   From: 2010.05.17/outbox.cif.g08.bks.cpg/sg10_43_cif.got.tgz:84030.got - 2010.06.03 11:33:40.
