data_PCOD9151698
_publ_section_title
;
Structure prediction by ZEFSAII (Michael W. Deem and Ramdas Pophale) SiO2 
 PCOD9151698
Probable space group: P 2/M
;
_chemical_formula_sum "Si O2"
_cell_formula_units_Z 24
_cell_length_a 12.569945
_cell_length_b 7.428348
_cell_length_c 12.025562
_cell_angle_alpha 90.000000
_cell_angle_beta 89.999976
_cell_angle_gamma 90.000000
_cell_volume 1122.873934
_symmetry_space_group_name_H-M "P 2/M"
_symmetry_group_IT_number 10
_symmetry_cell_setting 'monoclinic'
loop_
_space_group_symop_operation_xyz
x,y,z
-x,y,-z
-x,-y,-z
x,-y,z
loop_
_atom_site_type_symbol
_atom_site_label
_atom_site_fract_x
_atom_site_fract_y
_atom_site_fract_z
Si Si1 0.904983 0.209409 0.073716
Si Si2 0.532976 0.782548 0.823974
Si Si3 0.167506 0.280297 0.462658
Si Si4 0.595017 0.290591 0.573716
Si Si5 0.332494 0.219703 0.962658
Si Si6 0.967024 0.717452 0.323974
O O1 0.786950 0.285537 0.055514
O O2 0.936768 0.217998 0.202451
O O3 0.896207 0.000000 0.040073
O O4 0.000000 0.289659 0.000000
O O5 0.563232 0.717998 0.702451
O O6 0.416965 0.724231 0.868174
O O7 0.533164 0.000000 0.820932
O O8 0.617469 0.727555 0.918724
O O9 0.167567 0.500000 0.459987
O O10 0.286950 0.214463 0.444486
O O11 0.117469 0.227555 0.581276
O O12 0.083036 0.224231 0.368173
O O13 0.500000 0.210342 0.500000
O O14 0.603793 0.500000 0.540073
O O15 0.332433 0.000000 0.959987
O O16 0.966836 0.500000 0.320932
#
# Coordination Sequence:
#
# PCOD9151698 Si02
#       6
#     4   4   4   4   4   4
#     4  10  21  34  51  77 108 133 160 207 262 299
#     4   9  18  35  57  74  96 135 177 205 239 300
#     4   8  17  35  54  73 101 137 167 202 254 302
#     4  10  21  34  51  77 108 133 160 207 262 299
#     4   8  17  35  54  73 101 137 167 202 254 302
#     4   9  18  35  57  74  96 135 177 205 239 300
#
# _framework density 21.373728
#
# number of rings (size 3 to 8) (size 9 to 14) (size 15 to 20)
#    0.000    3.000    0.000    2.000    4.667    0.667 
#    0.000    5.000    0.000    0.000    0.000    0.000 
#    0.000    0.000    0.000    0.000    0.000    0.000 
#
# Total GULP energy -133977.286264 kJ/mol
# GULP energy per Si atom -5582.386928 kJ/mol
# Density = 2.132508 g / cm^3
# Si number density = 21.373728 Si / 1000 Ang^3
#
#
#
# Elastic Constant Matrix: (Units=GPa)
#
#
# Indices 1 2 3 4 5 6 
#
# 1 252.9270 6.4226 110.5963 0.0000 0.0004 0.0000
# 2 6.4226 64.8525 -14.6691 0.0000 0.0000 0.0000
# 3 110.5963 -14.6691 115.6111 0.0000 0.0003 0.0000
# 4 0.0000 0.0000 0.0000 24.1343 0.0000 0.0000
# 5 0.0004 0.0000 0.0003 0.0000 15.7978 0.0000
# 6 0.0000 0.0000 0.0000 0.0000 0.0000 -0.5280
#
#
#
# Elastic Compliance Matrix: (Units=1/GPa)
#
#
# Indices 1 2 3 4 5 6 
#
# 1 0.007118 -0.002312 -0.007103 0.000000 0.000000 0.000000
# 2 -0.002312 0.016626 0.004321 0.000000 0.000000 0.000000
# 3 -0.007103 0.004321 0.015993 0.000000 0.000000 0.000000
# 4 0.000000 0.000000 0.000000 0.041435 0.000000 0.000001
# 5 0.000000 0.000000 0.000000 0.000000 0.063300 0.000000
# 6 0.000000 0.000000 0.000000 0.000001 0.000000 -1.894071
#
#
# Mechanical properties :
#
#
# Convention : Reuss Voigt Hill
#
# Bulk Modulus (GPa) = 33.84133 70.89892 52.37012
# Shear Modulus (GPa) = -2.89090 29.95022 13.52966
#
# Velocity S-wave (km/s) = -1.16425 3.74741 2.51869
# Velocity P-wave (km/s) = 3.74969 7.20882 5.74575
#
# Compressibility (1/GPa) = 0.02954967
#
# Stress axis : x y z
#
# Youngs Moduli (GPa) = 140.48544 60.14737 62.52918
#
# Poissons Ratio (x) = 0.13903 0.44413
# Poissons Ratio (y) = 0.32473 -0.27017
# Poissons Ratio (z) = 0.99783 -0.25988
#
# Static dielectric constant tensor:
#      x y z
#    x 1.777330 0.000000 0.000000 
#    y 0.000000 1.826610 0.000000 
#    z 0.000000 0.000000 1.700510 
# 
# From -- ./inp_files/24010.got.cif
#   From: 2010.05.17/outbox.cif.g08.bks.cpg/sg10_13_cif.got.tgz:24010.got - 2010.06.03 11:33:40.
