data_PCOD9151084
_publ_section_title
;
Structure prediction by ZEFSAII (Michael W. Deem and Ramdas Pophale) SiO2 
 PCOD9151084
Probable space group: P 2/M
;
_chemical_formula_sum "Si O2"
_cell_formula_units_Z 28
_cell_length_a 21.949345
_cell_length_b 8.971613
_cell_length_c 24.841226
_cell_angle_alpha 90.000000
_cell_angle_beta 162.480486
_cell_angle_gamma 90.000000
_cell_volume 1472.569394
_symmetry_space_group_name_H-M "P 2/M"
_symmetry_group_IT_number 10
_symmetry_cell_setting 'monoclinic'
loop_
_space_group_symop_operation_xyz
x,y,z
-x,y,-z
-x,-y,-z
x,-y,z
loop_
_atom_site_type_symbol
_atom_site_label
_atom_site_fract_x
_atom_site_fract_y
_atom_site_fract_z
Si Si1 0.002401 0.821594 0.845995
Si Si2 0.284902 0.823771 0.789562
Si Si3 0.851124 0.678024 0.140011
Si Si4 0.066705 0.821889 0.421270
Si Si5 0.186005 0.821376 0.116880
Si Si6 0.434562 0.676682 0.506809
Si Si7 0.381712 0.676980 0.760442
O O1 0.774320 0.761158 0.658459
O O2 0.105847 0.746200 0.881956
O O3 0.000225 0.000000 0.838110
O O4 0.118647 0.785745 0.999469
O O5 0.283379 0.733780 0.733041
O O6 0.107229 0.784769 0.681235
O O7 0.267590 0.000000 0.762256
O O8 0.500000 0.799420 0.000000
O O9 0.875249 0.500000 0.159269
O O10 0.000992 0.748898 0.310021
O O11 0.620242 0.712367 0.962534
O O12 0.272971 0.758251 0.619381
O O13 0.075002 0.000000 0.422887
O O14 0.386237 0.737704 0.304730
O O15 0.218034 0.000000 0.148008
O O16 0.000000 0.783018 0.000000
O O17 0.500000 0.702364 0.500000
O O18 0.406805 0.500000 0.491279
O O19 0.357267 0.500000 0.734704
#
# Coordination Sequence:
#
# PCOD9151084 Si02
#       7
#     4   4   4   4   4   4   4
#     4  11  24  42  66  92 122 162 208 255 305 364
#     4  10  20  37  62  92 124 160 207 261 312 365
#     4  11  25  44  63  87 124 165 206 254 309 369
#     4  11  23  40  65  92 123 164 209 258 309 367
#     4  10  21  39  64  93 124 160 203 254 304 359
#     4  11  23  38  62  95 129 163 198 246 308 369
#     4  11  24  40  62  91 126 166 206 257 316 372
#
# _framework density 19.014382999999999
#
# number of rings (size 3 to 8) (size 9 to 14) (size 15 to 20)
#    0.000    1.286    2.857    2.571    0.000    8.000 
#    0.000    2.857    0.000    0.000    0.000    0.000 
#    0.000    0.000    0.000    0.000    0.000    0.000 
#
# Total GULP energy -156609.249504 kJ/mol
# GULP energy per Si atom -5593.187482 kJ/mol
# Density = 1.897111 g / cm^3
# Si number density = 19.014383 Si / 1000 Ang^3
#
#
#
# Elastic Constant Matrix: (Units=GPa)
#
#
# Indices 1 2 3 4 5 6 
#
# 1 102.8030 43.2829 22.7895 0.0000 -28.3193 0.0000
# 2 43.2829 45.9436 38.0491 0.0000 -18.2823 0.0000
# 3 22.7895 38.0491 84.1700 0.0000 -30.9052 0.0000
# 4 0.0000 0.0000 0.0000 11.3388 0.0000 -25.6267
# 5 -28.3193 -18.2823 -30.9052 0.0000 27.9565 0.0000
# 6 0.0000 0.0000 0.0000 -25.6267 0.0000 5.0787
#
#
#
# Elastic Compliance Matrix: (Units=1/GPa)
#
#
# Indices 1 2 3 4 5 6 
#
# 1 0.022379 -0.022522 0.011846 0.000000 0.021036 0.000000
# 2 -0.022522 0.058867 -0.024836 0.000000 -0.011774 0.000000
# 3 0.011846 -0.024836 0.030875 0.000000 0.029890 0.000000
# 4 0.000000 0.000000 0.000000 -0.008477 0.000000 -0.042772
# 5 0.021036 -0.011774 0.029890 0.000000 0.082422 0.000000
# 6 0.000000 0.000000 0.000000 -0.042772 0.000000 -0.018925
#
#
# Mechanical properties :
#
#
# Convention : Reuss Voigt Hill
#
# Bulk Modulus (GPa) = 24.33290 49.01775 36.67532
# Shear Modulus (GPa) = 19.85197 17.46114 18.65656
#
# Velocity S-wave (km/s) = 3.23468 3.03365 3.13578
# Velocity P-wave (km/s) = 5.17453 6.17301 5.69569
#
# Compressibility (1/GPa) = 0.04109663
#
# Stress axis : x y z
#
# Youngs Moduli (GPa) = 44.68555 16.98746 32.38837
#
# Poissons Ratio (x) = 0.38260 -0.38367
# Poissons Ratio (y) = 1.00642 0.80439
# Poissons Ratio (z) = -0.52934 0.42190
#
# Static dielectric constant tensor:
#      x y z
#    x 1.636110 0.000000 0.003850 
#    y 0.000000 1.630630 0.000000 
#    z 0.003850 0.000000 1.641180 
# 
# From -- ./inp_files/90411.got.cif
#   From: 2010.05.17/outbox.cif.g08.bks.cpg/sg10_46_cif.got.tgz:90411.got - 2010.06.03 11:33:40.
