data_PCOD9151643
_publ_section_title
;
Structure prediction by ZEFSAII (Michael W. Deem and Ramdas Pophale) SiO2 
 PCOD9151643
Probable space group: P 2/M
;
_chemical_formula_sum "Si O2"
_cell_formula_units_Z 32
_cell_length_a 19.640349
_cell_length_b 13.169267
_cell_length_c 16.639865
_cell_angle_alpha 90.000000
_cell_angle_beta 21.835460
_cell_angle_gamma 90.000000
_cell_volume 1600.797102
_symmetry_space_group_name_H-M "P 2/M"
_symmetry_group_IT_number 10
_symmetry_cell_setting 'monoclinic'
loop_
_space_group_symop_operation_xyz
x,y,z
-x,y,-z
-x,-y,-z
x,-y,z
loop_
_atom_site_type_symbol
_atom_site_label
_atom_site_fract_x
_atom_site_fract_y
_atom_site_fract_z
Si Si1 0.050053 0.122969 0.825544
Si Si2 0.790214 0.619237 0.227470
Si Si3 0.384538 0.118453 0.553641
Si Si4 0.713968 0.177485 0.092558
Si Si5 0.732696 0.876596 0.571928
Si Si6 0.394051 0.876064 0.036162
Si Si7 0.415839 0.618462 0.718115
Si Si8 0.062191 0.118685 0.309837
O O1 0.179769 0.153680 0.757648
O O2 0.175647 0.153897 0.611449
O O3 0.034432 0.000000 0.845049
O O4 0.851706 0.163072 0.017960
O O5 0.804878 0.500000 0.232507
O O6 0.623602 0.653522 0.468463
O O7 0.703089 0.623218 0.233800
O O8 0.000000 0.656908 0.000000
O O9 0.500000 0.165814 0.500000
O O10 0.523487 0.125501 0.326266
O O11 0.358079 0.000000 0.602118
O O12 0.672016 0.296834 0.128406
O O13 0.815791 0.128147 0.905391
O O14 0.527729 0.846017 0.816487
O O15 0.736452 0.000000 0.568280
O O16 0.866331 0.840106 0.497442
O O17 0.190045 0.839352 0.240380
O O18 0.385357 0.000000 0.048066
O O19 0.500000 0.844542 0.000000
O O20 0.416196 0.500000 0.743335
O O21 0.031978 0.000000 0.360831
#
# Coordination Sequence:
#
# PCOD9151643 Si02
#       8
#     4   4   4   4   4   4   4   4
#     4   9  18  33  49  65  87 120 157 191 227 272
#     4   8  15  31  51  65  83 111 139 179 239 292
#     4  10  21  33  45  64  90 117 152 198 238 266
#     4  11  20  31  49  66  89 120 156 186 231 283
#     4   8  14  25  41  59  82 112 146 179 212 255
#     4   9  16  25  40  63  89 118 149 180 215 255
#     4   9  19  32  47  70  92 111 145 191 234 284
#     4   9  17  29  44  62  86 119 154 183 215 264
#
# _framework density 19.990041000000002
#
# number of rings (size 3 to 8) (size 9 to 14) (size 15 to 20)
#    0.000    2.875    0.000    3.375    1.750    4.000 
#    0.000    4.375    0.000    0.000    0.000    0.000 
#    0.000    0.500    0.000    5.500    0.000    2.500 
#
# Total GULP energy -178400.073373 kJ/mol
# GULP energy per Si atom -5575.002293 kJ/mol
# Density = 1.994454 g / cm^3
# Si number density = 19.990041 Si / 1000 Ang^3
#
#
#
# Elastic Constant Matrix: (Units=GPa)
#
#
# Indices 1 2 3 4 5 6 
#
# 1 69.8143 2.8811 23.6807 0.0000 -30.6596 0.0000
# 2 2.8811 61.8230 9.0292 0.0000 -8.5576 0.0000
# 3 23.6807 9.0292 105.6255 0.0000 -34.9861 0.0000
# 4 0.0000 0.0000 0.0000 18.7215 0.0000 -4.7662
# 5 -30.6596 -8.5576 -34.9861 0.0000 42.2526 0.0000
# 6 0.0000 0.0000 0.0000 -4.7662 0.0000 7.0658
#
#
#
# Elastic Compliance Matrix: (Units=1/GPa)
#
#
# Indices 1 2 3 4 5 6 
#
# 1 0.021120 0.001156 0.000441 0.000000 0.015924 0.000000
# 2 0.001156 0.016719 -0.000398 0.000000 0.003895 0.000000
# 3 0.000441 -0.000398 0.013065 0.000000 0.011057 0.000000
# 4 0.000000 0.000000 0.000000 0.064489 0.000000 0.043501
# 5 0.015924 0.003895 0.011057 0.000000 0.045167 0.000000
# 6 0.000000 0.000000 0.000000 0.043501 0.000000 0.170870
#
#
# Mechanical properties :
#
#
# Convention : Reuss Voigt Hill
#
# Bulk Modulus (GPa) = 18.76176 34.27166 26.51671
# Shear Modulus (GPa) = 14.41755 27.05276 20.73515
#
# Velocity S-wave (km/s) = 2.68850 3.68273 3.22417
# Velocity P-wave (km/s) = 4.36386 5.93843 5.21096
#
# Compressibility (1/GPa) = 0.05329990
#
# Stress axis : x y z
#
# Youngs Moduli (GPa) = 47.34921 59.81342 76.53947
#
# Poissons Ratio (x) = -0.06912 -0.03373
# Poissons Ratio (y) = -0.05472 0.03047
# Poissons Ratio (z) = -0.02087 0.02381
#
# Static dielectric constant tensor:
#      x y z
#    x 1.805620 0.000000 -0.008380 
#    y 0.000000 1.714500 0.000000 
#    z -0.008380 0.000000 1.750210 
# 
# From -- ./inp_files/79685.got.cif
#   From: 2010.05.17/outbox.cif.g08.bks.cpg/sg10_40_cif.got.tgz:79685.got - 2010.06.03 11:33:40.
