data_PCOD9151928
_publ_section_title
;
Structure prediction by ZEFSAII (Michael W. Deem and Ramdas Pophale) SiO2 
 PCOD9151928
Probable space group: P 2/M
;
_chemical_formula_sum "Si O2"
_cell_formula_units_Z 32
_cell_length_a 16.594682
_cell_length_b 7.638734
_cell_length_c 24.714518
_cell_angle_alpha 90.000000
_cell_angle_beta 151.975104
_cell_angle_gamma 90.000000
_cell_volume 1471.995494
_symmetry_space_group_name_H-M "P 2/M"
_symmetry_group_IT_number 10
_symmetry_cell_setting 'monoclinic'
loop_
_space_group_symop_operation_xyz
x,y,z
-x,y,-z
-x,-y,-z
x,-y,z
loop_
_atom_site_type_symbol
_atom_site_label
_atom_site_fract_x
_atom_site_fract_y
_atom_site_fract_z
Si Si1 0.059061 0.288644 0.310376
Si Si2 0.193512 0.206962 0.507722
Si Si3 0.314968 0.714340 0.368836
Si Si4 0.686714 0.701484 0.121404
Si Si5 0.821100 0.202206 0.313662
Si Si6 0.582515 0.700545 0.266655
Si Si7 0.838005 0.286682 0.833194
Si Si8 0.780299 0.285883 0.921539
O O1 0.049518 0.500000 0.303239
O O2 0.164036 0.243032 0.427071
O O3 0.164668 0.229888 0.320776
O O4 0.862788 0.223017 0.200185
O O5 0.350945 0.292725 0.632231
O O6 0.015937 0.269268 0.430647
O O7 0.212789 0.000000 0.527222
O O8 0.500000 0.771029 0.500000
O O9 0.315296 0.500000 0.369032
O O10 0.273973 0.772373 0.283686
O O11 0.677118 0.500000 0.096329
O O12 0.721579 0.704031 0.206275
O O13 0.500000 0.782746 0.000000
O O14 0.720617 0.211090 0.309888
O O15 0.834244 0.000000 0.304490
O O16 0.576240 0.500000 0.244939
O O17 0.391493 0.776014 0.151235
O O18 0.834712 0.500000 0.831729
O O19 0.780197 0.230426 0.858590
O O20 0.037591 0.234886 0.945465
O O21 0.774990 0.500000 0.918551
#
# Coordination Sequence:
#
# PCOD9151928 Si02
#       8
#     4   4   4   4   4   4   4   4
#     4   9  18  32  50  76 103 131 169 213 261 306
#     4  10  21  36  52  70 100 139 171 206 255 311
#     4   9  17  26  44  74 105 134 164 207 257 303
#     4   9  18  33  53  76 104 135 169 214 263 306
#     4  10  21  36  51  71 102 138 175 209 250 309
#     4  11  21  31  51  80 103 127 168 216 260 304
#     4   8  14  28  45  67 105 138 164 200 252 308
#     4   8  16  28  45  71 101 135 166 204 254 304
#
# _framework density 21.739196
#
# number of rings (size 3 to 8) (size 9 to 14) (size 15 to 20)
#    0.000    2.750    0.000    2.250    1.750    4.250 
#    0.000    3.750    0.000    0.375    0.000    7.000 
#    0.000    0.000    0.000    0.000    0.000    0.000 
#
# Total GULP energy -178580.510371 kJ/mol
# GULP energy per Si atom -5580.640949 kJ/mol
# Density = 2.168972 g / cm^3
# Si number density = 21.739196 Si / 1000 Ang^3
#
#
#
# Elastic Constant Matrix: (Units=GPa)
#
#
# Indices 1 2 3 4 5 6 
#
# 1 41.3080 -0.3129 20.3161 0.0000 -7.6773 0.0000
# 2 -0.3129 45.2286 0.0151 0.0000 4.5858 0.0000
# 3 20.3161 0.0151 107.9253 0.0000 -8.7140 0.0000
# 4 0.0000 0.0000 0.0000 27.6720 0.0000 -14.3868
# 5 -7.6773 4.5858 -8.7140 0.0000 17.7860 0.0000
# 6 0.0000 0.0000 0.0000 -14.3868 0.0000 -5.7192
#
#
#
# Elastic Compliance Matrix: (Units=1/GPa)
#
#
# Indices 1 2 3 4 5 6 
#
# 1 0.028319 -0.000840 -0.004504 0.000000 0.010234 0.000000
# 2 -0.000840 0.022754 -0.000362 0.000000 -0.006407 0.000000
# 3 -0.004504 -0.000362 0.010375 0.000000 0.003232 0.000000
# 4 0.000000 0.000000 0.000000 0.015659 0.000000 -0.039390
# 5 0.010234 -0.006407 0.003232 0.000000 0.063877 0.000000
# 6 0.000000 0.000000 0.000000 -0.039390 0.000000 -0.075763
#
#
# Mechanical properties :
#
#
# Convention : Reuss Voigt Hill
#
# Bulk Modulus (GPa) = 19.98651 26.05539 23.02095
# Shear Modulus (GPa) = 53.58381 19.57733 36.58057
#
# Velocity S-wave (km/s) = 4.97011 3.00418 4.10652
# Velocity P-wave (km/s) = 6.49228 4.90356 5.75303
#
# Compressibility (1/GPa) = 0.05003376
#
# Stress axis : x y z
#
# Youngs Moduli (GPa) = 35.31155 43.94867 96.38923
#
# Poissons Ratio (x) = 0.03693 0.43418
# Poissons Ratio (y) = 0.02967 0.03492
# Poissons Ratio (z) = 0.15906 0.01592
#
# Static dielectric constant tensor:
#      x y z
#    x 1.770780 0.000000 0.020770 
#    y 0.000000 1.810870 0.000000 
#    z 0.020770 0.000000 1.789090 
# 
# From -- ./inp_files/89647.got.cif
#   From: 2010.05.17/outbox.cif.g08.bks.cpg/sg10_45_cif.got.tgz:89647.got - 2010.06.03 11:33:40.
