data_PCOD9151114
_publ_section_title
;
Structure prediction by ZEFSAII (Michael W. Deem and Ramdas Pophale) SiO2 
 PCOD9151114
Probable space group: P 2/M
;
_chemical_formula_sum "Si O2"
_cell_formula_units_Z 28
_cell_length_a 11.860946
_cell_length_b 17.156770
_cell_length_c 20.747829
_cell_angle_alpha 90.000000
_cell_angle_beta 160.121042
_cell_angle_gamma 90.000000
_cell_volume 1435.655117
_symmetry_space_group_name_H-M "P 2/M"
_symmetry_group_IT_number 10
_symmetry_cell_setting 'monoclinic'
loop_
_space_group_symop_operation_xyz
x,y,z
-x,y,-z
-x,-y,-z
x,-y,z
loop_
_atom_site_type_symbol
_atom_site_label
_atom_site_fract_x
_atom_site_fract_y
_atom_site_fract_z
Si Si1 0.755589 0.303551 0.810799
Si Si2 0.371935 0.593141 0.503931
Si Si3 0.293016 0.206518 0.026199
Si Si4 0.633741 0.837877 0.332383
Si Si5 0.856283 0.000000 0.225333
Si Si6 0.832331 0.000000 0.479125
Si Si7 0.783642 0.295976 0.206121
Si Si8 0.120868 0.158137 0.316141
O O1 0.589603 0.370130 0.678590
O O2 0.500928 0.239085 0.703333
O O3 0.000000 0.330644 0.000000
O O4 0.990505 0.257619 0.888298
O O5 0.500000 0.616506 0.500000
O O6 0.376779 0.500000 0.508375
O O7 0.008184 0.627652 0.323851
O O8 0.405330 0.153528 0.146016
O O9 0.592302 0.264119 0.165962
O O10 0.148604 0.163197 0.886500
O O11 0.000000 0.825640 0.500000
O O12 0.635969 0.917524 0.375457
O O13 0.060099 0.924628 0.314676
O O14 0.500000 0.000000 0.000000
O O15 0.870361 0.000000 0.309808
O O16 0.000000 0.000000 0.500000
O O17 0.023739 0.226285 0.312916
O O18 0.500000 0.304565 0.000000
O O19 0.500000 0.167849 0.500000
#
# Coordination Sequence:
#
# PCOD9151114 Si02
#       8
#     4   4   4   4   2   2   4   4
#     4  10  22  42  64  91 127 165 209 254 308 378
#     4  11  23  39  65  96 127 162 202 256 315 377
#     4  10  21  38  64  93 117 169 208 261 308 365
#     4  10  22  39  65  89 124 164 215 257 315 368
#     4  12  27  41  61  90 125 165 215 259 312 373
#     4  10  26  39  62  91 126 165 208 263 313 359
#     4  10  20  37  63  91 123 162 208 256 313 374
#     4  11  24  38  62  88 124 162 211 262 311 366
#
# _framework density 19.503291000000001
#
# number of rings (size 3 to 8) (size 9 to 14) (size 15 to 20)
#    0.000    1.571    0.000    5.357   12.000    0.571 
#    0.000    3.929    0.000    8.143    0.000    0.000 
#    0.000    0.000    0.000    0.000    0.000    0.000 
#
# Total GULP energy -156298.109836 kJ/mol
# GULP energy per Si atom -5582.075351 kJ/mol
# Density = 1.945890 g / cm^3
# Si number density = 19.503291 Si / 1000 Ang^3
#
#
#
# Elastic Constant Matrix: (Units=GPa)
#
#
# Indices 1 2 3 4 5 6 
#
# 1 90.9017 46.5971 35.9296 0.0000 -0.5932 0.0000
# 2 46.5971 110.7157 53.1807 0.0000 -1.0823 0.0000
# 3 35.9296 53.1807 97.4730 0.0000 1.4354 0.0000
# 4 0.0000 0.0000 0.0000 25.0523 0.0000 -4.7777
# 5 -0.5932 -1.0823 1.4354 0.0000 47.7966 0.0000
# 6 0.0000 0.0000 0.0000 -4.7777 0.0000 25.6579
#
#
#
# Elastic Compliance Matrix: (Units=1/GPa)
#
#
# Indices 1 2 3 4 5 6 
#
# 1 0.014549 -0.004804 -0.002744 0.000000 0.000154 0.000000
# 2 -0.004804 0.013837 -0.005785 0.000000 0.000427 0.000000
# 3 -0.002744 -0.005785 0.014436 0.000000 -0.000599 0.000000
# 4 0.000000 0.000000 0.000000 0.041386 0.000000 0.007706
# 5 0.000154 0.000427 -0.000599 0.000000 0.020952 0.000000
# 6 0.000000 0.000000 0.000000 0.007706 0.000000 0.040409
#
#
# Mechanical properties :
#
#
# Convention : Reuss Voigt Hill
#
# Bulk Modulus (GPa) = 61.89677 63.38946 62.64311
# Shear Modulus (GPa) = 28.15003 30.59355 29.37179
#
# Velocity S-wave (km/s) = 3.80326 3.96490 3.88492
# Velocity P-wave (km/s) = 7.14786 7.31663 7.23274
#
# Compressibility (1/GPa) = 0.01615593
#
# Stress axis : x y z
#
# Youngs Moduli (GPa) = 68.73334 72.27175 69.27180
#
# Poissons Ratio (x) = 0.34716 0.19011
# Poissons Ratio (y) = 0.33016 0.40073
# Poissons Ratio (z) = 0.18863 0.41808
#
# Static dielectric constant tensor:
#      x y z
#    x 1.721530 0.000000 -0.046130 
#    y 0.000000 1.773280 0.000000 
#    z -0.046130 0.000000 1.734870 
# 
# From -- ./inp_files/84233.got.cif
#   From: 2010.05.17/outbox.cif.g08.bks.cpg/sg10_43_cif.got.tgz:84233.got - 2010.06.03 11:33:40.
