data_PCOD9151607
_publ_section_title
;
Structure prediction by ZEFSAII (Michael W. Deem and Ramdas Pophale) SiO2 
 PCOD9151607
Probable space group: P 2/M
;
_chemical_formula_sum "Si O2"
_cell_formula_units_Z 15
_cell_length_a 5.272253
_cell_length_b 21.138645
_cell_length_c 5.284362
_cell_angle_alpha 90.000000
_cell_angle_beta 92.763581
_cell_angle_gamma 90.000000
_cell_volume 588.248142
_symmetry_space_group_name_H-M "P 2/M"
_symmetry_group_IT_number 10
_symmetry_cell_setting 'monoclinic'
loop_
_space_group_symop_operation_xyz
x,y,z
-x,y,-z
-x,-y,-z
x,-y,z
loop_
_atom_site_type_symbol
_atom_site_label
_atom_site_fract_x
_atom_site_fract_y
_atom_site_fract_z
Si Si1 0.175232 0.772636 0.757411
Si Si2 0.169450 0.637996 0.762889
Si Si3 0.736273 0.500000 0.331143
Si Si4 0.000000 0.000000 0.000000
Si Si5 0.651939 0.088042 0.255873
O O1 0.319286 0.704547 0.756108
O O2 0.335241 0.836185 0.750451
O O3 0.000000 0.773299 0.500000
O O4 0.000000 0.777100 0.000000
O O5 0.281617 0.567992 0.803354
O O6 0.000000 0.635229 0.500000
O O7 0.000000 0.646328 0.000000
O O8 0.500000 0.500000 0.500000
O O9 0.000000 0.500000 0.500000
O O10 0.920142 0.055506 0.207363
O O11 0.500000 0.069591 0.500000
O O12 0.500000 0.066015 0.000000
#
# Coordination Sequence:
#
# PCOD9151607 Si02
#       5
#     4   4   2   1   4
#     4  10  20  41  68  95 134 176 215 274 338 398
#     4   9  19  37  64  95 132 175 223 272 336 404
#     4  10  21  40  64  96 138 180 234 288 350 412
#     4  12  28  50  72  92 146 170 222 274 358 394
#     4  12  27  45  71 103 131 174 228 277 340 413
#
# _framework density 25.499441999999998
#
# number of rings (size 3 to 8) (size 9 to 14) (size 15 to 20)
#    0.000    1.600    1.333    2.800    0.000    2.133 
#    0.000   16.000    0.000    0.000    0.000    0.000 
#    0.000    0.000    0.000    0.000    0.000    0.000 
#
# Total GULP energy -83568.703198 kJ/mol
# GULP energy per Si atom -5571.246880 kJ/mol
# Density = 2.544140 g / cm^3
# Si number density = 25.499442 Si / 1000 Ang^3
#
#
#
# Elastic Constant Matrix: (Units=GPa)
#
#
# Indices 1 2 3 4 5 6 
#
# 1 61.2541 16.5531 49.8104 0.0000 -4.1804 0.0000
# 2 16.5531 321.1826 30.4674 0.0000 -21.1181 0.0000
# 3 49.8104 30.4674 229.5419 0.0000 -22.9748 0.0000
# 4 0.0000 0.0000 0.0000-4987.6125 0.0000-1388.1107
# 5 -4.1804 -21.1181 -22.9748 0.0000 64.7686 0.0000
# 6 0.0000 0.0000 0.0000-1388.1107 0.0000 -343.1826
#
#
#
# Elastic Compliance Matrix: (Units=1/GPa)
#
#
# Indices 1 2 3 4 5 6 
#
# 1 0.019959 -0.000651 -0.004289 0.000000 -0.000446 0.000000
# 2 -0.000651 0.003227 -0.000193 0.000000 0.000942 0.000000
# 3 -0.004289 -0.000193 0.005473 0.000000 0.001602 0.000000
# 4 0.000000 0.000000 0.000000 0.001595 0.000000 -0.006451
# 5 -0.000446 0.000942 0.001602 0.000000 0.016286 0.000000
# 6 0.000000 0.000000 0.000000 -0.006451 0.000000 0.023178
#
#
# Mechanical properties :
#
#
# Convention : Reuss Voigt Hill
#
# Bulk Modulus (GPa) = 54.36823 89.51560 71.94192
# Shear Modulus (GPa) = 58.06179 -1018.86210 -480.40016
#
# Velocity S-wave (km/s) = 4.77695 -20.01075 -13.74065
# Velocity P-wave (km/s) = 7.19676 22.33216 14.94878
#
# Compressibility (1/GPa) = 0.01839309
#
# Stress axis : x y z
#
# Youngs Moduli (GPa) = 50.10306 309.85982 182.70940
#
# Poissons Ratio (x) = 0.20174 0.78368
# Poissons Ratio (y) = 0.03262 0.03523
# Poissons Ratio (z) = 0.21490 0.05974
#
# Static dielectric constant tensor:
#      x y z
#    x 2.176200 0.000000 0.116600 
#    y 0.000000 33.421660 0.000000 
#    z 0.116600 0.000000 2.266050 
# 
# From -- ./inp_files/1219.got.cif
#   From: 2010.05.17/outbox.cif.g08.bks.cpg/sg10_1_cif.got.tgz:1219.got - 2010.06.03 11:33:40.
