data_PCOD9151494
_publ_section_title
;
Structure prediction by ZEFSAII (Michael W. Deem and Ramdas Pophale) SiO2 
 PCOD9151494
Probable space group: P 2/M
;
_chemical_formula_sum "Si O2"
_cell_formula_units_Z 24
_cell_length_a 12.602403
_cell_length_b 7.922124
_cell_length_c 9.683776
_cell_angle_alpha 90.000000
_cell_angle_beta 101.234430
_cell_angle_gamma 90.000000
_cell_volume 948.281182
_symmetry_space_group_name_H-M "P 2/M"
_symmetry_group_IT_number 10
_symmetry_cell_setting 'monoclinic'
loop_
_space_group_symop_operation_xyz
x,y,z
-x,y,-z
-x,-y,-z
x,-y,z
loop_
_atom_site_type_symbol
_atom_site_label
_atom_site_fract_x
_atom_site_fract_y
_atom_site_fract_z
Si Si1 0.833653 0.308732 0.490804
Si Si2 0.512731 0.296302 0.343619
Si Si3 0.835521 0.696617 0.015394
Si Si4 0.386630 0.800926 0.902486
Si Si5 0.275601 0.706230 0.275839
Si Si6 0.974212 0.186626 0.291637
O O1 0.808103 0.500000 0.441105
O O2 0.743565 0.239803 0.571708
O O3 0.872058 0.205423 0.369457
O O4 0.937218 0.310821 0.621796
O O5 0.500000 0.244261 0.500000
O O6 0.524449 0.500000 0.347100
O O7 0.599656 0.226446 0.258674
O O8 0.394326 0.247878 0.255090
O O9 0.862954 0.500000 0.010996
O O10 0.720233 0.713186 0.065026
O O11 0.927937 0.780540 0.129560
O O12 0.812025 0.766845 0.856739
O O13 0.376112 0.000000 0.928321
O O14 0.500000 0.739365 0.000000
O O15 0.271162 0.500000 0.277954
O O16 0.019882 0.000000 0.317294
#
# Coordination Sequence:
#
# PCOD9151494 Si02
#       6
#     4   4   4   4   4   4
#     4  10  20  39  64  89 117 154 198 243 291 349
#     4  10  21  38  61  89 118 155 201 245 287 343
#     4  11  22  39  63  87 114 155 201 244 290 347
#     4  11  23  39  58  86 123 159 193 238 292 351
#     4   9  20  37  59  89 118 148 197 250 291 337
#     4  11  23  40  59  88 122 154 193 240 297 356
#
# _framework density 25.308949999999999
#
# number of rings (size 3 to 8) (size 9 to 14) (size 15 to 20)
#    0.000    1.667    1.667    4.000    2.333    1.667 
#    0.000    8.333    0.000    0.000    0.000    0.000 
#    0.000    0.000    0.000    0.000    0.000    0.000 
#
# Total GULP energy -134307.654381 kJ/mol
# GULP energy per Si atom -5596.152266 kJ/mol
# Density = 2.525135 g / cm^3
# Si number density = 25.308950 Si / 1000 Ang^3
#
#
#
# Elastic Constant Matrix: (Units=GPa)
#
#
# Indices 1 2 3 4 5 6 
#
# 1 75.5602 -5.9577 -1.0023 0.0000 -9.4879 0.0000
# 2 -5.9577 61.8049 -2.8562 0.0000 1.8502 0.0000
# 3 -1.0023 -2.8562 113.3331 0.0000 -0.8887 0.0000
# 4 0.0000 0.0000 0.0000 38.5637 0.0000 -56.8164
# 5 -9.4879 1.8502 -0.8887 0.0000 47.6153 0.0000
# 6 0.0000 0.0000 0.0000 -56.8164 0.0000 135.6120
#
#
#
# Elastic Compliance Matrix: (Units=1/GPa)
#
#
# Indices 1 2 3 4 5 6 
#
# 1 0.013671 0.001246 0.000173 0.000000 0.002679 0.000000
# 2 0.001246 0.016331 0.000420 0.000000 -0.000379 0.000000
# 3 0.000173 0.000420 0.008837 0.000000 0.000183 0.000000
# 4 0.000000 0.000000 0.000000 0.067752 0.000000 0.028386
# 5 0.002679 -0.000379 0.000183 0.000000 0.021554 0.000000
# 6 0.000000 0.000000 0.000000 0.028386 0.000000 0.019266
#
#
# Mechanical properties :
#
#
# Convention : Reuss Voigt Hill
#
# Bulk Modulus (GPa) = 23.52035 25.67400 24.59717
# Shear Modulus (GPa) = 31.66435 61.72580 46.69508
#
# Velocity S-wave (km/s) = 3.54094 4.94387 4.30001
# Velocity P-wave (km/s) = 5.10208 6.53876 5.86458
#
# Compressibility (1/GPa) = 0.04251638
#
# Stress axis : x y z
#
# Youngs Moduli (GPa) = 73.14539 61.23423 113.15944
#
# Poissons Ratio (x) = -0.07628 -0.01961
# Poissons Ratio (y) = -0.09111 -0.04748
# Poissons Ratio (z) = -0.01268 -0.02569
#
# Static dielectric constant tensor:
#      x y z
#    x 2.072320 0.000000 0.022800 
#    y 0.000000 1.898510 0.000000 
#    z 0.022800 0.000000 2.016660 
# 
# From -- ./inp_files/27298.got.cif
#   From: 2010.05.17/outbox.cif.g08.bks.cpg/sg10_14_cif.got.tgz:27298.got - 2010.06.03 11:33:40.
