data_PCOD9151842
_publ_section_title
;
Structure prediction by ZEFSAII (Michael W. Deem and Ramdas Pophale) SiO2 
 PCOD9151842
Probable space group: P 2/M
;
_chemical_formula_sum "Si O2"
_cell_formula_units_Z 24
_cell_length_a 12.611932
_cell_length_b 15.204198
_cell_length_c 18.438119
_cell_angle_alpha 90.000000
_cell_angle_beta 161.040992
_cell_angle_gamma 90.000000
_cell_volume 1148.683121
_symmetry_space_group_name_H-M "P 2/M"
_symmetry_group_IT_number 10
_symmetry_cell_setting 'monoclinic'
loop_
_space_group_symop_operation_xyz
x,y,z
-x,y,-z
-x,-y,-z
x,-y,z
loop_
_atom_site_type_symbol
_atom_site_label
_atom_site_fract_x
_atom_site_fract_y
_atom_site_fract_z
Si Si1 0.451967 0.904270 0.864273
Si Si2 0.319408 0.903074 0.607903
Si Si3 0.505065 0.598807 0.820037
Si Si4 0.812181 0.728017 0.118950
Si Si5 0.343768 0.291117 0.578149
Si Si6 0.780201 0.644540 0.732661
O O1 0.440874 0.899621 0.769624
O O2 0.074742 0.899552 0.643725
O O3 0.585040 0.000000 0.971553
O O4 0.655642 0.822838 0.024076
O O5 0.424587 0.812127 0.639813
O O6 0.412053 0.000000 0.638038
O O7 0.379286 0.500000 0.747681
O O8 0.546940 0.656818 0.919959
O O9 0.885346 0.592700 0.041248
O O10 0.332260 0.657741 0.646915
O O11 0.006593 0.701453 0.316054
O O12 0.081460 0.725485 0.227576
O O13 0.617694 0.331636 0.702966
O O14 0.500000 0.603549 0.500000
#
# Coordination Sequence:
#
# PCOD9151842 Si02
#       6
#     4   4   4   4   4   4
#     4   9  17  34  57  81 109 138 175 219 261 310
#     4   9  18  32  57  85 106 138 178 215 260 314
#     4  10  21  35  54  79 106 140 178 221 266 309
#     4   9  20  35  51  77 111 140 173 220 263 308
#     4  11  19  34  54  78 111 139 176 217 260 318
#     4   8  18  34  51  77 109 138 173 215 261 312
#
# _framework density 20.89349
#
# number of rings (size 3 to 8) (size 9 to 14) (size 15 to 20)
#    1.000    1.667    1.667    1.500    0.000    3.667 
#    0.000    2.500    0.000    8.000    0.000    2.333 
#    0.000    0.000    0.000    0.000    0.000    0.000 
#
# Total GULP energy -133756.687635 kJ/mol
# GULP energy per Si atom -5573.195318 kJ/mol
# Density = 2.084594 g / cm^3
# Si number density = 20.893490 Si / 1000 Ang^3
#
#
#
# Elastic Constant Matrix: (Units=GPa)
#
#
# Indices 1 2 3 4 5 6 
#
# 1 44.5118 23.6147 20.6876 0.0000 -13.2334 0.0000
# 2 23.6147 146.6008 49.2966 0.0000 -18.1862 0.0000
# 3 20.6876 49.2966 106.2141 0.0000 -24.9987 0.0000
# 4 0.0000 0.0000 0.0000 5.4602 0.0000 22.2332
# 5 -13.2334 -18.1862 -24.9987 0.0000 31.6261 0.0000
# 6 0.0000 0.0000 0.0000 22.2332 0.0000 -8.0861
#
#
#
# Elastic Compliance Matrix: (Units=1/GPa)
#
#
# Indices 1 2 3 4 5 6 
#
# 1 0.027315 -0.002658 -0.002158 0.000000 0.008196 0.000000
# 2 -0.002658 0.008453 -0.003100 0.000000 0.001298 0.000000
# 3 -0.002158 -0.003100 0.013074 0.000000 0.007649 0.000000
# 4 0.000000 0.000000 0.000000 0.015017 0.000000 0.041290
# 5 0.008196 0.001298 0.007649 0.000000 0.041841 0.000000
# 6 0.000000 0.000000 0.000000 0.041290 0.000000 -0.010140
#
#
# Mechanical properties :
#
#
# Convention : Reuss Voigt Hill
#
# Bulk Modulus (GPa) = 30.29246 53.83607 42.06426
# Shear Modulus (GPa) = 40.85123 19.38190 30.11656
#
# Velocity S-wave (km/s) = 4.42658 3.04904 3.80074
# Velocity P-wave (km/s) = 6.37621 6.18210 6.27991
#
# Compressibility (1/GPa) = 0.03301152
#
# Stress axis : x y z
#
# Youngs Moduli (GPa) = 36.60938 118.30385 76.48607
#
# Poissons Ratio (x) = 0.31442 0.16504
# Poissons Ratio (y) = 0.09730 0.23710
# Poissons Ratio (z) = 0.07900 0.36674
#
# Static dielectric constant tensor:
#      x y z
#    x 1.748530 0.000000 -0.005240 
#    y 0.000000 1.750530 0.000000 
#    z -0.005240 0.000000 1.776650 
# 
# From -- ./inp_files/85226.got.cif
#   From: 2010.05.17/outbox.cif.g08.bks.cpg/sg10_43_cif.got.tgz:85226.got - 2010.06.03 11:33:40.
