data_PCOD9151396
_publ_section_title
;
Structure prediction by ZEFSAII (Michael W. Deem and Ramdas Pophale) SiO2 
 PCOD9151396
Probable space group: P 2/M
;
_chemical_formula_sum "Si O2"
_cell_formula_units_Z 26
_cell_length_a 15.202568
_cell_length_b 9.738491
_cell_length_c 14.475370
_cell_angle_alpha 90.000000
_cell_angle_beta 140.651110
_cell_angle_gamma 90.000000
_cell_volume 1358.800211
_symmetry_space_group_name_H-M "P 2/M"
_symmetry_group_IT_number 10
_symmetry_cell_setting 'monoclinic'
loop_
_space_group_symop_operation_xyz
x,y,z
-x,y,-z
-x,-y,-z
x,-y,z
loop_
_atom_site_type_symbol
_atom_site_label
_atom_site_fract_x
_atom_site_fract_y
_atom_site_fract_z
Si Si1 0.164895 0.162124 0.886819
Si Si2 0.926874 0.841134 0.538334
Si Si3 0.683395 0.742638 0.602843
Si Si4 0.004810 0.338669 0.114504
Si Si5 0.666158 0.338225 0.382262
Si Si6 0.500000 0.000000 0.500000
Si Si7 0.500000 0.500000 0.500000
Si Si8 0.576136 0.339898 0.964246
O O1 0.299520 0.235354 0.953301
O O2 0.040957 0.172559 0.711266
O O3 0.115201 0.249376 0.934940
O O4 0.187709 0.000000 0.924642
O O5 0.799027 0.740802 0.451285
O O6 0.000000 0.813669 0.500000
O O7 0.878052 0.000000 0.498370
O O8 0.848598 0.726436 0.735935
O O9 0.633204 0.720366 0.456448
O O10 0.618868 0.618773 0.608089
O O11 0.620556 0.881271 0.589142
O O12 0.997634 0.500000 0.136600
O O13 0.000000 0.332482 0.000000
O O14 0.695988 0.500000 0.417998
O O15 0.537803 0.324336 0.208753
O O16 0.624191 0.500000 0.003199
O O17 0.500000 0.315266 0.000000
#
# Coordination Sequence:
#
# PCOD9151396 Si02
#       8
#     4   4   4   4   4   1   1   4
#     4  11  24  41  64  94 131 168 209 258 317 379
#     4  10  22  39  63  93 126 164 204 252 314 377
#     4  11  22  44  62  94 123 164 207 264 302 380
#     4  11  24  43  67  91 126 168 212 259 313 372
#     4  11  22  38  67  92 122 162 207 261 308 361
#     4  10  28  38  66  90 132 162 210 254 324 358
#     4  10  20  38  66  86 124 158 206 258 308 358
#     4  10  23  43  64  93 129 165 211 263 314 372
#
# _framework density 19.134526000000001
#
# number of rings (size 3 to 8) (size 9 to 14) (size 15 to 20)
#    0.000    1.385    3.077    1.385    2.154    4.615 
#    2.769    0.000    0.000    0.000    0.000    0.000 
#    0.000    0.000    0.000    0.000    0.000    0.000 
#
# Total GULP energy -144735.863357 kJ/mol
# GULP energy per Si atom -5566.763975 kJ/mol
# Density = 1.909098 g / cm^3
# Si number density = 19.134526 Si / 1000 Ang^3
#
#
#
# Elastic Constant Matrix: (Units=GPa)
#
#
# Indices 1 2 3 4 5 6 
#
# 1 78.6309 62.7014 16.8272 0.0000 11.6539 0.0000
# 2 62.7014 168.9255 24.8057 0.0000 22.3135 0.0000
# 3 16.8272 24.8057 34.3769 0.0000 0.8353 0.0000
# 4 0.0000 0.0000 0.0000 19.5613 0.0000 17.0099
# 5 11.6539 22.3135 0.8353 0.0000 36.0895 0.0000
# 6 0.0000 0.0000 0.0000 17.0099 0.0000 -1.4048
#
#
#
# Elastic Compliance Matrix: (Units=1/GPa)
#
#
# Indices 1 2 3 4 5 6 
#
# 1 0.018872 -0.005990 -0.004860 0.000000 -0.002278 0.000000
# 2 -0.005990 0.009150 -0.003582 0.000000 -0.003640 0.000000
# 3 -0.004860 -0.003582 0.033980 0.000000 0.002997 0.000000
# 4 0.000000 0.000000 0.000000 0.004434 0.000000 0.053690
# 5 -0.002278 -0.003640 0.002997 0.000000 0.030626 0.000000
# 6 0.000000 0.000000 0.000000 0.053690 0.000000 -0.061743
#
#
# Mechanical properties :
#
#
# Convention : Reuss Voigt Hill
#
# Bulk Modulus (GPa) = 30.17687 54.51130 42.34408
# Shear Modulus (GPa) = 66.46421 22.68915 44.57668
#
# Velocity S-wave (km/s) = 5.90005 3.44724 4.83188
# Velocity P-wave (km/s) = 7.88792 6.66295 7.30117
#
# Compressibility (1/GPa) = 0.03313796
#
# Stress axis : x y z
#
# Youngs Moduli (GPa) = 52.98836 109.28903 29.42922
#
# Poissons Ratio (x) = 0.65468 0.14302
# Poissons Ratio (y) = 0.31742 0.10541
# Poissons Ratio (z) = 0.25751 0.39145
#
# Static dielectric constant tensor:
#      x y z
#    x 1.692110 0.000000 -0.002730 
#    y 0.000000 1.642730 0.000000 
#    z -0.002730 0.000000 1.664150 
# 
# From -- ./inp_files/66921.got.cif
#   From: 2010.05.17/outbox.cif.g08.bks.cpg/sg10_34_cif.got.tgz:66921.got - 2010.06.03 11:33:40.
