data_PCOD9151444
_publ_section_title
;
Structure prediction by ZEFSAII (Michael W. Deem and Ramdas Pophale) SiO2 
 PCOD9151444
Probable space group: P 2/M
;
_chemical_formula_sum "Si O2"
_cell_formula_units_Z 25
_cell_length_a 17.381212
_cell_length_b 12.134788
_cell_length_c 11.207554
_cell_angle_alpha 90.000000
_cell_angle_beta 146.560850
_cell_angle_gamma 90.000000
_cell_volume 1302.611573
_symmetry_space_group_name_H-M "P 2/M"
_symmetry_group_IT_number 10
_symmetry_cell_setting 'monoclinic'
loop_
_space_group_symop_operation_xyz
x,y,z
-x,y,-z
-x,-y,-z
x,-y,z
loop_
_atom_site_type_symbol
_atom_site_label
_atom_site_fract_x
_atom_site_fract_y
_atom_site_fract_z
Si Si1 0.137699 0.124721 0.914954
Si Si2 0.874704 0.625015 0.761416
Si Si3 0.672126 0.297157 0.695685
Si Si4 0.427406 0.127218 0.621995
Si Si5 0.500000 0.500000 0.500000
Si Si6 0.296317 0.871034 0.877612
Si Si7 0.818597 0.811768 0.520653
O O1 0.181947 0.137817 0.834139
O O2 0.971213 0.133344 0.713441
O O3 0.182002 0.000000 0.009281
O O4 0.219493 0.220141 0.092276
O O5 0.911881 0.500000 0.783570
O O6 0.745285 0.634225 0.683095
O O7 0.844830 0.690094 0.603886
O O8 0.000000 0.678092 0.000000
O O9 0.582108 0.208495 0.502487
O O10 0.603033 0.397573 0.679735
O O11 0.285797 0.135222 0.516769
O O12 0.450452 0.000000 0.616122
O O13 0.556457 0.161707 0.873233
O O14 0.251897 0.812553 0.699429
O O15 0.309262 0.000000 0.861647
#
# Coordination Sequence:
#
# PCOD9151444 Si02
#       7
#     4   4   4   4   1   4   4
#     4  11  22  37  60  94 128 157 195 246 308 362
#     4  10  20  39  61  84 114 152 199 250 302 345
#     4  11  22  38  61  89 115 157 198 257 296 354
#     4  10  21  37  60  90 124 159 201 247 302 360
#     4  12  24  40  60  84 120 156 212 232 298 372
#     4  10  21  37  56  83 126 170 199 233 292 367
#     4  11  21  35  63  90 122 161 199 245 295 365
#
# _framework density 19.192214
#
# number of rings (size 3 to 8) (size 9 to 14) (size 15 to 20)
#    0.000    1.440    2.400    3.840    0.000    2.560 
#    0.000    5.600    7.040    2.880    0.000    0.000 
#    0.000    0.000    0.000    0.000    0.000    0.000 
#
# Total GULP energy -139172.009366 kJ/mol
# GULP energy per Si atom -5566.880375 kJ/mol
# Density = 1.914853 g / cm^3
# Si number density = 19.192214 Si / 1000 Ang^3
#
#
#
# Elastic Constant Matrix: (Units=GPa)
#
#
# Indices 1 2 3 4 5 6 
#
# 1 65.7254 29.3603 36.2973 0.0000 -1.8996 0.0000
# 2 29.3603 96.1530 38.5118 0.0000 -14.0975 0.0000
# 3 36.2973 38.5118 96.7983 0.0000 -12.7634 0.0000
# 4 0.0000 0.0000 0.0000 22.4375 0.0000 -4.1734
# 5 -1.8996 -14.0975 -12.7634 0.0000 34.4164 0.0000
# 6 0.0000 0.0000 0.0000 -4.1734 0.0000 11.6153
#
#
#
# Elastic Compliance Matrix: (Units=1/GPa)
#
#
# Indices 1 2 3 4 5 6 
#
# 1 0.020530 -0.004118 -0.006448 0.000000 -0.002945 0.000000
# 2 -0.004118 0.013590 -0.003321 0.000000 0.004108 0.000000
# 3 -0.006448 -0.003321 0.014556 0.000000 0.003682 0.000000
# 4 0.000000 0.000000 0.000000 0.047760 0.000000 0.017161
# 5 -0.002945 0.004108 0.003682 0.000000 0.031941 0.000000
# 6 0.000000 0.000000 0.000000 0.017161 0.000000 0.092259
#
#
# Mechanical properties :
#
#
# Convention : Reuss Voigt Hill
#
# Bulk Modulus (GPa) = 47.84464 51.89060 49.86762
# Shear Modulus (GPa) = 19.57878 23.99434 21.78656
#
# Velocity S-wave (km/s) = 3.19743 3.53967 3.37289
# Velocity P-wave (km/s) = 6.21408 6.61828 6.41936
#
# Compressibility (1/GPa) = 0.02090098
#
# Stress axis : x y z
#
# Youngs Moduli (GPa) = 48.70817 73.58385 68.70245
#
# Poissons Ratio (x) = 0.30302 0.44302
# Poissons Ratio (y) = 0.20058 0.22816
# Poissons Ratio (z) = 0.31409 0.24438
#
# Static dielectric constant tensor:
#      x y z
#    x 1.719500 0.000000 0.075020 
#    y 0.000000 1.645130 0.000000 
#    z 0.075020 0.000000 1.718440 
# 
# From -- ./inp_files/53731.got.cif
#   From: 2010.05.17/outbox.cif.g08.bks.cpg/sg10_27_cif.got.tgz:53731.got - 2010.06.03 11:33:40.
