data_PCOD9151664
_publ_section_title
;
Structure prediction by ZEFSAII (Michael W. Deem and Ramdas Pophale) SiO2 
 PCOD9151664
Probable space group: P 2/M
;
_chemical_formula_sum "Si O2"
_cell_formula_units_Z 24
_cell_length_a 8.382929
_cell_length_b 19.708556
_cell_length_c 8.574371
_cell_angle_alpha 90.000000
_cell_angle_beta 55.857149
_cell_angle_gamma 90.000000
_cell_volume 1172.451157
_symmetry_space_group_name_H-M "P 2/M"
_symmetry_group_IT_number 10
_symmetry_cell_setting 'monoclinic'
loop_
_space_group_symop_operation_xyz
x,y,z
-x,y,-z
-x,-y,-z
x,-y,z
loop_
_atom_site_type_symbol
_atom_site_label
_atom_site_fract_x
_atom_site_fract_y
_atom_site_fract_z
Si Si1 0.955970 0.000000 0.841276
Si Si2 0.943032 0.500000 0.713260
Si Si3 0.644784 0.000000 0.563059
Si Si4 0.800910 0.385130 0.009280
Si Si5 0.923316 0.148600 0.784822
Si Si6 0.623448 0.763077 0.091171
Si Si7 0.306876 0.847939 0.403459
Si Si8 0.672507 0.500000 0.290869
O O1 0.861760 0.928531 0.855013
O O2 0.140883 0.000000 0.625878
O O3 0.000000 0.000000 0.000000
O O4 0.133039 0.500000 0.715916
O O5 0.000000 0.500000 0.500000
O O6 0.840049 0.430144 0.830596
O O7 0.500000 0.000000 0.500000
O O8 0.621729 0.926214 0.654139
O O9 0.690774 0.314529 0.056707
O O10 0.672135 0.434782 0.183112
O O11 0.000000 0.375920 0.000000
O O12 0.824179 0.166702 0.675334
O O13 0.154192 0.154585 0.631260
O O14 0.821192 0.194740 0.968224
O O15 0.484029 0.795329 0.300011
O O16 0.500000 0.772851 0.000000
O O17 0.500000 0.500000 0.500000
#
# Coordination Sequence:
#
# PCOD9151664 Si02
#       8
#     2   2   2   4   4   4   4   2
#     4  10  21  33  54  80 106 144 188 241 300 344
#     4   9  19  39  66  94 118 158 197 239 286 339
#     4  10  21  35  52  78 108 142 193 252 285 342
#     4   9  20  41  60  86 128 158 188 241 295 352
#     4   9  19  37  57  79 107 148 191 238 294 347
#     4  10  21  37  58  86 117 152 193 239 288 347
#     4   9  19  38  57  77 109 146 194 240 290 344
#     4   9  19  39  64  88 120 155 198 232 290 351
#
# _framework density 20.469936000000001
#
# number of rings (size 3 to 8) (size 9 to 14) (size 15 to 20)
#    0.000    2.667    0.000    1.500    2.333    4.000 
#   15.000    4.167    0.000    0.000    0.000    0.000 
#    0.000    0.000    0.000    0.000    0.000    0.000 
#
# Total GULP energy -133679.298056 kJ/mol
# GULP energy per Si atom -5569.970752 kJ/mol
# Density = 2.042335 g / cm^3
# Si number density = 20.469936 Si / 1000 Ang^3
#
#
#
# Elastic Constant Matrix: (Units=GPa)
#
#
# Indices 1 2 3 4 5 6 
#
# 1 30.0094 22.4885 22.4710 0.0000 -4.2751 0.0000
# 2 22.4885 165.2042 83.6947 0.0000 -32.1170 0.0000
# 3 22.4710 83.6947 126.0966 0.0000 -13.8133 0.0000
# 4 0.0000 0.0000 0.0000 64.4981 0.0000 -4.2864
# 5 -4.2751 -32.1170 -13.8133 0.0000 25.2703 0.0000
# 6 0.0000 0.0000 0.0000 -4.2864 0.0000 26.0982
#
#
#
# Elastic Compliance Matrix: (Units=1/GPa)
#
#
# Indices 1 2 3 4 5 6 
#
# 1 0.039248 -0.002612 -0.005209 0.000000 0.000473 0.000000
# 2 -0.002612 0.011604 -0.006031 0.000000 0.011010 0.000000
# 3 -0.005209 -0.006031 0.012685 0.000000 -0.001612 0.000000
# 4 0.000000 0.000000 0.000000 0.015675 0.000000 0.002575
# 5 0.000473 0.011010 -0.001612 0.000000 0.052764 0.000000
# 6 0.000000 0.000000 0.000000 0.002575 0.000000 0.038740
#
#
# Mechanical properties :
#
#
# Convention : Reuss Voigt Hill
#
# Bulk Modulus (GPa) = 27.90605 64.29095 46.09850
# Shear Modulus (GPa) = 23.76839 36.01705 29.89272
#
# Velocity S-wave (km/s) = 3.41124 4.19920 3.82556
# Velocity P-wave (km/s) = 5.40164 7.41530 6.48708
#
# Compressibility (1/GPa) = 0.03583452
#
# Stress axis : x y z
#
# Youngs Moduli (GPa) = 25.47909 86.17514 78.83436
#
# Poissons Ratio (x) = 0.22507 0.41063
# Poissons Ratio (y) = 0.06655 0.47542
# Poissons Ratio (z) = 0.13272 0.51969
#
# Static dielectric constant tensor:
#      x y z
#    x 1.734530 0.000000 0.002120 
#    y 0.000000 1.696540 0.000000 
#    z 0.002120 0.000000 1.792080 
# 
# From -- ./inp_files/20201.got.cif
#   From: 2010.05.17/outbox.cif.g08.bks.cpg/sg10_11_cif.got.tgz:20201.got - 2010.06.03 11:33:40.
