data_PCOD9151532
_publ_section_title
;
Structure prediction by ZEFSAII (Michael W. Deem and Ramdas Pophale) SiO2 
 PCOD9151532
Probable space group: P 2/M
;
_chemical_formula_sum "Si O2"
_cell_formula_units_Z 32
_cell_length_a 25.586758
_cell_length_b 7.841292
_cell_length_c 16.494475
_cell_angle_alpha 90.000000
_cell_angle_beta 27.319630
_cell_angle_gamma 90.000000
_cell_volume 1518.834736
_symmetry_space_group_name_H-M "P 2/M"
_symmetry_group_IT_number 10
_symmetry_cell_setting 'monoclinic'
loop_
_space_group_symop_operation_xyz
x,y,z
-x,y,-z
-x,-y,-z
x,-y,z
loop_
_atom_site_type_symbol
_atom_site_label
_atom_site_fract_x
_atom_site_fract_y
_atom_site_fract_z
Si Si1 0.954269 0.206886 0.823467
Si Si2 0.599434 0.704010 0.928423
Si Si3 0.459014 0.196331 0.811596
Si Si4 0.617728 0.805912 0.357818
Si Si5 0.215058 0.704419 0.449011
Si Si6 0.746140 0.193107 0.010583
Si Si7 0.170911 0.795039 0.842861
Si Si8 0.718710 0.298369 0.465429
O O1 0.082060 0.258567 0.628995
O O2 0.945835 0.000000 0.834454
O O3 0.866220 0.270579 0.875231
O O4 0.917302 0.264145 0.966100
O O5 0.606065 0.500000 0.935057
O O6 0.713696 0.766665 0.726501
O O7 0.500000 0.730051 0.000000
O O8 0.568329 0.788360 0.055882
O O9 0.349662 0.275399 0.915277
O O10 0.587927 0.260232 0.620285
O O11 0.461315 0.000000 0.781930
O O12 0.500000 0.717705 0.500000
O O13 0.683233 0.821591 0.183445
O O14 0.706953 0.724516 0.295240
O O15 0.592585 0.000000 0.422718
O O16 0.233160 0.500000 0.424910
O O17 0.262158 0.772625 0.470150
O O18 0.769960 0.000000 0.946377
O O19 0.180003 0.759697 0.734975
O O20 0.171364 0.000000 0.849691
O O21 0.728966 0.500000 0.455471
#
# Coordination Sequence:
#
# PCOD9151532 Si02
#       8
#     4   4   4   4   4   4   4   4
#     4   9  19  37  59  80 109 147 186 226 270 318
#     4  10  20  40  61  78 109 147 179 217 275 336
#     4  11  21  34  58  89 114 136 177 231 276 325
#     4   8  12  22  44  70  99 136 175 212 260 316
#     4  10  22  39  58  77 104 146 187 223 269 329
#     4   8  16  31  51  78 110 143 174 216 274 325
#     4   9  18  32  51  78 107 141 185 230 269 312
#     4  11  22  36  53  78 113 151 185 222 277 331
#
# _framework density 21.068784000000001
#
# number of rings (size 3 to 8) (size 9 to 14) (size 15 to 20)
#    0.000    2.500    1.250    3.000    0.000    4.750 
#    0.000    4.375    0.000   11.625    0.000    0.000 
#    0.000    0.000    0.000    0.000    0.000    0.000 
#
# Total GULP energy -178250.028983 kJ/mol
# GULP energy per Si atom -5570.313406 kJ/mol
# Density = 2.102083 g / cm^3
# Si number density = 21.068784 Si / 1000 Ang^3
#
#
#
# Elastic Constant Matrix: (Units=GPa)
#
#
# Indices 1 2 3 4 5 6 
#
# 1 60.2740 -4.8945 11.8938 0.0000 0.7389 0.0000
# 2 -4.8945 23.2089 -3.7437 0.0000 1.4048 0.0000
# 3 11.8938 -3.7437 105.8252 0.0000 -6.3198 0.0000
# 4 0.0000 0.0000 0.0000 30.6581 0.0000 5.5631
# 5 0.7389 1.4048 -6.3198 0.0000 32.4758 0.0000
# 6 0.0000 0.0000 0.0000 5.5631 0.0000 4.2649
#
#
#
# Elastic Compliance Matrix: (Units=1/GPa)
#
#
# Indices 1 2 3 4 5 6 
#
# 1 0.017247 0.003390 -0.001872 0.000000 -0.000903 0.000000
# 2 0.003390 0.044082 0.001072 0.000000 -0.001775 0.000000
# 3 -0.001872 0.001072 0.009812 0.000000 0.001906 0.000000
# 4 0.000000 0.000000 0.000000 0.042732 0.000000 -0.055740
# 5 -0.000903 -0.001775 0.001906 0.000000 0.031260 0.000000
# 6 0.000000 0.000000 0.000000 -0.055740 0.000000 0.307181
#
#
# Mechanical properties :
#
#
# Convention : Reuss Voigt Hill
#
# Bulk Modulus (GPa) = 13.10265 21.75770 17.43018
# Shear Modulus (GPa) = 10.58034 25.88326 18.23180
#
# Velocity S-wave (km/s) = 2.24337 3.50882 2.94487
# Velocity P-wave (km/s) = 3.59761 5.17350 4.45578
#
# Compressibility (1/GPa) = 0.07632044
#
# Stress axis : x y z
#
# Youngs Moduli (GPa) = 57.98202 22.68486 101.91888
#
# Poissons Ratio (x) = -0.07690 0.19083
# Poissons Ratio (y) = -0.19655 -0.10930
# Poissons Ratio (z) = 0.10857 -0.02433
#
# Static dielectric constant tensor:
#      x y z
#    x 1.838620 0.000000 -0.051080 
#    y 0.000000 1.787320 0.000000 
#    z -0.051080 0.000000 1.814450 
# 
# From -- ./inp_files/71551.got.cif
#   From: 2010.05.17/outbox.cif.g08.bks.cpg/sg10_36_cif.got.tgz:71551.got - 2010.06.03 11:33:40.
