data_PCOD9151046
_publ_section_title
;
Structure prediction by ZEFSAII (Michael W. Deem and Ramdas Pophale) SiO2 
 PCOD9151046
Probable space group: P 2/M
;
_chemical_formula_sum "Si O2"
_cell_formula_units_Z 28
_cell_length_a 9.218672
_cell_length_b 17.629933
_cell_length_c 15.093272
_cell_angle_alpha 90.000000
_cell_angle_beta 139.876994
_cell_angle_gamma 90.000000
_cell_volume 1580.806295
_symmetry_space_group_name_H-M "P 2/M"
_symmetry_group_IT_number 10
_symmetry_cell_setting 'monoclinic'
loop_
_space_group_symop_operation_xyz
x,y,z
-x,y,-z
-x,-y,-z
x,-y,z
loop_
_atom_site_type_symbol
_atom_site_label
_atom_site_fract_x
_atom_site_fract_y
_atom_site_fract_z
Si Si1 0.085461 0.500000 0.939486
Si Si2 0.037743 0.619759 0.622398
Si Si3 0.233020 0.088581 0.378034
Si Si4 0.225945 0.500000 0.381129
Si Si5 0.959097 0.199692 0.377208
Si Si6 0.922290 0.915050 0.064989
Si Si7 0.537844 0.624225 0.912649
Si Si8 0.465004 0.794907 0.088450
O O1 0.896912 0.500000 0.773210
O O2 0.250545 0.571680 0.006131
O O3 0.000000 0.500000 0.000000
O O4 0.014225 0.710131 0.631252
O O5 0.297815 0.597938 0.762106
O O6 0.000000 0.607852 0.500000
O O7 0.871094 0.571409 0.607038
O O8 0.500000 0.101195 0.500000
O O9 0.115828 0.146837 0.390440
O O10 0.120893 0.098686 0.228692
O O11 0.195178 0.000000 0.386137
O O12 0.500000 0.500000 0.500000
O O13 0.700784 0.178857 0.238265
O O14 0.000000 0.189786 0.500000
O O15 0.833543 0.000000 0.042742
O O16 0.733839 0.852230 0.987325
O O17 0.000000 0.913830 0.000000
O O18 0.581762 0.709704 0.900291
O O19 0.500000 0.625319 0.000000
O O20 0.500000 0.789979 0.000000
#
# Coordination Sequence:
#
# PCOD9151046 Si02
#       8
#     2   4   4   2   4   4   4   4
#     4  12  26  39  58  90 119 149 192 236 281 333
#     4  10  22  41  64  85 113 153 192 231 285 344
#     4  10  22  39  57  81 117 157 191 229 285 345
#     4  12  26  40  58  88 121 150 189 237 282 334
#     4  10  22  39  60  89 115 145 192 240 284 335
#     4  10  22  38  57  83 116 154 192 233 285 341
#     4  10  20  40  64  82 111 153 192 234 284 339
#     4  10  20  37  62  87 110 144 194 243 285 331
#
# _framework density 17.712479999999999
#
# number of rings (size 3 to 8) (size 9 to 14) (size 15 to 20)
#    0.000    1.714    2.857    0.857    4.000    2.286 
#    0.000    0.000    0.000    0.000    0.000    0.000 
#    0.000    0.000    0.000    0.000    0.000    0.000 
#
# Total GULP energy -156218.352029 kJ/mol
# GULP energy per Si atom -5579.226858 kJ/mol
# Density = 1.767217 g / cm^3
# Si number density = 17.712480 Si / 1000 Ang^3
#
#
#
# Elastic Constant Matrix: (Units=GPa)
#
#
# Indices 1 2 3 4 5 6 
#
# 1 102.8332 72.8904 65.5058 0.0000 8.1429 0.0000
# 2 72.8904 105.2723 59.7763 0.0000 21.0578 0.0000
# 3 65.5058 59.7763 166.1491 0.0000 13.4128 0.0000
# 4 0.0000 0.0000 0.0000 31.2284 0.0000 16.4663
# 5 8.1429 21.0578 13.4128 0.0000 33.3588 0.0000
# 6 0.0000 0.0000 0.0000 16.4663 0.0000 75.7721
#
#
#
# Elastic Compliance Matrix: (Units=1/GPa)
#
#
# Indices 1 2 3 4 5 6 
#
# 1 0.021541 -0.013644 -0.003984 0.000000 0.004957 0.000000
# 2 -0.013644 0.021869 -0.001698 0.000000 -0.009792 0.000000
# 3 -0.003984 -0.001698 0.008305 0.000000 -0.001295 0.000000
# 4 0.000000 0.000000 0.000000 0.036166 0.000000 -0.007859
# 5 0.004957 -0.009792 -0.001295 0.000000 0.035469 0.000000
# 6 0.000000 0.000000 0.000000 -0.007859 0.000000 0.014905
#
#
# Mechanical properties :
#
#
# Convention : Reuss Voigt Hill
#
# Bulk Modulus (GPa) = 76.55589 85.62218 81.08904
# Shear Modulus (GPa) = 27.58408 39.81065 33.69737
#
# Velocity S-wave (km/s) = 3.95058 4.74603 4.36646
# Velocity P-wave (km/s) = 8.00779 8.85879 8.44401
#
# Compressibility (1/GPa) = 0.01306235
#
# Stress axis : x y z
#
# Youngs Moduli (GPa) = 46.42225 45.72582 120.41019
#
# Poissons Ratio (x) = 0.62390 0.47973
# Poissons Ratio (y) = 0.63341 0.20448
# Poissons Ratio (z) = 0.18495 0.07765
#
# Static dielectric constant tensor:
#      x y z
#    x 1.536940 0.000000 -0.047270 
#    y 0.000000 1.636320 0.000000 
#    z -0.047270 0.000000 1.636740 
# 
# From -- ./inp_files/62373.got.cif
#   From: 2010.05.17/outbox.cif.g08.bks.cpg/sg10_32_cif.got.tgz:62373.got - 2010.06.03 11:33:40.
