data_PCOD9151044
_publ_section_title
;
Structure prediction by ZEFSAII (Michael W. Deem and Ramdas Pophale) SiO2 
 PCOD9151044
Probable space group: P 2/M
;
_chemical_formula_sum "Si O2"
_cell_formula_units_Z 24
_cell_length_a 9.165168
_cell_length_b 15.192291
_cell_length_c 13.432161
_cell_angle_alpha 90.000000
_cell_angle_beta 139.586667
_cell_angle_gamma 90.000000
_cell_volume 1212.505357
_symmetry_space_group_name_H-M "P 2/M"
_symmetry_group_IT_number 10
_symmetry_cell_setting 'monoclinic'
loop_
_space_group_symop_operation_xyz
x,y,z
-x,y,-z
-x,-y,-z
x,-y,z
loop_
_atom_site_type_symbol
_atom_site_label
_atom_site_fract_x
_atom_site_fract_y
_atom_site_fract_z
Si Si1 0.916681 0.768507 0.113659
Si Si2 0.137037 0.500000 0.371604
Si Si3 0.621877 0.500000 0.718671
Si Si4 0.258277 0.246053 0.658361
Si Si5 0.276003 0.628754 0.837484
Si Si6 0.749999 0.900062 0.175602
Si Si7 0.323619 0.296394 0.211237
O O1 0.780879 0.707848 0.118807
O O2 0.905091 0.860151 0.167261
O O3 0.164632 0.731646 0.220102
O O4 0.785074 0.753499 0.941181
O O5 0.353365 0.500000 0.555898
O O6 0.242239 0.500000 0.315471
O O7 0.959038 0.578352 0.292716
O O8 0.679991 0.404130 0.797560
O O9 0.334589 0.330083 0.762545
O O10 0.264365 0.160725 0.733105
O O11 0.427160 0.254669 0.653597
O O12 0.000000 0.258334 0.500000
O O13 0.500000 0.586729 0.000000
O O14 0.814963 0.000000 0.233929
O O15 0.500000 0.899839 0.000000
#
# Coordination Sequence:
#
# PCOD9151044 Si02
#       7
#     4   2   2   4   4   4   4
#     4  10  20  37  62  86 116 153 202 241 294 357
#     4  11  23  38  53  84 110 169 210 248 287 352
#     4  11  24  37  54  80 128 158 203 248 300 344
#     4  11  22  38  61  91 123 158 194 245 305 358
#     4  11  20  39  58  80 117 158 210 246 292 344
#     4  10  20  41  67  90 119 156 196 241 299 362
#     4  11  21  38  58  87 121 157 200 250 293 341
#
# _framework density 19.793724999999998
#
# number of rings (size 3 to 8) (size 9 to 14) (size 15 to 20)
#    0.000    1.333    5.000    2.250    0.000    3.000 
#    0.000    4.167    0.000    1.000    0.000    0.000 
#    0.000    0.000    0.000    0.000    0.000    0.000 
#
# Total GULP energy -133642.906237 kJ/mol
# GULP energy per Si atom -5568.454427 kJ/mol
# Density = 1.974867 g / cm^3
# Si number density = 19.793725 Si / 1000 Ang^3
#
#
#
# Elastic Constant Matrix: (Units=GPa)
#
#
# Indices 1 2 3 4 5 6 
#
# 1 98.8079 35.3909 15.3203 0.0000 27.8048 0.0000
# 2 35.3909 115.7767 19.8582 0.0000 7.2575 0.0000
# 3 15.3203 19.8582 64.4394 0.0000 29.2856 0.0000
# 4 0.0000 0.0000 0.0000 6.4362 0.0000 4.8601
# 5 27.8048 7.2575 29.2856 0.0000 35.3768 0.0000
# 6 0.0000 0.0000 0.0000 4.8601 0.0000 17.3275
#
#
#
# Elastic Compliance Matrix: (Units=1/GPa)
#
#
# Indices 1 2 3 4 5 6 
#
# 1 0.015167 -0.004479 0.004448 0.000000 -0.014684 0.000000
# 2 -0.004479 0.010454 -0.004460 0.000000 0.005067 0.000000
# 3 0.004448 -0.004460 0.027266 0.000000 -0.025152 0.000000
# 4 0.000000 0.000000 0.000000 0.197121 0.000000 -0.055290
# 5 -0.014684 0.005067 -0.025152 0.000000 0.059590 0.000000
# 6 0.000000 0.000000 0.000000 -0.055290 0.000000 0.073220
#
#
# Mechanical properties :
#
#
# Convention : Reuss Voigt Hill
#
# Bulk Modulus (GPa) = 22.77616 46.68477 34.73046
# Shear Modulus (GPa) = 12.30210 25.72508 19.01359
#
# Velocity S-wave (km/s) = 2.49573 3.60899 3.10270
# Velocity P-wave (km/s) = 4.45383 6.40338 5.51543
#
# Compressibility (1/GPa) = 0.04390556
#
# Stress axis : x y z
#
# Youngs Moduli (GPa) = 65.93115 95.66016 36.67541
#
# Poissons Ratio (x) = 0.42844 -0.16312
# Poissons Ratio (y) = 0.29529 0.16356
# Poissons Ratio (z) = -0.29323 0.42661
#
# Static dielectric constant tensor:
#      x y z
#    x 1.706930 0.000000 0.001410 
#    y 0.000000 1.781240 0.000000 
#    z 0.001410 0.000000 1.740860 
# 
# From -- ./inp_files/61990.got.cif
#   From: 2010.05.17/outbox.cif.g08.bks.cpg/sg10_31_cif.got.tgz:61990.got - 2010.06.03 11:33:40.
