data_PCOD9151565
_publ_section_title
;
Structure prediction by ZEFSAII (Michael W. Deem and Ramdas Pophale) SiO2 
 PCOD9151565
Probable space group: P 2/M
;
_chemical_formula_sum "Si O2"
_cell_formula_units_Z 20
_cell_length_a 9.215758
_cell_length_b 13.587167
_cell_length_c 17.711137
_cell_angle_alpha 90.000000
_cell_angle_beta 25.706757
_cell_angle_gamma 90.000000
_cell_volume 961.969432
_symmetry_space_group_name_H-M "P 2/M"
_symmetry_group_IT_number 10
_symmetry_cell_setting 'monoclinic'
loop_
_space_group_symop_operation_xyz
x,y,z
-x,y,-z
-x,-y,-z
x,-y,z
loop_
_atom_site_type_symbol
_atom_site_label
_atom_site_fract_x
_atom_site_fract_y
_atom_site_fract_z
Si Si1 0.368066 0.258654 0.862228
Si Si2 0.261480 0.611424 0.207491
Si Si3 0.184778 0.279096 0.701177
Si Si4 0.717816 0.114165 0.975010
Si Si5 0.386922 0.611352 0.382188
O O1 0.417356 0.341343 0.903707
O O2 0.586626 0.301809 0.691284
O O3 0.455399 0.160713 0.868877
O O4 0.000000 0.250696 0.000000
O O5 0.316935 0.500000 0.159068
O O6 0.110585 0.675622 0.210936
O O7 0.962832 0.611888 0.409657
O O8 0.500000 0.252180 0.500000
O O9 0.332497 0.361512 0.687726
O O10 0.040241 0.183320 0.810440
O O11 0.797429 0.000000 0.949714
O O12 0.500000 0.120752 0.000000
O O13 0.436875 0.500000 0.327773
#
# Coordination Sequence:
#
# PCOD9151565 Si02
#       5
#     4   4   4   4   4
#     4  12  23  38  59  89 122 158 196 239 294 352
#     4  10  21  38  61  87 125 166 197 232 282 348
#     4  10  20  40  65  89 117 154 204 245 287 350
#     4  11  24  45  65  83 112 153 200 253 309 347
#     4  10  21  38  60  90 126 162 193 233 290 350
#
# _framework density 20.790680999999999
#
# number of rings (size 3 to 8) (size 9 to 14) (size 15 to 20)
#    0.000    1.400    4.000    1.800    0.000    6.400 
#    0.000    1.000    0.000    2.400    0.000    0.000 
#    0.000    0.000    0.000    0.000    0.000    0.000 
#
# Total GULP energy -111663.236597 kJ/mol
# GULP energy per Si atom -5583.161830 kJ/mol
# Density = 2.074336 g / cm^3
# Si number density = 20.790681 Si / 1000 Ang^3
#
#
#
# Elastic Constant Matrix: (Units=GPa)
#
#
# Indices 1 2 3 4 5 6 
#
# 1 115.4846 40.5773 30.1387 0.0000 -0.9266 0.0000
# 2 40.5773 154.7193 30.9779 0.0000 9.5100 0.0000
# 3 30.1387 30.9779 45.2990 0.0000 9.1712 0.0000
# 4 0.0000 0.0000 0.0000 21.6669 0.0000 6.4919
# 5 -0.9266 9.5100 9.1712 0.0000 37.1254 0.0000
# 6 0.0000 0.0000 0.0000 6.4919 0.0000 29.8560
#
#
#
# Elastic Compliance Matrix: (Units=1/GPa)
#
#
# Indices 1 2 3 4 5 6 
#
# 1 0.011008 -0.001703 -0.006635 0.000000 0.002350 0.000000
# 2 -0.001703 0.007769 -0.003967 0.000000 -0.001053 0.000000
# 3 -0.006635 -0.003967 0.030559 0.000000 -0.006699 0.000000
# 4 0.000000 0.000000 0.000000 0.049370 0.000000 -0.010735
# 5 0.002350 -0.001053 -0.006699 0.000000 0.028919 0.000000
# 6 0.000000 0.000000 0.000000 -0.010735 0.000000 0.035828
#
#
# Mechanical properties :
#
#
# Convention : Reuss Voigt Hill
#
# Bulk Modulus (GPa) = 40.44278 57.65452 49.04865
# Shear Modulus (GPa) = 25.47070 31.98360 28.72715
#
# Velocity S-wave (km/s) = 3.50394 3.92645 3.72120
# Velocity P-wave (km/s) = 5.98872 6.95321 6.48891
#
# Compressibility (1/GPa) = 0.02472629
#
# Stress axis : x y z
#
# Youngs Moduli (GPa) = 90.84303 128.71934 32.72370
#
# Poissons Ratio (x) = 0.21920 0.21713
# Poissons Ratio (y) = 0.15470 0.12980
# Poissons Ratio (z) = 0.60276 0.51058
#
# Static dielectric constant tensor:
#      x y z
#    x 1.795100 0.000000 0.048100 
#    y 0.000000 1.700010 0.000000 
#    z 0.048100 0.000000 1.789180 
# 
# From -- ./inp_files/17767.got.cif
#   From: 2010.05.17/outbox.cif.g08.bks.cpg/sg10_9_cif.got.tgz:17767.got - 2010.06.03 11:33:40.
