data_PCOD9151678
_publ_section_title
;
Structure prediction by ZEFSAII (Michael W. Deem and Ramdas Pophale) SiO2 
 PCOD9151678
Probable space group: P 2/M
;
_chemical_formula_sum "Si O2"
_cell_formula_units_Z 28
_cell_length_a 7.920896
_cell_length_b 7.669249
_cell_length_c 28.720438
_cell_angle_alpha 90.000000
_cell_angle_beta 132.529432
_cell_angle_gamma 90.000000
_cell_volume 1285.714560
_symmetry_space_group_name_H-M "P 2/M"
_symmetry_group_IT_number 10
_symmetry_cell_setting 'monoclinic'
loop_
_space_group_symop_operation_xyz
x,y,z
-x,y,-z
-x,-y,-z
x,-y,z
loop_
_atom_site_type_symbol
_atom_site_label
_atom_site_fract_x
_atom_site_fract_y
_atom_site_fract_z
Si Si1 0.246725 0.196483 0.667632
Si Si2 0.931054 0.787360 0.203133
Si Si3 0.365206 0.802130 0.931574
Si Si4 0.480510 0.209404 0.804438
Si Si5 0.754525 0.296249 0.936708
Si Si6 0.999405 0.500000 0.577801
Si Si7 0.377136 0.803183 0.341949
Si Si8 0.612046 0.500000 0.432769
O O1 0.409479 0.263147 0.739653
O O2 0.048037 0.330460 0.618122
O O3 0.407630 0.183737 0.652639
O O4 0.167482 0.000000 0.665032
O O5 0.851701 0.725077 0.136995
O O6 0.733367 0.738154 0.202827
O O7 0.168610 0.735788 0.270912
O O8 0.935657 0.000000 0.200641
O O9 0.558885 0.806269 0.927706
O O10 0.302967 0.000000 0.934611
O O11 0.500000 0.717512 0.000000
O O12 0.704686 0.277115 0.872630
O O13 0.500241 0.000000 0.807559
O O14 0.731342 0.500000 0.944626
O O15 0.000000 0.235595 0.000000
O O16 0.195959 0.500000 0.573409
O O17 0.757852 0.500000 0.506916
O O18 0.453788 0.668858 0.395527
O O19 0.320959 0.000000 0.347744
#
# Coordination Sequence:
#
# PCOD9151678 Si02
#       8
#     4   4   4   4   4   2   4   2
#     4   9  18  31  51  77  99 129 168 202 247 295
#     4   8  15  30  49  70  97 126 159 203 251 293
#     4   9  18  33  53  73  95 128 170 213 256 302
#     4   9  18  33  52  72  95 127 167 204 244 297
#     4  10  21  34  47  69 102 135 167 206 253 302
#     4   9  18  32  51  73 108 131 154 209 244 287
#     4   9  17  31  50  73 102 129 163 209 244 289
#     4   9  18  32  49  77 102 131 166 193 248 301
#
# _framework density 21.777771999999999
#
# number of rings (size 3 to 8) (size 9 to 14) (size 15 to 20)
#    0.000    3.000    0.000    1.286    1.000    3.143 
#    5.143    5.714    0.000    1.714    0.000    4.000 
#    0.000    0.000    0.000    0.000    0.000    0.000 
#
# Total GULP energy -156073.327723 kJ/mol
# GULP energy per Si atom -5574.047419 kJ/mol
# Density = 2.172821 g / cm^3
# Si number density = 21.777772 Si / 1000 Ang^3
#
#
#
# Elastic Constant Matrix: (Units=GPa)
#
#
# Indices 1 2 3 4 5 6 
#
# 1 8.1673 4.9614 1.9777 0.0000 2.9212 0.0000
# 2 4.9614 76.7528 68.8099 0.0000 4.7779 0.0000
# 3 1.9777 68.8099 216.6852 0.0000 16.0542 0.0000
# 4 0.0000 0.0000 0.0000 16.6896 0.0000 -14.5805
# 5 2.9212 4.7779 16.0542 0.0000 22.0394 0.0000
# 6 0.0000 0.0000 0.0000 -14.5805 0.0000 -11.6534
#
#
#
# Elastic Compliance Matrix: (Units=1/GPa)
#
#
# Indices 1 2 3 4 5 6 
#
# 1 0.134568 -0.010727 0.003517 0.000000 -0.018073 0.000000
# 2 -0.010727 0.019071 -0.006086 0.000000 0.001720 0.000000
# 3 0.003517 -0.006086 0.006820 0.000000 -0.004115 0.000000
# 4 0.000000 0.000000 0.000000 0.028627 0.000000 -0.035817
# 5 -0.018073 0.001720 -0.004115 0.000000 0.050393 0.000000
# 6 0.000000 0.000000 0.000000 -0.035817 0.000000 -0.040998
#
#
# Mechanical properties :
#
#
# Convention : Reuss Voigt Hill
#
# Bulk Modulus (GPa) = 7.47000 50.34481 28.90740
# Shear Modulus (GPa) = 18.53945 20.47221 19.50583
#
# Velocity S-wave (km/s) = 2.92087 3.06935 2.99603
# Velocity P-wave (km/s) = 3.84875 5.97737 5.02702
#
# Compressibility (1/GPa) = 0.13386883
#
# Stress axis : x y z
#
# Youngs Moduli (GPa) = 7.43118 52.43546 146.62046
#
# Poissons Ratio (x) = 0.56247 -0.51570
# Poissons Ratio (y) = 0.07971 0.89229
# Poissons Ratio (z) = -0.02614 0.31911
#
# Static dielectric constant tensor:
#      x y z
#    x 1.795180 0.000000 -0.013330 
#    y 0.000000 1.838010 0.000000 
#    z -0.013330 0.000000 1.824070 
# 
# From -- ./inp_files/84923.got.cif
#   From: 2010.05.17/outbox.cif.g08.bks.cpg/sg10_43_cif.got.tgz:84923.got - 2010.06.03 11:33:40.
