data_PCOD9151990
_publ_section_title
;
Structure prediction by ZEFSAII (Michael W. Deem and Ramdas Pophale) SiO2 
 PCOD9151990
Probable space group: P 2/M
;
_chemical_formula_sum "Si O2"
_cell_formula_units_Z 28
_cell_length_a 30.330629
_cell_length_b 7.965499
_cell_length_c 9.628176
_cell_angle_alpha 90.000000
_cell_angle_beta 37.475968
_cell_angle_gamma 90.000000
_cell_volume 1415.298527
_symmetry_space_group_name_H-M "P 2/M"
_symmetry_group_IT_number 10
_symmetry_cell_setting 'monoclinic'
loop_
_space_group_symop_operation_xyz
x,y,z
-x,y,-z
-x,-y,-z
x,-y,z
loop_
_atom_site_type_symbol
_atom_site_label
_atom_site_fract_x
_atom_site_fract_y
_atom_site_fract_z
Si Si1 0.933539 0.799062 0.758691
Si Si2 0.500003 0.794198 0.159379
Si Si3 0.066452 0.200931 0.926421
Si Si4 0.635923 0.202614 0.001351
Si Si5 0.798514 0.299923 0.595023
Si Si6 0.798501 0.299921 0.912433
Si Si7 0.364089 0.202610 0.680952
O O1 0.858836 0.766818 0.865550
O O2 0.000000 0.731582 0.500000
O O3 0.942784 0.000000 0.744771
O O4 0.933631 0.732201 0.915918
O O5 0.428103 0.738934 0.420816
O O6 0.500002 0.000000 0.160321
O O7 0.500000 0.740120 0.000000
O O8 0.571909 0.738945 0.061286
O O9 0.141158 0.233137 0.659748
O O10 0.057189 0.000000 0.958789
O O11 0.000000 0.268430 0.000000
O O12 0.716708 0.254502 0.756879
O O13 0.633653 0.000000 0.008822
O O14 0.624314 0.261377 0.189206
O O15 0.804731 0.500000 0.583331
O O16 0.809381 0.235338 0.726546
O O17 0.804693 0.500000 0.893086
O O18 0.716698 0.254461 0.159601
O O19 0.366374 0.000000 0.677042
#
# Coordination Sequence:
#
# PCOD9151990 Si02
#       7
#     4   4   4   4   4   4   4
#     4  10  21  37  58  82 106 135 173 216 261 309
#     4   9  17  29  48  75 102 128 166 217 264 305
#     4  10  21  37  58  82 106 135 173 216 261 309
#     4   9  17  31  52  75 100 133 172 213 258 308
#     4  10  21  36  54  78 108 141 176 214 259 311
#     4  10  21  36  54  78 108 141 176 214 259 311
#     4   9  17  31  52  75 100 133 172 213 258 308
#
# _framework density 19.783812000000001
#
# number of rings (size 3 to 8) (size 9 to 14) (size 15 to 20)
#    0.000    2.429    0.000    2.143    0.000    6.857 
#    0.000    3.571    0.000    4.286    0.000    0.000 
#    0.000    0.000    0.000    0.000    0.000    0.000 
#
# Total GULP energy -156323.903574 kJ/mol
# GULP energy per Si atom -5582.996556 kJ/mol
# Density = 1.973878 g / cm^3
# Si number density = 19.783812 Si / 1000 Ang^3
#
#
#
# Elastic Constant Matrix: (Units=GPa)
#
#
# Indices 1 2 3 4 5 6 
#
# 1 183.9600 7.0400 132.2153 0.0000 -7.8258 0.0000
# 2 7.0400 14.4357 4.3450 0.0000 4.6029 0.0000
# 3 132.2153 4.3450 188.8985 0.0000 -1.1740 0.0000
# 4 0.0000 0.0000 0.0000 -54.1312 0.0000 49.6835
# 5 -7.8258 4.6029 -1.1740 0.0000 16.4882 0.0000
# 6 0.0000 0.0000 0.0000 49.6835 0.0000 -25.5966
#
#
#
# Elastic Compliance Matrix: (Units=1/GPa)
#
#
# Indices 1 2 3 4 5 6 
#
# 1 0.011667 -0.005340 -0.008003 0.000000 0.006458 0.000000
# 2 -0.005340 0.079160 0.001765 0.000000 -0.024507 0.000000
# 3 -0.008003 0.001765 0.010833 0.000000 -0.003520 0.000000
# 4 0.000000 0.000000 0.000000 0.023637 0.000000 0.045881
# 5 0.006458 -0.024507 -0.003520 0.000000 0.070306 0.000000
# 6 0.000000 0.000000 0.000000 0.045881 0.000000 0.049988
#
#
# Mechanical properties :
#
#
# Convention : Reuss Voigt Hill
#
# Bulk Modulus (GPa) = 12.73841 74.94387 43.84114
# Shear Modulus (GPa) = 16.95397 3.59836 10.27616
#
# Velocity S-wave (km/s) = 2.93057 1.35011 2.28156
# Velocity P-wave (km/s) = 4.23128 6.35563 5.39897
#
# Compressibility (1/GPa) = 0.07850275
#
# Stress axis : x y z
#
# Youngs Moduli (GPa) = 85.71124 12.63262 92.31051
#
# Poissons Ratio (x) = 0.06746 0.73877
# Poissons Ratio (y) = 0.45772 -0.16289
# Poissons Ratio (z) = 0.68596 -0.02229
#
# Static dielectric constant tensor:
#      x y z
#    x 1.681250 0.000000 0.017970 
#    y 0.000000 1.699250 0.000000 
#    z 0.017970 0.000000 1.670920 
# 
# From -- ./inp_files/37063.got.cif
#   From: 2010.05.17/outbox.cif.g08.bks.cpg/sg10_19_cif.got.tgz:37063.got - 2010.06.03 11:33:40.
