data_PCOD9151640
_publ_section_title
;
Structure prediction by ZEFSAII (Michael W. Deem and Ramdas Pophale) SiO2 
 PCOD9151640
Probable space group: P 2/M
;
_chemical_formula_sum "Si O2"
_cell_formula_units_Z 32
_cell_length_a 22.521812
_cell_length_b 13.509967
_cell_length_c 19.639896
_cell_angle_alpha 90.000000
_cell_angle_beta 160.614390
_cell_angle_gamma 90.000000
_cell_volume 1983.516215
_symmetry_space_group_name_H-M "P 2/M"
_symmetry_group_IT_number 10
_symmetry_cell_setting 'monoclinic'
loop_
_space_group_symop_operation_xyz
x,y,z
-x,y,-z
-x,-y,-z
x,-y,z
loop_
_atom_site_type_symbol
_atom_site_label
_atom_site_fract_x
_atom_site_fract_y
_atom_site_fract_z
Si Si1 0.540986 0.249506 0.175394
Si Si2 0.807563 0.117927 0.377518
Si Si3 0.802413 0.619576 0.534870
Si Si4 0.058900 0.380130 0.166570
Si Si5 0.705860 0.618187 0.171227
Si Si6 0.028641 0.618586 0.423215
Si Si7 0.777902 0.882681 0.184282
Si Si8 0.704080 0.379489 0.705616
O O1 0.684269 0.176609 0.295982
O O2 0.626892 0.317340 0.326712
O O3 0.470132 0.325139 0.040963
O O4 0.373979 0.181224 0.015732
O O5 0.756725 0.133509 0.243094
O O6 0.017507 0.144085 0.611929
O O7 0.790314 0.000000 0.370265
O O8 0.769147 0.500000 0.498014
O O9 0.885404 0.647393 0.697073
O O10 0.933532 0.644743 0.613419
O O11 0.055822 0.500000 0.161164
O O12 0.208731 0.350007 0.272881
O O13 0.859504 0.348778 0.927402
O O14 0.675393 0.500000 0.142925
O O15 0.819104 0.652418 0.359100
O O16 0.839399 0.639327 0.252366
O O17 0.043312 0.500000 0.441778
O O18 0.756677 0.000000 0.149497
O O19 0.500000 0.346173 0.500000
O O20 0.698337 0.500000 0.700152
#
# Coordination Sequence:
#
# PCOD9151640 Si02
#       8
#     4   4   4   4   4   4   4   4
#     4  12  22  28  51  70  89 118 161 194 237 289
#     4   9  20  37  52  68  87 108 145 204 262 301
#     4  10  21  33  42  64 101 135 158 193 238 277
#     4   8  15  29  43  61  93 119 148 192 230 266
#     4   9  19  33  45  62  87 122 169 213 232 266
#     4   8  17  33  46  54  82 127 168 203 240 265
#     4   9  20  37  52  67  87 108 145 205 260 298
#     4   8  13  25  48  69  80 109 156 192 224 266
#
# _framework density 16.132966
#
# number of rings (size 3 to 8) (size 9 to 14) (size 15 to 20)
#    0.000    2.875    0.000    3.375    5.250    2.000 
#    2.250    1.875    0.000    0.000    0.000    2.625 
#    0.000    0.000    0.000    9.000    0.000   24.000 
#
# Total GULP energy -178432.462437 kJ/mol
# GULP energy per Si atom -5576.014451 kJ/mol
# Density = 1.609625 g / cm^3
# Si number density = 16.132966 Si / 1000 Ang^3
#
#
#
# Elastic Constant Matrix: (Units=GPa)
#
#
# Indices 1 2 3 4 5 6 
#
# 1 87.1385 21.9087 71.4111 0.0000 -11.1020 0.0000
# 2 21.9087 50.8257 35.5115 0.0000 1.8656 0.0000
# 3 71.4111 35.5115 121.1581 0.0000 0.6543 0.0000
# 4 0.0000 0.0000 0.0000 25.5099 0.0000 5.0203
# 5 -11.1020 1.8656 0.6543 0.0000 26.9156 0.0000
# 6 0.0000 0.0000 0.0000 5.0203 0.0000 7.8958
#
#
#
# Elastic Compliance Matrix: (Units=1/GPa)
#
#
# Indices 1 2 3 4 5 6 
#
# 1 0.024954 -0.001048 -0.014459 0.000000 0.010717 0.000000
# 2 -0.001048 0.024850 -0.006655 0.000000 -0.001993 0.000000
# 3 -0.014459 -0.006655 0.018759 0.000000 -0.005959 0.000000
# 4 0.000000 0.000000 0.000000 0.044807 0.000000 -0.028489
# 5 0.010717 -0.001993 -0.005959 0.000000 0.041857 0.000000
# 6 0.000000 0.000000 0.000000 -0.028489 0.000000 0.144764
#
#
# Mechanical properties :
#
#
# Convention : Reuss Voigt Hill
#
# Bulk Modulus (GPa) = 41.25591 57.42054 49.33822
# Shear Modulus (GPa) = 14.18871 20.75032 17.46952
#
# Velocity S-wave (km/s) = 2.96883 3.59026 3.29423
# Velocity P-wave (km/s) = 6.11391 7.27021 6.71699
#
# Compressibility (1/GPa) = 0.02423895
#
# Stress axis : x y z
#
# Youngs Moduli (GPa) = 40.07388 40.24181 53.30910
#
# Poissons Ratio (x) = 0.04216 0.77078
# Poissons Ratio (y) = 0.04199 0.35478
# Poissons Ratio (z) = 0.57942 0.26782
#
# Static dielectric constant tensor:
#      x y z
#    x 1.553060 0.000000 0.043290 
#    y 0.000000 1.578260 0.000000 
#    z 0.043290 0.000000 1.575610 
# 
# From -- ./inp_files/79741.got.cif
#   From: 2010.05.17/outbox.cif.g08.bks.cpg/sg10_40_cif.got.tgz:79741.got - 2010.06.03 11:33:40.
