data_PCOD9151177
_publ_section_title
;
Structure prediction by ZEFSAII (Michael W. Deem and Ramdas Pophale) SiO2 
 PCOD9151177
Probable space group: P 2/M
;
_chemical_formula_sum "Si O2"
_cell_formula_units_Z 19
_cell_length_a 12.315798
_cell_length_b 17.561336
_cell_length_c 10.211826
_cell_angle_alpha 90.000000
_cell_angle_beta 156.589650
_cell_angle_gamma 90.000000
_cell_volume 877.519997
_symmetry_space_group_name_H-M "P 2/M"
_symmetry_group_IT_number 10
_symmetry_cell_setting 'monoclinic'
loop_
_space_group_symop_operation_xyz
x,y,z
-x,y,-z
-x,-y,-z
x,-y,z
loop_
_atom_site_type_symbol
_atom_site_label
_atom_site_fract_x
_atom_site_fract_y
_atom_site_fract_z
Si Si1 0.293197 0.000000 0.393423
Si Si2 0.466094 0.338326 0.186256
Si Si3 0.044602 0.270342 0.896055
Si Si4 0.870023 0.121365 0.580226
Si Si5 0.000000 0.000000 0.500000
Si Si6 0.702096 0.500000 0.102782
Si Si7 0.500000 0.232068 0.000000
O O1 0.500000 0.000000 0.500000
O O2 0.295648 0.071804 0.495670
O O3 0.000000 0.000000 0.000000
O O4 0.788268 0.317587 0.549308
O O5 0.374456 0.424385 0.062062
O O6 0.351396 0.288146 0.937555
O O7 0.322124 0.308297 0.156447
O O8 0.054500 0.182392 0.859847
O O9 0.000000 0.271768 0.000000
O O10 0.004125 0.065602 0.621908
O O11 0.676440 0.175684 0.282216
O O12 0.000000 0.500000 0.500000
O O13 0.500000 0.500000 0.000000
#
# Coordination Sequence:
#
# PCOD9151177 Si02
#       7
#     2   4   4   4   1   2   2
#     4  11  26  44  64  92 127 172 226 270 324 393
#     4  11  24  42  68 100 133 169 219 272 327 403
#     4  11  24  44  66  94 133 182 227 267 322 391
#     4  10  23  38  66  93 132 172 218 280 333 397
#     4  10  20  38  56  96 130 164 220 278 350 378
#     4  12  24  42  71 104 141 170 210 269 345 402
#     4  10  22  40  64  96 132 164 218 270 344 384
#
# _framework density 21.651927000000001
#
# number of rings (size 3 to 8) (size 9 to 14) (size 15 to 20)
#    0.000    1.263    1.053    3.789    2.947   11.789 
#    0.000    3.158    0.000    0.000    0.000    0.000 
#    0.000    0.000    0.000    0.000    0.000    0.000 
#
# Total GULP energy -105895.192329 kJ/mol
# GULP energy per Si atom -5573.431175 kJ/mol
# Density = 2.160265 g / cm^3
# Si number density = 21.651927 Si / 1000 Ang^3
#
#
#
# Elastic Constant Matrix: (Units=GPa)
#
#
# Indices 1 2 3 4 5 6 
#
# 1 136.0514 36.8987 15.3263 0.0000 -17.2964 0.0000
# 2 36.8987 180.5771 26.2075 0.0000 -16.3760 0.0000
# 3 15.3263 26.2075 59.3110 0.0000 -2.9123 0.0000
# 4 0.0000 0.0000 0.0000 -1.6128 0.0000 3.4999
# 5 -17.2964 -16.3760 -2.9123 0.0000 43.4747 0.0000
# 6 0.0000 0.0000 0.0000 3.4999 0.0000 19.4601
#
#
#
# Elastic Compliance Matrix: (Units=1/GPa)
#
#
# Indices 1 2 3 4 5 6 
#
# 1 0.008187 -0.001218 -0.001445 0.000000 0.002701 0.000000
# 2 -0.001218 0.006288 -0.002379 0.000000 0.001725 0.000000
# 3 -0.001445 -0.002379 0.018273 0.000000 -0.000247 0.000000
# 4 0.000000 0.000000 0.000000 -0.445975 0.000000 0.080210
# 5 0.002701 0.001725 -0.000247 0.000000 0.024710 0.000000
# 6 0.000000 0.000000 0.000000 0.080210 0.000000 0.036961
#
#
# Mechanical properties :
#
#
# Convention : Reuss Voigt Hill
#
# Bulk Modulus (GPa) = 44.12288 59.20049 51.66168
# Shear Modulus (GPa) = -14.97378 32.09820 8.56221
#
# Velocity S-wave (km/s) = -2.63262 3.85445 1.99074
# Velocity P-wave (km/s) = 3.34389 6.87098 5.40333
#
# Compressibility (1/GPa) = 0.02266398
#
# Stress axis : x y z
#
# Youngs Moduli (GPa) = 122.14890 159.02234 54.72640
#
# Poissons Ratio (x) = 0.19372 0.07906
# Poissons Ratio (y) = 0.14880 0.13020
# Poissons Ratio (z) = 0.17645 0.37834
#
# Static dielectric constant tensor:
#      x y z
#    x 1.841580 0.000000 0.144690 
#    y 0.000000 1.524600 0.000000 
#    z 0.144690 0.000000 1.993640 
# 
# From -- ./inp_files/25893.got.cif
#   From: 2010.05.17/outbox.cif.g08.bks.cpg/sg10_13_cif.got.tgz:25893.got - 2010.06.03 11:33:40.
