data_PCOD9151175
_publ_section_title
;
Structure prediction by ZEFSAII (Michael W. Deem and Ramdas Pophale) SiO2 
 PCOD9151175
Probable space group: P 2/M
;
_chemical_formula_sum "Si O2"
_cell_formula_units_Z 32
_cell_length_a 12.718751
_cell_length_b 9.130908
_cell_length_c 24.148068
_cell_angle_alpha 90.000000
_cell_angle_beta 46.390110
_cell_angle_gamma 90.000000
_cell_volume 2030.537748
_symmetry_space_group_name_H-M "P 2/M"
_symmetry_group_IT_number 10
_symmetry_cell_setting 'monoclinic'
loop_
_space_group_symop_operation_xyz
x,y,z
-x,y,-z
-x,-y,-z
x,-y,z
loop_
_atom_site_type_symbol
_atom_site_label
_atom_site_fract_x
_atom_site_fract_y
_atom_site_fract_z
Si Si1 0.877256 0.669368 0.996209
Si Si2 0.376857 0.824251 0.317176
Si Si3 0.176686 0.673307 0.583691
Si Si4 0.669736 0.174710 0.151167
Si Si5 0.758238 0.175455 0.327176
Si Si6 0.925886 0.674545 0.586112
Si Si7 0.092509 0.825210 0.841365
Si Si8 0.543715 0.324954 0.594985
O O1 0.849210 0.500000 0.995131
O O2 0.950875 0.747066 0.917099
O O3 0.737372 0.746414 0.073490
O O4 0.000000 0.679238 0.000000
O O5 0.506056 0.787546 0.227437
O O6 0.221604 0.764450 0.354668
O O7 0.415226 0.748428 0.361595
O O8 0.375363 0.000000 0.324748
O O9 0.173868 0.500000 0.598563
O O10 0.177283 0.767987 0.638766
O O11 0.324416 0.700199 0.495595
O O12 0.041962 0.704214 0.592071
O O13 0.772576 0.211151 0.166667
O O14 0.679768 0.000000 0.139555
O O15 0.860308 0.213412 0.237757
O O16 0.603744 0.253467 0.373657
O O17 0.738556 0.000000 0.334448
O O18 0.893865 0.500000 0.597455
O O19 0.000000 0.708587 0.500000
O O20 0.071798 0.000000 0.852130
O O21 0.526939 0.500000 0.607790
#
# Coordination Sequence:
#
# PCOD9151175 Si02
#       8
#     4   4   4   4   4   4   4   4
#     4   9  17  27  43  71  99 126 166 204 236 289
#     4  11  21  33  52  79 104 131 173 215 256 300
#     4  10  22  38  53  71  98 136 177 212 255 308
#     4   9  17  31  47  67 101 135 162 198 249 304
#     4  11  22  35  51  76 105 134 173 214 252 300
#     4  10  20  38  56  72  98 134 174 213 259 309
#     4   9  17  31  47  66  99 138 164 193 248 303
#     4  11  21  35  53  72 101 139 174 208 256 308
#
# _framework density 15.759373
#
# number of rings (size 3 to 8) (size 9 to 14) (size 15 to 20)
#    0.000    2.000    2.500    1.875    0.000    6.750 
#    0.000    0.000    0.000    0.000    0.000    0.875 
#    0.000    7.000    0.000    0.000    0.000    0.000 
#
# Total GULP energy -178561.628816 kJ/mol
# GULP energy per Si atom -5580.050900 kJ/mol
# Density = 1.572350 g / cm^3
# Si number density = 15.759373 Si / 1000 Ang^3
#
#
#
# Elastic Constant Matrix: (Units=GPa)
#
#
# Indices 1 2 3 4 5 6 
#
# 1 71.1293 47.2001 67.0942 0.0000 2.6740 0.0000
# 2 47.2001 64.1034 79.0501 0.0000 -4.0988 0.0000
# 3 67.0942 79.0501 146.3712 0.0000 -15.3091 0.0000
# 4 0.0000 0.0000 0.0000 66.1110 0.0000 -3.0234
# 5 2.6740 -4.0988 -15.3091 0.0000 12.6086 0.0000
# 6 0.0000 0.0000 0.0000 -3.0234 0.0000 25.6435
#
#
#
# Elastic Compliance Matrix: (Units=1/GPa)
#
#
# Indices 1 2 3 4 5 6 
#
# 1 0.034295 -0.012613 -0.011567 0.000000 -0.025417 0.000000
# 2 -0.012613 0.055063 -0.024975 0.000000 -0.009750 0.000000
# 3 -0.011567 -0.024975 0.028671 0.000000 0.029145 0.000000
# 4 0.000000 0.000000 0.000000 0.015208 0.000000 0.001793
# 5 -0.025417 -0.009750 0.029145 0.000000 0.116919 0.000000
# 6 0.000000 0.000000 0.000000 0.001793 0.000000 0.039208
#
#
# Mechanical properties :
#
#
# Convention : Reuss Voigt Hill
#
# Bulk Modulus (GPa) = 50.71695 74.25473 62.48584
# Shear Modulus (GPa) = 12.68243 26.75659 19.71951
#
# Velocity S-wave (km/s) = 2.83990 4.12493 3.54119
# Velocity P-wave (km/s) = 6.55784 8.36103 7.51373
#
# Compressibility (1/GPa) = 0.01971727
#
# Stress axis : x y z
#
# Youngs Moduli (GPa) = 29.15894 18.16112 34.87893
#
# Poissons Ratio (x) = 0.22907 0.40343
# Poissons Ratio (y) = 0.36779 0.87112
# Poissons Ratio (z) = 0.33727 0.45358
#
# Static dielectric constant tensor:
#      x y z
#    x 1.501920 0.000000 -0.002770 
#    y 0.000000 1.526280 0.000000 
#    z -0.002770 0.000000 1.518360 
# 
# From -- ./inp_files/55346.got.cif
#   From: 2010.05.17/outbox.cif.g08.bks.cpg/sg10_28_cif.got.tgz:55346.got - 2010.06.03 11:33:40.
