data_PCOD9151348
_publ_section_title
;
Structure prediction by ZEFSAII (Michael W. Deem and Ramdas Pophale) SiO2 
 PCOD9151348
Probable space group: P 2/M
;
_chemical_formula_sum "Si O2"
_cell_formula_units_Z 20
_cell_length_a 7.640546
_cell_length_b 15.951368
_cell_length_c 8.806285
_cell_angle_alpha 90.000000
_cell_angle_beta 52.851016
_cell_angle_gamma 90.000000
_cell_volume 855.481071
_symmetry_space_group_name_H-M "P 2/M"
_symmetry_group_IT_number 10
_symmetry_cell_setting 'monoclinic'
loop_
_space_group_symop_operation_xyz
x,y,z
-x,y,-z
-x,-y,-z
x,-y,z
loop_
_atom_site_type_symbol
_atom_site_label
_atom_site_fract_x
_atom_site_fract_y
_atom_site_fract_z
Si Si1 0.787267 0.868038 0.714449
Si Si2 0.706716 0.253498 0.290346
Si Si3 0.749370 0.407706 0.065660
Si Si4 0.896469 0.318022 0.706714
Si Si5 0.706015 0.908705 0.101046
O O1 0.767383 0.766633 0.731126
O O2 0.559145 0.902926 0.771392
O O3 0.000000 0.887394 0.500000
O O4 0.799117 0.899577 0.881404
O O5 0.500000 0.231395 0.500000
O O6 0.645455 0.331140 0.212706
O O7 0.771774 0.171806 0.162790
O O8 0.904703 0.283593 0.292923
O O9 0.652215 0.500000 0.138923
O O10 0.765906 0.381633 0.881190
O O11 0.000000 0.411020 0.000000
O O12 0.000000 0.355381 0.500000
O O13 0.761594 0.000000 0.135720
#
# Coordination Sequence:
#
# PCOD9151348 Si02
#       5
#     4   4   4   4   4
#     4  10  20  39  65  90 126 165 205 251 310 366
#     4  11  22  40  62  88 125 161 205 253 305 365
#     4   9  19  37  63  90 121 157 197 248 307 369
#     4  10  20  38  64  88 120 164 202 245 308 365
#     4  11  24  40  61  91 126 166 210 257 306 362
#
# _framework density 23.378658000000001
#
# number of rings (size 3 to 8) (size 9 to 14) (size 15 to 20)
#    0.000    1.800    2.000    3.600    0.000    2.800 
#    0.000    3.000    0.000    9.000    0.000    0.000 
#    0.000    0.000    0.000    0.000    0.000    0.000 
#
# Total GULP energy -111971.522935 kJ/mol
# GULP energy per Si atom -5598.576147 kJ/mol
# Density = 2.332545 g / cm^3
# Si number density = 23.378658 Si / 1000 Ang^3
#
#
#
# Elastic Constant Matrix: (Units=GPa)
#
#
# Indices 1 2 3 4 5 6 
#
# 1 78.8516 31.6255 42.0450 0.0000 -5.7992 0.0000
# 2 31.6255 153.0843 68.2634 0.0000 13.9343 0.0000
# 3 42.0450 68.2634 159.6829 0.0000 4.1471 0.0000
# 4 0.0000 0.0000 0.0000 27.7319 0.0000 16.8199
# 5 -5.7992 13.9343 4.1471 0.0000 37.7995 0.0000
# 6 0.0000 0.0000 0.0000 16.8199 0.0000 30.0797
#
#
#
# Elastic Compliance Matrix: (Units=1/GPa)
#
#
# Indices 1 2 3 4 5 6 
#
# 1 0.015523 -0.002054 -0.003300 0.000000 0.003501 0.000000
# 2 -0.002054 0.008607 -0.003057 0.000000 -0.003152 0.000000
# 3 -0.003300 -0.003057 0.008446 0.000000 -0.000306 0.000000
# 4 0.000000 0.000000 0.000000 0.054565 0.000000 -0.030512
# 5 0.003501 -0.003152 -0.000306 0.000000 0.028188 0.000000
# 6 0.000000 0.000000 0.000000 -0.030512 0.000000 0.050307
#
#
# Mechanical properties :
#
#
# Convention : Reuss Voigt Hill
#
# Bulk Modulus (GPa) = 63.47486 75.05407 69.26447
# Shear Modulus (GPa) = 26.63706 35.76789 31.20248
#
# Velocity S-wave (km/s) = 3.37913 3.91569 3.65726
# Velocity P-wave (km/s) = 6.51417 7.25375 6.89388
#
# Compressibility (1/GPa) = 0.01575427
#
# Stress axis : x y z
#
# Youngs Moduli (GPa) = 64.42058 116.18972 118.39971
#
# Poissons Ratio (x) = 0.23865 0.39073
# Poissons Ratio (y) = 0.13232 0.36190
# Poissons Ratio (z) = 0.21260 0.35514
#
# Static dielectric constant tensor:
#      x y z
#    x 1.955780 0.000000 0.002370 
#    y 0.000000 1.879120 0.000000 
#    z 0.002370 0.000000 1.842430 
# 
# From -- ./inp_files/19530.got.cif
#   From: 2010.05.17/outbox.cif.g08.bks.cpg/sg10_10_cif.got.tgz:19530.got - 2010.06.03 11:33:40.
