data_PCOD9151472
_publ_section_title
;
Structure prediction by ZEFSAII (Michael W. Deem and Ramdas Pophale) SiO2 
 PCOD9151472
Probable space group: P 2/M
;
_chemical_formula_sum "Si O2"
_cell_formula_units_Z 32
_cell_length_a 13.925684
_cell_length_b 9.339927
_cell_length_c 13.278772
_cell_angle_alpha 90.000000
_cell_angle_beta 112.130620
_cell_angle_gamma 90.000000
_cell_volume 1599.861765
_symmetry_space_group_name_H-M "P 2/M"
_symmetry_group_IT_number 10
_symmetry_cell_setting 'monoclinic'
loop_
_space_group_symop_operation_xyz
x,y,z
-x,y,-z
-x,-y,-z
x,-y,z
loop_
_atom_site_type_symbol
_atom_site_label
_atom_site_fract_x
_atom_site_fract_y
_atom_site_fract_z
Si Si1 0.900407 0.333370 0.530826
Si Si2 0.948456 0.333725 0.786618
Si Si3 0.244062 0.830641 0.662523
Si Si4 0.547652 0.337643 0.223150
Si Si5 0.826951 0.332884 0.177470
Si Si6 0.242633 0.170480 0.209457
Si Si7 0.579417 0.664774 0.617603
Si Si8 0.336647 0.331154 0.056570
O O1 0.873446 0.500000 0.502735
O O2 0.927910 0.317182 0.658709
O O3 0.805639 0.236340 0.457336
O O4 0.000000 0.301070 0.500000
O O5 0.926968 0.500000 0.804857
O O6 0.871481 0.230620 0.814402
O O7 0.070632 0.305885 0.848368
O O8 0.358106 0.769328 0.728325
O O9 0.176699 0.768705 0.728273
O O10 0.242840 0.000000 0.658772
O O11 0.586305 0.500000 0.219994
O O12 0.484676 0.337479 0.303491
O O13 0.459390 0.301741 0.106572
O O14 0.834258 0.500000 0.212600
O O15 0.723652 0.313061 0.071217
O O16 0.320589 0.238204 0.323657
O O17 0.283344 0.233828 0.119919
O O18 0.246864 0.000000 0.212565
O O19 0.500000 0.713172 0.500000
O O20 0.611091 0.500000 0.607203
O O21 0.325865 0.500000 0.081099
#
# Coordination Sequence:
#
# PCOD9151472 Si02
#       8
#     4   4   4   4   4   4   4   4
#     4  10  20  39  63  84 111 152 199 244 286 334
#     4  10  21  38  62  87 114 151 197 244 286 338
#     4  12  25  37  55  87 125 158 188 232 292 357
#     4   9  19  37  59  84 114 150 194 241 286 337
#     4  10  21  41  66  88 110 147 202 251 287 333
#     4  11  23  37  56  85 124 157 185 231 292 356
#     4   9  19  37  60  84 109 147 200 246 284 333
#     4   9  20  41  67  88 110 147 199 251 289 331
#
# _framework density 20.001726999999999
#
# number of rings (size 3 to 8) (size 9 to 14) (size 15 to 20)
#    0.000    2.000    1.250    3.000    1.750    5.000 
#    0.000    5.000    0.000    0.000    0.000    0.000 
#    0.000    0.000    0.000    0.000    0.000    0.000 
#
# Total GULP energy -178804.872800 kJ/mol
# GULP energy per Si atom -5587.652275 kJ/mol
# Density = 1.995620 g / cm^3
# Si number density = 20.001727 Si / 1000 Ang^3
#
#
#
# Elastic Constant Matrix: (Units=GPa)
#
#
# Indices 1 2 3 4 5 6 
#
# 1 52.9868 31.9729 -1.2617 0.0000 18.5360 0.0000
# 2 31.9729 78.3529 26.0233 0.0000 21.2638 0.0000
# 3 -1.2617 26.0233 64.4261 0.0000 22.1247 0.0000
# 4 0.0000 0.0000 0.0000 -8.9347 0.0000 -17.7349
# 5 18.5360 21.2638 22.1247 0.0000 29.0027 0.0000
# 6 0.0000 0.0000 0.0000 -17.7349 0.0000 0.0106
#
#
#
# Elastic Compliance Matrix: (Units=1/GPa)
#
#
# Indices 1 2 3 4 5 6 
#
# 1 0.035088 -0.012453 0.013933 0.000000 -0.023923 0.000000
# 2 -0.012453 0.020883 -0.008339 0.000000 -0.000990 0.000000
# 3 0.013933 -0.008339 0.027263 0.000000 -0.023589 0.000000
# 4 0.000000 0.000000 0.000000 -0.000034 0.000000 -0.056369
# 5 -0.023923 -0.000990 -0.023589 0.000000 0.068490 0.000000
# 6 0.000000 0.000000 0.000000 -0.056369 0.000000 0.028398
#
#
# Mechanical properties :
#
#
# Convention : Reuss Voigt Hill
#
# Bulk Modulus (GPa) = 14.38523 34.35943 24.37233
# Shear Modulus (GPa) = 23.04383 13.28450 18.16416
#
# Velocity S-wave (km/s) = 3.39793 2.57994 3.01679
# Velocity P-wave (km/s) = 4.75418 5.10787 4.93419
#
# Compressibility (1/GPa) = 0.06951576
#
# Stress axis : x y z
#
# Youngs Moduli (GPa) = 28.50012 47.88654 36.67915
#
# Poissons Ratio (x) = 0.59633 -0.51104
# Poissons Ratio (y) = 0.35491 0.30586
# Poissons Ratio (z) = -0.39709 0.39932
#
# Static dielectric constant tensor:
#      x y z
#    x 1.722580 0.000000 0.007110 
#    y 0.000000 1.658280 0.000000 
#    z 0.007110 0.000000 1.730000 
# 
# From -- ./inp_files/66493.got.cif
#   From: 2010.05.17/outbox.cif.g08.bks.cpg/sg10_34_cif.got.tgz:66493.got - 2010.06.03 11:33:40.
