data_PCOD9151910
_publ_section_title
;
Structure prediction by ZEFSAII (Michael W. Deem and Ramdas Pophale) SiO2 
 PCOD9151910
Probable space group: P 2/M
;
_chemical_formula_sum "Si O2"
_cell_formula_units_Z 24
_cell_length_a 8.370615
_cell_length_b 16.971663
_cell_length_c 13.498221
_cell_angle_alpha 90.000000
_cell_angle_beta 42.327374
_cell_angle_gamma 90.000000
_cell_volume 1291.247106
_symmetry_space_group_name_H-M "P 2/M"
_symmetry_group_IT_number 10
_symmetry_cell_setting 'monoclinic'
loop_
_space_group_symop_operation_xyz
x,y,z
-x,y,-z
-x,-y,-z
x,-y,z
loop_
_atom_site_type_symbol
_atom_site_label
_atom_site_fract_x
_atom_site_fract_y
_atom_site_fract_z
Si Si1 0.886553 0.745325 0.660911
Si Si2 0.752398 0.086817 0.676866
Si Si3 0.587178 0.289832 0.065853
Si Si4 0.746579 0.274381 0.330870
Si Si5 0.252217 0.157819 0.854014
Si Si6 0.003578 0.410926 0.116976
O O1 0.795694 0.834935 0.720164
O O2 0.656737 0.689995 0.766777
O O3 0.000000 0.742546 0.500000
O O4 0.060783 0.727946 0.670167
O O5 0.496843 0.106574 0.741968
O O6 0.000000 0.083722 0.500000
O O7 0.730478 0.000000 0.733224
O O8 0.714487 0.225606 0.076815
O O9 0.500000 0.257878 0.000000
O O10 0.758053 0.362770 0.967433
O O11 0.500000 0.269807 0.500000
O O12 0.766420 0.203717 0.242067
O O13 0.790987 0.355918 0.252724
O O14 0.000000 0.118414 0.000000
O O15 0.997689 0.500000 0.158174
O O16 0.000000 0.413496 0.000000
#
# Coordination Sequence:
#
# PCOD9151910 Si02
#       6
#     4   4   4   4   4   4
#     4  10  21  35  59  86 109 150 194 235 284 336
#     4   9  19  36  56  83 121 154 187 238 296 345
#     4  11  18  36  59  82 110 146 187 236 279 336
#     4  12  21  37  61  84 114 150 196 238 278 343
#     4  11  20  36  61  88 113 149 200 238 286 339
#     4  11  23  39  59  85 115 151 186 232 295 342
#
# _framework density 18.586680999999999
#
# number of rings (size 3 to 8) (size 9 to 14) (size 15 to 20)
#    0.000    1.333    5.000    3.000    0.000    1.000 
#    0.000    0.833    0.000   24.000    0.000    0.000 
#    0.000    0.000    0.000    0.000    0.000    0.000 
#
# Total GULP energy -133608.475826 kJ/mol
# GULP energy per Si atom -5567.019826 kJ/mol
# Density = 1.854438 g / cm^3
# Si number density = 18.586681 Si / 1000 Ang^3
#
#
#
# Elastic Constant Matrix: (Units=GPa)
#
#
# Indices 1 2 3 4 5 6 
#
# 1 67.9733 -3.3874 26.3282 0.0000 -1.3431 0.0000
# 2 -3.3874 49.4408 30.0505 0.0000 1.0632 0.0000
# 3 26.3282 30.0505 127.3538 0.0000 -18.6214 0.0000
# 4 0.0000 0.0000 0.0000 9.5743 0.0000 -5.5729
# 5 -1.3431 1.0632 -18.6214 0.0000 41.0005 0.0000
# 6 0.0000 0.0000 0.0000 -5.5729 0.0000 14.7823
#
#
#
# Elastic Compliance Matrix: (Units=1/GPa)
#
#
# Indices 1 2 3 4 5 6 
#
# 1 0.016672 0.003993 -0.004632 0.000000 -0.001661 0.000000
# 2 0.003993 0.025011 -0.007287 0.000000 -0.003827 0.000000
# 3 -0.004632 -0.007287 0.011284 0.000000 0.005162 0.000000
# 4 0.000000 0.000000 0.000000 0.133808 0.000000 0.050445
# 5 -0.001661 -0.003827 0.005162 0.000000 0.026779 0.000000
# 6 0.000000 0.000000 0.000000 0.050445 0.000000 0.086666
#
#
# Mechanical properties :
#
#
# Convention : Reuss Voigt Hill
#
# Bulk Modulus (GPa) = 26.94244 38.97228 32.95736
# Shear Modulus (GPa) = 15.22337 25.85654 20.53995
#
# Velocity S-wave (km/s) = 2.86501 3.73384 3.32790
# Velocity P-wave (km/s) = 5.04692 6.29302 5.70410
#
# Compressibility (1/GPa) = 0.03711616
#
# Stress axis : x y z
#
# Youngs Moduli (GPa) = 59.98133 39.98225 88.62218
#
# Poissons Ratio (x) = -0.15966 0.41047
# Poissons Ratio (y) = -0.23952 0.64577
# Poissons Ratio (z) = 0.27782 0.29134
#
# Static dielectric constant tensor:
#      x y z
#    x 1.661070 0.000000 -0.044140 
#    y 0.000000 1.640560 0.000000 
#    z -0.044140 0.000000 1.715510 
# 
# From -- ./inp_files/19311.got.cif
#   From: 2010.05.17/outbox.cif.g08.bks.cpg/sg10_10_cif.got.tgz:19311.got - 2010.06.03 11:33:40.
