data_PCOD9151782
_publ_section_title
;
Structure prediction by ZEFSAII (Michael W. Deem and Ramdas Pophale) SiO2 
 PCOD9151782
Probable space group: P 2/M
;
_chemical_formula_sum "Si O2"
_cell_formula_units_Z 32
_cell_length_a 13.742334
_cell_length_b 7.393469
_cell_length_c 24.520236
_cell_angle_alpha 90.000000
_cell_angle_beta 31.143249
_cell_angle_gamma 90.000000
_cell_volume 1288.471225
_symmetry_space_group_name_H-M "P 2/M"
_symmetry_group_IT_number 10
_symmetry_cell_setting 'monoclinic'
loop_
_space_group_symop_operation_xyz
x,y,z
-x,y,-z
-x,-y,-z
x,-y,z
loop_
_atom_site_type_symbol
_atom_site_label
_atom_site_fract_x
_atom_site_fract_y
_atom_site_fract_z
Si Si1 0.574481 0.779196 0.582454
Si Si2 0.113631 0.219877 0.641989
Si Si3 0.887693 0.796946 0.852610
Si Si4 0.403096 0.783598 0.928440
Si Si5 0.313892 0.284396 0.853103
Si Si6 0.813229 0.779628 0.694282
Si Si7 0.847104 0.291926 0.179552
Si Si8 0.734153 0.794948 0.616922
O O1 0.678948 0.723561 0.476911
O O2 0.364437 0.714502 0.694257
O O3 0.702903 0.715808 0.572115
O O4 0.568038 0.000000 0.587517
O O5 0.013578 0.287486 0.744683
O O6 0.973930 0.265755 0.659585
O O7 0.124467 0.000000 0.641252
O O8 0.021704 0.807855 0.840961
O O9 0.837391 0.000000 0.857407
O O10 0.699058 0.712464 0.968445
O O11 0.280373 0.749291 0.932675
O O12 0.612320 0.716703 0.814531
O O13 0.415428 0.000000 0.928787
O O14 0.331068 0.500000 0.837397
O O15 0.174331 0.222594 0.872241
O O16 0.517886 0.200475 0.742627
O O17 0.839919 0.716333 0.618952
O O18 0.805800 0.000000 0.694573
O O19 0.910749 0.500000 0.146959
O O20 0.800997 0.000000 0.576015
#
# Coordination Sequence:
#
# PCOD9151782 Si02
#       8
#     4   4   4   4   4   4   4   4
#     4   9  17  31  52  76 102 131 162 200 245 291
#     4   9  18  31  49  75 102 130 168 207 240 281
#     4  10  21  35  50  71  99 132 171 208 241 284
#     4   9  18  32  51  75 102 131 161 198 245 292
#     4   9  17  30  50  74  98 124 158 200 247 300
#     4   8  14  27  48  75 104 129 158 199 243 288
#     4  10  21  36  53  73  98 129 163 203 252 298
#     4   8  14  26  47  75 103 128 157 195 242 294
#
# _framework density 24.835633999999999
#
# number of rings (size 3 to 8) (size 9 to 14) (size 15 to 20)
#    0.000    3.000    0.000    1.500    0.000    4.000 
#    0.000   10.625    0.000    6.000    0.000   15.750 
#    0.000    0.000    0.000    0.000    0.000    0.000 
#
# Total GULP energy -178670.172512 kJ/mol
# GULP energy per Si atom -5583.442891 kJ/mol
# Density = 2.477911 g / cm^3
# Si number density = 24.835634 Si / 1000 Ang^3
#
#
#
# Elastic Constant Matrix: (Units=GPa)
#
#
# Indices 1 2 3 4 5 6 
#
# 1 22.4200 -7.1029 12.0911 0.0000 0.4337 0.0000
# 2 -7.1029 91.5144 -3.0370 0.0000 1.9258 0.0000
# 3 12.0911 -3.0370 166.0041 0.0000 31.1648 0.0000
# 4 0.0000 0.0000 0.0000 13.6479 0.0000 -22.5508
# 5 0.4337 1.9258 31.1648 0.0000 33.1811 0.0000
# 6 0.0000 0.0000 0.0000 -22.5508 0.0000 4.2132
#
#
#
# Elastic Compliance Matrix: (Units=1/GPa)
#
#
# Indices 1 2 3 4 5 6 
#
# 1 0.047797 0.003518 -0.003960 0.000000 0.002890 0.000000
# 2 0.003518 0.011220 0.000097 0.000000 -0.000788 0.000000
# 3 -0.003960 0.000097 0.007655 0.000000 -0.007144 0.000000
# 4 0.000000 0.000000 0.000000 -0.009341 0.000000 -0.049998
# 5 0.002890 -0.000788 -0.007144 0.000000 0.036855 0.000000
# 6 0.000000 0.000000 0.000000 -0.049998 0.000000 -0.030259
#
#
# Mechanical properties :
#
#
# Convention : Reuss Voigt Hill
#
# Bulk Modulus (GPa) = 15.15556 31.53788 23.34672
# Shear Modulus (GPa) = 57.72891 28.74093 43.23492
#
# Velocity S-wave (km/s) = 4.82647 3.40552 4.17687
# Velocity P-wave (km/s) = 6.09716 5.30939 5.71686
#
# Compressibility (1/GPa) = 0.06598239
#
# Stress axis : x y z
#
# Youngs Moduli (GPa) = 20.92187 89.12598 130.62846
#
# Poissons Ratio (x) = -0.31351 0.51723
# Poissons Ratio (y) = -0.07359 -0.01268
# Poissons Ratio (z) = 0.08284 -0.00865
#
# Static dielectric constant tensor:
#      x y z
#    x 1.946290 0.000000 0.002550 
#    y 0.000000 2.011350 0.000000 
#    z 0.002550 0.000000 2.013240 
# 
# From -- ./inp_files/89547.got.cif
#   From: 2010.05.17/outbox.cif.g08.bks.cpg/sg10_45_cif.got.tgz:89547.got - 2010.06.03 11:33:40.
