data_PCOD9151285
_publ_section_title
;
Structure prediction by ZEFSAII (Michael W. Deem and Ramdas Pophale) SiO2 
 PCOD9151285
Probable space group: P 2/M
;
_chemical_formula_sum "Si O2"
_cell_formula_units_Z 30
_cell_length_a 15.189534
_cell_length_b 20.345796
_cell_length_c 15.559635
_cell_angle_alpha 90.000000
_cell_angle_beta 161.315915
_cell_angle_gamma 90.000000
_cell_volume 1540.434003
_symmetry_space_group_name_H-M "P 2/M"
_symmetry_group_IT_number 10
_symmetry_cell_setting 'monoclinic'
loop_
_space_group_symop_operation_xyz
x,y,z
-x,y,-z
-x,-y,-z
x,-y,z
loop_
_atom_site_type_symbol
_atom_site_label
_atom_site_fract_x
_atom_site_fract_y
_atom_site_fract_z
Si Si1 0.294705 0.000000 0.228603
Si Si2 0.722526 0.752762 0.137224
Si Si3 0.700325 0.070765 0.396625
Si Si4 0.274107 0.907900 0.859593
Si Si5 0.233547 0.802796 0.420529
Si Si6 0.702354 0.575763 0.267905
Si Si7 0.784593 0.852913 0.879417
Si Si8 0.700885 0.700945 0.377239
O O1 0.500000 0.000000 0.500000
O O2 0.300879 0.070271 0.186043
O O3 0.000000 0.000000 0.000000
O O4 0.747364 0.829958 0.171937
O O5 0.023986 0.723170 0.418880
O O6 0.500000 0.727892 0.000000
O O7 0.571955 0.737030 0.908815
O O8 0.738972 0.137747 0.484961
O O9 0.960619 0.069346 0.571990
O O10 0.713833 0.000000 0.456452
O O11 0.417565 0.075898 0.082948
O O12 0.500000 0.930875 0.000000
O O13 0.499237 0.814057 0.605935
O O14 0.245706 0.732374 0.479381
O O15 0.953779 0.819577 0.112766
O O16 0.669787 0.500000 0.266227
O O17 0.664428 0.625663 0.312722
O O18 0.000000 0.583429 0.500000
O O19 0.500000 0.586407 0.000000
O O20 0.000000 0.851664 0.000000
#
# Coordination Sequence:
#
# PCOD9151285 Si02
#       8
#     2   4   4   4   4   4   4   4
#     4  10  20  38  62  86 104 134 181 226 287 356
#     4  11  20  33  53  75 105 145 189 232 274 321
#     4  12  25  39  54  75 107 142 186 243 298 334
#     4  11  22  39  54  71  99 142 196 240 276 330
#     4  12  24  39  56  83 110 141 182 232 291 350
#     4  10  21  37  58  87 122 161 199 234 274 325
#     4  11  24  41  61  81 109 141 183 232 288 363
#     4  12  21  36  55  83 115 147 189 234 281 333
#
# _framework density 19.475031000000001
#
# number of rings (size 3 to 8) (size 9 to 14) (size 15 to 20)
#    0.000    0.800    2.667    6.800    1.867    3.733 
#    0.000    0.000    0.000    0.000    0.000    0.000 
#    0.000    3.200    0.000    0.000    0.000    0.267 
#
# Total GULP energy -167544.208613 kJ/mol
# GULP energy per Si atom -5584.806954 kJ/mol
# Density = 1.943070 g / cm^3
# Si number density = 19.475031 Si / 1000 Ang^3
#
#
#
# Elastic Constant Matrix: (Units=GPa)
#
#
# Indices 1 2 3 4 5 6 
#
# 1 64.0149 33.3162 10.0977 0.0000 9.9243 0.0000
# 2 33.3162 139.9418 20.5503 0.0000 -1.2691 0.0000
# 3 10.0977 20.5503 118.0578 0.0000 5.0655 0.0000
# 4 0.0000 0.0000 0.0000 18.7548 0.0000 -0.1716
# 5 9.9243 -1.2691 5.0655 0.0000 38.4383 0.0000
# 6 0.0000 0.0000 0.0000 -0.1716 0.0000 24.5430
#
#
#
# Elastic Compliance Matrix: (Units=1/GPa)
#
#
# Indices 1 2 3 4 5 6 
#
# 1 0.018785 -0.004425 -0.000626 0.000000 -0.004914 0.000000
# 2 -0.004425 0.008382 -0.001148 0.000000 0.001570 0.000000
# 3 -0.000626 -0.001148 0.008768 0.000000 -0.001032 0.000000
# 4 0.000000 0.000000 0.000000 0.053323 0.000000 0.000373
# 5 -0.004914 0.001570 -0.001032 0.000000 0.027472 0.000000
# 6 0.000000 0.000000 0.000000 0.000373 0.000000 0.040747
#
#
# Mechanical properties :
#
#
# Convention : Reuss Voigt Hill
#
# Bulk Modulus (GPa) = 42.48458 49.99365 46.23912
# Shear Modulus (GPa) = 28.13411 33.55058 30.84234
#
# Velocity S-wave (km/s) = 3.80494 4.15510 3.98387
# Velocity P-wave (km/s) = 6.41605 6.98185 6.70492
#
# Compressibility (1/GPa) = 0.02353795
#
# Stress axis : x y z
#
# Youngs Moduli (GPa) = 53.23488 119.30227 114.05060
#
# Poissons Ratio (x) = 0.52789 0.07135
# Poissons Ratio (y) = 0.23555 0.13093
# Poissons Ratio (z) = 0.03331 0.13696
#
# Static dielectric constant tensor:
#      x y z
#    x 1.764940 0.000000 -0.014860 
#    y 0.000000 1.707140 0.000000 
#    z -0.014860 0.000000 1.702580 
# 
# From -- ./inp_files/67904.got.cif
#   From: 2010.05.17/outbox.cif.g08.bks.cpg/sg10_34_cif.got.tgz:67904.got - 2010.06.03 11:33:40.
