data_PCOD9151576
_publ_section_title
;
Structure prediction by ZEFSAII (Michael W. Deem and Ramdas Pophale) SiO2 
 PCOD9151576
Probable space group: P 2/M
;
_chemical_formula_sum "Si O2"
_cell_formula_units_Z 24
_cell_length_a 9.273187
_cell_length_b 16.187258
_cell_length_c 14.194597
_cell_angle_alpha 90.000000
_cell_angle_beta 40.132126
_cell_angle_gamma 90.000000
_cell_volume 1373.357549
_symmetry_space_group_name_H-M "P 2/M"
_symmetry_group_IT_number 10
_symmetry_cell_setting 'monoclinic'
loop_
_space_group_symop_operation_xyz
x,y,z
-x,y,-z
-x,-y,-z
x,-y,z
loop_
_atom_site_type_symbol
_atom_site_label
_atom_site_fract_x
_atom_site_fract_y
_atom_site_fract_z
Si Si1 0.266125 0.173742 0.360917
Si Si2 0.147703 0.000000 0.135158
Si Si3 0.010600 0.161056 0.105502
Si Si4 0.557158 0.723042 0.079395
Si Si5 0.731696 0.597564 0.136858
Si Si6 0.613722 0.000000 0.786399
Si Si7 0.433114 0.733416 0.640765
O O1 0.350447 0.233254 0.234930
O O2 0.354503 0.082164 0.291270
O O3 0.381250 0.213306 0.395591
O O4 0.000000 0.171634 0.500000
O O5 0.211535 0.000000 0.213267
O O6 0.019352 0.081609 0.167468
O O7 0.374940 0.000000 0.958540
O O8 0.795934 0.215413 0.236266
O O9 0.000000 0.137975 0.000000
O O10 0.234137 0.214607 0.010626
O O11 0.625838 0.639011 0.097052
O O12 0.500000 0.711615 0.000000
O O13 0.695141 0.500000 0.161252
O O14 0.618713 0.648356 0.278343
O O15 0.000000 0.612836 0.000000
O O16 0.500000 0.720379 0.500000
#
# Coordination Sequence:
#
# PCOD9151576 Si02
#       7
#     4   2   4   4   4   2   4
#     4  11  24  39  58  85 121 162 200 243 296 355
#     4  11  23  32  64  87 115 154 211 259 286 341
#     4  12  20  41  59  89 116 157 208 251 294 343
#     4  11  21  37  65  88 120 158 198 245 292 355
#     4  10  20  40  66  92 119 150 192 248 302 357
#     4  11  21  40  54  86 119 160 201 250 301 342
#     4  11  24  40  62  88 121 157 197 248 298 355
#
# _framework density 17.475421000000001
#
# number of rings (size 3 to 8) (size 9 to 14) (size 15 to 20)
#    0.000    1.000    6.667    1.500    4.667    1.333 
#    0.000    0.833    0.000    8.000    0.000    0.000 
#    0.000    0.000    0.000    0.000    0.000    0.000 
#
# Total GULP energy -134096.105279 kJ/mol
# GULP energy per Si atom -5587.337720 kJ/mol
# Density = 1.743565 g / cm^3
# Si number density = 17.475421 Si / 1000 Ang^3
#
#
#
# Elastic Constant Matrix: (Units=GPa)
#
#
# Indices 1 2 3 4 5 6 
#
# 1 105.8252 56.4203 35.5840 0.0000 28.8884 0.0000
# 2 56.4203 131.6784 27.9982 0.0000 9.0859 0.0000
# 3 35.5840 27.9982 62.8148 0.0000 4.1270 0.0000
# 4 0.0000 0.0000 0.0000 3.2212 0.0000 -9.5764
# 5 28.8884 9.0859 4.1270 0.0000 36.1473 0.0000
# 6 0.0000 0.0000 0.0000 -9.5764 0.0000 5.6337
#
#
#
# Elastic Compliance Matrix: (Units=1/GPa)
#
#
# Indices 1 2 3 4 5 6 
#
# 1 0.018019 -0.005387 -0.007002 0.000000 -0.012247 0.000000
# 2 -0.005387 0.010104 -0.001580 0.000000 0.001946 0.000000
# 3 -0.007002 -0.001580 0.020350 0.000000 0.003670 0.000000
# 4 0.000000 0.000000 0.000000 -0.076586 0.000000 -0.130184
# 5 -0.012247 0.001946 0.003670 0.000000 0.036544 0.000000
# 6 0.000000 0.000000 0.000000 -0.130184 0.000000 -0.043790
#
#
# Mechanical properties :
#
#
# Convention : Reuss Voigt Hill
#
# Bulk Modulus (GPa) = 48.69664 60.03593 54.36629
# Shear Modulus (GPa) = -8672.00706 21.02151 -4325.49278
#
# Velocity S-wave (km/s) = -70.52074 3.47207 -49.80522
# Velocity P-wave (km/s) = 81.25869 7.10653 57.23841
#
# Compressibility (1/GPa) = 0.02053530
#
# Stress axis : x y z
#
# Youngs Moduli (GPa) = 55.49612 98.97052 49.14121
#
# Poissons Ratio (x) = 0.53314 0.34409
# Poissons Ratio (y) = 0.29895 0.07764
# Poissons Ratio (z) = 0.38859 0.15636
#
# Static dielectric constant tensor:
#      x y z
#    x 1.589830 0.000000 0.000500 
#    y 0.000000 1.575230 0.000000 
#    z 0.000500 0.000000 1.583030 
# 
# From -- ./inp_files/25655.got.cif
#   From: 2010.05.17/outbox.cif.g08.bks.cpg/sg10_13_cif.got.tgz:25655.got - 2010.06.03 11:33:40.
