data_PCOD9151725
_publ_section_title
;
Structure prediction by ZEFSAII (Michael W. Deem and Ramdas Pophale) SiO2 
 PCOD9151725
Probable space group: P 2/M
;
_chemical_formula_sum "Si O2"
_cell_formula_units_Z 32
_cell_length_a 12.797964
_cell_length_b 23.468554
_cell_length_c 18.326638
_cell_angle_alpha 90.000000
_cell_angle_beta 17.965062
_cell_angle_gamma 90.000000
_cell_volume 1697.760737
_symmetry_space_group_name_H-M "P 2/M"
_symmetry_group_IT_number 10
_symmetry_cell_setting 'monoclinic'
loop_
_space_group_symop_operation_xyz
x,y,z
-x,y,-z
-x,-y,-z
x,-y,z
loop_
_atom_site_type_symbol
_atom_site_label
_atom_site_fract_x
_atom_site_fract_y
_atom_site_fract_z
Si Si1 0.219504 0.065790 0.751403
Si Si2 0.363611 0.437077 0.472341
Si Si3 0.347151 0.342194 0.817193
Si Si4 0.736566 0.060988 0.771081
Si Si5 0.343550 0.228864 0.320522
Si Si6 0.274521 0.128508 0.484937
Si Si7 0.239696 0.854961 0.037943
Si Si8 0.944811 0.562822 0.891717
O O1 0.500000 0.062595 0.500000
O O2 0.389403 0.102916 0.702286
O O3 0.923329 0.103366 0.913589
O O4 0.135337 0.000000 0.825574
O O5 0.334463 0.500000 0.456423
O O6 0.406149 0.382596 0.393782
O O7 0.713617 0.438733 0.286094
O O8 0.064971 0.431088 0.729041
O O9 0.532161 0.286081 0.722480
O O10 0.251628 0.383101 0.948202
O O11 0.000000 0.330996 0.000000
O O12 0.104721 0.075949 0.554879
O O13 0.709136 0.000000 0.751679
O O14 0.500000 0.057987 0.000000
O O15 0.589851 0.113957 0.825568
O O16 0.304339 0.180635 0.409440
O O17 0.000000 0.234822 0.500000
O O18 0.650994 0.205779 0.065388
O O19 0.014642 0.145466 0.723765
O O20 0.783717 0.500000 0.007835
#
# Coordination Sequence:
#
# PCOD9151725 Si02
#       8
#     4   4   4   4   4   4   4   4
#     4   9  18  35  61  89 112 135 167 220 296 358
#     4   8  14  28  53  86 118 141 169 217 274 325
#     4  10  21  34  54  81 109 144 186 228 267 313
#     4   9  16  31  57  81 102 133 173 220 274 330
#     4  12  26  41  54  74 109 154 201 232 263 317
#     4  10  21  38  58  80 108 141 178 227 281 334
#     4  10  21  38  58  80 108 141 178 227 281 334
#     4   8  14  28  53  86 118 141 169 217 274 325
#
# _framework density 18.848357
#
# number of rings (size 3 to 8) (size 9 to 14) (size 15 to 20)
#    0.000    2.500    1.250    1.875    1.750    5.500 
#    0.000    3.750    0.000    1.500    0.000    1.750 
#    0.000    0.000    0.000    0.000    0.000    0.000 
#
# Total GULP energy -178358.798240 kJ/mol
# GULP energy per Si atom -5573.712445 kJ/mol
# Density = 1.880546 g / cm^3
# Si number density = 18.848357 Si / 1000 Ang^3
#
#
#
# Elastic Constant Matrix: (Units=GPa)
#
#
# Indices 1 2 3 4 5 6 
#
# 1 70.1373 46.1162 26.2432 0.0000 -5.3117 0.0000
# 2 46.1162 141.2019 27.9182 0.0000 2.3379 0.0000
# 3 26.2432 27.9182 42.2009 0.0000 2.2243 0.0000
# 4 0.0000 0.0000 0.0000 -7.1078 0.0000 -3.0475
# 5 -5.3117 2.3379 2.2243 0.0000 26.2246 0.0000
# 6 0.0000 0.0000 0.0000 -3.0475 0.0000 5.8246
#
#
#
# Elastic Compliance Matrix: (Units=1/GPa)
#
#
# Indices 1 2 3 4 5 6 
#
# 1 0.022096 -0.005218 -0.010596 0.000000 0.005839 0.000000
# 2 -0.005218 0.009382 -0.002875 0.000000 -0.001649 0.000000
# 3 -0.010596 -0.002875 0.032432 0.000000 -0.004641 0.000000
# 4 0.000000 0.000000 0.000000 -0.114913 0.000000 -0.060123
# 5 0.005839 -0.001649 -0.004641 0.000000 0.039856 0.000000
# 6 0.000000 0.000000 0.000000 -0.060123 0.000000 0.140229
#
#
# Mechanical properties :
#
#
# Convention : Reuss Voigt Hill
#
# Bulk Modulus (GPa) = 37.69109 50.45503 44.07306
# Shear Modulus (GPa) = 28.52205 15.20578 21.86391
#
# Velocity S-wave (km/s) = 3.89426 2.84340 3.40956
# Velocity P-wave (km/s) = 6.34514 6.13245 6.23970
#
# Compressibility (1/GPa) = 0.02653147
#
# Stress axis : x y z
#
# Youngs Moduli (GPa) = 45.25771 106.58744 30.83361
#
# Poissons Ratio (x) = 0.55617 0.32672
# Poissons Ratio (y) = 0.23615 0.08864
# Poissons Ratio (z) = 0.47956 0.30642
#
# Static dielectric constant tensor:
#      x y z
#    x 1.683990 0.000000 0.040080 
#    y 0.000000 1.630500 0.000000 
#    z 0.040080 0.000000 1.673910 
# 
# From -- ./inp_files/77240.got.cif
#   From: 2010.05.17/outbox.cif.g08.bks.cpg/sg10_39_cif.got.tgz:77240.got - 2010.06.03 11:33:40.
