data_PCOD9151303
_publ_section_title
;
Structure prediction by ZEFSAII (Michael W. Deem and Ramdas Pophale) SiO2 
 PCOD9151303
Probable space group: P 2/M
;
_chemical_formula_sum "Si O2"
_cell_formula_units_Z 22
_cell_length_a 16.821562
_cell_length_b 8.261291
_cell_length_c 13.417344
_cell_angle_alpha 90.000000
_cell_angle_beta 35.100935
_cell_angle_gamma 90.000000
_cell_volume 1072.167629
_symmetry_space_group_name_H-M "P 2/M"
_symmetry_group_IT_number 10
_symmetry_cell_setting 'monoclinic'
loop_
_space_group_symop_operation_xyz
x,y,z
-x,y,-z
-x,-y,-z
x,-y,z
loop_
_atom_site_type_symbol
_atom_site_label
_atom_site_fract_x
_atom_site_fract_y
_atom_site_fract_z
Si Si1 0.007395 0.500000 0.331064
Si Si2 0.845144 0.319714 0.119954
Si Si3 0.398026 0.807658 0.510209
Si Si4 0.437128 0.183694 0.845748
Si Si5 0.500000 0.260713 0.000000
Si Si6 0.241554 0.500000 0.264677
Si Si7 0.134729 0.188171 0.110489
O O1 0.128726 0.500000 0.291343
O O2 0.028553 0.331435 0.248716
O O3 0.857718 0.500000 0.537037
O O4 0.810499 0.500000 0.117533
O O5 0.742897 0.276373 0.313709
O O6 0.836521 0.197504 0.036911
O O7 0.000000 0.318766 0.000000
O O8 0.500000 0.785902 0.500000
O O9 0.467810 0.740581 0.337664
O O10 0.370867 0.000000 0.527389
O O11 0.499632 0.180932 0.891582
O O12 0.418125 0.000000 0.829754
O O13 0.280448 0.244197 0.008916
O O14 0.646448 0.355479 0.851362
O O15 0.100493 0.000000 0.173536
#
# Coordination Sequence:
#
# PCOD9151303 Si02
#       7
#     2   4   4   4   2   2   4
#     4  11  22  46  65  96 134 168 215 279 310 394
#     4  11  24  41  60  93 131 169 214 267 320 386
#     4  10  20  38  62  90 125 164 213 267 321 382
#     4  10  21  38  64  96 130 167 218 279 321 385
#     4  11  21  42  62  98 123 177 220 263 333 390
#     4  10  24  40  66  89 130 174 217 267 333 372
#     4  11  22  41  70  95 127 176 215 260 333 391
#
# _framework density 20.519179999999999
#
# number of rings (size 3 to 8) (size 9 to 14) (size 15 to 20)
#    0.000    1.455    4.545    0.818    0.000    3.273 
#    4.909    5.455    0.000    0.000    0.000    0.000 
#    0.000    0.000    0.000    0.000    0.000    0.000 
#
# Total GULP energy -122580.169408 kJ/mol
# GULP energy per Si atom -5571.825882 kJ/mol
# Density = 2.047248 g / cm^3
# Si number density = 20.519180 Si / 1000 Ang^3
#
#
#
# Elastic Constant Matrix: (Units=GPa)
#
#
# Indices 1 2 3 4 5 6 
#
# 1 64.1858 19.1903 15.8350 0.0000 13.2188 0.0000
# 2 19.1903 80.4136 59.1709 0.0000 5.8550 0.0000
# 3 15.8350 59.1709 151.6923 0.0000 10.2561 0.0000
# 4 0.0000 0.0000 0.0000 32.2164 0.0000 64.8315
# 5 13.2188 5.8550 10.2561 0.0000 35.6926 0.0000
# 6 0.0000 0.0000 0.0000 64.8315 0.0000 129.6042
#
#
#
# Elastic Compliance Matrix: (Units=1/GPa)
#
#
# Indices 1 2 3 4 5 6 
#
# 1 0.017972 -0.003884 0.000047 0.000000 -0.006032 0.000000
# 2 -0.003884 0.018311 -0.006763 0.000000 0.000378 0.000000
# 3 0.000047 -0.006763 0.009333 0.000000 -0.001590 0.000000
# 4 0.000000 0.000000 0.000000 -4.670678 0.000000 2.336398
# 5 -0.006032 0.000378 -0.001590 0.000000 0.030646 0.000000
# 6 0.000000 0.000000 0.000000 2.336398 0.000000 -1.161013
#
#
# Mechanical properties :
#
#
# Convention : Reuss Voigt Hill
#
# Bulk Modulus (GPa) = 40.95702 53.85380 47.40541
# Shear Modulus (GPa) = -0.87320 52.97567 26.05124
#
# Velocity S-wave (km/s) = -0.65305 5.08662 3.56702
# Velocity P-wave (km/s) = 4.40852 7.79749 6.33387
#
# Compressibility (1/GPa) = 0.02441584
#
# Stress axis : x y z
#
# Youngs Moduli (GPa) = 55.64276 54.61055 107.14792
#
# Poissons Ratio (x) = 0.21212 -0.00502
# Poissons Ratio (y) = 0.21613 0.72463
# Poissons Ratio (z) = -0.00261 0.36932
#
# Static dielectric constant tensor:
#      x y z
#    x 1.741440 0.000000 0.025730 
#    y 0.000000 1.760360 0.000000 
#    z 0.025730 0.000000 1.764040 
# 
# From -- ./inp_files/68544.got.cif
#   From: 2010.05.17/outbox.cif.g08.bks.cpg/sg10_35_cif.got.tgz:68544.got - 2010.06.03 11:33:40.
