data_PCOD9151315
_publ_section_title
;
Structure prediction by ZEFSAII (Michael W. Deem and Ramdas Pophale) SiO2 
 PCOD9151315
Probable space group: P 2/M
;
_chemical_formula_sum "Si O2"
_cell_formula_units_Z 28
_cell_length_a 10.732650
_cell_length_b 7.600702
_cell_length_c 27.852714
_cell_angle_alpha 90.000000
_cell_angle_beta 37.612158
_cell_angle_gamma 90.000000
_cell_volume 1386.695181
_symmetry_space_group_name_H-M "P 2/M"
_symmetry_group_IT_number 10
_symmetry_cell_setting 'monoclinic'
loop_
_space_group_symop_operation_xyz
x,y,z
-x,y,-z
-x,-y,-z
x,-y,z
loop_
_atom_site_type_symbol
_atom_site_label
_atom_site_fract_x
_atom_site_fract_y
_atom_site_fract_z
Si Si1 0.341834 0.703130 0.687997
Si Si2 0.930663 0.715062 0.764181
Si Si3 0.746053 0.000000 0.131247
Si Si4 0.499497 0.702131 0.057651
Si Si5 0.485918 0.286725 0.262262
Si Si6 0.205755 0.000000 0.997327
Si Si7 0.951415 0.711930 0.646601
Si Si8 0.401677 0.795119 0.480900
O O1 0.295297 0.500000 0.712999
O O2 0.443606 0.770258 0.705849
O O3 0.501737 0.710670 0.595589
O O4 0.128831 0.779876 0.733049
O O5 0.938658 0.500000 0.761082
O O6 0.718036 0.762626 0.854342
O O7 0.938158 0.772515 0.706231
O O8 0.625189 0.173992 0.184089
O O9 0.775455 0.000000 0.065594
O O10 0.971634 0.000000 0.084755
O O11 0.531083 0.500000 0.063722
O O12 0.677254 0.828723 0.020245
O O13 0.500000 0.705383 0.000000
O O14 0.507055 0.500000 0.250483
O O15 0.251879 0.242124 0.320741
O O16 0.963745 0.500000 0.643878
O O17 0.159444 0.777912 0.559415
O O18 0.500000 0.721155 0.500000
O O19 0.458727 0.000000 0.460887
#
# Coordination Sequence:
#
# PCOD9151315 Si02
#       8
#     4   4   2   4   4   2   4   4
#     4  10  21  39  62  88 121 161 210 261 311 376
#     4   9  18  35  62  90 116 160 211 255 315 377
#     4  11  26  44  68  89 133 173 212 267 321 380
#     4  10  22  41  66  97 134 167 209 272 328 380
#     4  10  24  43  65  94 124 167 216 261 321 384
#     4  11  25  44  62 100 126 171 221 256 324 395
#     4  10  20  38  63  86 118 163 212 260 307 371
#     4  11  23  37  55  91 130 160 203 256 317 374
#
# _framework density 20.191891999999999
#
# number of rings (size 3 to 8) (size 9 to 14) (size 15 to 20)
#    0.000    1.857    1.429    1.500    4.000    3.429 
#    2.571    4.286    0.000    0.000    0.000    0.000 
#    0.000    0.000    0.000    0.000    0.000    0.000 
#
# Total GULP energy -156401.646298 kJ/mol
# GULP energy per Si atom -5585.773082 kJ/mol
# Density = 2.014593 g / cm^3
# Si number density = 20.191892 Si / 1000 Ang^3
#
#
#
# Elastic Constant Matrix: (Units=GPa)
#
#
# Indices 1 2 3 4 5 6 
#
# 1 70.8329 28.1113 -27.8922 0.0000 -32.9885 0.0000
# 2 28.1113 59.5210 16.2209 0.0000 -12.8413 0.0000
# 3 -27.8922 16.2209 27.4399 0.0000 -39.9576 0.0000
# 4 0.0000 0.0000 0.0000 21.5968 0.0000 -2.1475
# 5 -32.9885 -12.8413 -39.9576 0.0000 36.4280 0.0000
# 6 0.0000 0.0000 0.0000 -2.1475 0.0000 -11.3554
#
#
#
# Elastic Compliance Matrix: (Units=1/GPa)
#
#
# Indices 1 2 3 4 5 6 
#
# 1 0.003445 -0.000507 -0.013535 0.000000 -0.011905 0.000000
# 2 -0.000507 0.018167 0.004349 0.000000 0.010715 0.000000
# 3 -0.013535 0.004349 -0.007533 0.000000 -0.018986 0.000000
# 4 0.000000 0.000000 0.000000 0.045448 0.000000 -0.008595
# 5 -0.011905 0.010715 -0.018986 0.000000 -0.000378 0.000000
# 6 0.000000 0.000000 0.000000 -0.008595 0.000000 -0.086438
#
#
# Mechanical properties :
#
#
# Convention : Reuss Voigt Hill
#
# Bulk Modulus (GPa) = -188.45414 21.18598 -83.63408
# Shear Modulus (GPa) = -516.90487 18.75746 -249.07370
#
# Velocity S-wave (km/s) = -16.01724 3.05119 -11.11850
# Velocity P-wave (km/s) = 20.87112 4.78833 14.36446
#
# Compressibility (1/GPa) = -0.00530633
#
# Stress axis : x y z
#
# Youngs Moduli (GPa) = 290.28283 55.04552 -132.75169
#
# Poissons Ratio (x) = 0.02791 -1.79674
# Poissons Ratio (y) = 0.14716 0.57733
# Poissons Ratio (z) = 3.92885 -0.23939
#
# Static dielectric constant tensor:
#      x y z
#    x 1.722100 0.000000 -0.007640 
#    y 0.000000 1.732890 0.000000 
#    z -0.007640 0.000000 1.668940 
# 
# From -- ./inp_files/92008.got.cif
#   From: 2010.05.17/outbox.cif.g08.bks.cpg/sg10_47_cif.got.tgz:92008.got - 2010.06.03 11:33:40.
