data_PCOD9151570
_publ_section_title
;
Structure prediction by ZEFSAII (Michael W. Deem and Ramdas Pophale) SiO2 
 PCOD9151570
Probable space group: P 2/M
;
_chemical_formula_sum "Si O2"
_cell_formula_units_Z 14
_cell_length_a 5.480751
_cell_length_b 16.868632
_cell_length_c 7.472029
_cell_angle_alpha 90.000000
_cell_angle_beta 123.947659
_cell_angle_gamma 90.000000
_cell_volume 573.059924
_symmetry_space_group_name_H-M "P 2/M"
_symmetry_group_IT_number 10
_symmetry_cell_setting 'monoclinic'
loop_
_space_group_symop_operation_xyz
x,y,z
-x,y,-z
-x,-y,-z
x,-y,z
loop_
_atom_site_type_symbol
_atom_site_label
_atom_site_fract_x
_atom_site_fract_y
_atom_site_fract_z
Si Si1 0.644820 0.500000 0.767942
Si Si2 0.048431 0.740311 0.760417
Si Si3 0.454245 0.324129 0.243818
Si Si4 0.144360 0.086117 0.361074
O O1 0.500000 0.500000 0.500000
O O2 0.510327 0.417255 0.778085
O O3 0.000000 0.500000 0.000000
O O4 0.254656 0.727341 0.671891
O O5 0.757317 0.687165 0.670698
O O6 0.972737 0.831810 0.763924
O O7 0.251359 0.709710 0.003033
O O8 0.500000 0.090841 0.500000
O O9 0.000000 0.084852 0.500000
O O10 0.064686 0.000000 0.246714
#
# Coordination Sequence:
#
# PCOD9151570 Si02
#       4
#     2   4   4   4
#     4  12  26  51  77 111 157 203 259 321 389 461
#     4  10  20  40  65  93 141 180 245 297 370 441
#     4  10  23  42  68  97 141 183 243 304 371 446
#     4  10  21  37  60  95 139 185 241 303 372 447
#
# _framework density 24.430253
#
# number of rings (size 3 to 8) (size 9 to 14) (size 15 to 20)
#    0.000    1.714    2.857    1.714    0.000    6.857 
#    0.000    7.143    0.000    0.000    0.000    0.000 
#    0.000    0.000    0.000    0.000    0.000    0.000 
#
# Total GULP energy -77939.584955 kJ/mol
# GULP energy per Si atom -5567.113211 kJ/mol
# Density = 2.437465 g / cm^3
# Si number density = 24.430253 Si / 1000 Ang^3
#
#
#
# Elastic Constant Matrix: (Units=GPa)
#
#
# Indices 1 2 3 4 5 6 
#
# 1 179.5237 21.6751 30.9606 0.0000 11.3960 0.0000
# 2 21.6751 270.7607 15.7328 0.0000 18.4115 0.0000
# 3 30.9606 15.7328 67.9386 0.0000 23.1977 0.0000
# 4 0.0000 0.0000 0.0000 16.5503 0.0000 5.0904
# 5 11.3960 18.4115 23.1977 0.0000 58.7352 0.0000
# 6 0.0000 0.0000 0.0000 5.0904 0.0000 2.8741
#
#
#
# Elastic Compliance Matrix: (Units=1/GPa)
#
#
# Indices 1 2 3 4 5 6 
#
# 1 0.006074 -0.000329 -0.002687 0.000000 -0.000014 0.000000
# 2 -0.000329 0.003809 -0.000400 0.000000 -0.000972 0.000000
# 3 -0.002687 -0.000400 0.018281 0.000000 -0.006573 0.000000
# 4 0.000000 0.000000 0.000000 0.132717 0.000000 -0.235053
# 5 -0.000014 -0.000972 -0.006573 0.000000 0.019929 0.000000
# 6 0.000000 0.000000 0.000000 -0.235053 0.000000 0.764229
#
#
# Mechanical properties :
#
#
# Convention : Reuss Voigt Hill
#
# Bulk Modulus (GPa) = 46.87941 72.77331 59.82636
# Shear Modulus (GPa) = 5.21386 45.62223 25.41805
#
# Velocity S-wave (km/s) = 1.46247 4.32609 3.22907
# Velocity P-wave (km/s) = 4.69920 7.40312 6.20035
#
# Compressibility (1/GPa) = 0.02133133
#
# Stress axis : x y z
#
# Youngs Moduli (GPa) = 164.62654 262.53601 54.70210
#
# Poissons Ratio (x) = 0.08642 0.14699
# Poissons Ratio (y) = 0.05419 0.02189
# Poissons Ratio (z) = 0.44237 0.10505
#
# Static dielectric constant tensor:
#      x y z
#    x 2.009580 0.000000 0.065110 
#    y 0.000000 1.856350 0.000000 
#    z 0.065110 0.000000 1.874040 
# 
# From -- ./inp_files/14378.got.cif
#   From: 2010.05.17/outbox.cif.g08.bks.cpg/sg10_8_cif.got.tgz:14378.got - 2010.06.03 11:33:40.
