data_PCOD9151038
_publ_section_title
;
Structure prediction by ZEFSAII (Michael W. Deem and Ramdas Pophale) SiO2 
 PCOD9151038
Probable space group: P 2/M
;
_chemical_formula_sum "Si O2"
_cell_formula_units_Z 24
_cell_length_a 23.697003
_cell_length_b 8.222696
_cell_length_c 12.266412
_cell_angle_alpha 90.000000
_cell_angle_beta 26.728204
_cell_angle_gamma 90.000000
_cell_volume 1074.990897
_symmetry_space_group_name_H-M "P 2/M"
_symmetry_group_IT_number 10
_symmetry_cell_setting 'monoclinic'
loop_
_space_group_symop_operation_xyz
x,y,z
-x,y,-z
-x,-y,-z
x,-y,z
loop_
_atom_site_type_symbol
_atom_site_label
_atom_site_fract_x
_atom_site_fract_y
_atom_site_fract_z
Si Si1 0.965078 0.314793 0.903442
Si Si2 0.688968 0.807276 0.963050
Si Si3 0.807248 0.187572 0.368110
Si Si4 0.350000 0.315150 0.736033
Si Si5 0.041308 0.196471 0.550664
Si Si6 0.589396 0.803389 0.602567
O O1 0.927450 0.500000 0.990015
O O2 0.109474 0.287885 0.691479
O O3 0.957974 0.271916 0.789338
O O4 0.886311 0.199183 0.118806
O O5 0.703331 0.780700 0.068517
O O6 0.553894 0.741254 0.157689
O O7 0.685026 0.000000 0.951190
O O8 0.814230 0.745767 0.689479
O O9 0.670433 0.248247 0.567308
O O10 0.800244 0.000000 0.416838
O O11 0.500000 0.314711 0.500000
O O12 0.304782 0.500000 0.817466
O O13 0.341595 0.246934 0.628736
O O14 0.000000 0.237637 0.500000
O O15 0.036773 0.000000 0.569660
O O16 0.586912 0.000000 0.608497
#
# Coordination Sequence:
#
# PCOD9151038 Si02
#       6
#     4   4   4   4   4   4
#     4  11  23  39  58  83 114 145 182 230 280 330
#     4   9  18  34  53  77 109 144 185 229 270 321
#     4  10  20  37  62  85 109 143 186 232 277 327
#     4   9  17  28  45  73 110 146 177 216 268 323
#     4  10  22  39  59  81 110 150 191 227 269 327
#     4   9  18  32  54  81 107 140 183 229 275 321
#
# _framework density 22.325769000000001
#
# number of rings (size 3 to 8) (size 9 to 14) (size 15 to 20)
#    0.000    2.333    0.000    3.500    2.333    4.333 
#    0.000    0.833    0.000    5.000    0.000    0.000 
#    0.000    0.000    0.000    0.000    0.000    0.000 
#
# Total GULP energy -134021.915141 kJ/mol
# GULP energy per Si atom -5584.246464 kJ/mol
# Density = 2.227495 g / cm^3
# Si number density = 22.325769 Si / 1000 Ang^3
#
#
#
# Elastic Constant Matrix: (Units=GPa)
#
#
# Indices 1 2 3 4 5 6 
#
# 1 79.2871 4.0995 -0.3403 0.0000 -12.9723 0.0000
# 2 4.0995 18.9434 -5.4187 0.0000 -2.6370 0.0000
# 3 -0.3403 -5.4187 61.1526 0.0000 -2.7153 0.0000
# 4 0.0000 0.0000 0.0000 12.1801 0.0000 40.1080
# 5 -12.9723 -2.6370 -2.7153 0.0000 33.8718 0.0000
# 6 0.0000 0.0000 0.0000 40.1080 0.0000 202.9316
#
#
#
# Elastic Compliance Matrix: (Units=1/GPa)
#
#
# Indices 1 2 3 4 5 6 
#
# 1 0.013549 -0.002203 0.000103 0.000000 0.005026 0.000000
# 2 -0.002203 0.055249 0.005055 0.000000 0.003863 0.000000
# 3 0.000103 0.005055 0.016880 0.000000 0.001786 0.000000
# 4 0.000000 0.000000 0.000000 0.235125 0.000000 -0.046471
# 5 0.005026 0.003863 0.001786 0.000000 0.031892 0.000000
# 6 0.000000 0.000000 0.000000 -0.046471 0.000000 0.014112
#
#
# Mechanical properties :
#
#
# Convention : Reuss Voigt Hill
#
# Bulk Modulus (GPa) = 10.91834 17.34046 14.12940
# Shear Modulus (GPa) = 12.77379 60.53288 36.65333
#
# Velocity S-wave (km/s) = 2.39457 5.21271 4.05625
# Velocity P-wave (km/s) = 3.54209 6.63428 5.31789
#
# Compressibility (1/GPa) = 0.09158901
#
# Stress axis : x y z
#
# Youngs Moduli (GPa) = 73.80607 18.09984 59.24054
#
# Poissons Ratio (x) = 0.03987 -0.00612
# Poissons Ratio (y) = 0.16259 -0.29945
# Poissons Ratio (z) = -0.00763 -0.09149
#
# Static dielectric constant tensor:
#      x y z
#    x 1.875580 0.000000 -0.070780 
#    y 0.000000 1.768760 0.000000 
#    z -0.070780 0.000000 1.847480 
# 
# From -- ./inp_files/56550.got.cif
#   From: 2010.05.17/outbox.cif.g08.bks.cpg/sg10_29_cif.got.tgz:56550.got - 2010.06.03 11:33:40.
