data_PCOD9151870
_publ_section_title
;
Structure prediction by ZEFSAII (Michael W. Deem and Ramdas Pophale) SiO2 
 PCOD9151870
Probable space group: P 2/M
;
_chemical_formula_sum "Si O2"
_cell_formula_units_Z 28
_cell_length_a 12.176618
_cell_length_b 13.638386
_cell_length_c 8.840122
_cell_angle_alpha 90.000000
_cell_angle_beta 108.172617
_cell_angle_gamma 90.000000
_cell_volume 1394.848160
_symmetry_space_group_name_H-M "P 2/M"
_symmetry_group_IT_number 10
_symmetry_cell_setting 'monoclinic'
loop_
_space_group_symop_operation_xyz
x,y,z
-x,y,-z
-x,-y,-z
x,-y,z
loop_
_atom_site_type_symbol
_atom_site_label
_atom_site_fract_x
_atom_site_fract_y
_atom_site_fract_z
Si Si1 0.319384 0.295584 0.568251
Si Si2 0.751193 0.611268 0.771576
Si Si3 0.108798 0.257991 0.968791
Si Si4 0.424472 0.112874 0.737541
Si Si5 0.516433 0.612547 0.841782
Si Si6 0.328342 0.885196 0.039431
Si Si7 0.894241 0.383646 0.335405
O O1 0.288249 0.325066 0.386598
O O2 0.344298 0.181157 0.601412
O O3 0.438689 0.341654 0.678880
O O4 0.220131 0.341483 0.631902
O O5 0.769383 0.500000 0.727318
O O6 0.648931 0.612666 0.850863
O O7 0.860602 0.656191 0.899555
O O8 0.087033 0.312556 0.800318
O O9 0.219160 0.185851 0.008552
O O10 0.000000 0.205405 0.000000
O O11 0.559787 0.142974 0.810680
O O12 0.422159 0.000000 0.688724
O O13 0.372940 0.119066 0.885292
O O14 0.476608 0.500000 0.836687
O O15 0.500000 0.659364 0.000000
O O16 0.301274 0.000000 0.058909
O O17 0.879898 0.500000 0.289431
O O18 0.000000 0.377325 0.500000
#
# Coordination Sequence:
#
# PCOD9151870 Si02
#       7
#     4   4   4   4   4   4   4
#     4  12  21  36  62  87 121 158 205 255 312 367
#     4  11  24  39  56  88 129 167 206 252 309 367
#     4  12  24  40  62  88 123 169 211 256 308 370
#     4   9  19  37  66  96 123 154 198 261 319 373
#     4  10  21  35  55  85 120 159 202 249 304 367
#     4   9  19  39  65  95 123 155 203 257 317 374
#     4  11  24  41  61  87 119 162 214 261 305 364
#
# _framework density 20.073869999999999
#
# number of rings (size 3 to 8) (size 9 to 14) (size 15 to 20)
#    0.000    1.429    1.429    5.571    2.000    4.857 
#    0.000    0.714    0.000    6.857    0.000    0.000 
#    0.000    0.000    0.000    0.000    0.000    0.000 
#
# Total GULP energy -156476.496233 kJ/mol
# GULP energy per Si atom -5588.446294 kJ/mol
# Density = 2.002818 g / cm^3
# Si number density = 20.073870 Si / 1000 Ang^3
#
#
#
# Elastic Constant Matrix: (Units=GPa)
#
#
# Indices 1 2 3 4 5 6 
#
# 1 99.3270 42.2529 8.2094 0.0000 3.3012 0.0000
# 2 42.2529 121.9064 36.0041 0.0000 8.3531 0.0000
# 3 8.2094 36.0041 82.0555 0.0000 -2.5842 0.0000
# 4 0.0000 0.0000 0.0000 26.9687 0.0000 3.6192
# 5 3.3012 8.3531 -2.5842 0.0000 26.1162 0.0000
# 6 0.0000 0.0000 0.0000 3.6192 0.0000 24.0637
#
#
#
# Elastic Compliance Matrix: (Units=1/GPa)
#
#
# Indices 1 2 3 4 5 6 
#
# 1 0.011845 -0.004310 0.000705 0.000000 -0.000049 0.000000
# 2 -0.004310 0.011310 -0.004643 0.000000 -0.003532 0.000000
# 3 0.000705 -0.004643 0.014242 0.000000 0.002805 0.000000
# 4 0.000000 0.000000 0.000000 0.037844 0.000000 -0.005692
# 5 -0.000049 -0.003532 0.002805 0.000000 0.039704 0.000000
# 6 0.000000 0.000000 0.000000 -0.005692 0.000000 0.042412
#
#
# Mechanical properties :
#
#
# Convention : Reuss Voigt Hill
#
# Bulk Modulus (GPa) = 47.84629 52.91354 50.37992
# Shear Modulus (GPa) = 27.65188 29.88456 28.76822
#
# Velocity S-wave (km/s) = 3.71550 3.86259 3.78976
# Velocity P-wave (km/s) = 6.50334 6.80511 6.65593
#
# Compressibility (1/GPa) = 0.02090026
#
# Stress axis : x y z
#
# Youngs Moduli (GPa) = 84.42643 88.41654 70.21580
#
# Poissons Ratio (x) = 0.38109 -0.04948
# Poissons Ratio (y) = 0.36389 0.32599
# Poissons Ratio (z) = -0.05949 0.41049
#
# Static dielectric constant tensor:
#      x y z
#    x 1.780900 0.000000 -0.027860 
#    y 0.000000 1.745380 0.000000 
#    z -0.027860 0.000000 1.691340 
# 
# From -- ./inp_files/25036.got.cif
#   From: 2010.05.17/outbox.cif.g08.bks.cpg/sg10_13_cif.got.tgz:25036.got - 2010.06.03 11:33:40.
