data_PCOD9151126
_publ_section_title
;
Structure prediction by ZEFSAII (Michael W. Deem and Ramdas Pophale) SiO2 
 PCOD9151126
Probable space group: P 2/M
;
_chemical_formula_sum "Si O2"
_cell_formula_units_Z 24
_cell_length_a 20.506470
_cell_length_b 11.920619
_cell_length_c 14.745812
_cell_angle_alpha 90.000000
_cell_angle_beta 15.781287
_cell_angle_gamma 90.000000
_cell_volume 980.331531
_symmetry_space_group_name_H-M "P 2/M"
_symmetry_group_IT_number 10
_symmetry_cell_setting 'monoclinic'
loop_
_space_group_symop_operation_xyz
x,y,z
-x,y,-z
-x,-y,-z
x,-y,z
loop_
_atom_site_type_symbol
_atom_site_label
_atom_site_fract_x
_atom_site_fract_y
_atom_site_fract_z
Si Si1 0.067680 0.884133 0.804511
Si Si2 0.407819 0.720504 0.419995
Si Si3 0.799730 0.127016 0.688251
Si Si4 0.217794 0.379719 0.854104
Si Si5 0.715779 0.375086 0.858914
Si Si6 0.836729 0.812699 0.949881
O O1 0.244827 0.780734 0.563666
O O2 0.841939 0.873363 0.040141
O O3 0.194672 0.000000 0.611628
O O4 0.000000 0.888577 0.000000
O O5 0.241276 0.674107 0.723223
O O6 0.570586 0.633328 0.148092
O O7 0.593099 0.808113 0.218984
O O8 0.673666 0.250666 0.868928
O O9 0.000000 0.125158 0.500000
O O10 0.950574 0.138768 0.393859
O O11 0.687210 0.000000 0.840211
O O12 0.500000 0.388155 0.500000
O O13 0.100106 0.500000 0.004074
O O14 0.117810 0.312959 0.074071
O O15 0.662517 0.500000 0.889310
O O16 0.000000 0.374600 0.500000
#
# Coordination Sequence:
#
# PCOD9151126 Si02
#       6
#     4   4   4   4   4   4
#     4  11  25  42  62  95 136 173 222 280 333 404
#     4  11  21  41  67  96 132 177 219 274 338 408
#     4  10  20  37  63  94 127 171 225 273 325 394
#     4   9  19  34  60  95 129 167 217 267 331 407
#     4  10  20  38  68 101 133 175 227 282 337 393
#     4  11  21  41  66  95 129 173 217 276 334 403
#
# _framework density 24.481511999999999
#
# number of rings (size 3 to 8) (size 9 to 14) (size 15 to 20)
#    0.000    1.667    5.000    1.000    0.000    3.333 
#    0.000    5.000    0.000    3.000    0.000    0.000 
#    0.000    0.000    0.000    0.000    0.000    0.000 
#
# Total GULP energy -133662.836986 kJ/mol
# GULP energy per Si atom -5569.284874 kJ/mol
# Density = 2.442579 g / cm^3
# Si number density = 24.481512 Si / 1000 Ang^3
#
#
#
# Elastic Constant Matrix: (Units=GPa)
#
#
# Indices 1 2 3 4 5 6 
#
# 1 80.9256 13.9060 18.1308 0.0000 -11.5723 0.0000
# 2 13.9060 168.3148 17.4314 0.0000 5.4552 0.0000
# 3 18.1308 17.4314 61.5031 0.0000 8.7343 0.0000
# 4 0.0000 0.0000 0.0000 -45.9048 0.0000 18.0906
# 5 -11.5723 5.4552 8.7343 0.0000 35.9237 0.0000
# 6 0.0000 0.0000 0.0000 18.0906 0.0000 1.8324
#
#
#
# Elastic Compliance Matrix: (Units=1/GPa)
#
#
# Indices 1 2 3 4 5 6 
#
# 1 0.014451 -0.000884 -0.004857 0.000000 0.005970 0.000000
# 2 -0.000884 0.006185 -0.001365 0.000000 -0.000892 0.000000
# 3 -0.004857 -0.001365 0.018924 0.000000 -0.005959 0.000000
# 4 0.000000 0.000000 0.000000 -0.004454 0.000000 0.043975
# 5 0.005970 -0.000892 -0.005959 0.000000 0.031344 0.000000
# 6 0.000000 0.000000 0.000000 0.043975 0.000000 0.111587
#
#
# Mechanical properties :
#
#
# Convention : Reuss Voigt Hill
#
# Bulk Modulus (GPa) = 39.45431 45.51997 42.48714
# Shear Modulus (GPa) = 24.91281 15.78860 20.35070
#
# Velocity S-wave (km/s) = 3.19347 2.54228 2.88630
# Velocity P-wave (km/s) = 5.45423 5.22030 5.33855
#
# Compressibility (1/GPa) = 0.02534577
#
# Stress axis : x y z
#
# Youngs Moduli (GPa) = 69.19923 161.69086 52.84163
#
# Poissons Ratio (x) = 0.14300 0.25667
# Poissons Ratio (y) = 0.06120 0.07215
# Poissons Ratio (z) = 0.33612 0.22078
#
# Static dielectric constant tensor:
#      x y z
#    x 1.929180 0.000000 -0.013200 
#    y 0.000000 2.146590 0.000000 
#    z -0.013200 0.000000 1.820540 
# 
# From -- ./inp_files/70524.got.cif
#   From: 2010.05.17/outbox.cif.g08.bks.cpg/sg10_36_cif.got.tgz:70524.got - 2010.06.03 11:33:40.
