data_PCOD9151743
_publ_section_title
;
Structure prediction by ZEFSAII (Michael W. Deem and Ramdas Pophale) SiO2 
 PCOD9151743
Probable space group: P 2/M
;
_chemical_formula_sum "Si O2"
_cell_formula_units_Z 32
_cell_length_a 12.479002
_cell_length_b 23.025284
_cell_length_c 18.415755
_cell_angle_alpha 90.000000
_cell_angle_beta 18.657253
_cell_angle_gamma 90.000000
_cell_volume 1692.766478
_symmetry_space_group_name_H-M "P 2/M"
_symmetry_group_IT_number 10
_symmetry_cell_setting 'monoclinic'
loop_
_space_group_symop_operation_xyz
x,y,z
-x,y,-z
-x,-y,-z
x,-y,z
loop_
_atom_site_type_symbol
_atom_site_label
_atom_site_fract_x
_atom_site_fract_y
_atom_site_fract_z
Si Si1 0.276362 0.065966 0.758995
Si Si2 0.351051 0.434422 0.478488
Si Si3 0.346648 0.345968 0.823893
Si Si4 0.723509 0.065559 0.740895
Si Si5 0.338869 0.224266 0.331471
Si Si6 0.100700 0.138656 0.606511
Si Si7 0.131524 0.861299 0.084289
Si Si8 0.956425 0.565372 0.873817
O O1 0.632018 0.086155 0.561434
O O2 0.171019 0.116483 0.770965
O O3 0.293313 0.000000 0.719057
O O4 0.000000 0.066630 0.000000
O O5 0.309372 0.500000 0.475206
O O6 0.406327 0.384675 0.384377
O O7 0.697164 0.435657 0.302473
O O8 0.061123 0.423364 0.723554
O O9 0.513617 0.286568 0.742099
O O10 0.000000 0.336512 0.000000
O O11 0.259068 0.385512 0.949729
O O12 0.000000 0.072796 0.500000
O O13 0.798330 0.111980 0.754570
O O14 0.738987 0.000000 0.757715
O O15 0.363094 0.081197 0.941107
O O16 0.251689 0.190002 0.461388
O O17 0.000000 0.226885 0.500000
O O18 0.628291 0.187152 0.104948
O O19 0.994589 0.155810 0.755243
O O20 0.813797 0.500000 0.970935
#
# Coordination Sequence:
#
# PCOD9151743 Si02
#       8
#     4   4   4   4   4   4   4   4
#     4  11  23  41  65  92 123 147 174 233 308 370
#     4   8  14  28  53  88 124 150 181 232 290 342
#     4  10  21  34  58  85 115 152 198 240 283 341
#     4  11  21  39  65  90 115 145 186 241 298 356
#     4  12  26  45  58  80 117 160 209 250 289 337
#     4  12  24  41  63  85 114 152 194 240 293 353
#     4  12  24  41  63  85 114 152 194 240 293 353
#     4   8  14  28  53  88 124 150 181 232 290 342
#
# _framework density 18.903964999999999
#
# number of rings (size 3 to 8) (size 9 to 14) (size 15 to 20)
#    0.000    1.500    3.750    2.625    1.750    7.500 
#    0.000    0.000    0.000    1.500    0.000    1.750 
#    0.000    0.000    0.000    0.000    0.000    0.000 
#
# Total GULP energy -178640.675062 kJ/mol
# GULP energy per Si atom -5582.521096 kJ/mol
# Density = 1.886094 g / cm^3
# Si number density = 18.903965 Si / 1000 Ang^3
#
#
#
# Elastic Constant Matrix: (Units=GPa)
#
#
# Indices 1 2 3 4 5 6 
#
# 1 64.3350 55.2884 28.4412 0.0000 24.6707 0.0000
# 2 55.2884 158.7701 54.4789 0.0000 29.9792 0.0000
# 3 28.4412 54.4789 69.0952 0.0000 25.0960 0.0000
# 4 0.0000 0.0000 0.0000 0.0701 0.0000 -14.5292
# 5 24.6707 29.9792 25.0960 0.0000 36.6539 0.0000
# 6 0.0000 0.0000 0.0000 -14.5292 0.0000 19.7714
#
#
#
# Elastic Compliance Matrix: (Units=1/GPa)
#
#
# Indices 1 2 3 4 5 6 
#
# 1 0.026053 -0.006408 -0.001606 0.000000 -0.011196 0.000000
# 2 -0.006408 0.010501 -0.005442 0.000000 -0.000550 0.000000
# 3 -0.001606 -0.005442 0.023180 0.000000 -0.010339 0.000000
# 4 0.000000 0.000000 0.000000 -0.094279 0.000000 -0.069282
# 5 -0.011196 -0.000550 -0.010339 0.000000 0.042346 0.000000
# 6 0.000000 0.000000 0.000000 -0.069282 0.000000 -0.000334
#
#
# Mechanical properties :
#
#
# Convention : Reuss Voigt Hill
#
# Bulk Modulus (GPa) = 30.46663 63.17969 46.82316
# Shear Modulus (GPa) = 110.32890 21.56520 65.94705
#
# Velocity S-wave (km/s) = 7.64785 3.38120 5.91279
# Velocity P-wave (km/s) = 9.70245 6.98121 8.45207
#
# Compressibility (1/GPa) = 0.03282280
#
# Stress axis : x y z
#
# Youngs Moduli (GPa) = 38.38293 95.22916 43.14066
#
# Poissons Ratio (x) = 0.61019 0.06927
# Poissons Ratio (y) = 0.24594 0.23479
# Poissons Ratio (z) = 0.06163 0.51828
#
# Static dielectric constant tensor:
#      x y z
#    x 1.660600 0.000000 0.024400 
#    y 0.000000 1.618210 0.000000 
#    z 0.024400 0.000000 1.652870 
# 
# From -- ./inp_files/77239.got.cif
#   From: 2010.05.17/outbox.cif.g08.bks.cpg/sg10_39_cif.got.tgz:77239.got - 2010.06.03 11:33:40.
