data_PCOD9151181
_publ_section_title
;
Structure prediction by ZEFSAII (Michael W. Deem and Ramdas Pophale) SiO2 
 PCOD9151181
Probable space group: P 2/M
;
_chemical_formula_sum "Si O2"
_cell_formula_units_Z 32
_cell_length_a 13.479693
_cell_length_b 17.047841
_cell_length_c 17.808718
_cell_angle_alpha 90.000000
_cell_angle_beta 157.352249
_cell_angle_gamma 90.000000
_cell_volume 1575.852784
_symmetry_space_group_name_H-M "P 2/M"
_symmetry_group_IT_number 10
_symmetry_cell_setting 'monoclinic'
loop_
_space_group_symop_operation_xyz
x,y,z
-x,y,-z
-x,-y,-z
x,-y,z
loop_
_atom_site_type_symbol
_atom_site_label
_atom_site_fract_x
_atom_site_fract_y
_atom_site_fract_z
Si Si1 0.334418 0.588664 0.606500
Si Si2 0.651095 0.754124 0.029376
Si Si3 0.175969 0.327316 0.352588
Si Si4 0.763510 0.260337 0.384378
Si Si5 0.400071 0.821854 0.576534
Si Si6 0.945264 0.407099 0.046870
Si Si7 0.072081 0.908387 0.815752
Si Si8 0.247652 0.090361 0.268081
O O1 0.257561 0.500000 0.568714
O O2 0.297546 0.607658 0.492374
O O3 0.173902 0.654029 0.538725
O O4 0.635358 0.599033 0.838513
O O5 0.470712 0.731482 0.835413
O O6 0.500000 0.740753 0.000000
O O7 0.723663 0.845836 0.070791
O O8 0.910259 0.704090 0.203761
O O9 0.352383 0.250165 0.485071
O O10 0.103607 0.359405 0.220176
O O11 0.664869 0.210467 0.386596
O O12 0.000000 0.228141 0.500000
O O13 0.677304 0.856760 0.750044
O O14 0.187459 0.888967 0.412090
O O15 0.011381 0.500000 0.098984
O O16 0.000000 0.380770 0.000000
O O17 0.991316 0.888670 0.845398
O O18 0.138087 0.000000 0.856889
O O19 0.500000 0.094151 0.500000
O O20 0.219583 0.000000 0.225931
#
# Coordination Sequence:
#
# PCOD9151181 Si02
#       8
#     4   4   4   4   4   4   4   4
#     4  10  21  39  62  87 118 157 199 245 297 351
#     4  11  22  40  60  82 116 155 195 246 303 354
#     4  10  20  38  57  89 118 156 199 244 296 353
#     4  11  22  40  59  83 117 151 197 252 299 351
#     4   9  18  33  56  86 114 156 194 237 295 352
#     4  10  21  39  59  85 122 160 198 243 291 348
#     4   9  18  35  58  86 117 153 196 238 288 352
#     4   8  14  30  55  83 117 150 188 234 283 345
#
# _framework density 20.306466
#
# number of rings (size 3 to 8) (size 9 to 14) (size 15 to 20)
#    0.000    2.250    1.250    3.750    0.000    1.000 
#   20.250    3.750    0.000    6.000    0.000    0.000 
#    0.000    0.500    0.000    0.000    0.000    0.000 
#
# Total GULP energy -178559.896569 kJ/mol
# GULP energy per Si atom -5579.996768 kJ/mol
# Density = 2.026025 g / cm^3
# Si number density = 20.306466 Si / 1000 Ang^3
#
#
#
# Elastic Constant Matrix: (Units=GPa)
#
#
# Indices 1 2 3 4 5 6 
#
# 1 100.5577 33.6672 10.8072 0.0000 -23.1052 0.0000
# 2 33.6672 52.5352 5.5719 0.0000 -15.6246 0.0000
# 3 10.8072 5.5719 53.5277 0.0000 -24.5457 0.0000
# 4 0.0000 0.0000 0.0000 2.1423 0.0000 8.8347
# 5 -23.1052 -15.6246 -24.5457 0.0000 28.5260 0.0000
# 6 0.0000 0.0000 0.0000 8.8347 0.0000 20.4757
#
#
#
# Elastic Compliance Matrix: (Units=1/GPa)
#
#
# Indices 1 2 3 4 5 6 
#
# 1 0.014106 -0.006307 0.002418 0.000000 0.010051 0.000000
# 2 -0.006307 0.026593 0.004694 0.000000 0.013497 0.000000
# 3 0.002418 0.004694 0.032675 0.000000 0.032645 0.000000
# 4 0.000000 0.000000 0.000000 -0.598947 0.000000 0.258428
# 5 0.010051 0.013497 0.032645 0.000000 0.078679 0.000000
# 6 0.000000 0.000000 0.000000 0.258428 0.000000 -0.062665
#
#
# Mechanical properties :
#
#
# Convention : Reuss Voigt Hill
#
# Bulk Modulus (GPa) = 13.33632 34.07924 23.70778
# Shear Modulus (GPa) = -10.28435 20.66709 5.19137
#
# Velocity S-wave (km/s) = -2.25290 3.19369 1.60064
# Velocity P-wave (km/s) = 0.43085 5.51529 3.88798
#
# Compressibility (1/GPa) = 0.07498319
#
# Stress axis : x y z
#
# Youngs Moduli (GPa) = 70.89342 37.60432 30.60457
#
# Poissons Ratio (x) = 0.23716 -0.07399
# Poissons Ratio (y) = 0.44711 -0.14366
# Poissons Ratio (z) = -0.17139 -0.17652
#
# Static dielectric constant tensor:
#      x y z
#    x 1.798490 0.000000 0.024690 
#    y 0.000000 1.719830 0.000000 
#    z 0.024690 0.000000 1.758750 
# 
# From -- ./inp_files/65408.got.cif
#   From: 2010.05.17/outbox.cif.g08.bks.cpg/sg10_33_cif.got.tgz:65408.got - 2010.06.03 11:33:40.
