data_PCOD9151314
_publ_section_title
;
Structure prediction by ZEFSAII (Michael W. Deem and Ramdas Pophale) SiO2 
 PCOD9151314
Probable space group: P 2/M
;
_chemical_formula_sum "Si O2"
_cell_formula_units_Z 17
_cell_length_a 10.187884
_cell_length_b 16.520873
_cell_length_c 5.423425
_cell_angle_alpha 90.000000
_cell_angle_beta 122.473615
_cell_angle_gamma 90.000000
_cell_volume 770.100066
_symmetry_space_group_name_H-M "P 2/M"
_symmetry_group_IT_number 10
_symmetry_cell_setting 'monoclinic'
loop_
_space_group_symop_operation_xyz
x,y,z
-x,y,-z
-x,-y,-z
x,-y,z
loop_
_atom_site_type_symbol
_atom_site_label
_atom_site_fract_x
_atom_site_fract_y
_atom_site_fract_z
Si Si1 0.422410 0.166893 0.666047
Si Si2 0.923367 0.670443 0.172515
Si Si3 0.403452 0.406044 0.151287
Si Si4 0.500000 0.000000 0.500000
Si Si5 0.946989 0.850570 0.696727
O O1 0.500000 0.207005 0.500000
O O2 0.235076 0.172190 0.483309
O O3 0.460038 0.072290 0.659372
O O4 0.500000 0.193943 0.000000
O O5 0.000000 0.637724 0.500000
O O6 0.955272 0.766741 0.204548
O O7 0.743857 0.651341 0.991505
O O8 0.000000 0.637464 0.000000
O O9 0.500000 0.397918 0.500000
O O10 0.349957 0.500000 0.085686
O O11 0.500000 0.391131 0.000000
O O12 0.000000 0.893830 0.500000
O O13 0.000000 0.894449 0.000000
#
# Coordination Sequence:
#
# PCOD9151314 Si02
#       5
#     4   4   4   1   4
#     4  10  20  38  63  85 116 151 195 235 287 344
#     4  10  21  38  57  84 120 153 195 238 293 346
#     4  10  21  38  60  86 116 153 198 243 289 345
#     4   8  22  36  66  86 118 144 200 234 286 340
#     4  10  21  39  57  84 122 152 192 241 287 347
#
# _framework density 22.075054999999999
#
# number of rings (size 3 to 8) (size 9 to 14) (size 15 to 20)
#    0.706    1.412    0.000    3.176    0.000    0.941 
#    0.000   29.412    0.000    0.000    0.000    0.000 
#    0.000    0.000    0.000    0.000    0.000    0.000 
#
# Total GULP energy -94688.824846 kJ/mol
# GULP energy per Si atom -5569.930873 kJ/mol
# Density = 2.202481 g / cm^3
# Si number density = 22.075055 Si / 1000 Ang^3
#
#
#
# Elastic Constant Matrix: (Units=GPa)
#
#
# Indices 1 2 3 4 5 6 
#
# 1 113.7411 19.9124 54.9684 0.0000 -47.8722 0.0000
# 2 19.9124 64.6847 19.9439 0.0000 -0.6159 0.0000
# 3 54.9684 19.9439 143.8977 0.0000 -39.3568 0.0000
# 4 0.0000 0.0000 0.0000 -19.3077 0.0000 -24.2090
# 5 -47.8722 -0.6159 -39.3568 0.0000 40.0769 0.0000
# 6 0.0000 0.0000 0.0000 -24.2090 0.0000 -4.2161
#
#
#
# Elastic Compliance Matrix: (Units=1/GPa)
#
#
# Indices 1 2 3 4 5 6 
#
# 1 0.019677 -0.005703 -0.000440 0.000000 0.022985 0.000000
# 2 -0.005703 0.018014 -0.002879 0.000000 -0.009362 0.000000
# 3 -0.000440 -0.002879 0.010064 0.000000 0.009313 0.000000
# 4 0.000000 0.000000 0.000000 0.008354 0.000000 -0.047970
# 5 0.022985 -0.009362 0.009313 0.000000 0.061410 0.000000
# 6 0.000000 0.000000 0.000000 -0.047970 0.000000 0.038258
#
#
# Mechanical properties :
#
#
# Convention : Reuss Voigt Hill
#
# Bulk Modulus (GPa) = 33.65716 56.88587 45.27152
# Shear Modulus (GPa) = 27.21500 18.47719 22.84609
#
# Velocity S-wave (km/s) = 3.51499 2.89626 3.22052
# Velocity P-wave (km/s) = 5.63501 6.08356 5.86358
#
# Compressibility (1/GPa) = 0.02971136
#
# Stress axis : x y z
#
# Youngs Moduli (GPa) = 50.82157 55.51360 99.36831
#
# Poissons Ratio (x) = 0.31658 0.04368
# Poissons Ratio (y) = 0.28983 0.28606
# Poissons Ratio (z) = 0.02234 0.15981
#
# Static dielectric constant tensor:
#      x y z
#    x 1.842710 0.000000 -0.078540 
#    y 0.000000 1.775240 0.000000 
#    z -0.078540 0.000000 1.849510 
# 
# From -- ./inp_files/1771.got.cif
#   From: 2010.05.17/outbox.cif.g08.bks.cpg/sg10_1_cif.got.tgz:1771.got - 2010.06.03 11:33:40.
