data_PCOD9151006
_publ_section_title
;
Structure prediction by ZEFSAII (Michael W. Deem and Ramdas Pophale) SiO2 
 PCOD9151006
Probable space group: P 2/M
;
_chemical_formula_sum "Si O2"
_cell_formula_units_Z 26
_cell_length_a 5.286951
_cell_length_b 7.440431
_cell_length_c 32.474739
_cell_angle_alpha 90.000000
_cell_angle_beta 61.022365
_cell_angle_gamma 90.000000
_cell_volume 1117.537827
_symmetry_space_group_name_H-M "P 2/M"
_symmetry_group_IT_number 10
_symmetry_cell_setting 'monoclinic'
loop_
_space_group_symop_operation_xyz
x,y,z
-x,y,-z
-x,-y,-z
x,-y,z
loop_
_atom_site_type_symbol
_atom_site_label
_atom_site_fract_x
_atom_site_fract_y
_atom_site_fract_z
Si Si1 0.905297 0.786693 0.717779
Si Si2 0.125004 0.781123 0.184484
Si Si3 0.665034 0.717219 0.527833
Si Si4 0.827587 0.716200 0.973833
Si Si5 0.283502 0.500000 0.327390
Si Si6 0.533911 0.202586 0.630052
Si Si7 0.229407 0.786523 0.864554
O O1 0.930685 0.736307 0.763620
O O2 0.690858 0.659329 0.709941
O O3 0.215935 0.748881 0.672264
O O4 0.838425 0.000000 0.720217
O O5 0.451942 0.718817 0.149134
O O6 0.899822 0.715325 0.168148
O O7 0.116133 0.000000 0.183036
O O8 0.500000 0.778615 0.500000
O O9 0.652002 0.500000 0.529763
O O10 0.533865 0.783263 0.581018
O O11 0.000000 0.771159 0.500000
O O12 0.815175 0.500000 0.977761
O O13 0.000607 0.758450 0.918789
O O14 0.500000 0.783936 0.000000
O O15 0.000000 0.783504 0.000000
O O16 0.255724 0.344009 0.365591
O O17 0.602741 0.000000 0.637214
O O18 0.266012 0.000000 0.856193
#
# Coordination Sequence:
#
# PCOD9151006 Si02
#       7
#     4   4   4   4   2   4   4
#     4  10  24  44  67  94 133 180 219 272 340 402
#     4   9  20  39  61  87 124 162 203 257 322 383
#     4  10  23  42  68  98 135 177 221 278 340 400
#     4  10  21  37  56  80 117 158 198 248 309 373
#     4  12  24  42  68  99 134 172 228 285 320 406
#     4  11  25  43  69 100 134 177 225 278 337 400
#     4  10  20  37  61  88 119 156 203 262 314 373
#
# _framework density 23.265433000000002
#
# number of rings (size 3 to 8) (size 9 to 14) (size 15 to 20)
#    0.000    1.846    0.769    1.846    4.308    1.231 
#    2.769    0.000    0.000    0.000    0.000    0.000 
#    0.000    0.000    0.000    0.000    0.000    0.000 
#
# Total GULP energy -144980.817324 kJ/mol
# GULP energy per Si atom -5576.185282 kJ/mol
# Density = 2.321248 g / cm^3
# Si number density = 23.265433 Si / 1000 Ang^3
#
#
#
# Elastic Constant Matrix: (Units=GPa)
#
#
# Indices 1 2 3 4 5 6 
#
# 1 84.0154 14.6655 14.7491 0.0000 14.7820 0.0000
# 2 14.6655 62.5265 -0.6065 0.0000 -0.9651 0.0000
# 3 14.7491 -0.6065 109.5720 0.0000 12.0855 0.0000
# 4 0.0000 0.0000 0.0000 35.3734 0.0000 -1.6497
# 5 14.7820 -0.9651 12.0855 0.0000 46.6584 0.0000
# 6 0.0000 0.0000 0.0000 -1.6497 0.0000 142.6364
#
#
#
# Elastic Compliance Matrix: (Units=1/GPa)
#
#
# Indices 1 2 3 4 5 6 
#
# 1 0.013403 -0.003218 -0.001386 0.000000 -0.003954 0.000000
# 2 -0.003218 0.016771 0.000386 0.000000 0.001266 0.000000
# 3 -0.001386 0.000386 0.009538 0.000000 -0.002024 0.000000
# 4 0.000000 0.000000 0.000000 0.028285 0.000000 0.000327
# 5 -0.003954 0.001266 -0.002024 0.000000 0.023235 0.000000
# 6 0.000000 0.000000 0.000000 0.000327 0.000000 0.007015
#
#
# Mechanical properties :
#
#
# Convention : Reuss Voigt Hill
#
# Bulk Modulus (GPa) = 31.97188 34.85890 33.41539
# Shear Modulus (GPa) = 42.69513 60.08734 51.39124
#
# Velocity S-wave (km/s) = 4.28849 5.08753 4.70500
# Velocity P-wave (km/s) = 6.18818 7.03749 6.62646
#
# Compressibility (1/GPa) = 0.03127748
#
# Stress axis : x y z
#
# Youngs Moduli (GPa) = 74.60844 59.62553 104.84047
#
# Poissons Ratio (x) = 0.19189 0.14530
# Poissons Ratio (y) = 0.24011 -0.04050
# Poissons Ratio (z) = 0.10340 -0.02304
#
# Static dielectric constant tensor:
#      x y z
#    x 1.886030 0.000000 0.013290 
#    y 0.000000 1.835190 0.000000 
#    z 0.013290 0.000000 1.789490 
# 
# From -- ./inp_files/13435.got.cif
#   From: 2010.05.17/outbox.cif.g08.bks.cpg/sg10_7_cif.got.tgz:13435.got - 2010.06.03 11:33:40.
