data_PCOD9151247
_publ_section_title
;
Structure prediction by ZEFSAII (Michael W. Deem and Ramdas Pophale) SiO2 
 PCOD9151247
Probable space group: P 2/M
;
_chemical_formula_sum "Si O2"
_cell_formula_units_Z 32
_cell_length_a 20.897457
_cell_length_b 14.264883
_cell_length_c 13.632472
_cell_angle_alpha 90.000000
_cell_angle_beta 156.002335
_cell_angle_gamma 90.000000
_cell_volume 1652.760077
_symmetry_space_group_name_H-M "P 2/M"
_symmetry_group_IT_number 10
_symmetry_cell_setting 'monoclinic'
loop_
_space_group_symop_operation_xyz
x,y,z
-x,y,-z
-x,-y,-z
x,-y,z
loop_
_atom_site_type_symbol
_atom_site_label
_atom_site_fract_x
_atom_site_fract_y
_atom_site_fract_z
Si Si1 0.843983 0.282337 0.602107
Si Si2 0.325348 0.390870 0.803130
Si Si3 0.206610 0.239341 0.091104
Si Si4 0.769000 0.106677 0.373092
Si Si5 0.393820 0.399395 0.253805
Si Si6 0.866991 0.107548 0.177873
Si Si7 0.659164 0.789469 0.041712
Si Si8 0.623821 0.278328 0.470288
O O1 0.794493 0.357221 0.449906
O O2 0.774122 0.183212 0.465699
O O3 0.763300 0.303419 0.592264
O O4 0.029988 0.269345 0.870607
O O5 0.302080 0.500000 0.797967
O O6 0.313175 0.314206 0.873209
O O7 0.500000 0.381892 0.000000
O O8 0.273918 0.316980 0.110264
O O9 0.311333 0.239412 0.335757
O O10 0.200248 0.143611 0.020617
O O11 0.652319 0.141946 0.125442
O O12 0.944472 0.112735 0.570311
O O13 0.742063 0.000000 0.365674
O O14 0.500000 0.405877 0.500000
O O15 0.319714 0.500000 0.130327
O O16 0.516559 0.368609 0.343378
O O17 0.797010 0.174295 0.163525
O O18 0.824817 0.000000 0.140142
O O19 0.499104 0.789534 0.755695
#
# Coordination Sequence:
#
# PCOD9151247 Si02
#       8
#     4   4   4   4   4   4   4   4
#     4  10  21  38  62  85 117 156 197 239 292 346
#     4  10  21  38  59  84 118 155 190 236 298 355
#     4  10  21  39  60  84 119 156 199 243 285 341
#     4   9  20  38  61  84 115 154 195 242 294 351
#     4   9  19  36  58  80 111 153 193 236 286 336
#     4  10  20  38  61  85 114 157 199 238 295 354
#     4  11  20  34  59  86 114 148 196 239 289 349
#     4  11  21  36  58  87 123 152 195 238 294 352
#
# _framework density 19.361552
#
# number of rings (size 3 to 8) (size 9 to 14) (size 15 to 20)
#    0.000    2.000    2.500    1.125    0.000    2.500 
#    0.000    4.375    0.000    9.750    0.000    0.000 
#    0.000    0.000    0.000    0.000    0.000    0.000 
#
# Total GULP energy -178536.027401 kJ/mol
# GULP energy per Si atom -5579.250856 kJ/mol
# Density = 1.931748 g / cm^3
# Si number density = 19.361552 Si / 1000 Ang^3
#
#
#
# Elastic Constant Matrix: (Units=GPa)
#
#
# Indices 1 2 3 4 5 6 
#
# 1 97.3384 47.7000 9.0926 0.0000 1.8037 0.0000
# 2 47.7000 117.2031 32.8139 0.0000 -3.8231 0.0000
# 3 9.0926 32.8139 62.6132 0.0000 -20.5470 0.0000
# 4 0.0000 0.0000 0.0000 -302.2589 0.0000 -399.4840
# 5 1.8037 -3.8231 -20.5470 0.0000 27.9102 0.0000
# 6 0.0000 0.0000 0.0000 -399.4840 0.0000 -510.6623
#
#
#
# Elastic Compliance Matrix: (Units=1/GPa)
#
#
# Indices 1 2 3 4 5 6 
#
# 1 0.012915 -0.005467 0.000619 0.000000 -0.001128 0.000000
# 2 -0.005467 0.012546 -0.006726 0.000000 -0.002880 0.000000
# 3 0.000619 -0.006726 0.025172 0.000000 0.017570 0.000000
# 4 0.000000 0.000000 0.000000 0.097543 0.000000 -0.076307
# 5 -0.001128 -0.002880 0.017570 0.000000 0.048442 0.000000
# 6 0.000000 0.000000 0.000000 -0.076307 0.000000 0.057735
#
#
# Mechanical properties :
#
#
# Convention : Reuss Voigt Hill
#
# Bulk Modulus (GPa) = 36.38185 50.70753 43.54469
# Shear Modulus (GPa) = 17.44206 -144.49898 -63.52846
#
# Velocity S-wave (km/s) = 3.00469 -8.64835 -5.73436
# Velocity P-wave (km/s) = 5.55600 8.57197 4.61571
#
# Compressibility (1/GPa) = 0.02748623
#
# Stress axis : x y z
#
# Youngs Moduli (GPa) = 77.42744 79.70482 39.72677
#
# Poissons Ratio (x) = 0.43571 -0.02460
# Poissons Ratio (y) = 0.42326 0.26722
# Poissons Ratio (z) = -0.04795 0.53613
#
# Static dielectric constant tensor:
#      x y z
#    x 1.696480 0.000000 -0.005290 
#    y 0.000000 1.677430 0.000000 
#    z -0.005290 0.000000 1.682180 
# 
# From -- ./inp_files/54056.got.cif
#   From: 2010.05.17/outbox.cif.g08.bks.cpg/sg10_28_cif.got.tgz:54056.got - 2010.06.03 11:33:40.
