data_PCOD9151099
_publ_section_title
;
Structure prediction by ZEFSAII (Michael W. Deem and Ramdas Pophale) SiO2 
 PCOD9151099
Probable space group: P 2/M
;
_chemical_formula_sum "Si O2"
_cell_formula_units_Z 32
_cell_length_a 21.960683
_cell_length_b 14.645179
_cell_length_c 15.367829
_cell_angle_alpha 90.000000
_cell_angle_beta 17.844583
_cell_angle_gamma 90.000000
_cell_volume 1514.582552
_symmetry_space_group_name_H-M "P 2/M"
_symmetry_group_IT_number 10
_symmetry_cell_setting 'monoclinic'
loop_
_space_group_symop_operation_xyz
x,y,z
-x,y,-z
-x,-y,-z
x,-y,z
loop_
_atom_site_type_symbol
_atom_site_label
_atom_site_fract_x
_atom_site_fract_y
_atom_site_fract_z
Si Si1 0.874674 0.393318 0.975849
Si Si2 0.665325 0.393737 0.596402
Si Si3 0.656218 0.102015 0.366149
Si Si4 0.230124 0.280925 0.713029
Si Si5 0.449005 0.898031 0.171403
Si Si6 0.087985 0.273967 0.237732
Si Si7 0.997626 0.105970 0.764766
Si Si8 0.690137 0.725041 0.881896
O O1 0.819885 0.500000 0.054550
O O2 0.113472 0.386428 0.665134
O O3 0.837066 0.346118 0.935092
O O4 0.774802 0.335164 0.188925
O O5 0.618792 0.500000 0.649868
O O6 0.679311 0.344206 0.484331
O O7 0.493082 0.342986 0.882985
O O8 0.500000 0.111641 0.500000
O O9 0.652662 0.186125 0.436300
O O10 0.633028 0.000000 0.435204
O O11 0.865884 0.108707 0.030623
O O12 0.000000 0.262976 0.000000
O O13 0.220913 0.866211 0.486374
O O14 0.464077 0.000000 0.188063
O O15 0.500000 0.902888 0.000000
O O16 0.600848 0.826393 0.002773
O O17 0.089650 0.175010 0.188004
O O18 0.859725 0.287311 0.578871
O O19 0.212179 0.285643 0.156439
O O20 0.002754 0.000000 0.727250
#
# Coordination Sequence:
#
# PCOD9151099 Si02
#       8
#     4   4   4   4   4   4   4   4
#     4  10  21  40  66  90 117 157 205 256 313 372
#     4  10  23  41  62  91 122 158 205 258 312 367
#     4  10  22  39  60  90 127 165 203 245 301 367
#     4  10  21  38  65  93 122 155 201 257 309 361
#     4  10  20  37  63  92 121 160 210 257 303 362
#     4  11  23  40  58  90 124 166 205 247 313 372
#     4  10  20  37  63  88 121 165 206 252 302 364
#     4  11  25  38  60  89 130 163 201 258 306 363
#
# _framework density 21.127932999999999
#
# number of rings (size 3 to 8) (size 9 to 14) (size 15 to 20)
#    0.000    1.750    2.500    1.125    3.500    3.250 
#    0.000    4.375    0.000    2.250    0.000    0.000 
#    0.000    0.000    0.000    0.000    0.000    0.000 
#
# Total GULP energy -178945.234731 kJ/mol
# GULP energy per Si atom -5592.038585 kJ/mol
# Density = 2.107985 g / cm^3
# Si number density = 21.127933 Si / 1000 Ang^3
#
#
#
# Elastic Constant Matrix: (Units=GPa)
#
#
# Indices 1 2 3 4 5 6 
#
# 1 55.3872 26.1116 -14.5919 0.0000 14.2250 0.0000
# 2 26.1116 101.5830 -13.4769 0.0000 -0.4492 0.0000
# 3 -14.5919 -13.4769 40.3204 0.0000 -3.5050 0.0000
# 4 0.0000 0.0000 0.0000 -30.7553 0.0000 13.8089
# 5 14.2250 -0.4492 -3.5050 0.0000 12.6637 0.0000
# 6 0.0000 0.0000 0.0000 13.8089 0.0000 19.4707
#
#
#
# Elastic Compliance Matrix: (Units=1/GPa)
#
#
# Indices 1 2 3 4 5 6 
#
# 1 0.032161 -0.007614 0.006076 0.000000 -0.034714 0.000000
# 2 -0.007614 0.012126 0.002130 0.000000 0.009573 0.000000
# 3 0.006076 0.002130 0.027794 0.000000 0.000943 0.000000
# 4 0.000000 0.000000 0.000000 -0.024662 0.000000 0.017490
# 5 -0.034714 0.009573 0.000943 0.000000 0.118560 0.000000
# 6 0.000000 0.000000 0.000000 0.017490 0.000000 0.038955
#
#
# Mechanical properties :
#
#
# Convention : Reuss Voigt Hill
#
# Bulk Modulus (GPa) = 13.64914 21.48623 17.56769
# Shear Modulus (GPa) = 21.91325 13.55900 17.73612
#
# Velocity S-wave (km/s) = 3.22401 2.53604 2.90049
# Velocity P-wave (km/s) = 4.50924 4.33209 4.42155
#
# Compressibility (1/GPa) = 0.07326468
#
# Stress axis : x y z
#
# Youngs Moduli (GPa) = 31.09388 82.46571 35.97877
#
# Poissons Ratio (x) = 0.62791 -0.21862
# Poissons Ratio (y) = 0.23675 -0.07662
# Poissons Ratio (z) = -0.18894 -0.17563
#
# Static dielectric constant tensor:
#      x y z
#    x 1.735650 0.000000 -0.010520 
#    y 0.000000 1.758790 0.000000 
#    z -0.010520 0.000000 1.775080 
# 
# From -- ./inp_files/42958.got.cif
#   From: 2010.05.17/outbox.cif.g08.bks.cpg/sg10_22_cif.got.tgz:42958.got - 2010.06.03 11:33:40.
