data_PCOD9151085
_publ_section_title
;
Structure prediction by ZEFSAII (Michael W. Deem and Ramdas Pophale) SiO2 
 PCOD9151085
Probable space group: P 2/M
;
_chemical_formula_sum "Si O2"
_cell_formula_units_Z 28
_cell_length_a 11.620167
_cell_length_b 16.809348
_cell_length_c 9.177005
_cell_angle_alpha 90.000000
_cell_angle_beta 127.138328
_cell_angle_gamma 90.000000
_cell_volume 1428.962160
_symmetry_space_group_name_H-M "P 2/M"
_symmetry_group_IT_number 10
_symmetry_cell_setting 'monoclinic'
loop_
_space_group_symop_operation_xyz
x,y,z
-x,y,-z
-x,-y,-z
x,-y,z
loop_
_atom_site_type_symbol
_atom_site_label
_atom_site_fract_x
_atom_site_fract_y
_atom_site_fract_z
Si Si1 0.966680 0.591960 0.305886
Si Si2 0.327290 0.000000 0.360097
Si Si3 0.663811 0.588809 0.182848
Si Si4 0.079332 0.146700 0.707981
Si Si5 0.084550 0.269069 0.215340
Si Si6 0.650774 0.829571 0.532408
Si Si7 0.357420 0.765890 0.791463
Si Si8 0.884601 0.000000 0.046573
O O1 0.005175 0.500000 0.319092
O O2 0.791874 0.598106 0.161130
O O3 0.000000 0.615103 0.500000
O O4 0.052468 0.644755 0.257293
O O5 0.500000 0.000000 0.500000
O O6 0.277927 0.083005 0.393546
O O7 0.269046 0.000000 0.151918
O O8 0.690810 0.500000 0.270105
O O9 0.673797 0.673083 0.273040
O O10 0.500000 0.586271 0.000000
O O11 0.225242 0.193189 0.775496
O O12 0.000000 0.118787 0.500000
O O13 0.978708 0.210718 0.710055
O O14 0.102526 0.076367 0.840431
O O15 0.247372 0.238935 0.324059
O O16 0.000000 0.259144 0.000000
O O17 0.500000 0.829900 0.500000
O O18 0.623572 0.812911 0.343100
O O19 0.500000 0.767769 0.000000
O O20 0.000000 0.000000 0.000000
#
# Coordination Sequence:
#
# PCOD9151085 Si02
#       8
#     4   2   4   4   4   4   4   2
#     4  10  20  37  62  92 128 168 217 272 328 389
#     4  10  24  44  66  86 127 168 213 258 329 394
#     4   9  18  35  61  94 129 165 209 264 323 380
#     4  12  24  44  66  96 129 168 224 272 327 386
#     4  12  24  39  65  91 130 172 215 269 327 394
#     4  11  25  44  65  91 129 171 218 267 336 394
#     4  11  24  39  68  97 130 166 220 274 321 392
#     4  12  27  44  68  98 133 173 218 271 340 394
#
# _framework density 19.594642
#
# number of rings (size 3 to 8) (size 9 to 14) (size 15 to 20)
#    0.000    1.143    2.857    3.643    6.000    0.857 
#    0.000    0.714    0.000    1.714    0.000    0.000 
#    0.000    0.000    0.000    0.000    0.000    0.000 
#
# Total GULP energy -156285.111322 kJ/mol
# GULP energy per Si atom -5581.611119 kJ/mol
# Density = 1.955004 g / cm^3
# Si number density = 19.594642 Si / 1000 Ang^3
#
#
#
# Elastic Constant Matrix: (Units=GPa)
#
#
# Indices 1 2 3 4 5 6 
#
# 1 92.8203 42.2354 30.1661 0.0000 11.1866 0.0000
# 2 42.2354 122.0464 45.1683 0.0000 -6.4942 0.0000
# 3 30.1661 45.1683 121.1219 0.0000 1.6632 0.0000
# 4 0.0000 0.0000 0.0000 24.1628 0.0000 -2.3734
# 5 11.1866 -6.4942 1.6632 0.0000 37.1416 0.0000
# 6 0.0000 0.0000 0.0000 -2.3734 0.0000 22.1465
#
#
#
# Elastic Compliance Matrix: (Units=1/GPa)
#
#
# Indices 1 2 3 4 5 6 
#
# 1 0.013955 -0.004442 -0.001752 0.000000 -0.004901 0.000000
# 2 -0.004442 0.011044 -0.003059 0.000000 0.003406 0.000000
# 3 -0.001752 -0.003059 0.009839 0.000000 -0.000448 0.000000
# 4 0.000000 0.000000 0.000000 0.041826 0.000000 0.004482
# 5 -0.004901 0.003406 -0.000448 0.000000 0.029016 0.000000
# 6 0.000000 0.000000 0.000000 0.004482 0.000000 0.045634
#
#
# Mechanical properties :
#
#
# Convention : Reuss Voigt Hill
#
# Bulk Modulus (GPa) = 61.22570 63.45870 62.34220
# Shear Modulus (GPa) = 28.52853 31.25145 29.88999
#
# Velocity S-wave (km/s) = 3.81981 3.99795 3.90989
# Velocity P-wave (km/s) = 7.12521 7.33263 7.22966
#
# Compressibility (1/GPa) = 0.01633301
#
# Stress axis : x y z
#
# Youngs Moduli (GPa) = 71.66133 90.54683 101.63254
#
# Poissons Ratio (x) = 0.40217 0.17804
# Poissons Ratio (y) = 0.31829 0.31090
# Poissons Ratio (z) = 0.12554 0.27699
#
# Static dielectric constant tensor:
#      x y z
#    x 1.762270 0.000000 0.059920 
#    y 0.000000 1.729110 0.000000 
#    z 0.059920 0.000000 1.684930 
# 
# From -- ./inp_files/25446.got.cif
#   From: 2010.05.17/outbox.cif.g08.bks.cpg/sg10_13_cif.got.tgz:25446.got - 2010.06.03 11:33:40.
