data_PCOD9151326
_publ_section_title
;
Structure prediction by ZEFSAII (Michael W. Deem and Ramdas Pophale) SiO2 
 PCOD9151326
Probable space group: P 2/M
;
_chemical_formula_sum "Si O2"
_cell_formula_units_Z 28
_cell_length_a 20.080825
_cell_length_b 11.268789
_cell_length_c 13.710272
_cell_angle_alpha 90.000000
_cell_angle_beta 152.934350
_cell_angle_gamma 90.000000
_cell_volume 1411.649518
_symmetry_space_group_name_H-M "P 2/M"
_symmetry_group_IT_number 10
_symmetry_cell_setting 'monoclinic'
loop_
_space_group_symop_operation_xyz
x,y,z
-x,y,-z
-x,-y,-z
x,-y,z
loop_
_atom_site_type_symbol
_atom_site_label
_atom_site_fract_x
_atom_site_fract_y
_atom_site_fract_z
Si Si1 0.856785 0.141340 0.431989
Si Si2 0.331531 0.708311 0.167669
Si Si3 0.652779 0.629629 0.608501
Si Si4 0.014077 0.368166 0.733274
Si Si5 0.337875 0.140579 0.995598
Si Si6 0.112614 0.285309 0.229037
Si Si7 0.654063 0.137564 0.347638
O O1 0.955068 0.249041 0.602094
O O2 0.712850 0.144984 0.314027
O O3 0.908197 0.000000 0.502295
O O4 0.199173 0.174849 0.748555
O O5 0.489534 0.649412 0.356347
O O6 0.322427 0.724130 0.272696
O O7 0.325748 0.822522 0.091654
O O8 0.188802 0.635033 0.952798
O O9 0.660394 0.500000 0.665995
O O10 0.774126 0.635830 0.684509
O O11 0.960097 0.500000 0.631774
O O12 0.970147 0.350190 0.790180
O O13 0.492852 0.189535 0.156418
O O14 0.341384 0.000000 0.990200
O O15 0.219277 0.191769 0.419985
O O16 0.000000 0.239254 0.000000
O O17 0.644576 0.000000 0.360416
#
# Coordination Sequence:
#
# PCOD9151326 Si02
#       7
#     4   4   4   4   4   4   4
#     4   9  20  39  66  91 118 157 204 252 304 360
#     4  11  22  37  57  86 120 157 197 240 295 354
#     4  11  22  39  59  81 116 160 205 241 291 361
#     4  11  23  39  60  91 128 158 198 251 305 355
#     4  10  20  38  63  89 116 155 204 250 296 359
#     4  11  21  36  62  90 118 157 201 246 298 357
#     4   9  18  36  61  90 120 154 199 250 301 356
#
# _framework density 19.834952000000001
#
# number of rings (size 3 to 8) (size 9 to 14) (size 15 to 20)
#    0.000    1.714    2.857    2.571    0.000    3.714 
#    0.000    6.429    0.000    1.714    0.000    0.000 
#    0.000    0.000    0.000    0.000    0.000    0.000 
#
# Total GULP energy -155944.953206 kJ/mol
# GULP energy per Si atom -5569.462614 kJ/mol
# Density = 1.978981 g / cm^3
# Si number density = 19.834952 Si / 1000 Ang^3
#
#
#
# Elastic Constant Matrix: (Units=GPa)
#
#
# Indices 1 2 3 4 5 6 
#
# 1 66.1088 17.2588 33.5757 0.0000 -10.6440 0.0000
# 2 17.2588 53.8672 37.9806 0.0000 -16.1197 0.0000
# 3 33.5757 37.9806 99.2864 0.0000 -6.6294 0.0000
# 4 0.0000 0.0000 0.0000 17.1144 0.0000 -6.8129
# 5 -10.6440 -16.1197 -6.6294 0.0000 29.5195 0.0000
# 6 0.0000 0.0000 0.0000 -6.8129 0.0000 7.3591
#
#
#
# Elastic Compliance Matrix: (Units=1/GPa)
#
#
# Indices 1 2 3 4 5 6 
#
# 1 0.019113 -0.000284 -0.005995 0.000000 0.005391 0.000000
# 2 -0.000284 0.030314 -0.010560 0.000000 0.014080 0.000000
# 3 -0.005995 -0.010560 0.015847 0.000000 -0.004369 0.000000
# 4 0.000000 0.000000 0.000000 0.092531 0.000000 0.085663
# 5 0.005391 0.014080 -0.004369 0.000000 0.042527 0.000000
# 6 0.000000 0.000000 0.000000 0.085663 0.000000 0.215190
#
#
# Mechanical properties :
#
#
# Convention : Reuss Voigt Hill
#
# Bulk Modulus (GPa) = 31.64884 44.09919 37.87401
# Shear Modulus (GPa) = 10.87588 19.49509 15.18549
#
# Velocity S-wave (km/s) = 2.34416 3.13847 2.76994
# Velocity P-wave (km/s) = 4.82882 5.95102 5.41905
#
# Compressibility (1/GPa) = 0.03159673
#
# Stress axis : x y z
#
# Youngs Moduli (GPa) = 52.31925 32.98775 63.10269
#
# Poissons Ratio (x) = 0.00936 0.37831
# Poissons Ratio (y) = 0.01484 0.66638
# Poissons Ratio (z) = 0.31366 0.34836
#
# Static dielectric constant tensor:
#      x y z
#    x 1.720850 0.000000 0.019200 
#    y 0.000000 1.690200 0.000000 
#    z 0.019200 0.000000 1.724720 
# 
# From -- ./inp_files/80249.got.cif
#   From: 2010.05.17/outbox.cif.g08.bks.cpg/sg10_41_cif.got.tgz:80249.got - 2010.06.03 11:33:40.
