data_PCOD9151577
_publ_section_title
;
Structure prediction by ZEFSAII (Michael W. Deem and Ramdas Pophale) SiO2 
 PCOD9151577
Probable space group: P 2/M
;
_chemical_formula_sum "Si O2"
_cell_formula_units_Z 28
_cell_length_a 12.058872
_cell_length_b 15.364910
_cell_length_c 8.716803
_cell_angle_alpha 90.000000
_cell_angle_beta 63.586692
_cell_angle_gamma 90.000000
_cell_volume 1446.478974
_symmetry_space_group_name_H-M "P 2/M"
_symmetry_group_IT_number 10
_symmetry_cell_setting 'monoclinic'
loop_
_space_group_symop_operation_xyz
x,y,z
-x,y,-z
-x,-y,-z
x,-y,z
loop_
_atom_site_type_symbol
_atom_site_label
_atom_site_fract_x
_atom_site_fract_y
_atom_site_fract_z
Si Si1 0.804094 0.335771 0.494365
Si Si2 0.204168 0.749722 0.186717
Si Si3 0.660649 0.500000 0.579084
Si Si4 0.418828 0.772153 0.406600
Si Si5 0.361363 0.500000 0.763544
Si Si6 0.963981 0.600859 0.844285
Si Si7 0.421245 0.350918 0.915970
Si Si8 0.635917 0.897227 0.836683
O O1 0.840157 0.275749 0.615321
O O2 0.724403 0.416091 0.609607
O O3 0.703422 0.279729 0.462092
O O4 0.915433 0.376894 0.332645
O O5 0.119336 0.687543 0.134046
O O6 0.243088 0.851444 0.158027
O O7 0.340838 0.713343 0.067452
O O8 0.512495 0.500000 0.674534
O O9 0.686511 0.500000 0.379014
O O10 0.500000 0.800844 0.500000
O O11 0.499475 0.703260 0.256621
O O12 0.379042 0.849031 0.317897
O O13 0.332021 0.414613 0.876557
O O14 0.922772 0.500000 0.829219
O O15 0.000000 0.598261 0.000000
O O16 0.500000 0.398703 0.000000
O O17 0.655493 0.000000 0.811604
O O18 0.500000 0.885048 0.000000
#
# Coordination Sequence:
#
# PCOD9151577 Si02
#       8
#     4   4   2   4   2   4   4   4
#     4  11  22  38  57  78 116 160 206 244 284 339
#     4  11  23  39  61  85 117 154 201 248 292 356
#     4  11  20  34  49  79 114 159 203 238 283 353
#     4  11  21  35  61  91 125 156 191 247 301 361
#     4  11  23  28  49  80 123 161 189 240 303 337
#     4  11  27  42  58  83 119 167 211 251 292 342
#     4  12  20  36  52  86 117 155 197 236 292 363
#     4  10  20  40  66  93 123 154 190 241 307 373
#
# _framework density 19.357351000000001
#
# number of rings (size 3 to 8) (size 9 to 14) (size 15 to 20)
#    0.000    1.000    6.429    1.500    6.000    0.857 
#    0.000    0.000    0.000    7.286    0.000    0.000 
#    0.000    0.000    0.000    0.000    0.000    0.000 
#
# Total GULP energy -155987.373861 kJ/mol
# GULP energy per Si atom -5570.977638 kJ/mol
# Density = 1.931329 g / cm^3
# Si number density = 19.357351 Si / 1000 Ang^3
#
#
#
# Elastic Constant Matrix: (Units=GPa)
#
#
# Indices 1 2 3 4 5 6 
#
# 1 60.5073 38.9359 7.2656 0.0000 1.8460 0.0000
# 2 38.9359 139.3783 21.9707 0.0000 -6.2079 0.0000
# 3 7.2656 21.9707 64.3896 0.0000 -1.8555 0.0000
# 4 0.0000 0.0000 0.0000 21.3573 0.0000 -2.9283
# 5 1.8460 -6.2079 -1.8555 0.0000 29.2973 0.0000
# 6 0.0000 0.0000 0.0000 -2.9283 0.0000 24.7504
#
#
#
# Elastic Compliance Matrix: (Units=1/GPa)
#
#
# Indices 1 2 3 4 5 6 
#
# 1 0.020340 -0.005729 -0.000413 0.000000 -0.002522 0.000000
# 2 -0.005729 0.009258 -0.002450 0.000000 0.002168 0.000000
# 3 -0.000413 -0.002450 0.016429 0.000000 0.000547 0.000000
# 4 0.000000 0.000000 0.000000 0.047594 0.000000 0.005631
# 5 -0.002522 0.002168 0.000547 0.000000 0.034786 0.000000
# 6 0.000000 0.000000 0.000000 0.005631 0.000000 0.041070
#
#
# Mechanical properties :
#
#
# Convention : Reuss Voigt Hill
#
# Bulk Modulus (GPa) = 34.67107 44.51329 39.59218
# Shear Modulus (GPa) = 25.47439 28.15453 26.81446
#
# Velocity S-wave (km/s) = 3.63162 3.81788 3.72591
# Velocity P-wave (km/s) = 5.96111 6.51770 6.24561
#
# Compressibility (1/GPa) = 0.02884249
#
# Stress axis : x y z
#
# Youngs Moduli (GPa) = 49.16366 108.01498 60.86875
#
# Poissons Ratio (x) = 0.61886 0.02513
# Poissons Ratio (y) = 0.28168 0.14913
# Poissons Ratio (z) = 0.02030 0.26464
#
# Static dielectric constant tensor:
#      x y z
#    x 1.740790 0.000000 -0.025360 
#    y 0.000000 1.686850 0.000000 
#    z -0.025360 0.000000 1.700340 
# 
# From -- ./inp_files/24978.got.cif
#   From: 2010.05.17/outbox.cif.g08.bks.cpg/sg10_13_cif.got.tgz:24978.got - 2010.06.03 11:33:40.
