data_PCOD9151907
_publ_section_title
;
Structure prediction by ZEFSAII (Michael W. Deem and Ramdas Pophale) SiO2 
 PCOD9151907
Probable space group: P 2/M
;
_chemical_formula_sum "Si O2"
_cell_formula_units_Z 30
_cell_length_a 11.302117
_cell_length_b 18.619828
_cell_length_c 14.850010
_cell_angle_alpha 90.000000
_cell_angle_beta 29.559666
_cell_angle_gamma 90.000000
_cell_volume 1541.698434
_symmetry_space_group_name_H-M "P 2/M"
_symmetry_group_IT_number 10
_symmetry_cell_setting 'monoclinic'
loop_
_space_group_symop_operation_xyz
x,y,z
-x,y,-z
-x,-y,-z
x,-y,z
loop_
_atom_site_type_symbol
_atom_site_label
_atom_site_fract_x
_atom_site_fract_y
_atom_site_fract_z
Si Si1 0.203194 0.920105 0.942905
Si Si2 0.412181 0.584850 0.462454
Si Si3 0.713877 0.273306 0.679256
Si Si4 0.473159 0.183784 0.366285
Si Si5 0.561210 0.581971 0.172886
Si Si6 0.500000 0.725064 0.000000
Si Si7 0.889726 0.201165 0.230833
Si Si8 0.927708 0.347867 0.811304
O O1 0.442856 0.889484 0.737604
O O2 0.234217 0.000000 0.961001
O O3 0.000000 0.925589 0.000000
O O4 0.092013 0.858665 0.079998
O O5 0.500000 0.614362 0.500000
O O6 0.370657 0.500000 0.500741
O O7 0.587998 0.593978 0.262275
O O8 0.161449 0.622408 0.608376
O O9 0.619515 0.236731 0.650123
O O10 0.619178 0.355762 0.740692
O O11 0.583187 0.237085 0.852775
O O12 0.000000 0.268554 0.500000
O O13 0.712675 0.208290 0.261952
O O14 0.272054 0.178448 0.576442
O O15 0.476227 0.500000 0.215978
O O16 0.807375 0.594528 0.956959
O O17 0.271870 0.676684 0.126537
O O18 0.004564 0.277609 0.176604
#
# Coordination Sequence:
#
# PCOD9151907 Si02
#       8
#     4   4   4   4   4   2   4   4
#     4   9  18  34  55  84 123 156 182 220 275 341
#     4  10  22  38  55  79 112 149 189 234 292 351
#     4  11  22  38  59  81 113 149 195 244 289 343
#     4  10  21  36  58  89 116 147 190 235 283 337
#     4  10  22  38  55  80 109 146 193 239 293 347
#     4  10  22  38  53  82 107 146 192 232 292 344
#     4  10  21  35  58  90 117 148 189 232 286 340
#     4  11  22  38  60  81 114 148 190 244 290 342
#
# _framework density 19.459057999999999
#
# number of rings (size 3 to 8) (size 9 to 14) (size 15 to 20)
#    0.000    1.867    0.000    4.400    3.733    1.333 
#    2.400   14.333    0.000    0.400    0.000   12.133 
#    0.000    0.000    0.000    0.000    0.000    0.000 
#
# Total GULP energy -167400.422747 kJ/mol
# GULP energy per Si atom -5580.014092 kJ/mol
# Density = 1.941477 g / cm^3
# Si number density = 19.459058 Si / 1000 Ang^3
#
#
#
# Elastic Constant Matrix: (Units=GPa)
#
#
# Indices 1 2 3 4 5 6 
#
# 1 75.1537 23.4844 30.7678 0.0000 11.0375 0.0000
# 2 23.4844 81.0301 13.8753 0.0000 1.4490 0.0000
# 3 30.7678 13.8753 76.7076 0.0000 14.4519 0.0000
# 4 0.0000 0.0000 0.0000 13.4707 0.0000 -0.9244
# 5 11.0375 1.4490 14.4519 0.0000 27.8363 0.0000
# 6 0.0000 0.0000 0.0000 -0.9244 0.0000 4.8802
#
#
#
# Elastic Compliance Matrix: (Units=1/GPa)
#
#
# Indices 1 2 3 4 5 6 
#
# 1 0.017387 -0.004024 -0.005527 0.000000 -0.003815 0.000000
# 2 -0.004024 0.013676 -0.001137 0.000000 0.001474 0.000000
# 3 -0.005527 -0.001137 0.016665 0.000000 -0.006401 0.000000
# 4 0.000000 0.000000 0.000000 0.075213 0.000000 0.014247
# 5 -0.003815 0.001474 -0.006401 0.000000 0.040684 0.000000
# 6 0.000000 0.000000 0.000000 0.014247 0.000000 0.207608
#
#
# Mechanical properties :
#
#
# Convention : Reuss Voigt Hill
#
# Bulk Modulus (GPa) = 37.95064 41.01627 39.48345
# Shear Modulus (GPa) = 12.45659 20.22170 16.33915
#
# Velocity S-wave (km/s) = 2.53285 3.22715 2.90085
# Velocity P-wave (km/s) = 5.30084 5.91692 5.61734
#
# Compressibility (1/GPa) = 0.02635002
#
# Stress axis : x y z
#
# Youngs Moduli (GPa) = 57.51512 73.12161 60.00514
#
# Poissons Ratio (x) = 0.29427 0.33166
# Poissons Ratio (y) = 0.23146 0.06825
# Poissons Ratio (z) = 0.31790 0.08316
#
# Static dielectric constant tensor:
#      x y z
#    x 1.705210 0.000000 0.032940 
#    y 0.000000 1.672340 0.000000 
#    z 0.032940 0.000000 1.699240 
# 
# From -- ./inp_files/65328.got.cif
#   From: 2010.05.17/outbox.cif.g08.bks.cpg/sg10_33_cif.got.tgz:65328.got - 2010.06.03 11:33:40.
