data_PCOD9151862
_publ_section_title
;
Structure prediction by ZEFSAII (Michael W. Deem and Ramdas Pophale) SiO2 
 PCOD9151862
Probable space group: P 2/M
;
_chemical_formula_sum "Si O2"
_cell_formula_units_Z 20
_cell_length_a 10.856426
_cell_length_b 15.050297
_cell_length_c 7.598471
_cell_angle_alpha 90.000000
_cell_angle_beta 54.031843
_cell_angle_gamma 90.000000
_cell_volume 1004.826457
_symmetry_space_group_name_H-M "P 2/M"
_symmetry_group_IT_number 10
_symmetry_cell_setting 'monoclinic'
loop_
_space_group_symop_operation_xyz
x,y,z
-x,y,-z
-x,-y,-z
x,-y,z
loop_
_atom_site_type_symbol
_atom_site_label
_atom_site_fract_x
_atom_site_fract_y
_atom_site_fract_z
Si Si1 0.122804 0.347621 0.024557
Si Si2 0.135227 0.893918 0.595382
Si Si3 0.645880 0.105835 0.273684
Si Si4 0.934107 0.500000 0.363782
Si Si5 0.680906 0.500000 0.330611
Si Si6 0.798658 0.180767 0.824951
O O1 0.185423 0.281292 0.119519
O O2 0.008389 0.415947 0.209771
O O3 0.250542 0.411189 0.825108
O O4 0.000000 0.298397 0.000000
O O5 0.211466 0.874485 0.718859
O O6 0.215675 0.838678 0.370197
O O7 0.957996 0.868732 0.738151
O O8 0.152705 0.000000 0.547032
O O9 0.500000 0.141685 0.500000
O O10 0.631514 0.000000 0.273915
O O11 0.669751 0.140995 0.058420
O O12 0.757899 0.500000 0.460223
O O13 0.000000 0.500000 0.500000
O O14 0.500000 0.500000 0.500000
#
# Coordination Sequence:
#
# PCOD9151862 Si02
#       6
#     4   4   4   2   2   4
#     4   9  19  35  55  82 109 142 181 220 279 341
#     4  10  21  35  55  82 111 147 191 240 283 323
#     4  10  21  36  54  76 109 154 192 226 282 342
#     4   9  19  35  60  84 108 143 177 225 280 336
#     4   9  19  39  62  82 112 149 185 225 280 348
#     4  11  20  34  57  83 112 141 187 238 277 328
#
# _framework density 19.903932000000001
#
# number of rings (size 3 to 8) (size 9 to 14) (size 15 to 20)
#    0.000    2.200    0.000    5.400    2.800    3.200 
#    0.000    5.000    4.400    0.000    0.000    0.000 
#    0.000    0.000    0.000    0.000    0.000    0.000 
#
# Total GULP energy -111451.638987 kJ/mol
# GULP energy per Si atom -5572.581949 kJ/mol
# Density = 1.985863 g / cm^3
# Si number density = 19.903932 Si / 1000 Ang^3
#
#
#
# Elastic Constant Matrix: (Units=GPa)
#
#
# Indices 1 2 3 4 5 6 
#
# 1 50.2648 11.7465 17.5404 0.0000 -7.1330 0.0000
# 2 11.7465 78.2965 16.8300 0.0000 1.5699 0.0000
# 3 17.5404 16.8300 102.3918 0.0000 -8.3498 0.0000
# 4 0.0000 0.0000 0.0000 22.5580 0.0000 27.0285
# 5 -7.1330 1.5699 -8.3498 0.0000 31.3578 0.0000
# 6 0.0000 0.0000 0.0000 27.0285 0.0000 -2.1091
#
#
#
# Elastic Compliance Matrix: (Units=1/GPa)
#
#
# Indices 1 2 3 4 5 6 
#
# 1 0.022211 -0.002778 -0.002990 0.000000 0.004395 0.000000
# 2 -0.002778 0.013637 -0.001914 0.000000 -0.001824 0.000000
# 3 -0.002990 -0.001914 0.010780 0.000000 0.002286 0.000000
# 4 0.000000 0.000000 0.000000 0.002710 0.000000 0.034736
# 5 0.004395 -0.001824 0.002286 0.000000 0.033590 0.000000
# 6 0.000000 0.000000 0.000000 0.034736 0.000000 -0.028991
#
#
# Mechanical properties :
#
#
# Convention : Reuss Voigt Hill
#
# Bulk Modulus (GPa) = 31.98626 35.90967 33.94796
# Shear Modulus (GPa) = 62.71802 22.68377 42.70090
#
# Velocity S-wave (km/s) = 5.61950 3.37955 4.63682
# Velocity P-wave (km/s) = 7.62956 5.77141 6.76459
#
# Compressibility (1/GPa) = 0.03126343
#
# Stress axis : x y z
#
# Youngs Moduli (GPa) = 45.02312 73.33119 92.76716
#
# Poissons Ratio (x) = 0.20369 0.27736
# Poissons Ratio (y) = 0.12506 0.17759
# Poissons Ratio (z) = 0.13461 0.14039
#
# Static dielectric constant tensor:
#      x y z
#    x 1.839890 0.000000 0.077020 
#    y 0.000000 1.721660 0.000000 
#    z 0.077020 0.000000 1.745270 
# 
# From -- ./inp_files/24533.got.cif
#   From: 2010.05.17/outbox.cif.g08.bks.cpg/sg10_13_cif.got.tgz:24533.got - 2010.06.03 11:33:40.
