data_PCOD9151869
_publ_section_title
;
Structure prediction by ZEFSAII (Michael W. Deem and Ramdas Pophale) SiO2 
 PCOD9151869
Probable space group: P 2/M
;
_chemical_formula_sum "Si O2"
_cell_formula_units_Z 30
_cell_length_a 12.085510
_cell_length_b 15.873387
_cell_length_c 8.835530
_cell_angle_alpha 90.000000
_cell_angle_beta 66.231818
_cell_angle_gamma 90.000000
_cell_volume 1551.227283
_symmetry_space_group_name_H-M "P 2/M"
_symmetry_group_IT_number 10
_symmetry_cell_setting 'monoclinic'
loop_
_space_group_symop_operation_xyz
x,y,z
-x,y,-z
-x,-y,-z
x,-y,z
loop_
_atom_site_type_symbol
_atom_site_label
_atom_site_fract_x
_atom_site_fract_y
_atom_site_fract_z
Si Si1 0.576399 0.591939 0.199782
Si Si2 0.065396 0.098501 0.120430
Si Si3 0.747877 0.246547 0.626901
Si Si4 0.635495 0.745306 0.385504
Si Si5 0.298408 0.094425 0.810651
Si Si6 0.000000 0.160876 0.500000
Si Si7 0.561937 0.904826 0.803401
Si Si8 0.313265 0.591902 0.189891
O O1 0.588248 0.500000 0.270050
O O2 0.616396 0.670908 0.276597
O O3 0.439430 0.599128 0.213358
O O4 0.653867 0.590637 0.004377
O O5 0.032175 0.122419 0.312669
O O6 0.037387 0.000000 0.132081
O O7 0.209273 0.108020 0.003196
O O8 0.000000 0.133708 0.000000
O O9 0.697464 0.287590 0.501844
O O10 0.879081 0.210564 0.530832
O O11 0.655548 0.169844 0.717882
O O12 0.754917 0.321767 0.742328
O O13 0.500000 0.774316 0.500000
O O14 0.714046 0.825359 0.289753
O O15 0.441135 0.095310 0.768121
O O16 0.269434 0.000000 0.766867
O O17 0.615950 0.000000 0.766158
O O18 0.500000 0.892449 0.000000
O O19 0.259062 0.500000 0.258767
#
# Coordination Sequence:
#
# PCOD9151869 Si02
#       8
#     4   4   4   4   4   2   4   4
#     4   9  19  35  60  93 125 157 195 248 320 391
#     4  10  22  43  67  89 122 172 226 274 316 369
#     4  12  25  39  59  90 123 163 207 256 318 373
#     4  12  22  35  58  94 128 158 199 254 320 378
#     4  10  21  37  57  85 123 166 204 250 310 370
#     4  12  27  42  61  92 128 170 222 264 316 382
#     4  10  21  35  55  85 119 156 199 248 307 365
#     4   9  19  37  61  89 122 160 200 250 316 384
#
# _framework density 19.339525999999999
#
# number of rings (size 3 to 8) (size 9 to 14) (size 15 to 20)
#    0.000    1.600    2.667    2.600    5.600    3.733 
#    0.000    0.333    0.000    0.000    0.000    1.867 
#    0.000    0.000    0.000    0.000    0.000    0.000 
#
# Total GULP energy -167015.338634 kJ/mol
# GULP energy per Si atom -5567.177954 kJ/mol
# Density = 1.929551 g / cm^3
# Si number density = 19.339526 Si / 1000 Ang^3
#
#
#
# Elastic Constant Matrix: (Units=GPa)
#
#
# Indices 1 2 3 4 5 6 
#
# 1 58.7519 20.2430 26.8822 0.0000 -6.8120 0.0000
# 2 20.2430 117.3015 68.4525 0.0000 -12.7586 0.0000
# 3 26.8822 68.4525 100.3638 0.0000 0.7306 0.0000
# 4 0.0000 0.0000 0.0000 21.8904 0.0000 -2.4578
# 5 -6.8120 -12.7586 0.7306 0.0000 30.0269 0.0000
# 6 0.0000 0.0000 0.0000 -2.4578 0.0000 8.0695
#
#
#
# Elastic Compliance Matrix: (Units=1/GPa)
#
#
# Indices 1 2 3 4 5 6 
#
# 1 0.020042 0.000367 -0.005654 0.000000 0.004840 0.000000
# 2 0.000367 0.015448 -0.010685 0.000000 0.006907 0.000000
# 3 -0.005654 -0.010685 0.018812 0.000000 -0.006281 0.000000
# 4 0.000000 0.000000 0.000000 0.047300 0.000000 0.014406
# 5 0.004840 0.006907 -0.006281 0.000000 0.037489 0.000000
# 6 0.000000 0.000000 0.000000 0.014406 0.000000 0.128311
#
#
# Mechanical properties :
#
#
# Convention : Reuss Voigt Hill
#
# Bulk Modulus (GPa) = 44.72558 56.39696 50.56127
# Shear Modulus (GPa) = 16.29733 22.71999 19.50866
#
# Velocity S-wave (km/s) = 2.90607 3.43125 3.17952
# Velocity P-wave (km/s) = 5.86831 6.70244 6.29920
#
# Compressibility (1/GPa) = 0.02235857
#
# Stress axis : x y z
#
# Youngs Moduli (GPa) = 49.89409 64.73164 53.15869
#
# Poissons Ratio (x) = -0.02377 0.30056
# Poissons Ratio (y) = -0.01832 0.56801
# Poissons Ratio (z) = 0.28210 0.69166
#
# Static dielectric constant tensor:
#      x y z
#    x 1.667230 0.000000 -0.009540 
#    y 0.000000 1.704920 0.000000 
#    z -0.009540 0.000000 1.659470 
# 
# From -- ./inp_files/25283.got.cif
#   From: 2010.05.17/outbox.cif.g08.bks.cpg/sg10_13_cif.got.tgz:25283.got - 2010.06.03 11:33:40.
