data_PCOD9151603
_publ_section_title
;
Structure prediction by ZEFSAII (Michael W. Deem and Ramdas Pophale) SiO2 
 PCOD9151603
Probable space group: P 2/M
;
_chemical_formula_sum "Si O2"
_cell_formula_units_Z 28
_cell_length_a 20.009647
_cell_length_b 9.059215
_cell_length_c 14.885821
_cell_angle_alpha 90.000000
_cell_angle_beta 32.146996
_cell_angle_gamma 90.000000
_cell_volume 1435.788688
_symmetry_space_group_name_H-M "P 2/M"
_symmetry_group_IT_number 10
_symmetry_cell_setting 'monoclinic'
loop_
_space_group_symop_operation_xyz
x,y,z
-x,y,-z
-x,-y,-z
x,-y,z
loop_
_atom_site_type_symbol
_atom_site_label
_atom_site_fract_x
_atom_site_fract_y
_atom_site_fract_z
Si Si1 0.932920 0.828911 0.803803
Si Si2 0.472476 0.167018 0.638048
Si Si3 0.726642 0.675783 0.383037
Si Si4 0.858906 0.822618 0.691458
Si Si5 0.781646 0.171767 0.499938
Si Si6 0.355772 0.676947 0.185924
Si Si7 0.221437 0.674958 0.881591
O O1 0.855945 0.792863 0.801593
O O2 0.080240 0.818045 0.613768
O O3 0.908509 0.000000 0.856155
O O4 0.898364 0.726271 0.926407
O O5 0.500000 0.158610 0.500000
O O6 0.582388 0.269159 0.550909
O O7 0.337064 0.241147 0.797269
O O8 0.475701 0.000000 0.670620
O O9 0.734742 0.500000 0.385055
O O10 0.792462 0.761139 0.388529
O O11 0.778398 0.713538 0.224545
O O12 0.746049 0.744722 0.767303
O O13 0.000000 0.778279 0.500000
O O14 0.849372 0.000000 0.688425
O O15 0.684529 0.261218 0.671074
O O16 0.746340 0.000000 0.535751
O O17 0.346200 0.500000 0.195451
O O18 0.500000 0.717807 0.000000
O O19 0.240494 0.500000 0.865146
#
# Coordination Sequence:
#
# PCOD9151603 Si02
#       7
#     4   4   4   4   4   4   4
#     4  10  22  39  61  88 119 156 204 257 304 364
#     4   9  17  32  55  80 108 148 198 246 295 355
#     4  10  21  37  57  84 121 162 201 249 306 363
#     4  10  20  41  68  92 120 157 205 256 308 369
#     4  11  23  41  63  87 118 161 206 252 309 368
#     4  11  25  43  64  95 131 163 202 256 314 378
#     4  10  21  36  56  85 122 160 200 250 305 360
#
# _framework density 19.501477000000001
#
# number of rings (size 3 to 8) (size 9 to 14) (size 15 to 20)
#    0.000    1.857    1.429    2.143    0.000    8.286 
#    0.000    5.714    0.000    0.000    0.000    0.000 
#    0.000    0.000    0.000    0.000    0.000    0.000 
#
# Total GULP energy -156320.311691 kJ/mol
# GULP energy per Si atom -5582.868275 kJ/mol
# Density = 1.945709 g / cm^3
# Si number density = 19.501477 Si / 1000 Ang^3
#
#
#
# Elastic Constant Matrix: (Units=GPa)
#
#
# Indices 1 2 3 4 5 6 
#
# 1 89.2297 37.6226 31.9433 0.0000 -0.8272 0.0000
# 2 37.6226 66.0327 44.1900 0.0000 3.9619 0.0000
# 3 31.9433 44.1900 102.2818 0.0000 1.4494 0.0000
# 4 0.0000 0.0000 0.0000 33.5682 0.0000 -1.8532
# 5 -0.8272 3.9619 1.4494 0.0000 24.3597 0.0000
# 6 0.0000 0.0000 0.0000 -1.8532 0.0000 33.4319
#
#
#
# Elastic Compliance Matrix: (Units=1/GPa)
#
#
# Indices 1 2 3 4 5 6 
#
# 1 0.014971 -0.007729 -0.001363 0.000000 0.001846 0.000000
# 2 -0.007729 0.025503 -0.008549 0.000000 -0.003902 0.000000
# 3 -0.001363 -0.008549 0.013889 0.000000 0.000518 0.000000
# 4 0.000000 0.000000 0.000000 0.029882 0.000000 0.001656
# 5 0.001846 -0.003902 0.000518 0.000000 0.041718 0.000000
# 6 0.000000 0.000000 0.000000 0.001656 0.000000 0.030003
#
#
# Mechanical properties :
#
#
# Convention : Reuss Voigt Hill
#
# Bulk Modulus (GPa) = 52.40710 53.89508 53.15109
# Shear Modulus (GPa) = 25.30286 27.85786 26.58036
#
# Velocity S-wave (km/s) = 3.60597 3.78365 3.69588
# Velocity P-wave (km/s) = 6.65350 6.83991 6.74735
#
# Compressibility (1/GPa) = 0.01908138
#
# Stress axis : x y z
#
# Youngs Moduli (GPa) = 66.79780 39.21134 72.00065
#
# Poissons Ratio (x) = 0.30305 0.09810
# Poissons Ratio (y) = 0.51625 0.61556
# Poissons Ratio (z) = 0.09101 0.33523
#
# Static dielectric constant tensor:
#      x y z
#    x 1.696300 0.000000 -0.008310 
#    y 0.000000 1.651740 0.000000 
#    z -0.008310 0.000000 1.691240 
# 
# From -- ./inp_files/70168.got.cif
#   From: 2010.05.17/outbox.cif.g08.bks.cpg/sg10_36_cif.got.tgz:70168.got - 2010.06.03 11:33:40.
