data_PCOD9151820
_publ_section_title
;
Structure prediction by ZEFSAII (Michael W. Deem and Ramdas Pophale) SiO2 
 PCOD9151820
Probable space group: P 2/M
;
_chemical_formula_sum "Si O2"
_cell_formula_units_Z 28
_cell_length_a 29.547266
_cell_length_b 9.128135
_cell_length_c 9.309759
_cell_angle_alpha 90.000000
_cell_angle_beta 38.335292
_cell_angle_gamma 90.000000
_cell_volume 1557.446670
_symmetry_space_group_name_H-M "P 2/M"
_symmetry_group_IT_number 10
_symmetry_cell_setting 'monoclinic'
loop_
_space_group_symop_operation_xyz
x,y,z
-x,y,-z
-x,-y,-z
x,-y,z
loop_
_atom_site_type_symbol
_atom_site_label
_atom_site_fract_x
_atom_site_fract_y
_atom_site_fract_z
Si Si1 0.491552 0.825506 0.188884
Si Si2 0.778212 0.175356 0.471361
Si Si3 0.361322 0.325432 0.684714
Si Si4 0.933586 0.172946 0.771716
Si Si5 0.928863 0.674873 0.087249
Si Si6 0.637300 0.174891 0.010169
Si Si7 0.768343 0.173390 0.157405
O O1 0.427224 0.737282 0.424623
O O2 0.566879 0.799199 0.085835
O O3 0.475207 0.000000 0.238446
O O4 0.500000 0.788620 0.000000
O O5 0.853216 0.253547 0.327564
O O6 0.762115 0.208465 0.343301
O O7 0.788598 0.000000 0.453239
O O8 0.710073 0.215011 0.740677
O O9 0.362885 0.500000 0.684006
O O10 0.368178 0.260489 0.827544
O O11 0.286959 0.266647 0.798303
O O12 0.000000 0.202063 0.500000
O O13 0.064584 0.000000 0.192732
O O14 0.939513 0.268961 0.898958
O O15 0.853134 0.198125 0.906626
O O16 0.922314 0.500000 0.107926
O O17 0.000000 0.719206 0.000000
O O18 0.640164 0.000000 0.032795
O O19 0.752114 0.000000 0.180458
#
# Coordination Sequence:
#
# PCOD9151820 Si02
#       7
#     4   4   4   4   4   4   4
#     4  10  21  40  65  86 106 139 183 227 271 321
#     4   9  19  37  61  84 104 136 186 235 274 318
#     4  12  25  37  53  82 118 150 180 218 266 322
#     4   9  19  36  58  82 106 138 185 236 277 317
#     4  10  21  35  52  79 115 150 181 218 271 333
#     4  10  21  38  60  84 110 142 180 225 275 321
#     4   9  18  36  59  81 107 140 183 230 274 324
#
# _framework density 17.978144
#
# number of rings (size 3 to 8) (size 9 to 14) (size 15 to 20)
#    0.000    2.143    0.000    3.857    0.000   10.286 
#    0.000    5.714    0.000    0.000    0.000    0.000 
#    0.000    0.000    0.000    0.000    0.000    0.000 
#
# Total GULP energy -156363.193602 kJ/mol
# GULP energy per Si atom -5584.399771 kJ/mol
# Density = 1.793722 g / cm^3
# Si number density = 17.978144 Si / 1000 Ang^3
#
#
#
# Elastic Constant Matrix: (Units=GPa)
#
#
# Indices 1 2 3 4 5 6 
#
# 1 143.0060 77.3847 82.0940 0.0000 -9.6007 0.0000
# 2 77.3847 63.1209 70.1940 0.0000 -5.5278 0.0000
# 3 82.0940 70.1940 152.1092 0.0000 -4.5611 0.0000
# 4 0.0000 0.0000 0.0000 9.9478 0.0000 -5.8347
# 5 -9.6007 -5.5278 -4.5611 0.0000 20.9117 0.0000
# 6 0.0000 0.0000 0.0000 -5.8347 0.0000 -3.2044
#
#
#
# Elastic Compliance Matrix: (Units=1/GPa)
#
#
# Indices 1 2 3 4 5 6 
#
# 1 0.021029 -0.026717 0.001065 0.000000 0.002824 0.000000
# 2 -0.026717 0.067096 -0.016487 0.000000 0.001874 0.000000
# 3 0.001065 -0.016487 0.013581 0.000000 -0.000907 0.000000
# 4 0.000000 0.000000 0.000000 0.048610 0.000000 -0.088511
# 5 0.002824 0.001874 -0.000907 0.000000 0.049414 0.000000
# 6 0.000000 0.000000 0.000000 -0.088511 0.000000 -0.150904
#
#
# Mechanical properties :
#
#
# Convention : Reuss Voigt Hill
#
# Bulk Modulus (GPa) = 57.38594 90.84241 74.11417
# Shear Modulus (GPa) = 35.99350 14.10191 25.04770
#
# Velocity S-wave (km/s) = 4.47930 2.80374 3.73665
# Velocity P-wave (km/s) = 7.66429 7.81795 7.74150
#
# Compressibility (1/GPa) = 0.01742587
#
# Stress axis : x y z
#
# Youngs Moduli (GPa) = 47.55445 14.90396 73.63288
#
# Poissons Ratio (x) = 0.39819 -0.07840
# Poissons Ratio (y) = 1.27052 1.21402
# Poissons Ratio (z) = -0.05063 0.24573
#
# Static dielectric constant tensor:
#      x y z
#    x 1.593970 0.000000 -0.009380 
#    y 0.000000 1.594710 0.000000 
#    z -0.009380 0.000000 1.604220 
# 
# From -- ./inp_files/36925.got.cif
#   From: 2010.05.17/outbox.cif.g08.bks.cpg/sg10_19_cif.got.tgz:36925.got - 2010.06.03 11:33:40.
