data_PCOD9151856
_publ_section_title
;
Structure prediction by ZEFSAII (Michael W. Deem and Ramdas Pophale) SiO2 
 PCOD9151856
Probable space group: P 2/M
;
_chemical_formula_sum "Si O2"
_cell_formula_units_Z 28
_cell_length_a 14.341714
_cell_length_b 7.451304
_cell_length_c 17.701080
_cell_angle_alpha 90.000000
_cell_angle_beta 139.259282
_cell_angle_gamma 90.000000
_cell_volume 1234.538982
_symmetry_space_group_name_H-M "P 2/M"
_symmetry_group_IT_number 10
_symmetry_cell_setting 'monoclinic'
loop_
_space_group_symop_operation_xyz
x,y,z
-x,y,-z
-x,-y,-z
x,-y,z
loop_
_atom_site_type_symbol
_atom_site_label
_atom_site_fract_x
_atom_site_fract_y
_atom_site_fract_z
Si Si1 0.933318 0.219810 0.200544
Si Si2 0.523053 0.783136 0.428939
Si Si3 0.934599 0.794279 0.035803
Si Si4 0.613107 0.707315 0.809643
Si Si5 0.178736 0.780928 0.463350
Si Si6 0.692996 0.209202 0.306794
Si Si7 0.341598 0.219761 0.882301
O O1 0.972380 0.283981 0.140774
O O2 0.774817 0.273564 0.127706
O O3 0.041580 0.276938 0.332504
O O4 0.936064 0.000000 0.200063
O O5 0.500000 0.720052 0.500000
O O6 0.413485 0.723802 0.296730
O O7 0.679543 0.730246 0.495905
O O8 0.516887 0.000000 0.425709
O O9 0.987900 0.000000 0.070234
O O10 0.762711 0.794783 0.923673
O O11 0.000000 0.710738 0.000000
O O12 0.622837 0.500000 0.836295
O O13 0.470225 0.781431 0.762225
O O14 0.205504 0.715845 0.565079
O O15 0.175395 0.000000 0.464040
O O16 0.699641 0.283759 0.226803
O O17 0.730988 0.000000 0.323181
O O18 0.343129 0.000000 0.881692
O O19 0.500000 0.278622 0.000000
#
# Coordination Sequence:
#
# PCOD9151856 Si02
#       7
#     4   4   4   4   4   4   4
#     4   9  17  29  48  78 108 130 167 223 272 315
#     4   9  18  32  55  79 103 135 176 224 265 311
#     4  10  21  35  55  77 101 138 182 222 265 319
#     4  11  22  35  52  75 107 140 175 218 265 317
#     4   8  15  27  45  74 106 131 162 211 264 311
#     4   9  17  32  53  76 103 135 174 214 262 320
#     4   9  16  26  46  75 105 136 170 217 269 314
#
# _framework density 22.680530000000001
#
# number of rings (size 3 to 8) (size 9 to 14) (size 15 to 20)
#    0.000    2.714    0.000    3.000    2.000    3.429 
#    0.000    2.857    0.000    4.714    0.000    4.000 
#    0.000    0.000    0.000    0.000    0.000    0.000 
#
# Total GULP energy -156375.127982 kJ/mol
# GULP energy per Si atom -5584.825999 kJ/mol
# Density = 2.262891 g / cm^3
# Si number density = 22.680530 Si / 1000 Ang^3
#
#
#
# Elastic Constant Matrix: (Units=GPa)
#
#
# Indices 1 2 3 4 5 6 
#
# 1 103.7404 0.4101 58.7356 0.0000 -38.2611 0.0000
# 2 0.4101 71.5107 0.2710 0.0000 -4.2246 0.0000
# 3 58.7356 0.2710 121.7935 0.0000 -16.5525 0.0000
# 4 0.0000 0.0000 0.0000 -35.3527 0.0000 -10.2573
# 5 -38.2611 -4.2246 -16.5525 0.0000 37.8517 0.0000
# 6 0.0000 0.0000 0.0000 -10.2573 0.0000 11.9109
#
#
#
# Elastic Compliance Matrix: (Units=1/GPa)
#
#
# Indices 1 2 3 4 5 6 
#
# 1 0.020197 0.000933 -0.007393 0.000000 0.017287 0.000000
# 2 0.000933 0.014124 -0.000148 0.000000 0.002455 0.000000
# 3 -0.007393 -0.000148 0.011438 0.000000 -0.002487 0.000000
# 4 0.000000 0.000000 0.000000 -0.022632 0.000000 -0.019490
# 5 0.017287 0.002455 -0.002487 0.000000 0.043079 0.000000
# 6 0.000000 0.000000 0.000000 -0.019490 0.000000 0.067173
#
#
# Mechanical properties :
#
#
# Convention : Reuss Voigt Hill
#
# Bulk Modulus (GPa) = 30.72688 46.20867 38.46777
# Shear Modulus (GPa) = 31.75766 18.72384 25.24075
#
# Velocity S-wave (km/s) = 3.74601 2.87635 3.33961
# Velocity P-wave (km/s) = 5.68218 5.60795 5.64519
#
# Compressibility (1/GPa) = 0.03254479
#
# Stress axis : x y z
#
# Youngs Moduli (GPa) = 49.51209 70.80062 87.42683
#
# Poissons Ratio (x) = -0.06609 0.64633
# Poissons Ratio (y) = -0.04622 0.01293
# Poissons Ratio (z) = 0.36604 0.01047
#
# Static dielectric constant tensor:
#      x y z
#    x 1.810980 0.000000 -0.026680 
#    y 0.000000 1.842840 0.000000 
#    z -0.026680 0.000000 1.820780 
# 
# From -- ./inp_files/77778.got.cif
#   From: 2010.05.17/outbox.cif.g08.bks.cpg/sg10_39_cif.got.tgz:77778.got - 2010.06.03 11:33:40.
