data_PCOD9151597
_publ_section_title
;
Structure prediction by ZEFSAII (Michael W. Deem and Ramdas Pophale) SiO2 
 PCOD9151597
Probable space group: P 2/M
;
_chemical_formula_sum "Si O2"
_cell_formula_units_Z 24
_cell_length_a 8.829999
_cell_length_b 16.128885
_cell_length_c 14.153752
_cell_angle_alpha 90.000000
_cell_angle_beta 138.686796
_cell_angle_gamma 90.000000
_cell_volume 1330.747050
_symmetry_space_group_name_H-M "P 2/M"
_symmetry_group_IT_number 10
_symmetry_cell_setting 'monoclinic'
loop_
_space_group_symop_operation_xyz
x,y,z
-x,y,-z
-x,-y,-z
x,-y,z
loop_
_atom_site_type_symbol
_atom_site_label
_atom_site_fract_x
_atom_site_fract_y
_atom_site_fract_z
Si Si1 0.289882 0.500000 0.329281
Si Si2 0.895301 0.754112 0.347494
Si Si3 0.767313 0.681193 0.652443
Si Si4 0.234137 0.904106 0.844798
Si Si5 0.969031 0.795478 0.094251
Si Si6 0.441579 0.336868 0.082591
Si Si7 0.727326 0.500000 0.890886
O O1 0.500000 0.500000 0.500000
O O2 0.162698 0.586964 0.287685
O O3 0.378246 0.500000 0.263585
O O4 0.821928 0.841650 0.266655
O O5 0.670245 0.696578 0.240151
O O6 0.000000 0.762648 0.500000
O O7 0.079652 0.713470 0.362440
O O8 0.500000 0.682534 0.500000
O O9 0.820972 0.741847 0.765189
O O10 0.082210 0.872708 0.861875
O O11 0.192390 0.000000 0.802570
O O12 0.500000 0.894732 0.000000
O O13 0.751806 0.733996 0.002861
O O14 0.000000 0.817452 0.000000
O O15 0.348359 0.418845 0.088506
O O16 0.500000 0.351079 0.000000
O O17 0.000000 0.500000 0.000000
#
# Coordination Sequence:
#
# PCOD9151597 Si02
#       7
#     2   4   4   4   4   4   2
#     4  10  22  38  54  78 121 160 203 238 295 352
#     4  11  24  39  64  90 121 161 205 254 305 367
#     4  10  22  38  58  84 120 166 204 248 302 360
#     4  10  20  41  66  92 123 155 198 255 313 372
#     4  11  21  37  64  88 122 159 202 252 300 368
#     4  12  22  43  60  91 121 163 212 255 307 358
#     4  12  27  38  62  92 123 165 208 265 308 352
#
# _framework density 18.034983
#
# number of rings (size 3 to 8) (size 9 to 14) (size 15 to 20)
#    0.000    1.167    5.000    2.750    7.000    1.333 
#    0.000    0.833    0.000    8.000    0.000    0.000 
#    0.000    0.000    0.000    0.000    0.000    0.000 
#
# Total GULP energy -134098.376793 kJ/mol
# GULP energy per Si atom -5587.432366 kJ/mol
# Density = 1.799393 g / cm^3
# Si number density = 18.034983 Si / 1000 Ang^3
#
#
#
# Elastic Constant Matrix: (Units=GPa)
#
#
# Indices 1 2 3 4 5 6 
#
# 1 81.0867 49.3648 43.3297 0.0000 -13.6902 0.0000
# 2 49.3648 136.3748 42.0695 0.0000 1.5035 0.0000
# 3 43.3297 42.0695 114.7916 0.0000 -8.3391 0.0000
# 4 0.0000 0.0000 0.0000 16.6758 0.0000 6.5563
# 5 -13.6902 1.5035 -8.3391 0.0000 40.0756 0.0000
# 6 0.0000 0.0000 0.0000 6.5563 0.0000 10.8599
#
#
#
# Elastic Compliance Matrix: (Units=1/GPa)
#
#
# Indices 1 2 3 4 5 6 
#
# 1 0.019262 -0.005551 -0.004816 0.000000 0.005786 0.000000
# 2 -0.005551 0.009903 -0.001725 0.000000 -0.002627 0.000000
# 3 -0.004816 -0.001725 0.011216 0.000000 0.000753 0.000000
# 4 0.000000 0.000000 0.000000 0.078631 0.000000 -0.047471
# 5 0.005786 -0.002627 0.000753 0.000000 0.027185 0.000000
# 6 0.000000 0.000000 0.000000 -0.047471 0.000000 0.120741
#
#
# Mechanical properties :
#
#
# Convention : Reuss Voigt Hill
#
# Bulk Modulus (GPa) = 61.73637 66.86458 64.30048
# Shear Modulus (GPa) = 16.86222 26.68820 21.77521
#
# Velocity S-wave (km/s) = 3.06105 3.85099 3.47852
# Velocity P-wave (km/s) = 6.84099 7.54513 7.20167
#
# Compressibility (1/GPa) = 0.01619791
#
# Stress axis : x y z
#
# Youngs Moduli (GPa) = 51.91543 100.97952 89.15593
#
# Poissons Ratio (x) = 0.56049 0.42939
# Poissons Ratio (y) = 0.28816 0.15379
# Poissons Ratio (z) = 0.25004 0.17419
#
# Static dielectric constant tensor:
#      x y z
#    x 1.605130 0.000000 -0.007440 
#    y 0.000000 1.610210 0.000000 
#    z -0.007440 0.000000 1.649650 
# 
# From -- ./inp_files/18945.got.cif
#   From: 2010.05.17/outbox.cif.g08.bks.cpg/sg10_10_cif.got.tgz:18945.got - 2010.06.03 11:33:40.
