data_PCOD9151219
_publ_section_title
;
Structure prediction by ZEFSAII (Michael W. Deem and Ramdas Pophale) SiO2 
 PCOD9151219
Probable space group: P 2/M
;
_chemical_formula_sum "Si O2"
_cell_formula_units_Z 20
_cell_length_a 12.823075
_cell_length_b 7.687964
_cell_length_c 29.217398
_cell_angle_alpha 90.000000
_cell_angle_beta 159.510930
_cell_angle_gamma 90.000000
_cell_volume 1008.204668
_symmetry_space_group_name_H-M "P 2/M"
_symmetry_group_IT_number 10
_symmetry_cell_setting 'monoclinic'
loop_
_space_group_symop_operation_xyz
x,y,z
-x,y,-z
-x,-y,-z
x,-y,z
loop_
_atom_site_type_symbol
_atom_site_label
_atom_site_fract_x
_atom_site_fract_y
_atom_site_fract_z
Si Si1 0.352015 0.500000 0.637815
Si Si2 0.753314 0.803533 0.572078
Si Si3 0.354343 0.500000 0.142396
Si Si4 0.734870 0.791162 0.058909
Si Si5 0.573144 0.788107 0.163097
Si Si6 0.420043 0.692455 0.351169
O O1 0.509022 0.500000 0.750917
O O2 0.455135 0.663924 0.648768
O O3 0.000000 0.500000 0.500000
O O4 0.500000 0.721416 0.500000
O O5 0.617554 0.808542 0.465366
O O6 0.086123 0.732361 0.707332
O O7 0.795856 0.000000 0.607939
O O8 0.460562 0.671853 0.158710
O O9 0.000000 0.500000 0.000000
O O10 0.073020 0.736461 0.207088
O O11 0.729363 0.000000 0.059297
O O12 0.500000 0.724177 0.000000
O O13 0.625058 0.745662 0.962935
O O14 0.565279 0.000000 0.167564
O O15 0.453697 0.500000 0.385904
#
# Coordination Sequence:
#
# PCOD9151219 Si02
#       6
#     2   4   2   4   4   4
#     4  10  22  40  57  80 115 154 192 250 306 338
#     4  10  20  38  61  88 125 160 190 235 297 360
#     4  12  24  42  65  82 119 160 200 262 312 338
#     4  10  20  38  60  85 123 159 188 235 296 357
#     4  10  23  40  62  92 120 157 205 245 297 364
#     4  10  22  36  57  88 114 154 197 240 288 355
#
# _framework density 19.837243999999998
#
# number of rings (size 3 to 8) (size 9 to 14) (size 15 to 20)
#    0.600    1.200    0.000    4.200    2.800    4.400 
#    3.600    2.000    0.000    5.400    0.000    0.000 
#    0.000    0.000    0.000    0.000    0.000    0.000 
#
# Total GULP energy -111535.958288 kJ/mol
# GULP energy per Si atom -5576.797914 kJ/mol
# Density = 1.979209 g / cm^3
# Si number density = 19.837244 Si / 1000 Ang^3
#
#
#
# Elastic Constant Matrix: (Units=GPa)
#
#
# Indices 1 2 3 4 5 6 
#
# 1 64.8727 16.8646 -21.2384 0.0000 6.5824 0.0000
# 2 16.8646 45.8674 -1.4913 0.0000 -5.0441 0.0000
# 3 -21.2384 -1.4913 74.2272 0.0000 18.0702 0.0000
# 4 0.0000 0.0000 0.0000 20.9826 0.0000 -12.3131
# 5 6.5824 -5.0441 18.0702 0.0000 36.0555 0.0000
# 6 0.0000 0.0000 0.0000 -12.3131 0.0000 20.5002
#
#
#
# Elastic Compliance Matrix: (Units=1/GPa)
#
#
# Indices 1 2 3 4 5 6 
#
# 1 0.021225 -0.008545 0.008127 0.000000 -0.009144 0.000000
# 2 -0.008545 0.025591 -0.003624 0.000000 0.006957 0.000000
# 3 0.008127 -0.003624 0.018462 0.000000 -0.011244 0.000000
# 4 0.000000 0.000000 0.000000 0.073601 0.000000 0.044207
# 5 -0.009144 0.006957 -0.011244 0.000000 0.036013 0.000000
# 6 0.000000 0.000000 0.000000 0.044207 0.000000 0.075332
#
#
# Mechanical properties :
#
#
# Convention : Reuss Voigt Hill
#
# Bulk Modulus (GPa) = 17.48472 19.24860 18.36666
# Shear Modulus (GPa) = 18.02630 28.22980 23.12805
#
# Velocity S-wave (km/s) = 3.01775 3.77645 3.41822
# Velocity P-wave (km/s) = 4.57992 5.36095 4.98575
#
# Compressibility (1/GPa) = 0.05719280
#
# Stress axis : x y z
#
# Youngs Moduli (GPa) = 47.11476 39.07605 54.16558
#
# Poissons Ratio (x) = 0.33392 -0.44022
# Poissons Ratio (y) = 0.40261 0.19632
# Poissons Ratio (z) = -0.38291 0.14163
#
# Static dielectric constant tensor:
#      x y z
#    x 1.674080 0.000000 -0.001620 
#    y 0.000000 1.721690 0.000000 
#    z -0.001620 0.000000 1.657970 
# 
# From -- ./inp_files/94908.got.cif
#   From: 2010.05.17/outbox.cif.g08.bks.cpg/sg10_48_cif.got.tgz:94908.got - 2010.06.03 11:33:40.
