data_PCOD9151924
_publ_section_title
;
Structure prediction by ZEFSAII (Michael W. Deem and Ramdas Pophale) SiO2 
 PCOD9151924
Probable space group: P 2/M
;
_chemical_formula_sum "Si O2"
_cell_formula_units_Z 24
_cell_length_a 6.664067
_cell_length_b 18.940026
_cell_length_c 7.445094
_cell_angle_alpha 90.000000
_cell_angle_beta 99.309398
_cell_angle_gamma 90.000000
_cell_volume 927.325283
_symmetry_space_group_name_H-M "P 2/M"
_symmetry_group_IT_number 10
_symmetry_cell_setting 'monoclinic'
loop_
_space_group_symop_operation_xyz
x,y,z
-x,y,-z
-x,-y,-z
x,-y,z
loop_
_atom_site_type_symbol
_atom_site_label
_atom_site_fract_x
_atom_site_fract_y
_atom_site_fract_z
Si Si1 0.195576 0.153796 0.154467
Si Si2 0.172808 0.309184 0.174208
Si Si3 0.483328 0.421458 0.786061
Si Si4 0.724309 0.849955 0.438226
Si Si5 0.726677 0.699032 0.432599
Si Si6 0.274558 0.000000 0.559125
Si Si7 0.800297 0.000000 0.849463
O O1 0.282047 0.233595 0.143053
O O2 0.141892 0.151347 0.359741
O O3 0.301832 0.077426 0.135125
O O4 0.000000 0.153774 0.000000
O O5 0.310423 0.378130 0.211967
O O6 0.117574 0.302301 0.376471
O O7 0.000000 0.318278 0.000000
O O8 0.470452 0.500000 0.704875
O O9 0.302504 0.369878 0.693711
O O10 0.500000 0.428636 0.000000
O O11 0.500000 0.850951 0.500000
O O12 0.739908 0.775716 0.340958
O O13 0.747479 0.925249 0.347576
O O14 0.500000 0.701434 0.500000
O O15 0.500000 0.000000 0.500000
O O16 0.144482 0.000000 0.355684
O O17 0.000000 0.000000 0.000000
#
# Coordination Sequence:
#
# PCOD9151924 Si02
#       7
#     4   4   4   4   4   2   2
#     4   8  13  21  35  59  90 118 144 178 217 254
#     4   9  17  30  50  75  98 119 150 192 230 265
#     4  10  21  36  51  67  89 119 153 187 230 286
#     4   8  12  19  32  54  81 110 143 178 214 252
#     4   8  15  28  47  67  89 119 154 186 220 268
#     4   8  12  16  26  48  80 109 136 175 216 247
#     4   8  12  18  30  52  86 121 144 169 212 255
#
# _framework density 25.880883999999998
#
# number of rings (size 3 to 8) (size 9 to 14) (size 15 to 20)
#    0.000    3.500    0.000    1.000    0.000    3.333 
#    0.000    0.833    0.000    2.000    0.000    2.333 
#    0.000    0.000    0.000   38.500    0.000    4.167 
#
# Total GULP energy -133658.363345 kJ/mol
# GULP energy per Si atom -5569.098473 kJ/mol
# Density = 2.582198 g / cm^3
# Si number density = 25.880884 Si / 1000 Ang^3
#
#
#
# Elastic Constant Matrix: (Units=GPa)
#
#
# Indices 1 2 3 4 5 6 
#
# 1 43.8677 36.5782 16.2971 0.0000 9.0878 0.0000
# 2 36.5782 314.8090 53.3607 0.0000 20.6811 0.0000
# 3 16.2971 53.3607 159.3304 0.0000 32.7597 0.0000
# 4 0.0000 0.0000 0.0000 35.1508 0.0000 1.3938
# 5 9.0878 20.6811 32.7597 0.0000 43.7952 0.0000
# 6 0.0000 0.0000 0.0000 1.3938 0.0000 24.1223
#
#
#
# Elastic Compliance Matrix: (Units=1/GPa)
#
#
# Indices 1 2 3 4 5 6 
#
# 1 0.026087 -0.002624 -0.001100 0.000000 -0.003351 0.000000
# 2 -0.002624 0.003661 -0.000844 0.000000 -0.000553 0.000000
# 3 -0.001100 -0.000844 0.007732 0.000000 -0.005157 0.000000
# 4 0.000000 0.000000 0.000000 0.028514 0.000000 -0.001648
# 5 -0.003351 -0.000553 -0.005157 0.000000 0.027647 0.000000
# 6 0.000000 0.000000 0.000000 -0.001648 0.000000 0.041551
#
#
# Mechanical properties :
#
#
# Convention : Reuss Voigt Hill
#
# Bulk Modulus (GPa) = 35.28323 81.16434 58.22379
# Shear Modulus (GPa) = 32.51471 48.06507 40.28989
#
# Velocity S-wave (km/s) = 3.54831 4.31416 3.94984
# Velocity P-wave (km/s) = 5.51814 7.49965 6.58387
#
# Compressibility (1/GPa) = 0.02834208
#
# Stress axis : x y z
#
# Youngs Moduli (GPa) = 38.33306 273.16161 129.33766
#
# Poissons Ratio (x) = 0.71690 0.14233
# Poissons Ratio (y) = 0.10060 0.10915
# Poissons Ratio (z) = 0.04218 0.23053
#
# Static dielectric constant tensor:
#      x y z
#    x 2.356470 0.000000 0.010290 
#    y 0.000000 2.119630 0.000000 
#    z 0.010290 0.000000 2.087700 
# 
# From -- ./inp_files/25747.got.cif
#   From: 2010.05.17/outbox.cif.g08.bks.cpg/sg10_13_cif.got.tgz:25747.got - 2010.06.03 11:33:40.
