data_PCOD9151164
_publ_section_title
;
Structure prediction by ZEFSAII (Michael W. Deem and Ramdas Pophale) SiO2 
 PCOD9151164
Probable space group: P 2/M
;
_chemical_formula_sum "Si O2"
_cell_formula_units_Z 20
_cell_length_a 13.904527
_cell_length_b 11.198289
_cell_length_c 10.604122
_cell_angle_alpha 90.000000
_cell_angle_beta 32.512317
_cell_angle_gamma 90.000000
_cell_volume 887.453576
_symmetry_space_group_name_H-M "P 2/M"
_symmetry_group_IT_number 10
_symmetry_cell_setting 'monoclinic'
loop_
_space_group_symop_operation_xyz
x,y,z
-x,y,-z
-x,-y,-z
x,-y,z
loop_
_atom_site_type_symbol
_atom_site_label
_atom_site_fract_x
_atom_site_fract_y
_atom_site_fract_z
Si Si1 0.656225 0.370418 0.039845
Si Si2 0.784704 0.137073 0.746484
Si Si3 0.722415 0.258888 0.554574
Si Si4 0.926528 0.327271 0.945661
Si Si5 0.303108 0.860962 0.682848
O O1 0.691714 0.500000 0.936331
O O2 0.444228 0.347612 0.275140
O O3 0.730159 0.247045 0.897329
O O4 0.753463 0.378945 0.067602
O O5 0.711383 0.179940 0.691975
O O6 0.000000 0.134795 0.500000
O O7 0.727044 0.000000 0.842563
O O8 0.723200 0.173199 0.432738
O O9 0.910850 0.327372 0.332538
O O10 0.852664 0.196599 0.062607
O O11 0.000000 0.373106 0.000000
O O12 0.500000 0.813363 0.500000
O O13 0.302355 0.000000 0.704175
#
# Coordination Sequence:
#
# PCOD9151164 Si02
#       5
#     4   4   4   4   4
#     4  12  27  47  71 102 139 184 235 287 342 411
#     4  11  25  46  73 105 139 181 231 288 348 412
#     4  11  23  43  68 101 137 181 228 283 341 415
#     4  10  23  43  67 101 138 180 226 282 345 407
#     4  10  20  37  67 101 138 178 223 281 345 411
#
# _framework density 22.536390000000001
#
# number of rings (size 3 to 8) (size 9 to 14) (size 15 to 20)
#    0.000    1.200    4.000    1.200    0.000   10.800 
#    0.000    7.000    0.000    0.000    0.000    0.000 
#    0.000    0.000    0.000    0.000    0.000    0.000 
#
# Total GULP energy -111598.515248 kJ/mol
# GULP energy per Si atom -5579.925762 kJ/mol
# Density = 2.248510 g / cm^3
# Si number density = 22.536390 Si / 1000 Ang^3
#
#
#
# Elastic Constant Matrix: (Units=GPa)
#
#
# Indices 1 2 3 4 5 6 
#
# 1 112.6341 33.6706 14.8402 0.0000 -15.9943 0.0000
# 2 33.6706 165.4329 45.1590 0.0000 0.3130 0.0000
# 3 14.8402 45.1590 59.4098 0.0000 -18.5446 0.0000
# 4 0.0000 0.0000 0.0000 119.2076 0.0000 -42.5894
# 5 -15.9943 0.3130 -18.5446 0.0000 39.2449 0.0000
# 6 0.0000 0.0000 0.0000 -42.5894 0.0000 -31.4669
#
#
#
# Elastic Compliance Matrix: (Units=1/GPa)
#
#
# Indices 1 2 3 4 5 6 
#
# 1 0.010090 -0.002204 0.000521 0.000000 0.004376 0.000000
# 2 -0.002204 0.008488 -0.007276 0.000000 -0.004404 0.000000
# 3 0.000521 -0.007276 0.026179 0.000000 0.012641 0.000000
# 4 0.000000 0.000000 0.000000 0.005654 0.000000 -0.007653
# 5 0.004376 -0.004404 0.012641 0.000000 0.033273 0.000000
# 6 0.000000 0.000000 0.000000 -0.007653 0.000000 -0.021421
#
#
# Mechanical properties :
#
#
# Convention : Reuss Voigt Hill
#
# Bulk Modulus (GPa) = 37.26069 58.31292 47.78681
# Shear Modulus (GPa) = 56.09993 41.65095 48.87544
#
# Velocity S-wave (km/s) = 4.99471 4.30369 4.66202
# Velocity P-wave (km/s) = 7.05920 7.11526 7.08728
#
# Compressibility (1/GPa) = 0.02683794
#
# Stress axis : x y z
#
# Youngs Moduli (GPa) = 99.10863 117.81548 38.19921
#
# Poissons Ratio (x) = 0.25967 -0.01990
# Poissons Ratio (y) = 0.21844 0.27794
# Poissons Ratio (z) = -0.05163 0.85723
#
# Static dielectric constant tensor:
#      x y z
#    x 1.857030 0.000000 -0.019400 
#    y 0.000000 1.834980 0.000000 
#    z -0.019400 0.000000 1.853460 
# 
# From -- ./inp_files/50964.got.cif
#   From: 2010.05.17/outbox.cif.g08.bks.cpg/sg10_26_cif.got.tgz:50964.got - 2010.06.03 11:33:40.
