data_PCOD9151010
_publ_section_title
;
Structure prediction by ZEFSAII (Michael W. Deem and Ramdas Pophale) SiO2 
 PCOD9151010
Probable space group: P 2/M
;
_chemical_formula_sum "Si O2"
_cell_formula_units_Z 32
_cell_length_a 22.968252
_cell_length_b 8.764334
_cell_length_c 15.424708
_cell_angle_alpha 90.000000
_cell_angle_beta 148.228949
_cell_angle_gamma 90.000000
_cell_volume 1634.872532
_symmetry_space_group_name_H-M "P 2/M"
_symmetry_group_IT_number 10
_symmetry_cell_setting 'monoclinic'
loop_
_space_group_symop_operation_xyz
x,y,z
-x,y,-z
-x,-y,-z
x,-y,z
loop_
_atom_site_type_symbol
_atom_site_label
_atom_site_fract_x
_atom_site_fract_y
_atom_site_fract_z
Si Si1 0.368663 0.817239 0.337453
Si Si2 0.220939 0.681305 0.625908
Si Si3 0.690258 0.320726 0.554355
Si Si4 0.655610 0.184522 0.056239
Si Si5 0.748207 0.185642 0.988282
Si Si6 0.404570 0.818406 0.731342
Si Si7 0.996582 0.818188 0.268847
Si Si8 0.052167 0.680752 0.157768
O O1 0.500000 0.790411 0.500000
O O2 0.321200 0.735788 0.362076
O O3 0.351244 0.000000 0.323920
O O4 0.311404 0.764614 0.175764
O O5 0.219005 0.500000 0.623119
O O6 0.310567 0.738347 0.668934
O O7 0.100467 0.743003 0.447968
O O8 0.262439 0.744738 0.770185
O O9 0.664116 0.500000 0.515422
O O10 0.613589 0.226487 0.391799
O O11 0.816240 0.299087 0.682405
O O12 0.528572 0.226192 0.915373
O O13 0.662958 0.000000 0.070085
O O14 0.687089 0.233120 0.998705
O O15 0.876555 0.232013 0.150954
O O16 0.745547 0.000000 0.983590
O O17 0.393323 0.000000 0.727488
O O18 0.005012 0.773142 0.178583
O O19 0.004942 0.000000 0.288604
O O20 0.029811 0.500000 0.142587
O O21 0.000000 0.726273 0.000000
#
# Coordination Sequence:
#
# PCOD9151010 Si02
#       8
#     4   4   4   4   4   4   4   4
#     4  10  20  37  61  88 121 162 206 252 301 355
#     4  12  25  41  61  89 125 159 197 251 312 366
#     4  11  22  35  56  87 123 161 196 242 300 357
#     4  10  22  42  66  90 118 155 202 252 306 364
#     4   9  20  39  62  90 121 157 204 256 302 351
#     4  11  22  39  65  93 121 157 201 250 303 365
#     4  11  22  38  62  88 118 159 207 253 297 354
#     4  10  21  37  56  82 119 160 197 241 301 357
#
# _framework density 19.57339
#
# number of rings (size 3 to 8) (size 9 to 14) (size 15 to 20)
#    0.000    1.500    1.250    4.125    0.000    6.000 
#    0.000    5.000    0.000    0.000    0.000    0.000 
#    0.000    0.000    0.000    0.000    0.000    0.000 
#
# Total GULP energy -178920.831272 kJ/mol
# GULP energy per Si atom -5591.275977 kJ/mol
# Density = 1.952884 g / cm^3
# Si number density = 19.573390 Si / 1000 Ang^3
#
#
#
# Elastic Constant Matrix: (Units=GPa)
#
#
# Indices 1 2 3 4 5 6 
#
# 1 68.2987 10.4461 14.6058 0.0000 0.2766 0.0000
# 2 10.4461 33.7346 18.9821 0.0000 9.9200 0.0000
# 3 14.6058 18.9821 110.9585 0.0000 -1.2223 0.0000
# 4 0.0000 0.0000 0.0000 -25.6942 0.0000 108.2848
# 5 0.2766 9.9200 -1.2223 0.0000 33.7943 0.0000
# 6 0.0000 0.0000 0.0000 108.2848 0.0000 -315.7859
#
#
#
# Elastic Compliance Matrix: (Units=1/GPa)
#
#
# Indices 1 2 3 4 5 6 
#
# 1 0.015590 -0.004439 -0.001280 0.000000 0.001129 0.000000
# 2 -0.004439 0.037694 -0.005988 0.000000 -0.011245 0.000000
# 3 -0.001280 -0.005988 0.010229 0.000000 0.002138 0.000000
# 4 0.000000 0.000000 0.000000 0.087433 0.000000 0.029981
# 5 0.001129 -0.011245 0.002138 0.000000 0.032960 0.000000
# 6 0.000000 0.000000 0.000000 0.029981 0.000000 0.007114
#
#
# Mechanical properties :
#
#
# Convention : Reuss Voigt Hill
#
# Bulk Modulus (GPa) = 24.93908 33.45109 29.19508
# Shear Modulus (GPa) = 21.94906 -50.27331 -14.16212
#
# Velocity S-wave (km/s) = 3.35232 -5.07349 -2.69279
# Velocity P-wave (km/s) = 5.26812 4.14647 2.29781
#
# Compressibility (1/GPa) = 0.04009771
#
# Stress axis : x y z
#
# Youngs Moduli (GPa) = 64.14477 26.52959 97.76273
#
# Poissons Ratio (x) = 0.11777 0.12516
# Poissons Ratio (y) = 0.28474 0.58540
# Poissons Ratio (z) = 0.08212 0.15886
#
# Static dielectric constant tensor:
#      x y z
#    x 1.667050 0.000000 0.000590 
#    y 0.000000 1.656350 0.000000 
#    z 0.000590 0.000000 1.680180 
# 
# From -- ./inp_files/71643.got.cif
#   From: 2010.05.17/outbox.cif.g08.bks.cpg/sg10_36_cif.got.tgz:71643.got - 2010.06.03 11:33:40.
