data_PCOD9151206
_publ_section_title
;
Structure prediction by ZEFSAII (Michael W. Deem and Ramdas Pophale) SiO2 
 PCOD9151206
Probable space group: P 2/M
;
_chemical_formula_sum "Si O2"
_cell_formula_units_Z 28
_cell_length_a 15.134046
_cell_length_b 11.256809
_cell_length_c 9.614343
_cell_angle_alpha 90.000000
_cell_angle_beta 63.138473
_cell_angle_gamma 90.000000
_cell_volume 1461.181107
_symmetry_space_group_name_H-M "P 2/M"
_symmetry_group_IT_number 10
_symmetry_cell_setting 'monoclinic'
loop_
_space_group_symop_operation_xyz
x,y,z
-x,y,-z
-x,-y,-z
x,-y,z
loop_
_atom_site_type_symbol
_atom_site_label
_atom_site_fract_x
_atom_site_fract_y
_atom_site_fract_z
Si Si1 0.095893 0.639459 0.014087
Si Si2 0.406218 0.367043 0.464828
Si Si3 0.120521 0.798472 0.257628
Si Si4 0.238303 0.780503 0.725203
Si Si5 0.450997 0.636733 0.885055
Si Si6 0.894822 0.134112 0.432279
Si Si7 0.312228 0.129700 0.954724
O O1 0.086881 0.500000 0.027943
O O2 0.107366 0.688341 0.161720
O O3 0.186865 0.677464 0.852834
O O4 0.000000 0.689065 0.000000
O O5 0.500000 0.368681 0.500000
O O6 0.362088 0.500000 0.493472
O O7 0.328488 0.272991 0.574403
O O8 0.457216 0.340571 0.282830
O O9 0.132653 0.783168 0.415451
O O10 0.013125 0.861280 0.324667
O O11 0.216169 0.861856 0.123490
O O12 0.161437 0.832478 0.668609
O O13 0.275489 0.866856 0.820599
O O14 0.412118 0.500000 0.881795
O O15 0.375788 0.748368 0.927954
O O16 0.500000 0.633580 0.000000
O O17 0.867610 0.000000 0.493071
O O18 0.361164 0.000000 0.944951
#
# Coordination Sequence:
#
# PCOD9151206 Si02
#       7
#     4   4   4   4   4   4   4
#     4  10  20  38  59  86 121 156 197 252 306 361
#     4  10  20  39  63  87 115 155 201 249 300 362
#     4  10  22  40  61  86 120 165 206 246 304 367
#     4  11  22  37  62  90 120 159 207 248 307 367
#     4  10  23  43  66  90 120 160 207 252 305 372
#     4  11  22  40  61  85 120 161 205 252 302 364
#     4  11  23  39  62  94 127 160 204 254 311 369
#
# _framework density 19.162579999999998
#
# number of rings (size 3 to 8) (size 9 to 14) (size 15 to 20)
#    0.000    1.571    2.857    2.571    2.000    2.571 
#    0.000    7.143    0.000    0.000    0.000    0.000 
#    0.000    0.000    0.000    0.000    0.000    0.000 
#
# Total GULP energy -156007.842297 kJ/mol
# GULP energy per Si atom -5571.708653 kJ/mol
# Density = 1.911896 g / cm^3
# Si number density = 19.162580 Si / 1000 Ang^3
#
#
#
# Elastic Constant Matrix: (Units=GPa)
#
#
# Indices 1 2 3 4 5 6 
#
# 1 57.9652 31.5877 29.9040 0.0000 7.9068 0.0000
# 2 31.5877 96.9677 40.9879 0.0000 -3.1064 0.0000
# 3 29.9040 40.9879 138.1514 0.0000 5.4556 0.0000
# 4 0.0000 0.0000 0.0000 -44.3629 0.0000 33.4744
# 5 7.9068 -3.1064 5.4556 0.0000 34.2849 0.0000
# 6 0.0000 0.0000 0.0000 33.4744 0.0000 -9.8243
#
#
#
# Elastic Compliance Matrix: (Units=1/GPa)
#
#
# Indices 1 2 3 4 5 6 
#
# 1 0.022979 -0.006457 -0.002844 0.000000 -0.005432 0.000000
# 2 -0.006457 0.013698 -0.002792 0.000000 0.003175 0.000000
# 3 -0.002844 -0.002792 0.008721 0.000000 -0.000985 0.000000
# 4 0.000000 0.000000 0.000000 0.014348 0.000000 0.048889
# 5 -0.005432 0.003175 -0.000985 0.000000 0.030864 0.000000
# 6 0.000000 0.000000 0.000000 0.048889 0.000000 0.064792
#
#
# Mechanical properties :
#
#
# Convention : Reuss Voigt Hill
#
# Bulk Modulus (GPa) = 47.14223 55.33816 51.24019
# Shear Modulus (GPa) = 26.78693 8.72652 17.75673
#
# Velocity S-wave (km/s) = 3.74288 2.13631 3.04737
# Velocity P-wave (km/s) = 6.58281 5.91828 6.25937
#
# Compressibility (1/GPa) = 0.02121240
#
# Stress axis : x y z
#
# Youngs Moduli (GPa) = 43.51878 73.00358 114.66472
#
# Poissons Ratio (x) = 0.47142 0.32605
# Poissons Ratio (y) = 0.28102 0.32010
# Poissons Ratio (z) = 0.12375 0.20380
#
# Static dielectric constant tensor:
#      x y z
#    x 1.680550 0.000000 0.000700 
#    y 0.000000 1.686520 0.000000 
#    z 0.000700 0.000000 1.622360 
# 
# From -- ./inp_files/28505.got.cif
#   From: 2010.05.17/outbox.cif.g08.bks.cpg/sg10_15_cif.got.tgz:28505.got - 2010.06.03 11:33:40.
