data_PCOD9151144
_publ_section_title
;
Structure prediction by ZEFSAII (Michael W. Deem and Ramdas Pophale) SiO2 
 PCOD9151144
Probable space group: P 2/M
;
_chemical_formula_sum "Si O2"
_cell_formula_units_Z 28
_cell_length_a 22.934087
_cell_length_b 11.149549
_cell_length_c 11.703747
_cell_angle_alpha 90.000000
_cell_angle_beta 29.737389
_cell_angle_gamma 90.000000
_cell_volume 1484.456910
_symmetry_space_group_name_H-M "P 2/M"
_symmetry_group_IT_number 10
_symmetry_cell_setting 'monoclinic'
loop_
_space_group_symop_operation_xyz
x,y,z
-x,y,-z
-x,-y,-z
x,-y,z
loop_
_atom_site_type_symbol
_atom_site_label
_atom_site_fract_x
_atom_site_fract_y
_atom_site_fract_z
Si Si1 0.370454 0.282018 0.495348
Si Si2 0.849613 0.500000 0.751441
Si Si3 0.634315 0.643350 0.751278
Si Si4 0.016698 0.139982 0.335514
Si Si5 0.399988 0.858378 0.844156
Si Si6 0.638329 0.500000 0.310163
Si Si7 0.731098 0.858717 0.151902
Si Si8 0.791124 0.729849 0.693252
O O1 0.334678 0.321172 0.430650
O O2 0.503271 0.231889 0.271763
O O3 0.353683 0.385994 0.618055
O O4 0.297889 0.171961 0.670147
O O5 0.814033 0.617253 0.738103
O O6 0.000000 0.500000 0.500000
O O7 0.750834 0.500000 0.027421
O O8 0.636445 0.500000 0.756681
O O9 0.717530 0.693807 0.707749
O O10 0.500000 0.683759 0.000000
O O11 0.915825 0.215352 0.448451
O O12 0.000000 0.145784 0.500000
O O13 0.010317 0.000000 0.313158
O O14 0.143794 0.193853 0.093639
O O15 0.370121 0.822445 0.764598
O O16 0.432419 0.000000 0.794167
O O17 0.280903 0.832070 0.115832
O O18 0.500000 0.500000 0.500000
O O19 0.739865 0.000000 0.118371
#
# Coordination Sequence:
#
# PCOD9151144 Si02
#       8
#     4   2   4   4   4   2   4   4
#     4  12  23  41  62  90 129 167 212 262 317 385
#     4  12  28  41  67 105 135 166 212 275 331 386
#     4  11  24  44  63  85 121 175 216 255 310 376
#     4  10  20  37  64  93 125 166 206 253 318 389
#     4  11  22  38  64  99 131 163 204 268 333 386
#     4  12  26  39  65 101 131 168 210 270 337 386
#     4  10  21  38  62  92 129 166 201 254 325 386
#     4  12  22  41  65  93 128 165 213 265 314 379
#
# _framework density 18.862116
#
# number of rings (size 3 to 8) (size 9 to 14) (size 15 to 20)
#    0.000    0.857    4.286    4.286    2.000    1.143 
#    0.000    4.286    0.000    3.429    0.000    0.000 
#    0.000    0.000    0.000    0.000    0.000    0.000 
#
# Total GULP energy -156176.378788 kJ/mol
# GULP energy per Si atom -5577.727814 kJ/mol
# Density = 1.881918 g / cm^3
# Si number density = 18.862116 Si / 1000 Ang^3
#
#
#
# Elastic Constant Matrix: (Units=GPa)
#
#
# Indices 1 2 3 4 5 6 
#
# 1 134.3796 40.1522 50.1224 0.0000 -6.7476 0.0000
# 2 40.1522 48.6209 3.2428 0.0000 -10.5832 0.0000
# 3 50.1224 3.2428 92.0469 0.0000 -11.3938 0.0000
# 4 0.0000 0.0000 0.0000 30.3115 0.0000 -1.1405
# 5 -6.7476 -10.5832 -11.3938 0.0000 28.7397 0.0000
# 6 0.0000 0.0000 0.0000 -1.1405 0.0000 16.6696
#
#
#
# Elastic Compliance Matrix: (Units=1/GPa)
#
#
# Indices 1 2 3 4 5 6 
#
# 1 0.013429 -0.011468 -0.007404 0.000000 -0.004005 0.000000
# 2 -0.011468 0.032158 0.006566 0.000000 0.011753 0.000000
# 3 -0.007404 0.006566 0.015510 0.000000 0.006828 0.000000
# 4 0.000000 0.000000 0.000000 0.033076 0.000000 0.002263
# 5 -0.004005 0.011753 0.006828 0.000000 0.040890 0.000000
# 6 0.000000 0.000000 0.000000 0.002263 0.000000 0.060144
#
#
# Mechanical properties :
#
#
# Convention : Reuss Voigt Hill
#
# Bulk Modulus (GPa) = 27.40830 51.34246 39.37538
# Shear Modulus (GPa) = 21.55369 27.24615 24.39992
#
# Velocity S-wave (km/s) = 3.38405 3.80477 3.60056
# Velocity P-wave (km/s) = 5.46182 6.82500 6.18111
#
# Compressibility (1/GPa) = 0.03648529
#
# Stress axis : x y z
#
# Youngs Moduli (GPa) = 74.46746 31.09665 64.47564
#
# Poissons Ratio (x) = 0.35661 0.47739
# Poissons Ratio (y) = 0.85397 -0.42337
# Poissons Ratio (z) = 0.55137 -0.20419
#
# Static dielectric constant tensor:
#      x y z
#    x 1.635220 0.000000 -0.022040 
#    y 0.000000 1.688760 0.000000 
#    z -0.022040 0.000000 1.723180 
# 
# From -- ./inp_files/55835.got.cif
#   From: 2010.05.17/outbox.cif.g08.bks.cpg/sg10_28_cif.got.tgz:55835.got - 2010.06.03 11:33:40.
