data_PCOD9151032
_publ_section_title
;
Structure prediction by ZEFSAII (Michael W. Deem and Ramdas Pophale) SiO2 
 PCOD9151032
Probable space group: P 2/M
;
_chemical_formula_sum "Si O2"
_cell_formula_units_Z 20
_cell_length_a 9.039854
_cell_length_b 21.106767
_cell_length_c 5.188654
_cell_angle_alpha 90.000000
_cell_angle_beta 58.564649
_cell_angle_gamma 90.000000
_cell_volume 844.702037
_symmetry_space_group_name_H-M "P 2/M"
_symmetry_group_IT_number 10
_symmetry_cell_setting 'monoclinic'
loop_
_space_group_symop_operation_xyz
x,y,z
-x,y,-z
-x,-y,-z
x,-y,z
loop_
_atom_site_type_symbol
_atom_site_label
_atom_site_fract_x
_atom_site_fract_y
_atom_site_fract_z
Si Si1 0.302123 0.856760 0.601414
Si Si2 0.000000 0.322836 0.500000
Si Si3 0.191813 0.072206 0.205122
Si Si4 0.500000 0.636036 0.500000
Si Si5 0.828758 0.431327 0.316913
Si Si6 0.667440 0.738627 0.720192
O O1 0.500000 0.852047 0.500000
O O2 0.296024 0.899310 0.350115
O O3 0.248056 0.786174 0.563993
O O4 0.796605 0.886665 0.065322
O O5 0.890743 0.371622 0.426579
O O6 0.833525 0.281271 0.744285
O O7 0.000000 0.072179 0.500000
O O8 0.242555 0.000000 0.097190
O O9 0.335531 0.591100 0.701339
O O10 0.565073 0.681464 0.669261
O O11 0.788999 0.500000 0.481595
O O12 0.000000 0.440632 0.000000
O O13 0.500000 0.772224 0.000000
#
# Coordination Sequence:
#
# PCOD9151032 Si02
#       6
#     4   2   4   2   4   4
#     4  12  25  44  72 105 141 187 238 297 358 421
#     4  10  23  40  64  94 127 190 228 290 360 424
#     4  11  26  49  74 106 145 186 236 292 355 431
#     4  10  21  38  62  90 131 182 224 288 360 422
#     4  10  20  37  61  94 131 172 229 289 349 423
#     4  11  23  42  63  95 140 180 239 298 355 430
#
# _framework density 23.676985999999999
#
# number of rings (size 3 to 8) (size 9 to 14) (size 15 to 20)
#    0.000    1.200    1.000    4.800    1.400    4.000 
#    3.600    0.000    0.000    9.600    0.000    0.000 
#    0.000    0.000    0.000    0.000    0.000    0.000 
#
# Total GULP energy -111500.202406 kJ/mol
# GULP energy per Si atom -5575.010120 kJ/mol
# Density = 2.362310 g / cm^3
# Si number density = 23.676986 Si / 1000 Ang^3
#
#
#
# Elastic Constant Matrix: (Units=GPa)
#
#
# Indices 1 2 3 4 5 6 
#
# 1 129.6069 50.5578 22.5197 0.0000 -14.3999 0.0000
# 2 50.5578 101.5675 45.9226 0.0000 -1.3154 0.0000
# 3 22.5197 45.9226 90.3251 0.0000 7.9663 0.0000
# 4 0.0000 0.0000 0.0000 28.5141 0.0000 0.1926
# 5 -14.3999 -1.3154 7.9663 0.0000 32.8609 0.0000
# 6 0.0000 0.0000 0.0000 0.1926 0.0000 48.6622
#
#
#
# Elastic Compliance Matrix: (Units=1/GPa)
#
#
# Indices 1 2 3 4 5 6 
#
# 1 0.010149 -0.004774 -0.000489 0.000000 0.004375 0.000000
# 2 -0.004774 0.015178 -0.006535 0.000000 0.000100 0.000000
# 3 -0.000489 -0.006535 0.014876 0.000000 -0.004082 0.000000
# 4 0.000000 0.000000 0.000000 0.035071 0.000000 -0.000139
# 5 0.004375 0.000100 -0.004082 0.000000 0.033342 0.000000
# 6 0.000000 0.000000 0.000000 -0.000139 0.000000 0.020550
#
#
# Mechanical properties :
#
#
# Convention : Reuss Voigt Hill
#
# Bulk Modulus (GPa) = 60.21895 62.16662 61.19279
# Shear Modulus (GPa) = 31.58576 35.50739 33.54657
#
# Velocity S-wave (km/s) = 3.65640 3.87674 3.76818
# Velocity P-wave (km/s) = 6.58137 6.80823 6.69576
#
# Compressibility (1/GPa) = 0.01660607
#
# Stress axis : x y z
#
# Youngs Moduli (GPa) = 98.53185 65.88327 67.22361
#
# Poissons Ratio (x) = 0.31454 0.03286
# Poissons Ratio (y) = 0.47041 0.43933
# Poissons Ratio (z) = 0.04817 0.43057
#
# Static dielectric constant tensor:
#      x y z
#    x 1.905650 0.000000 0.000070 
#    y 0.000000 2.108750 0.000000 
#    z 0.000070 0.000000 1.973460 
# 
# From -- ./inp_files/5102.got.cif
#   From: 2010.05.17/outbox.cif.g08.bks.cpg/sg10_3_cif.got.tgz:5102.got - 2010.06.03 11:33:40.
