data_PCOD9151151
_publ_section_title
;
Structure prediction by ZEFSAII (Michael W. Deem and Ramdas Pophale) SiO2 
 PCOD9151151
Probable space group: P 2/M
;
_chemical_formula_sum "Si O2"
_cell_formula_units_Z 20
_cell_length_a 16.268075
_cell_length_b 11.884789
_cell_length_c 7.561914
_cell_angle_alpha 90.000000
_cell_angle_beta 144.653789
_cell_angle_gamma 90.000000
_cell_volume 845.813299
_symmetry_space_group_name_H-M "P 2/M"
_symmetry_group_IT_number 10
_symmetry_cell_setting 'monoclinic'
loop_
_space_group_symop_operation_xyz
x,y,z
-x,y,-z
-x,-y,-z
x,-y,z
loop_
_atom_site_type_symbol
_atom_site_label
_atom_site_fract_x
_atom_site_fract_y
_atom_site_fract_z
Si Si1 0.068375 0.282499 0.929805
Si Si2 0.823353 0.869568 0.346782
Si Si3 0.559277 0.500000 0.857122
Si Si4 0.748183 0.500000 0.834280
Si Si5 0.690120 0.126737 0.503003
Si Si6 0.430456 0.736123 0.187591
O O1 0.952038 0.217109 0.607730
O O2 0.151228 0.391052 0.002423
O O3 0.183279 0.188521 0.176786
O O4 0.000000 0.315853 0.000000
O O5 0.738196 0.874449 0.383653
O O6 0.859275 0.000000 0.365360
O O7 0.709616 0.808688 0.022045
O O8 0.658956 0.500000 0.857295
O O9 0.385876 0.500000 0.538502
O O10 0.597025 0.626046 0.982887
O O11 0.546515 0.190715 0.291706
O O12 0.674128 0.000000 0.537420
O O13 0.500000 0.702980 0.500000
#
# Coordination Sequence:
#
# PCOD9151151 Si02
#       6
#     4   4   2   2   4   4
#     4  10  20  37  65  93 124 157 201 253 308 364
#     4  10  23  40  60  93 128 157 199 253 306 366
#     4  11  22  41  64  83 121 164 210 253 297 363
#     4  11  19  41  63  89 120 163 204 252 307 362
#     4  10  20  38  63  88 122 166 203 246 306 362
#     4  12  22  40  62  87 121 167 208 251 299 357
#
# _framework density 23.645879000000001
#
# number of rings (size 3 to 8) (size 9 to 14) (size 15 to 20)
#    0.000    1.400    4.000    2.100    0.000    6.400 
#    0.000    8.000    0.000    6.000    0.000    0.000 
#    0.000    0.000    0.000    0.000    0.000    0.000 
#
# Total GULP energy -111776.819334 kJ/mol
# GULP energy per Si atom -5588.840967 kJ/mol
# Density = 2.359206 g / cm^3
# Si number density = 23.645879 Si / 1000 Ang^3
#
#
#
# Elastic Constant Matrix: (Units=GPa)
#
#
# Indices 1 2 3 4 5 6 
#
# 1 94.0360 53.3472 38.5058 0.0000 16.4041 0.0000
# 2 53.3472 180.9181 23.1256 0.0000 23.5978 0.0000
# 3 38.5058 23.1256 83.2240 0.0000 25.7523 0.0000
# 4 0.0000 0.0000 0.0000 -8.4887 0.0000 -13.5862
# 5 16.4041 23.5978 25.7523 0.0000 27.4199 0.0000
# 6 0.0000 0.0000 0.0000 -13.5862 0.0000 11.2706
#
#
#
# Elastic Compliance Matrix: (Units=1/GPa)
#
#
# Indices 1 2 3 4 5 6 
#
# 1 0.015201 -0.003678 -0.005888 0.000000 -0.000400 0.000000
# 2 -0.003678 0.007117 0.001323 0.000000 -0.005167 0.000000
# 3 -0.005888 0.001323 0.019220 0.000000 -0.015667 0.000000
# 4 0.000000 0.000000 0.000000 -0.040215 0.000000 -0.048478
# 5 -0.000400 -0.005167 -0.015667 0.000000 0.055870 0.000000
# 6 0.000000 0.000000 0.000000 -0.048478 0.000000 0.030289
#
#
# Mechanical properties :
#
#
# Convention : Reuss Voigt Hill
#
# Bulk Modulus (GPa) = 39.91515 65.34835 52.63175
# Shear Modulus (GPa) = 44.51644 22.25366 33.38505
#
# Velocity S-wave (km/s) = 4.34364 3.07110 3.76157
# Velocity P-wave (km/s) = 6.48639 6.34601 6.41658
#
# Compressibility (1/GPa) = 0.02505314
#
# Stress axis : x y z
#
# Youngs Moduli (GPa) = 65.78438 140.51587 52.02829
#
# Poissons Ratio (x) = 0.51677 0.30633
# Poissons Ratio (y) = 0.24193 -0.06883
# Poissons Ratio (z) = 0.38732 -0.18588
#
# Static dielectric constant tensor:
#      x y z
#    x 1.930450 0.000000 -0.054000 
#    y 0.000000 1.891950 0.000000 
#    z -0.054000 0.000000 1.966030 
# 
# From -- ./inp_files/32481.got.cif
#   From: 2010.05.17/outbox.cif.g08.bks.cpg/sg10_17_cif.got.tgz:32481.got - 2010.06.03 11:33:40.
