data_PCOD9151850
_publ_section_title
;
Structure prediction by ZEFSAII (Michael W. Deem and Ramdas Pophale) SiO2 
 PCOD9151850
Probable space group: P 2/M
;
_chemical_formula_sum "Si O2"
_cell_formula_units_Z 32
_cell_length_a 32.909070
_cell_length_b 8.306693
_cell_length_c 13.113639
_cell_angle_alpha 90.000000
_cell_angle_beta 153.242705
_cell_angle_gamma 90.000000
_cell_volume 1613.928119
_symmetry_space_group_name_H-M "P 2/M"
_symmetry_group_IT_number 10
_symmetry_cell_setting 'monoclinic'
loop_
_space_group_symop_operation_xyz
x,y,z
-x,y,-z
-x,-y,-z
x,-y,z
loop_
_atom_site_type_symbol
_atom_site_label
_atom_site_fract_x
_atom_site_fract_y
_atom_site_fract_z
Si Si1 0.599857 0.189295 0.734457
Si Si2 0.349632 0.689023 0.935948
Si Si3 0.214486 0.195150 0.928808
Si Si4 0.073882 0.307010 0.446059
Si Si5 0.215755 0.191157 0.347898
Si Si6 0.144279 0.311983 0.394708
Si Si7 0.878908 0.804999 0.071045
Si Si8 0.589321 0.305776 0.143284
O O1 0.500000 0.261471 0.500000
O O2 0.630186 0.211124 0.918835
O O3 0.593167 0.000000 0.694038
O O4 0.682773 0.255365 0.853416
O O5 0.368451 0.500000 0.998525
O O6 0.245379 0.698759 0.668204
O O7 0.406082 0.745957 0.964408
O O8 0.155833 0.248228 0.700245
O O9 0.167441 0.249488 0.927909
O O10 0.215824 0.000000 0.932138
O O11 0.078154 0.500000 0.450922
O O12 0.082285 0.246878 0.347524
O O13 0.981258 0.252211 0.289498
O O14 0.151870 0.232500 0.301175
O O15 0.315851 0.258117 0.593355
O O16 0.223397 0.000000 0.359012
O O17 0.174625 0.251481 0.149465
O O18 0.122945 0.500000 0.330123
O O19 0.878873 0.000000 0.071365
O O20 0.586960 0.500000 0.136758
O O21 0.500000 0.246002 0.000000
#
# Coordination Sequence:
#
# PCOD9151850 Si02
#       8
#     4   4   4   4   4   4   4   4
#     4  10  21  35  54  82 110 142 184 227 275 331
#     4   9  17  33  54  76 105 140 178 224 274 325
#     4  10  21  39  59  78 112 155 187 226 284 341
#     4  11  22  37  60  87 110 142 192 241 281 332
#     4  10  21  36  56  83 114 147 189 235 277 330
#     4   9  19  36  57  80 111 145 179 228 285 336
#     4  10  23  40  55  79 117 156 187 227 286 342
#     4   9  19  36  57  80 110 148 186 227 282 340
#
# _framework density 19.827400999999998
#
# number of rings (size 3 to 8) (size 9 to 14) (size 15 to 20)
#    0.000    2.250    1.250    1.875    0.000    8.000 
#    0.000    3.750    0.000    0.000    0.000    0.000 
#    0.000    0.000    0.000    0.000    0.000    0.000 
#
# Total GULP energy -178575.142127 kJ/mol
# GULP energy per Si atom -5580.473191 kJ/mol
# Density = 1.978227 g / cm^3
# Si number density = 19.827401 Si / 1000 Ang^3
#
#
#
# Elastic Constant Matrix: (Units=GPa)
#
#
# Indices 1 2 3 4 5 6 
#
# 1 152.1903 11.0641 40.4467 0.0000 24.1366 0.0000
# 2 11.0641 4.8628 2.6905 0.0000 3.0211 0.0000
# 3 40.4467 2.6905 64.7241 0.0000 13.9017 0.0000
# 4 0.0000 0.0000 0.0000 45.5199 0.0000 -6.0817
# 5 24.1366 3.0211 13.9017 0.0000 33.5609 0.0000
# 6 0.0000 0.0000 0.0000 -6.0817 0.0000 23.2614
#
#
#
# Elastic Compliance Matrix: (Units=1/GPa)
#
#
# Indices 1 2 3 4 5 6 
#
# 1 0.009566 -0.017110 -0.004522 0.000000 -0.003466 0.000000
# 2 -0.017110 0.250109 0.002731 0.000000 -0.011341 0.000000
# 3 -0.004522 0.002731 0.019228 0.000000 -0.004958 0.000000
# 4 0.000000 0.000000 0.000000 0.022764 0.000000 0.005952
# 5 -0.003466 -0.011341 -0.004958 0.000000 0.035364 0.000000
# 6 0.000000 0.000000 0.000000 0.005952 0.000000 0.044546
#
#
# Mechanical properties :
#
#
# Convention : Reuss Voigt Hill
#
# Bulk Modulus (GPa) = 4.14763 36.68663 20.41713
# Shear Modulus (GPa) = 10.00510 31.64015 20.82262
#
# Velocity S-wave (km/s) = 2.24879 3.99905 3.24419
# Velocity P-wave (km/s) = 2.97307 6.31398 4.93485
#
# Compressibility (1/GPa) = 0.24110137
#
# Stress axis : x y z
#
# Youngs Moduli (GPa) = 104.53463 3.99825 52.00874
#
# Poissons Ratio (x) = 0.06841 0.23520
# Poissons Ratio (y) = 1.78859 -0.14206
# Poissons Ratio (z) = 0.47273 -0.01092
#
# Static dielectric constant tensor:
#      x y z
#    x 1.719860 0.000000 0.015970 
#    y 0.000000 1.689020 0.000000 
#    z 0.015970 0.000000 1.683460 
# 
# From -- ./inp_files/58301.got.cif
#   From: 2010.05.17/outbox.cif.g08.bks.cpg/sg10_30_cif.got.tgz:58301.got - 2010.06.03 11:33:40.
