data_PCOD9151517
_publ_section_title
;
Structure prediction by ZEFSAII (Michael W. Deem and Ramdas Pophale) SiO2 
 PCOD9151517
Probable space group: P 2/M
;
_chemical_formula_sum "Si O2"
_cell_formula_units_Z 30
_cell_length_a 23.987100
_cell_length_b 12.686549
_cell_length_c 13.639812
_cell_angle_alpha 90.000000
_cell_angle_beta 158.471501
_cell_angle_gamma 90.000000
_cell_volume 1523.186422
_symmetry_space_group_name_H-M "P 2/M"
_symmetry_group_IT_number 10
_symmetry_cell_setting 'monoclinic'
loop_
_space_group_symop_operation_xyz
x,y,z
-x,y,-z
-x,-y,-z
x,-y,z
loop_
_atom_site_type_symbol
_atom_site_label
_atom_site_fract_x
_atom_site_fract_y
_atom_site_fract_z
Si Si1 0.904295 0.500000 0.584002
Si Si2 0.612479 0.123061 0.432292
Si Si3 0.831478 0.120668 0.607981
Si Si4 0.004975 0.668155 0.893115
Si Si5 0.873543 0.315300 0.375211
Si Si6 0.347752 0.618381 0.149751
Si Si7 0.680981 0.305103 0.692837
Si Si8 0.711785 0.878703 0.201504
O O1 0.918277 0.406700 0.523149
O O2 0.893894 0.592338 0.652262
O O3 0.741298 0.141704 0.560820
O O4 0.640734 0.196943 0.571611
O O5 0.616093 0.000000 0.465032
O O6 0.451213 0.143533 0.114686
O O7 0.716622 0.127843 0.327673
O O8 0.958112 0.209726 0.802695
O O9 0.890067 0.000000 0.705894
O O10 0.170764 0.649072 0.117184
O O11 0.000000 0.645393 0.000000
O O12 0.831082 0.206461 0.358106
O O13 0.000000 0.300079 0.500000
O O14 0.726477 0.353786 0.074328
O O15 0.302231 0.500000 0.104764
O O16 0.295589 0.696868 0.151425
O O17 0.528865 0.625631 0.435344
O O18 0.751689 0.000000 0.242113
#
# Coordination Sequence:
#
# PCOD9151517 Si02
#       8
#     2   4   4   4   4   4   4   4
#     4  12  26  44  62  93 130 166 215 258 322 379
#     4  10  20  39  67  96 130 168 210 261 320 387
#     4  10  21  40  67  97 127 170 217 258 317 388
#     4  12  25  41  65  97 136 170 204 265 323 385
#     4  12  24  41  70  93 122 165 216 272 321 376
#     4  11  25  44  66  90 119 174 226 267 307 378
#     4  11  23  40  64  93 128 168 216 259 314 381
#     4  10  21  41  67  96 128 165 212 268 322 375
#
# _framework density 19.695553
#
# number of rings (size 3 to 8) (size 9 to 14) (size 15 to 20)
#    0.000    1.067    4.667    2.400    3.733    2.667 
#    0.000    2.000    0.000    1.600    0.000    0.000 
#    0.000    0.000    0.000    0.000    0.000    0.000 
#
# Total GULP energy -167043.635957 kJ/mol
# GULP energy per Si atom -5568.121199 kJ/mol
# Density = 1.965073 g / cm^3
# Si number density = 19.695553 Si / 1000 Ang^3
#
#
#
# Elastic Constant Matrix: (Units=GPa)
#
#
# Indices 1 2 3 4 5 6 
#
# 1 96.1478 59.4344 17.0605 0.0000 -15.5988 0.0000
# 2 59.4344 121.8199 22.5088 0.0000 -7.3693 0.0000
# 3 17.0605 22.5088 30.1193 0.0000 -5.4151 0.0000
# 4 0.0000 0.0000 0.0000 -1.4406 0.0000 8.8796
# 5 -15.5988 -7.3693 -5.4151 0.0000 32.0806 0.0000
# 6 0.0000 0.0000 0.0000 8.8796 0.0000 16.3835
#
#
#
# Elastic Compliance Matrix: (Units=1/GPa)
#
#
# Indices 1 2 3 4 5 6 
#
# 1 0.016185 -0.007014 -0.002889 0.000000 0.005771 0.000000
# 2 -0.007014 0.012596 -0.005706 0.000000 -0.001480 0.000000
# 3 -0.002889 -0.005706 0.039822 0.000000 0.004006 0.000000
# 4 0.000000 0.000000 0.000000 -0.159916 0.000000 0.086672
# 5 0.005771 -0.001480 0.004006 0.000000 0.034314 0.000000
# 6 0.000000 0.000000 0.000000 0.086672 0.000000 0.014062
#
#
# Mechanical properties :
#
#
# Convention : Reuss Voigt Hill
#
# Bulk Modulus (GPa) = 26.74827 49.56605 38.15716
# Shear Modulus (GPa) = 6743.67951 19.34358 3381.51154
#
# Velocity S-wave (km/s) = 58.57810 3.13729 41.48033
# Velocity P-wave (km/s) = 67.74069 6.19227 48.09962
#
# Compressibility (1/GPa) = 0.03738560
#
# Stress axis : x y z
#
# Youngs Moduli (GPa) = 61.78555 79.39333 25.11158
#
# Poissons Ratio (x) = 0.55683 0.07254
# Poissons Ratio (y) = 0.43334 0.14329
# Poissons Ratio (z) = 0.17848 0.45304
#
# Static dielectric constant tensor:
#      x y z
#    x 1.662810 0.000000 -0.014480 
#    y 0.000000 1.661410 0.000000 
#    z -0.014480 0.000000 1.763540 
# 
# From -- ./inp_files/55933.got.cif
#   From: 2010.05.17/outbox.cif.g08.bks.cpg/sg10_28_cif.got.tgz:55933.got - 2010.06.03 11:33:40.
