data_PCOD9151477
_publ_section_title
;
Structure prediction by ZEFSAII (Michael W. Deem and Ramdas Pophale) SiO2 
 PCOD9151477
Probable space group: P 2/M
;
_chemical_formula_sum "Si O2"
_cell_formula_units_Z 24
_cell_length_a 22.140900
_cell_length_b 7.901521
_cell_length_c 9.092414
_cell_angle_alpha 90.000000
_cell_angle_beta 127.707660
_cell_angle_gamma 90.000000
_cell_volume 1258.460201
_symmetry_space_group_name_H-M "P 2/M"
_symmetry_group_IT_number 10
_symmetry_cell_setting 'monoclinic'
loop_
_space_group_symop_operation_xyz
x,y,z
-x,y,-z
-x,-y,-z
x,-y,z
loop_
_atom_site_type_symbol
_atom_site_label
_atom_site_fract_x
_atom_site_fract_y
_atom_site_fract_z
Si Si1 0.082509 0.500000 0.549891
Si Si2 0.809570 0.188962 0.640648
Si Si3 0.803841 0.802132 0.281561
Si Si4 0.082370 0.500000 0.195776
Si Si5 0.656011 0.304084 0.554888
Si Si6 0.499639 0.294985 0.829846
Si Si7 0.650255 0.800868 0.876530
O O1 0.131022 0.667696 0.662809
O O2 0.074281 0.500000 0.360660
O O3 0.000000 0.500000 0.500000
O O4 0.792776 0.210787 0.441398
O O5 0.868654 0.334420 0.772976
O O6 0.730820 0.208903 0.610618
O O7 0.840755 0.000000 0.708916
O O8 0.822447 0.000000 0.277080
O O9 0.725353 0.756958 0.082509
O O10 0.000000 0.500000 0.000000
O O11 0.665514 0.500000 0.523846
O O12 0.578157 0.238660 0.365261
O O13 0.648588 0.293088 0.718918
O O14 0.500801 0.500000 0.827817
O O15 0.574358 0.233995 0.856328
O O16 0.500000 0.240566 0.000000
O O17 0.654336 0.000000 0.849733
#
# Coordination Sequence:
#
# PCOD9151477 Si02
#       7
#     2   4   4   2   4   4   4
#     4  10  22  38  62  89 114 155 190 228 291 346
#     4  10  20  39  63  86 116 155 196 239 288 344
#     4   9  21  39  60  87 117 151 195 240 283 344
#     4  10  22  40  60  89 122 149 192 236 285 352
#     4  11  22  36  56  85 118 153 196 244 293 343
#     4  10  22  38  57  81 112 154 200 244 290 342
#     4  11  23  37  55  84 117 153 194 241 296 342
#
# _framework density 19.070926
#
# number of rings (size 3 to 8) (size 9 to 14) (size 15 to 20)
#    0.000    1.833    0.833    2.500    2.333    5.667 
#    0.000    0.000    0.000    0.000    0.000    0.000 
#    0.000    0.000    0.000    0.000    0.000    0.000 
#
# Total GULP energy -134095.949144 kJ/mol
# GULP energy per Si atom -5587.331214 kJ/mol
# Density = 1.902752 g / cm^3
# Si number density = 19.070926 Si / 1000 Ang^3
#
#
#
# Elastic Constant Matrix: (Units=GPa)
#
#
# Indices 1 2 3 4 5 6 
#
# 1 131.3130 49.2142 48.6930 0.0000 22.8179 0.0000
# 2 49.2142 88.5386 57.6727 0.0000 15.5979 0.0000
# 3 48.6930 57.6727 126.2658 0.0000 31.0366 0.0000
# 4 0.0000 0.0000 0.0000 17.3539 0.0000 -3.9894
# 5 22.8179 15.5979 31.0366 0.0000 28.6154 0.0000
# 6 0.0000 0.0000 0.0000 -3.9894 0.0000 13.1598
#
#
#
# Elastic Compliance Matrix: (Units=1/GPa)
#
#
# Indices 1 2 3 4 5 6 
#
# 1 0.010434 -0.004409 -0.000758 0.000000 -0.005095 0.000000
# 2 -0.004409 0.017966 -0.006767 0.000000 0.001062 0.000000
# 3 -0.000758 -0.006767 0.013973 0.000000 -0.010862 0.000000
# 4 0.000000 0.000000 0.000000 0.061941 0.000000 0.018777
# 5 -0.005095 0.001062 -0.010862 0.000000 0.050212 0.000000
# 6 0.000000 0.000000 0.000000 0.018777 0.000000 0.081682
#
#
# Mechanical properties :
#
#
# Convention : Reuss Voigt Hill
#
# Bulk Modulus (GPa) = 54.03566 73.03081 63.53323
# Shear Modulus (GPa) = 18.77992 24.52831 21.65412
#
# Velocity S-wave (km/s) = 3.14146 3.59020 3.37330
# Velocity P-wave (km/s) = 6.44624 7.45409 6.96841
#
# Compressibility (1/GPa) = 0.01850630
#
# Stress axis : x y z
#
# Youngs Moduli (GPa) = 95.84045 55.66132 71.56741
#
# Poissons Ratio (x) = 0.24539 0.05423
# Poissons Ratio (y) = 0.42252 0.48429
# Poissons Ratio (z) = 0.07262 0.37665
#
# Static dielectric constant tensor:
#      x y z
#    x 1.612010 0.000000 -0.013370 
#    y 0.000000 1.697280 0.000000 
#    z -0.013370 0.000000 1.639000 
# 
# From -- ./inp_files/33981.got.cif
#   From: 2010.05.17/outbox.cif.g08.bks.cpg/sg10_17_cif.got.tgz:33981.got - 2010.06.03 11:33:40.
