data_PCOD9151255
_publ_section_title
;
Structure prediction by ZEFSAII (Michael W. Deem and Ramdas Pophale) SiO2 
 PCOD9151255
Probable space group: P 2/M
;
_chemical_formula_sum "Si O2"
_cell_formula_units_Z 32
_cell_length_a 11.750720
_cell_length_b 14.249021
_cell_length_c 16.761846
_cell_angle_alpha 90.000000
_cell_angle_beta 29.985877
_cell_angle_gamma 90.000000
_cell_volume 1402.671217
_symmetry_space_group_name_H-M "P 2/M"
_symmetry_group_IT_number 10
_symmetry_cell_setting 'monoclinic'
loop_
_space_group_symop_operation_xyz
x,y,z
-x,y,-z
-x,-y,-z
x,-y,z
loop_
_atom_site_type_symbol
_atom_site_label
_atom_site_fract_x
_atom_site_fract_y
_atom_site_fract_z
Si Si1 0.874283 0.393303 0.240344
Si Si2 0.599029 0.612235 0.851837
Si Si3 0.585906 0.892429 0.753130
Si Si4 0.740141 0.110585 0.476124
Si Si5 0.109022 0.393690 0.577854
Si Si6 0.277389 0.273106 0.931792
Si Si7 0.465373 0.284092 0.650711
Si Si8 0.247256 0.112998 0.181916
O O1 0.923938 0.500000 0.182260
O O2 0.899817 0.395169 0.320122
O O3 0.635298 0.359150 0.349443
O O4 0.046421 0.314827 0.104798
O O5 0.574566 0.500000 0.857416
O O6 0.464208 0.663763 0.864527
O O7 0.865955 0.635090 0.691479
O O8 0.500000 0.635085 0.000000
O O9 0.696530 0.885339 0.598680
O O10 0.358192 0.831825 0.900844
O O11 0.753015 0.865934 0.723502
O O12 0.524692 0.000000 0.803238
O O13 0.553197 0.186162 0.560331
O O14 0.999772 0.143300 0.298948
O O15 0.711398 0.000000 0.470859
O O16 0.157955 0.500000 0.520836
O O17 0.314367 0.324965 0.437353
O O18 0.286818 0.276020 0.830672
O O19 0.245317 0.000000 0.172237
O O20 0.500000 0.145574 0.000000
#
# Coordination Sequence:
#
# PCOD9151255 Si02
#       8
#     4   4   4   4   4   4   4   4
#     4  11  23  43  66  86 116 160 205 249 302 365
#     4  10  20  38  61  87 120 157 195 238 304 380
#     4   9  19  35  54  81 120 161 198 237 294 362
#     4   9  19  37  57  80 119 164 200 239 294 359
#     4  10  22  40  62  86 116 156 196 240 300 369
#     4  11  23  37  61  92 120 154 199 252 306 354
#     4  11  24  38  59  92 120 152 206 254 296 347
#     4   9  17  30  52  82 113 149 196 246 289 338
#
# _framework density 22.813613
#
# number of rings (size 3 to 8) (size 9 to 14) (size 15 to 20)
#    0.000    2.000    1.250    1.875    1.750    7.000 
#    0.000    1.875    0.000    4.500    0.000    0.000 
#    0.000    0.000    0.000    0.000    0.000    0.000 
#
# Total GULP energy -178700.034453 kJ/mol
# GULP energy per Si atom -5584.376077 kJ/mol
# Density = 2.276169 g / cm^3
# Si number density = 22.813613 Si / 1000 Ang^3
#
#
#
# Elastic Constant Matrix: (Units=GPa)
#
#
# Indices 1 2 3 4 5 6 
#
# 1 67.5189 7.5563 -3.8948 0.0000 -4.2830 0.0000
# 2 7.5563 82.1880 16.8455 0.0000 -4.5075 0.0000
# 3 -3.8948 16.8455 66.1934 0.0000 -0.6748 0.0000
# 4 0.0000 0.0000 0.0000 41.9049 0.0000 -1.1438
# 5 -4.2830 -4.5075 -0.6748 0.0000 24.6002 0.0000
# 6 0.0000 0.0000 0.0000 -1.1438 0.0000 22.8078
#
#
#
# Elastic Compliance Matrix: (Units=1/GPa)
#
#
# Indices 1 2 3 4 5 6 
#
# 1 0.015210 -0.001535 0.001310 0.000000 0.002403 0.000000
# 2 -0.001535 0.013119 -0.003408 0.000000 0.002043 0.000000
# 3 0.001310 -0.003408 0.016052 0.000000 0.000044 0.000000
# 4 0.000000 0.000000 0.000000 0.023896 0.000000 0.001198
# 5 0.002403 0.002043 0.000044 0.000000 0.041444 0.000000
# 6 0.000000 0.000000 0.000000 0.001198 0.000000 0.043905
#
#
# Mechanical properties :
#
#
# Convention : Reuss Voigt Hill
#
# Bulk Modulus (GPa) = 26.94313 28.54603 27.74458
# Shear Modulus (GPa) = 28.85761 30.88881 29.87321
#
# Velocity S-wave (km/s) = 3.56044 3.68362 3.62255
# Velocity P-wave (km/s) = 5.36079 5.53461 5.44840
#
# Compressibility (1/GPa) = 0.03711522
#
# Stress axis : x y z
#
# Youngs Moduli (GPa) = 65.74413 76.22559 62.29715
#
# Poissons Ratio (x) = 0.11702 -0.08162
# Poissons Ratio (y) = 0.10093 0.21232
# Poissons Ratio (z) = -0.08613 0.25979
#
# Static dielectric constant tensor:
#      x y z
#    x 1.851070 0.000000 0.015250 
#    y 0.000000 1.861500 0.000000 
#    z 0.015250 0.000000 1.882440 
# 
# From -- ./inp_files/76966.got.cif
#   From: 2010.05.17/outbox.cif.g08.bks.cpg/sg10_39_cif.got.tgz:76966.got - 2010.06.03 11:33:40.
