data_PCOD9151142
_publ_section_title
;
Structure prediction by ZEFSAII (Michael W. Deem and Ramdas Pophale) SiO2 
 PCOD9151142
Probable space group: P 2/M
;
_chemical_formula_sum "Si O2"
_cell_formula_units_Z 28
_cell_length_a 12.636439
_cell_length_b 9.087068
_cell_length_c 14.496059
_cell_angle_alpha 90.000000
_cell_angle_beta 123.139797
_cell_angle_gamma 90.000000
_cell_volume 1393.798053
_symmetry_space_group_name_H-M "P 2/M"
_symmetry_group_IT_number 10
_symmetry_cell_setting 'monoclinic'
loop_
_space_group_symop_operation_xyz
x,y,z
-x,y,-z
-x,-y,-z
x,-y,z
loop_
_atom_site_type_symbol
_atom_site_label
_atom_site_fract_x
_atom_site_fract_y
_atom_site_fract_z
Si Si1 0.485980 0.674487 0.600477
Si Si2 0.541418 0.330754 0.913749
Si Si3 0.774773 0.326374 0.776226
Si Si4 0.164332 0.326507 0.986535
Si Si5 0.024844 0.174500 0.243352
Si Si6 0.655080 0.825727 0.308887
Si Si7 0.911651 0.329601 0.368019
O O1 0.500000 0.714860 0.500000
O O2 0.456615 0.500000 0.591102
O O3 0.624799 0.698057 0.710381
O O4 0.383085 0.763055 0.609114
O O5 0.517344 0.500000 0.870755
O O6 0.458964 0.222568 0.812718
O O7 0.500000 0.319203 0.000000
O O8 0.690807 0.305944 0.976155
O O9 0.792931 0.500000 0.765596
O O10 0.840406 0.233287 0.727945
O O11 0.836812 0.293930 0.904969
O O12 0.132064 0.500000 0.959205
O O13 0.073185 0.228554 0.881796
O O14 0.981206 0.250097 0.316941
O O15 0.024200 0.000000 0.252120
O O16 0.780922 0.749731 0.330302
O O17 0.670004 0.000000 0.318415
O O18 0.887058 0.500000 0.331556
O O19 0.000000 0.325383 0.500000
#
# Coordination Sequence:
#
# PCOD9151142 Si02
#       7
#     4   4   4   4   4   4   4
#     4  10  22  42  69  97 126 168 222 265 304 371
#     4  10  20  37  64  93 124 168 218 263 305 366
#     4  10  21  40  65  94 128 171 221 263 307 369
#     4  10  20  38  63  92 127 170 220 265 305 369
#     4  12  26  41  62  95 135 168 205 263 330 388
#     4  12  25  41  65  98 136 166 199 259 328 385
#     4  11  26  48  72  92 118 166 223 266 307 373
#
# _framework density 20.088992999999999
#
# number of rings (size 3 to 8) (size 9 to 14) (size 15 to 20)
#    0.000    1.286    1.429    4.286    2.000    6.286 
#    0.000    0.000    0.000    0.000    0.000    0.000 
#    0.000    0.000    0.000    0.000    0.000    0.000 
#
# Total GULP energy -156686.170086 kJ/mol
# GULP energy per Si atom -5595.934646 kJ/mol
# Density = 2.004327 g / cm^3
# Si number density = 20.088993 Si / 1000 Ang^3
#
#
#
# Elastic Constant Matrix: (Units=GPa)
#
#
# Indices 1 2 3 4 5 6 
#
# 1 128.8585 69.6192 4.2146 0.0000 -24.9200 0.0000
# 2 69.6192 120.0513 24.9893 0.0000 -16.9243 0.0000
# 3 4.2146 24.9893 38.0478 0.0000 -16.4148 0.0000
# 4 0.0000 0.0000 0.0000 -12.4822 0.0000 -17.8985
# 5 -24.9200 -16.9243 -16.4148 0.0000 30.8414 0.0000
# 6 0.0000 0.0000 0.0000 -17.8985 0.0000 -3.5994
#
#
#
# Elastic Compliance Matrix: (Units=1/GPa)
#
#
# Indices 1 2 3 4 5 6 
#
# 1 0.014365 -0.008570 0.009107 0.000000 0.011752 0.000000
# 2 -0.008570 0.014911 -0.010776 0.000000 -0.004477 0.000000
# 3 0.009107 -0.010776 0.042803 0.000000 0.024227 0.000000
# 4 0.000000 0.000000 0.000000 0.013069 0.000000 -0.064985
# 5 0.011752 -0.004477 0.024227 0.000000 0.052357 0.000000
# 6 0.000000 0.000000 0.000000 -0.064985 0.000000 0.045319
#
#
# Mechanical properties :
#
#
# Convention : Reuss Voigt Hill
#
# Bulk Modulus (GPa) = 19.37855 53.84486 36.61171
# Shear Modulus (GPa) = 22.67554 15.49425 19.08490
#
# Velocity S-wave (km/s) = 3.36334 2.78021 3.08558
# Velocity P-wave (km/s) = 4.97494 6.09651 5.56406
#
# Compressibility (1/GPa) = 0.05160344
#
# Stress axis : x y z
#
# Youngs Moduli (GPa) = 69.61285 67.06357 23.36272
#
# Poissons Ratio (x) = 0.57470 -0.21277
# Poissons Ratio (y) = 0.59655 0.25175
# Poissons Ratio (z) = -0.63397 0.72265
#
# Static dielectric constant tensor:
#      x y z
#    x 1.696400 0.000000 0.000760 
#    y 0.000000 1.669580 0.000000 
#    z 0.000760 0.000000 1.712470 
# 
# From -- ./inp_files/63936.got.cif
#   From: 2010.05.17/outbox.cif.g08.bks.cpg/sg10_32_cif.got.tgz:63936.got - 2010.06.03 11:33:40.
