data_PCOD9151072
_publ_section_title
;
Structure prediction by ZEFSAII (Michael W. Deem and Ramdas Pophale) SiO2 
 PCOD9151072
Probable space group: P 2/M
;
_chemical_formula_sum "Si O2"
_cell_formula_units_Z 28
_cell_length_a 9.678908
_cell_length_b 8.048607
_cell_length_c 25.229041
_cell_angle_alpha 90.000000
_cell_angle_beta 40.712978
_cell_angle_gamma 90.000000
_cell_volume 1281.962451
_symmetry_space_group_name_H-M "P 2/M"
_symmetry_group_IT_number 10
_symmetry_cell_setting 'monoclinic'
loop_
_space_group_symop_operation_xyz
x,y,z
-x,y,-z
-x,-y,-z
x,-y,z
loop_
_atom_site_type_symbol
_atom_site_label
_atom_site_fract_x
_atom_site_fract_y
_atom_site_fract_z
Si Si1 0.548340 0.300041 0.146969
Si Si2 0.333710 0.804343 0.004016
Si Si3 0.259361 0.200820 0.585072
Si Si4 0.176433 0.693435 0.330549
Si Si5 0.147090 0.694729 0.846452
Si Si6 0.678577 0.800306 0.317591
Si Si7 0.771493 0.190743 0.573777
O O1 0.573927 0.500000 0.133591
O O2 0.580843 0.222202 0.080139
O O3 0.315590 0.267405 0.238454
O O4 0.717777 0.240206 0.142360
O O5 0.303942 0.000000 0.022780
O O6 0.500000 0.741058 0.000000
O O7 0.102182 0.723498 0.074251
O O8 0.500000 0.247402 0.500000
O O9 0.213248 0.252412 0.659307
O O10 0.071571 0.274200 0.604811
O O11 0.247684 0.000000 0.583965
O O12 0.214926 0.500000 0.332177
O O13 0.262386 0.803580 0.353501
O O14 0.193321 0.500000 0.831905
O O15 0.216884 0.760301 0.768703
O O16 0.438093 0.732617 0.389612
O O17 0.662317 0.000000 0.324801
O O18 0.000000 0.272690 0.500000
O O19 0.788113 0.000000 0.549223
#
# Coordination Sequence:
#
# PCOD9151072 Si02
#       7
#     4   4   4   4   4   4   4
#     4  10  23  43  64  91 126 164 202 244 303 367
#     4  11  26  44  65  96 127 156 199 251 300 357
#     4  10  22  41  62  86 122 166 211 260 312 364
#     4  11  23  39  60  91 127 162 206 253 303 366
#     4  11  23  42  66  91 125 163 201 247 304 368
#     4  10  21  37  61  91 122 159 207 257 304 360
#     4  10  20  37  62  90 121 161 208 254 305 361
#
# _framework density 21.841512999999999
#
# number of rings (size 3 to 8) (size 9 to 14) (size 15 to 20)
#    0.000    1.571    1.429    2.571    2.000    8.571 
#    0.000    1.429    0.000    0.000    0.000    0.000 
#    0.000    0.000    0.000    0.000    0.000    0.000 
#
# Total GULP energy -156427.971419 kJ/mol
# GULP energy per Si atom -5586.713265 kJ/mol
# Density = 2.179180 g / cm^3
# Si number density = 21.841513 Si / 1000 Ang^3
#
#
#
# Elastic Constant Matrix: (Units=GPa)
#
#
# Indices 1 2 3 4 5 6 
#
# 1 112.1828 2.1873 17.0506 0.0000 4.4328 0.0000
# 2 2.1873 20.9950 -5.0050 0.0000 0.7016 0.0000
# 3 17.0506 -5.0050 77.3801 0.0000 1.6420 0.0000
# 4 0.0000 0.0000 0.0000 27.5337 0.0000 11.2079
# 5 4.4328 0.7016 1.6420 0.0000 39.8428 0.0000
# 6 0.0000 0.0000 0.0000 11.2079 0.0000 32.4422
#
#
#
# Elastic Compliance Matrix: (Units=1/GPa)
#
#
# Indices 1 2 3 4 5 6 
#
# 1 0.009301 -0.001444 -0.002123 0.000000 -0.000922 0.000000
# 2 -0.001444 0.048639 0.003482 0.000000 -0.000839 0.000000
# 3 -0.002123 0.003482 0.013625 0.000000 -0.000387 0.000000
# 4 0.000000 0.000000 0.000000 0.042263 0.000000 -0.014601
# 5 -0.000922 -0.000839 -0.000387 0.000000 0.025232 0.000000
# 6 0.000000 0.000000 0.000000 -0.014601 0.000000 0.035868
#
#
# Mechanical properties :
#
#
# Convention : Reuss Voigt Hill
#
# Bulk Modulus (GPa) = 14.00690 26.55821 20.28255
# Shear Modulus (GPa) = 25.13867 33.05207 29.09537
#
# Velocity S-wave (km/s) = 3.39626 3.89430 3.65377
# Velocity P-wave (km/s) = 4.66972 5.69268 5.20639
#
# Compressibility (1/GPa) = 0.07139340
#
# Stress axis : x y z
#
# Youngs Moduli (GPa) = 107.51131 20.55962 73.39699
#
# Poissons Ratio (x) = 0.02970 0.15585
# Poissons Ratio (y) = 0.15529 -0.25557
# Poissons Ratio (z) = 0.22829 -0.07159
#
# Static dielectric constant tensor:
#      x y z
#    x 1.796430 0.000000 0.005550 
#    y 0.000000 1.806090 0.000000 
#    z 0.005550 0.000000 1.792690 
# 
# From -- ./inp_files/91985.got.cif
#   From: 2010.05.17/outbox.cif.g08.bks.cpg/sg10_46_cif.got.tgz:91985.got - 2010.06.03 11:33:40.
