data_PCOD9151179
_publ_section_title
;
Structure prediction by ZEFSAII (Michael W. Deem and Ramdas Pophale) SiO2 
 PCOD9151179
Probable space group: P 2/M
;
_chemical_formula_sum "Si O2"
_cell_formula_units_Z 32
_cell_length_a 25.042461
_cell_length_b 8.985517
_cell_length_c 16.049100
_cell_angle_alpha 90.000000
_cell_angle_beta 152.265575
_cell_angle_gamma 90.000000
_cell_volume 1680.632712
_symmetry_space_group_name_H-M "P 2/M"
_symmetry_group_IT_number 10
_symmetry_cell_setting 'monoclinic'
loop_
_space_group_symop_operation_xyz
x,y,z
-x,y,-z
-x,-y,-z
x,-y,z
loop_
_atom_site_type_symbol
_atom_site_label
_atom_site_fract_x
_atom_site_fract_y
_atom_site_fract_z
Si Si1 0.754367 0.175390 0.479007
Si Si2 0.866922 0.175134 0.815186
Si Si3 0.407252 0.319328 0.303209
Si Si4 0.485349 0.320742 0.884341
Si Si5 0.821209 0.323275 0.913995
Si Si6 0.646308 0.318827 0.955726
Si Si7 0.911794 0.325371 0.301812
Si Si8 0.982429 0.177388 0.712997
O O1 0.813909 0.191724 0.651028
O O2 0.639683 0.268886 0.316307
O O3 0.850606 0.223233 0.544998
O O4 0.728776 0.000000 0.431472
O O5 0.798438 0.266784 0.789637
O O6 0.864488 0.000000 0.834086
O O7 0.000000 0.223103 0.000000
O O8 0.500000 0.266572 0.500000
O O9 0.416552 0.500000 0.314202
O O10 0.282104 0.282109 0.166897
O O11 0.410536 0.269578 0.211066
O O12 0.491792 0.500000 0.894350
O O13 0.578259 0.267754 0.944032
O O14 0.500000 0.267920 0.000000
O O15 0.833220 0.500000 0.932071
O O16 0.937202 0.247227 0.105342
O O17 0.642653 0.500000 0.950821
O O18 0.781374 0.278487 0.142678
O O19 0.905872 0.500000 0.268146
O O20 0.000000 0.314204 0.500000
O O21 0.964401 0.232089 0.299470
O O22 0.986309 0.000000 0.726020
#
# Coordination Sequence:
#
# PCOD9151179 Si02
#       8
#     4   4   4   4   4   4   4   4
#     4  10  23  41  60  82 116 163 203 239 293 355
#     4  10  20  38  57  78 117 160 189 227 292 355
#     4   9  18  32  53  80 113 150 185 228 288 350
#     4  10  23  40  62  89 117 153 199 251 298 347
#     4  11  21  34  57  87 115 148 196 244 291 348
#     4   9  18  36  56  82 121 153 184 234 300 352
#     4  10  21  37  62  90 116 149 188 241 300 352
#     4  11  22  39  60  84 119 158 195 241 299 353
#
# _framework density 19.040448999999999
#
# number of rings (size 3 to 8) (size 9 to 14) (size 15 to 20)
#    0.000    2.000    2.500    0.750    3.500    2.250 
#    0.000    0.625    0.000    1.500    0.000    0.000 
#    0.000    0.000    0.000    0.000    0.000    0.000 
#
# Total GULP energy -178561.380550 kJ/mol
# GULP energy per Si atom -5580.043142 kJ/mol
# Density = 1.899711 g / cm^3
# Si number density = 19.040449 Si / 1000 Ang^3
#
#
#
# Elastic Constant Matrix: (Units=GPa)
#
#
# Indices 1 2 3 4 5 6 
#
# 1 155.4884 28.0424 41.6454 0.0000 7.7114 0.0000
# 2 28.0424 11.7596 9.6775 0.0000 1.8071 0.0000
# 3 41.6454 9.6775 71.2707 0.0000 2.7934 0.0000
# 4 0.0000 0.0000 0.0000 11.4108 0.0000 -6.8158
# 5 7.7114 1.8071 2.7934 0.0000 23.1220 0.0000
# 6 0.0000 0.0000 0.0000 -6.8158 0.0000 18.2226
#
#
#
# Elastic Compliance Matrix: (Units=1/GPa)
#
#
# Indices 1 2 3 4 5 6 
#
# 1 0.012081 -0.025675 -0.003511 0.000000 -0.001599 0.000000
# 2 -0.025675 0.151117 -0.005415 0.000000 -0.002593 0.000000
# 3 -0.003511 -0.005415 0.016835 0.000000 -0.000440 0.000000
# 4 0.000000 0.000000 0.000000 0.112849 0.000000 0.042209
# 5 -0.001599 -0.002593 -0.000440 0.000000 0.044038 0.000000
# 6 0.000000 0.000000 0.000000 0.042209 0.000000 0.070665
#
#
# Mechanical properties :
#
#
# Convention : Reuss Voigt Hill
#
# Bulk Modulus (GPa) = 9.02270 44.13882 26.58076
# Shear Modulus (GPa) = 9.73275 21.16129 15.44702
#
# Velocity S-wave (km/s) = 2.26334 3.33736 2.85138
# Velocity P-wave (km/s) = 3.40283 6.17111 4.98306
#
# Compressibility (1/GPa) = 0.11083158
#
# Stress axis : x y z
#
# Youngs Moduli (GPa) = 82.77210 6.61740 59.40052
#
# Poissons Ratio (x) = 0.16990 0.20853
# Poissons Ratio (y) = 2.12517 0.32167
# Poissons Ratio (z) = 0.29057 0.03583
#
# Static dielectric constant tensor:
#      x y z
#    x 1.684680 0.000000 -0.020280 
#    y 0.000000 1.630780 0.000000 
#    z -0.020280 0.000000 1.662550 
# 
# From -- ./inp_files/71574.got.cif
#   From: 2010.05.17/outbox.cif.g08.bks.cpg/sg10_36_cif.got.tgz:71574.got - 2010.06.03 11:33:40.
