data_PCOD9151963
_publ_section_title
;
Structure prediction by ZEFSAII (Michael W. Deem and Ramdas Pophale) SiO2 
 PCOD9151963
Probable space group: P 2/M
;
_chemical_formula_sum "Si O2"
_cell_formula_units_Z 32
_cell_length_a 18.020143
_cell_length_b 16.233214
_cell_length_c 12.917142
_cell_angle_alpha 90.000000
_cell_angle_beta 26.631742
_cell_angle_gamma 90.000000
_cell_volume 1693.767227
_symmetry_space_group_name_H-M "P 2/M"
_symmetry_group_IT_number 10
_symmetry_cell_setting 'monoclinic'
loop_
_space_group_symop_operation_xyz
x,y,z
-x,y,-z
-x,-y,-z
x,-y,z
loop_
_atom_site_type_symbol
_atom_site_label
_atom_site_fract_x
_atom_site_fract_y
_atom_site_fract_z
Si Si1 0.179364 0.741892 0.315135
Si Si2 0.706538 0.753969 0.048361
Si Si3 0.135794 0.906628 0.740003
Si Si4 0.084303 0.247620 0.654529
Si Si5 0.633824 0.408286 0.910872
Si Si6 0.515864 0.409330 0.294691
Si Si7 0.133114 0.404240 0.742287
Si Si8 0.504299 0.090205 0.371233
O O1 0.197918 0.766794 0.410987
O O2 0.199169 0.643187 0.294765
O O3 0.000000 0.768973 0.500000
O O4 0.300711 0.761371 0.068466
O O5 0.614313 0.672012 0.204812
O O6 0.621266 0.835538 0.195113
O O7 0.896215 0.747558 0.847455
O O8 0.104306 0.831448 0.702327
O O9 0.319218 0.897716 0.558825
O O10 0.123169 0.000000 0.711015
O O11 0.000000 0.901593 0.000000
O O12 0.119329 0.332691 0.672815
O O13 0.667314 0.500000 0.831091
O O14 0.500000 0.369440 0.000000
O O15 0.553345 0.412138 0.124534
O O16 0.566705 0.500000 0.273198
O O17 0.319941 0.399287 0.553487
O O18 0.111710 0.500000 0.731970
O O19 0.000000 0.389964 0.000000
O O20 0.500000 0.088160 0.500000
O O21 0.563605 0.000000 0.260476
#
# Coordination Sequence:
#
# PCOD9151963 Si02
#       8
#     4   4   4   4   4   4   4   4
#     4   9  20  35  49  73 107 143 181 222 267 319
#     4  10  21  36  55  80 112 146 183 227 274 321
#     4  10  21  38  60  85 110 136 174 224 272 323
#     4  11  21  35  57  80 108 146 186 225 271 325
#     4   9  16  27  46  71  96 129 176 225 269 309
#     4   9  18  33  51  72 104 143 181 222 266 316
#     4  10  21  36  53  76 108 145 186 232 280 330
#     4  10  21  38  61  87 112 140 176 219 270 327
#
# _framework density 18.892797000000002
#
# number of rings (size 3 to 8) (size 9 to 14) (size 15 to 20)
#    0.000    2.250    0.000    2.625    0.000    5.750 
#    0.000    3.125    0.000    6.375    0.000    0.000 
#    0.000    0.000    0.000    0.000    0.000    0.000 
#
# Total GULP energy -178268.300793 kJ/mol
# GULP energy per Si atom -5570.884400 kJ/mol
# Density = 1.884980 g / cm^3
# Si number density = 18.892797 Si / 1000 Ang^3
#
#
#
# Elastic Constant Matrix: (Units=GPa)
#
#
# Indices 1 2 3 4 5 6 
#
# 1 49.7415 43.7640 6.7960 0.0000 8.2026 0.0000
# 2 43.7640 129.9878 38.4379 0.0000 7.5954 0.0000
# 3 6.7960 38.4379 48.0615 0.0000 4.4485 0.0000
# 4 0.0000 0.0000 0.0000 10.9740 0.0000 2.9643
# 5 8.2026 7.5954 4.4485 0.0000 22.2186 0.0000
# 6 0.0000 0.0000 0.0000 2.9643 0.0000 3.6967
#
#
#
# Elastic Compliance Matrix: (Units=1/GPa)
#
#
# Indices 1 2 3 4 5 6 
#
# 1 0.030953 -0.011604 0.005700 0.000000 -0.008602 0.000000
# 2 -0.011604 0.014503 -0.010082 0.000000 0.001345 0.000000
# 3 0.005700 -0.010082 0.028468 0.000000 -0.004357 0.000000
# 4 0.000000 0.000000 0.000000 0.116320 0.000000 -0.093275
# 5 -0.008602 0.001345 -0.004357 0.000000 0.048596 0.000000
# 6 0.000000 0.000000 0.000000 -0.093275 0.000000 0.345311
#
#
# Mechanical properties :
#
#
# Convention : Reuss Voigt Hill
#
# Bulk Modulus (GPa) = 23.83777 45.08739 34.46258
# Shear Modulus (GPa) = 7.93517 16.63072 12.28294
#
# Velocity S-wave (km/s) = 2.05164 2.97015 2.55255
# Velocity P-wave (km/s) = 4.27283 5.97319 5.19308
#
# Compressibility (1/GPa) = 0.04195024
#
# Stress axis : x y z
#
# Youngs Moduli (GPa) = 32.30681 68.95266 35.12767
#
# Poissons Ratio (x) = 0.80014 -0.20022
# Poissons Ratio (y) = 0.37489 0.35417
# Poissons Ratio (z) = -0.18415 0.69521
#
# Static dielectric constant tensor:
#      x y z
#    x 1.686780 0.000000 0.003740 
#    y 0.000000 1.665910 0.000000 
#    z 0.003740 0.000000 1.670000 
# 
# From -- ./inp_files/53996.got.cif
#   From: 2010.05.17/outbox.cif.g08.bks.cpg/sg10_27_cif.got.tgz:53996.got - 2010.06.03 11:33:40.
