data_PCOD9151812
_publ_section_title
;
Structure prediction by ZEFSAII (Michael W. Deem and Ramdas Pophale) SiO2 
 PCOD9151812
Probable space group: P 2/M
;
_chemical_formula_sum "Si O2"
_cell_formula_units_Z 32
_cell_length_a 28.747966
_cell_length_b 9.037965
_cell_length_c 23.043889
_cell_angle_alpha 90.000000
_cell_angle_beta 161.808368
_cell_angle_gamma 90.000000
_cell_volume 1869.223045
_symmetry_space_group_name_H-M "P 2/M"
_symmetry_group_IT_number 10
_symmetry_cell_setting 'monoclinic'
loop_
_space_group_symop_operation_xyz
x,y,z
-x,y,-z
-x,-y,-z
x,-y,z
loop_
_atom_site_type_symbol
_atom_site_label
_atom_site_fract_x
_atom_site_fract_y
_atom_site_fract_z
Si Si1 0.293671 0.824335 0.493422
Si Si2 0.651833 0.177281 0.211026
Si Si3 0.543368 0.323231 0.485335
Si Si4 0.213121 0.676074 0.518469
Si Si5 0.104344 0.323041 0.800684
Si Si6 0.031985 0.177270 0.471601
Si Si7 0.605376 0.823083 0.799900
Si Si8 0.164206 0.177304 0.217008
O O1 0.250673 0.738155 0.499963
O O2 0.461331 0.792937 0.669881
O O3 0.188443 0.788413 0.313736
O O4 0.282887 0.000000 0.491782
O O5 0.680963 0.253079 0.307154
O O6 0.796936 0.208576 0.343499
O O7 0.644755 0.000000 0.211065
O O8 0.500000 0.225122 0.000000
O O9 0.500000 0.289065 0.500000
O O10 0.538622 0.500000 0.471648
O O11 0.434552 0.246375 0.309797
O O12 0.707601 0.262079 0.665753
O O13 0.228469 0.500000 0.537678
O O14 0.043816 0.712650 0.337294
O O15 0.121587 0.500000 0.819418
O O16 0.070651 0.260149 0.696661
O O17 0.248048 0.247789 0.999013
O O18 0.000000 0.218993 0.500000
O O19 0.008702 0.000000 0.438342
O O20 0.620264 0.000000 0.812451
O O21 0.188494 0.000000 0.239400
O O22 0.000000 0.212969 0.000000
#
# Coordination Sequence:
#
# PCOD9151812 Si02
#       8
#     4   4   4   4   4   4   4   4
#     4   9  19  35  54  77 104 134 172 217 259 303
#     4   9  18  33  52  73  99 132 169 211 256 300
#     4  10  21  36  54  79 110 140 172 213 262 314
#     4  10  21  35  52  76 106 139 173 210 254 308
#     4  10  21  36  53  77 109 140 173 214 260 312
#     4   9  18  33  52  74 101 134 174 216 256 303
#     4  10  21  37  57  79 103 136 178 219 260 308
#     4   9  19  36  56  79 106 137 177 220 259 305
#
# _framework density 17.119410999999999
#
# number of rings (size 3 to 8) (size 9 to 14) (size 15 to 20)
#    0.000    2.500    0.000    2.250    0.000    7.750 
#    0.000    5.000    0.000    0.000    0.000    0.000 
#    0.000    0.000    0.000    0.000    0.000    0.000 
#
# Total GULP energy -178561.998529 kJ/mol
# GULP energy per Si atom -5580.062454 kJ/mol
# Density = 1.708045 g / cm^3
# Si number density = 17.119411 Si / 1000 Ang^3
#
#
#
# Elastic Constant Matrix: (Units=GPa)
#
#
# Indices 1 2 3 4 5 6 
#
# 1 157.5467 71.4672 87.8761 0.0000 -25.5158 0.0000
# 2 71.4672 55.4313 71.5197 0.0000 -11.1685 0.0000
# 3 87.8761 71.5197 179.3050 0.0000 -23.5367 0.0000
# 4 0.0000 0.0000 0.0000 9.7474 0.0000 0.1846
# 5 -25.5158 -11.1685 -23.5367 0.0000 9.9569 0.0000
# 6 0.0000 0.0000 0.0000 0.1846 0.0000 26.3042
#
#
#
# Elastic Compliance Matrix: (Units=1/GPa)
#
#
# Indices 1 2 3 4 5 6 
#
# 1 0.022049 -0.027343 0.005062 0.000000 0.037799 0.000000
# 2 -0.027343 0.071726 -0.020075 0.000000 -0.037071 0.000000
# 3 0.005062 -0.020075 0.014282 0.000000 0.024215 0.000000
# 4 0.000000 0.000000 0.000000 0.102605 0.000000 -0.000720
# 5 0.037799 -0.037071 0.024215 0.000000 0.212959 0.000000
# 6 0.000000 0.000000 0.000000 -0.000720 0.000000 0.038022
#
#
# Mechanical properties :
#
#
# Convention : Reuss Voigt Hill
#
# Bulk Modulus (GPa) = 42.83504 94.88989 68.86246
# Shear Modulus (GPa) = 9.02303 19.96305 14.49304
#
# Velocity S-wave (km/s) = 2.29828 3.41853 2.91277
# Velocity P-wave (km/s) = 5.66731 8.43388 7.18501
#
# Compressibility (1/GPa) = 0.02334537
#
# Stress axis : x y z
#
# Youngs Moduli (GPa) = 45.35277 13.94191 70.01735
#
# Poissons Ratio (x) = 0.38122 -0.35443
# Poissons Ratio (y) = 1.24010 1.40559
# Poissons Ratio (z) = -0.22958 0.27988
#
# Static dielectric constant tensor:
#      x y z
#    x 1.554390 0.000000 0.005820 
#    y 0.000000 1.568450 0.000000 
#    z 0.005820 0.000000 1.560000 
# 
# From -- ./inp_files/87072.got.cif
#   From: 2010.05.17/outbox.cif.g08.bks.cpg/sg10_44_cif.got.tgz:87072.got - 2010.06.03 11:33:40.
