data_PCOD9151558
_publ_section_title
;
Structure prediction by ZEFSAII (Michael W. Deem and Ramdas Pophale) SiO2 
 PCOD9151558
Probable space group: P 2/M
;
_chemical_formula_sum "Si O2"
_cell_formula_units_Z 32
_cell_length_a 12.848492
_cell_length_b 7.772448
_cell_length_c 15.153065
_cell_angle_alpha 90.000000
_cell_angle_beta 88.373566
_cell_angle_gamma 90.000000
_cell_volume 1512.639611
_symmetry_space_group_name_H-M "P 2/M"
_symmetry_group_IT_number 10
_symmetry_cell_setting 'monoclinic'
loop_
_space_group_symop_operation_xyz
x,y,z
-x,y,-z
-x,-y,-z
x,-y,z
loop_
_atom_site_type_symbol
_atom_site_label
_atom_site_fract_x
_atom_site_fract_y
_atom_site_fract_z
Si Si1 0.600738 0.704303 0.446700
Si Si2 0.544263 0.793120 0.904941
Si Si3 0.236800 0.305437 0.044374
Si Si4 0.027987 0.291452 0.358826
Si Si5 0.390252 0.209513 0.755415
Si Si6 0.189575 0.197306 0.856380
Si Si7 0.039531 0.200694 0.158271
Si Si8 0.166455 0.290246 0.523004
O O1 0.500000 0.775923 0.500000
O O2 0.604616 0.500000 0.465510
O O3 0.586567 0.731016 0.343120
O O4 0.715600 0.773148 0.469394
O O5 0.664876 0.744853 0.898819
O O6 0.475201 0.731881 0.824960
O O7 0.536787 0.000000 0.906063
O O8 0.500000 0.729696 0.000000
O O9 0.249856 0.500000 0.013998
O O10 0.131401 0.286836 0.101710
O O11 0.232983 0.197223 0.954684
O O12 0.028451 0.500000 0.352800
O O13 0.053430 0.218089 0.262759
O O14 0.111093 0.242006 0.432286
O O15 0.913757 0.237535 0.397505
O O16 0.277009 0.273059 0.790580
O O17 0.388651 0.000000 0.756817
O O18 0.074829 0.276392 0.859235
O O19 0.174223 0.000000 0.827636
O O20 0.041900 0.000000 0.131765
O O21 0.167848 0.500000 0.525213
#
# Coordination Sequence:
#
# PCOD9151558 Si02
#       8
#     4   4   4   4   4   4   4   4
#     4  10  21  36  54  80 116 152 187 232 287 342
#     4  10  20  40  65  84 114 154 191 235 289 349
#     4  12  25  38  57  85 117 150 192 242 286 338
#     4   9  17  33  57  80 106 144 191 237 281 338
#     4  10  21  38  63  89 112 148 195 239 289 343
#     4  10  21  40  61  82 113 153 193 234 288 351
#     4  11  23  37  56  83 118 154 191 234 289 351
#     4   8  16  33  56  79 107 147 188 230 288 345
#
# _framework density 21.155073000000002
#
# number of rings (size 3 to 8) (size 9 to 14) (size 15 to 20)
#    0.000    2.000    1.250    3.375    0.000    5.000 
#    0.000    3.125    0.000    0.000    0.000    0.000 
#    0.000    0.000    0.000    0.000    0.000    0.000 
#
# Total GULP energy -178783.674496 kJ/mol
# GULP energy per Si atom -5586.989828 kJ/mol
# Density = 2.110692 g / cm^3
# Si number density = 21.155073 Si / 1000 Ang^3
#
#
#
# Elastic Constant Matrix: (Units=GPa)
#
#
# Indices 1 2 3 4 5 6 
#
# 1 152.4711 0.7136 77.5788 0.0000 -11.0005 0.0000
# 2 0.7136 32.5131 -10.0478 0.0000 0.5069 0.0000
# 3 77.5788 -10.0478 67.3575 0.0000 -7.7388 0.0000
# 4 0.0000 0.0000 0.0000 24.6573 0.0000 -1.7712
# 5 -11.0005 0.5069 -7.7388 0.0000 30.1414 0.0000
# 6 0.0000 0.0000 0.0000 -1.7712 0.0000 -20.9632
#
#
#
# Elastic Compliance Matrix: (Units=1/GPa)
#
#
# Indices 1 2 3 4 5 6 
#
# 1 0.017200 -0.006791 -0.020700 0.000000 0.001077 0.000000
# 2 -0.006791 0.034940 0.013067 0.000000 0.000289 0.000000
# 3 -0.020700 0.013067 0.040951 0.000000 0.002740 0.000000
# 4 0.000000 0.000000 0.000000 0.040311 0.000000 -0.003406
# 5 0.001077 0.000289 0.002740 0.000000 0.034269 0.000000
# 6 0.000000 0.000000 0.000000 -0.003406 0.000000 -0.047415
#
#
# Mechanical properties :
#
#
# Convention : Reuss Voigt Hill
#
# Bulk Modulus (GPa) = 15.56594 43.20344 29.38469
# Shear Modulus (GPa) = 29.32233 19.04024 24.18128
#
# Velocity S-wave (km/s) = 3.72703 3.00331 3.38457
# Velocity P-wave (km/s) = 5.08871 5.70027 5.40315
#
# Compressibility (1/GPa) = 0.06424283
#
# Stress axis : x y z
#
# Youngs Moduli (GPa) = 58.13826 28.62087 24.41935
#
# Poissons Ratio (x) = 0.19437 0.50548
# Poissons Ratio (y) = 0.39484 -0.31909
# Poissons Ratio (z) = 1.20345 -0.37399
#
# Static dielectric constant tensor:
#      x y z
#    x 1.776660 0.000000 0.011320 
#    y 0.000000 1.766810 0.000000 
#    z 0.011320 0.000000 1.712080 
# 
# From -- ./inp_files/63818.got.cif
#   From: 2010.05.17/outbox.cif.g08.bks.cpg/sg10_32_cif.got.tgz:63818.got - 2010.06.03 11:33:40.
