data_PCOD9151519
_publ_section_title
;
Structure prediction by ZEFSAII (Michael W. Deem and Ramdas Pophale) SiO2 
 PCOD9151519
Probable space group: P 2/M
;
_chemical_formula_sum "Si O2"
_cell_formula_units_Z 32
_cell_length_a 19.848774
_cell_length_b 14.859413
_cell_length_c 8.595571
_cell_angle_alpha 90.000000
_cell_angle_beta 139.519049
_cell_angle_gamma 90.000000
_cell_volume 1645.831514
_symmetry_space_group_name_H-M "P 2/M"
_symmetry_group_IT_number 10
_symmetry_cell_setting 'monoclinic'
loop_
_space_group_symop_operation_xyz
x,y,z
-x,y,-z
-x,-y,-z
x,-y,z
loop_
_atom_site_type_symbol
_atom_site_label
_atom_site_fract_x
_atom_site_fract_y
_atom_site_fract_z
Si Si1 0.024316 0.280938 0.216633
Si Si2 0.147973 0.102134 0.383895
Si Si3 0.313215 0.797457 0.480624
Si Si4 0.196493 0.602507 0.699773
Si Si5 0.742242 0.901007 0.089839
Si Si6 0.602625 0.668254 0.100595
Si Si7 0.524502 0.814116 0.718060
Si Si8 0.191046 0.272098 0.982980
O O1 0.061820 0.178002 0.260385
O O2 0.114804 0.337659 0.458477
O O3 0.922395 0.282779 0.143140
O O4 0.000000 0.315871 0.000000
O O5 0.221911 0.136796 0.375125
O O6 0.111623 0.000000 0.295485
O O7 0.216359 0.103044 0.661526
O O8 0.345498 0.735049 0.681823
O O9 0.417216 0.847151 0.605901
O O10 0.271253 0.735678 0.266617
O O11 0.160628 0.500000 0.651357
O O12 0.306623 0.606479 0.804942
O O13 0.209895 0.649869 0.890788
O O14 0.619123 0.883453 0.877288
O O15 0.765305 0.000000 0.066292
O O16 0.794983 0.821652 0.085073
O O17 0.500000 0.626958 0.000000
O O18 0.563385 0.731219 0.890715
O O19 0.500000 0.785175 0.500000
#
# Coordination Sequence:
#
# PCOD9151519 Si02
#       8
#     4   4   4   4   4   4   4   4
#     4  12  24  44  68  91 128 170 211 270 324 369
#     4  11  23  41  63  93 129 171 221 262 311 374
#     4  11  20  38  65  90 126 175 209 260 314 379
#     4  12  25  45  70  97 127 161 211 265 324 389
#     4  11  23  39  60  91 131 172 216 261 316 378
#     4  10  20  39  68  95 126 167 210 249 322 377
#     4  11  19  35  62  90 128 172 214 256 316 380
#     4  12  23  42  65  88 129 168 214 266 325 371
#
# _framework density 19.443059000000002
#
# number of rings (size 3 to 8) (size 9 to 14) (size 15 to 20)
#    0.000    0.750    7.500    0.375    0.000    3.500 
#    0.000    4.375    0.000    7.125    0.000    0.000 
#    0.000    0.000    0.000    0.000    0.000    0.000 
#
# Total GULP energy -178774.972006 kJ/mol
# GULP energy per Si atom -5586.717875 kJ/mol
# Density = 1.939881 g / cm^3
# Si number density = 19.443059 Si / 1000 Ang^3
#
#
#
# Elastic Constant Matrix: (Units=GPa)
#
#
# Indices 1 2 3 4 5 6 
#
# 1 122.7198 35.6473 21.3531 0.0000 9.2983 0.0000
# 2 35.6473 91.2362 21.9291 0.0000 -3.8249 0.0000
# 3 21.3531 21.9291 101.4773 0.0000 -18.3047 0.0000
# 4 0.0000 0.0000 0.0000 0.5097 0.0000 -7.7471
# 5 9.2983 -3.8249 -18.3047 0.0000 42.9706 0.0000
# 6 0.0000 0.0000 0.0000 -7.7471 0.0000 0.5998
#
#
#
# Elastic Compliance Matrix: (Units=1/GPa)
#
#
# Indices 1 2 3 4 5 6 
#
# 1 0.009731 -0.003486 -0.001874 0.000000 -0.003214 0.000000
# 2 -0.003486 0.012810 -0.001834 0.000000 0.001114 0.000000
# 3 -0.001874 -0.001834 0.011578 0.000000 0.005174 0.000000
# 4 0.000000 0.000000 0.000000 -0.010045 0.000000 -0.129742
# 5 -0.003214 0.001114 0.005174 0.000000 0.026271 0.000000
# 6 0.000000 0.000000 0.000000 -0.129742 0.000000 -0.008537
#
#
# Mechanical properties :
#
#
# Convention : Reuss Voigt Hill
#
# Bulk Modulus (GPa) = 50.68109 52.58804 51.63456
# Shear Modulus (GPa) = 79.65043 24.58294 52.11669
#
# Velocity S-wave (km/s) = 6.40741 3.55964 5.18295
# Velocity P-wave (km/s) = 8.99238 6.63329 7.90138
#
# Compressibility (1/GPa) = 0.01973123
#
# Stress axis : x y z
#
# Youngs Moduli (GPa) = 102.76468 78.06290 86.36753
#
# Poissons Ratio (x) = 0.27216 0.16185
# Poissons Ratio (y) = 0.35827 0.15838
# Poissons Ratio (z) = 0.19258 0.14315
#
# Static dielectric constant tensor:
#      x y z
#    x 1.689440 0.000000 0.008020 
#    y 0.000000 1.652830 0.000000 
#    z 0.008020 0.000000 1.692040 
# 
# From -- ./inp_files/35168.got.cif
#   From: 2010.05.17/outbox.cif.g08.bks.cpg/sg10_18_cif.got.tgz:35168.got - 2010.06.03 11:33:40.
