data_PCOD9151964
_publ_section_title
;
Structure prediction by ZEFSAII (Michael W. Deem and Ramdas Pophale) SiO2 
 PCOD9151964
Probable space group: P 2/M
;
_chemical_formula_sum "Si O2"
_cell_formula_units_Z 24
_cell_length_a 10.712573
_cell_length_b 29.052985
_cell_length_c 5.159210
_cell_angle_alpha 90.000000
_cell_angle_beta 125.815181
_cell_angle_gamma 90.000000
_cell_volume 1302.086314
_symmetry_space_group_name_H-M "P 2/M"
_symmetry_group_IT_number 10
_symmetry_cell_setting 'monoclinic'
loop_
_space_group_symop_operation_xyz
x,y,z
-x,y,-z
-x,-y,-z
x,-y,z
loop_
_atom_site_type_symbol
_atom_site_label
_atom_site_fract_x
_atom_site_fract_y
_atom_site_fract_z
Si Si1 0.815057 0.808194 0.764971
Si Si2 0.606358 0.052446 0.874989
Si Si3 0.607324 0.276043 0.382238
Si Si4 0.814926 0.136713 0.265967
Si Si5 0.104161 0.552914 0.382392
Si Si6 0.607677 0.617885 0.380111
O O1 0.741400 0.760996 0.576731
O O2 0.768278 0.846470 0.495142
O O3 0.768558 0.825123 0.994715
O O4 0.000000 0.804375 0.000000
O O5 0.500000 0.064420 0.500000
O O6 0.663706 0.000000 0.905400
O O7 0.500000 0.052799 0.000000
O O8 0.738945 0.089336 0.084821
O O9 0.500000 0.269642 0.500000
O O10 0.663165 0.328973 0.458213
O O11 0.500000 0.269505 0.000000
O O12 0.000000 0.132851 0.500000
O O13 0.151713 0.500000 0.498146
O O14 0.250245 0.584067 0.492869
O O15 0.000000 0.568885 0.500000
O O16 0.000000 0.552528 0.000000
O O17 0.500000 0.608598 0.500000
O O18 0.500000 0.614091 0.000000
#
# Coordination Sequence:
#
# PCOD9151964 Si02
#       6
#     4   4   4   4   4   4
#     4  10  21  36  53  77 106 136 174 216 259 311
#     4  10  21  36  54  78 105 133 170 213 256 307
#     4  10  21  36  54  78 107 139 178 221 264 316
#     4  10  21  36  54  77 105 136 172 213 257 310
#     4  10  21  37  57  83 113 145 185 230 275 327
#     4  10  21  37  56  81 112 145 184 228 274 327
#
# _framework density 18.431956
#
# number of rings (size 3 to 8) (size 9 to 14) (size 15 to 20)
#    0.000    2.000    0.000    3.000    0.000    5.667 
#    0.000    2.500    0.000    6.000    0.000    0.000 
#    0.000    0.000    0.000    0.000    0.000    0.000 
#
# Total GULP energy -133933.509995 kJ/mol
# GULP energy per Si atom -5580.562916 kJ/mol
# Density = 1.839000 g / cm^3
# Si number density = 18.431956 Si / 1000 Ang^3
#
#
#
# Elastic Constant Matrix: (Units=GPa)
#
#
# Indices 1 2 3 4 5 6 
#
# 1 64.6352 49.9814 50.7799 0.0000 -16.0965 0.0000
# 2 49.9814 112.2502 59.4460 0.0000 20.2284 0.0000
# 3 50.7799 59.4460 107.4191 0.0000 -19.6377 0.0000
# 4 0.0000 0.0000 0.0000 253.3658 0.0000 184.7987
# 5 -16.0965 20.2284 -19.6377 0.0000 31.2772 0.0000
# 6 0.0000 0.0000 0.0000 184.7987 0.0000 195.5632
#
#
#
# Elastic Compliance Matrix: (Units=1/GPa)
#
#
# Indices 1 2 3 4 5 6 
#
# 1 0.051751 -0.034399 0.003964 0.000000 0.051369 0.000000
# 2 -0.034399 0.045374 -0.019712 0.000000 -0.059425 0.000000
# 3 0.003964 -0.019712 0.023777 0.000000 0.029717 0.000000
# 4 0.000000 0.000000 0.000000 0.012700 0.000000 -0.012001
# 5 0.051369 -0.059425 0.029717 0.000000 0.115500 0.000000
# 6 0.000000 0.000000 0.000000 -0.012001 0.000000 0.016454
#
#
# Mechanical properties :
#
#
# Convention : Reuss Voigt Hill
#
# Bulk Modulus (GPa) = 48.52952 67.19102 57.86027
# Shear Modulus (GPa) = 13.41491 104.31438 58.86464
#
# Velocity S-wave (km/s) = 2.70072 7.53108 5.65734
# Velocity P-wave (km/s) = 6.00927 10.59035 8.61008
#
# Compressibility (1/GPa) = 0.02060602
#
# Stress axis : x y z
#
# Youngs Moduli (GPa) = 19.32348 22.03924 42.05711
#
# Poissons Ratio (x) = 0.75813 -0.16670
# Poissons Ratio (y) = 0.66471 0.82904
# Poissons Ratio (z) = -0.07659 0.43444
#
# Static dielectric constant tensor:
#      x y z
#    x 1.610450 0.000000 -0.021060 
#    y 0.000000 1.657880 0.000000 
#    z -0.021060 0.000000 1.604890 
# 
# From -- ./inp_files/8052.got.cif
#   From: 2010.05.17/outbox.cif.g08.bks.cpg/sg10_5_cif.got.tgz:8052.got - 2010.06.03 11:33:40.
