data_PCOD9151265
_publ_section_title
;
Structure prediction by ZEFSAII (Michael W. Deem and Ramdas Pophale) SiO2 
 PCOD9151265
Probable space group: P 2/M
;
_chemical_formula_sum "Si O2"
_cell_formula_units_Z 18
_cell_length_a 9.656854
_cell_length_b 20.306857
_cell_length_c 9.014247
_cell_angle_alpha 90.000000
_cell_angle_beta 149.678909
_cell_angle_gamma 90.000000
_cell_volume 892.413731
_symmetry_space_group_name_H-M "P 2/M"
_symmetry_group_IT_number 10
_symmetry_cell_setting 'monoclinic'
loop_
_space_group_symop_operation_xyz
x,y,z
-x,y,-z
-x,-y,-z
x,-y,z
loop_
_atom_site_type_symbol
_atom_site_label
_atom_site_fract_x
_atom_site_fract_y
_atom_site_fract_z
Si Si1 0.552050 0.698353 0.218627
Si Si2 0.708802 0.156663 0.311041
Si Si3 0.209952 0.923833 0.314723
Si Si4 0.989050 0.638091 0.167323
Si Si5 0.785199 0.500000 0.671012
O O1 0.543336 0.777713 0.208903
O O2 0.838538 0.685003 0.565371
O O3 0.500000 0.679314 0.000000
O O4 0.325845 0.654554 0.092026
O O5 0.772640 0.114105 0.514827
O O6 0.000000 0.172915 0.500000
O O7 0.500000 0.123450 0.000000
O O8 0.500000 0.923483 0.500000
O O9 0.129449 0.000000 0.269231
O O10 0.000000 0.894698 0.000000
O O11 0.129356 0.567050 0.332414
O O12 0.000000 0.648167 0.000000
O O13 0.500000 0.500000 0.500000
O O14 0.000000 0.500000 0.000000
#
# Coordination Sequence:
#
# PCOD9151265 Si02
#       5
#     4   4   4   4   2
#     4  11  23  40  57  85 125 157 192 250 306 348
#     4  11  23  40  61  86 119 164 206 244 297 364
#     4  10  22  40  62  92 127 158 196 255 311 352
#     4  11  22  39  63  88 114 155 203 245 295 361
#     4  10  20  38  61  90 121 152 197 254 303 354
#
# _framework density 20.170017000000001
#
# number of rings (size 3 to 8) (size 9 to 14) (size 15 to 20)
#    0.000    1.333    0.000    8.000    0.000    3.556 
#    0.000    3.333    0.000    0.000    0.000    0.000 
#    0.000    0.000    0.000    0.000    0.000    0.000 
#
# Total GULP energy -100257.171952 kJ/mol
# GULP energy per Si atom -5569.842886 kJ/mol
# Density = 2.012411 g / cm^3
# Si number density = 20.170017 Si / 1000 Ang^3
#
#
#
# Elastic Constant Matrix: (Units=GPa)
#
#
# Indices 1 2 3 4 5 6 
#
# 1 76.2824 41.8332 8.3765 0.0000 -10.9252 0.0000
# 2 41.8332 63.1915 7.8330 0.0000 -12.9715 0.0000
# 3 8.3765 7.8330 123.5866 0.0000 -14.8290 0.0000
# 4 0.0000 0.0000 0.0000 40.1364 0.0000 5.2827
# 5 -10.9252 -12.9715 -14.8290 0.0000 52.9296 0.0000
# 6 0.0000 0.0000 0.0000 5.2827 0.0000 38.1451
#
#
#
# Elastic Compliance Matrix: (Units=1/GPa)
#
#
# Indices 1 2 3 4 5 6 
#
# 1 0.020651 -0.013443 -0.000447 0.000000 0.000843 0.000000
# 2 -0.013443 0.025455 -0.000297 0.000000 0.003380 0.000000
# 3 -0.000447 -0.000297 0.008403 0.000000 0.002189 0.000000
# 4 0.000000 0.000000 0.000000 0.025378 0.000000 -0.003515
# 5 0.000843 0.003380 0.002189 0.000000 0.020509 0.000000
# 6 0.000000 0.000000 0.000000 -0.003515 0.000000 0.026702
#
#
# Mechanical properties :
#
#
# Convention : Reuss Voigt Hill
#
# Bulk Modulus (GPa) = 38.25940 42.12730 40.19335
# Shear Modulus (GPa) = 30.45407 39.91007 35.18207
#
# Velocity S-wave (km/s) = 3.88992 4.45306 4.18098
# Velocity P-wave (km/s) = 6.25979 6.88267 6.57860
#
# Compressibility (1/GPa) = 0.02613736
#
# Stress axis : x y z
#
# Youngs Moduli (GPa) = 48.42411 39.28549 119.00138
#
# Poissons Ratio (x) = 0.52810 0.05314
# Poissons Ratio (y) = 0.65095 0.03530
# Poissons Ratio (z) = 0.02162 0.01165
#
# Static dielectric constant tensor:
#      x y z
#    x 1.721040 0.000000 -0.010990 
#    y 0.000000 1.916340 0.000000 
#    z -0.010990 0.000000 1.674300 
# 
# From -- ./inp_files/15118.got.cif
#   From: 2010.05.17/outbox.cif.g08.bks.cpg/sg10_8_cif.got.tgz:15118.got - 2010.06.03 11:33:40.
