data_PCOD9151889
_publ_section_title
;
Structure prediction by ZEFSAII (Michael W. Deem and Ramdas Pophale) SiO2 
 PCOD9151889
Probable space group: P 2/M
;
_chemical_formula_sum "Si O2"
_cell_formula_units_Z 28
_cell_length_a 9.826795
_cell_length_b 8.550024
_cell_length_c 25.925975
_cell_angle_alpha 90.000000
_cell_angle_beta 135.367822
_cell_angle_gamma 90.000000
_cell_volume 1530.358965
_symmetry_space_group_name_H-M "P 2/M"
_symmetry_group_IT_number 10
_symmetry_cell_setting 'monoclinic'
loop_
_space_group_symop_operation_xyz
x,y,z
-x,y,-z
-x,-y,-z
x,-y,z
loop_
_atom_site_type_symbol
_atom_site_label
_atom_site_fract_x
_atom_site_fract_y
_atom_site_fract_z
Si Si1 0.982724 0.311915 0.737138
Si Si2 0.611654 0.324115 0.288727
Si Si3 0.280787 0.185753 0.428629
Si Si4 0.197974 0.685751 0.205408
Si Si5 0.599375 0.820468 0.178796
Si Si6 0.971171 0.680173 0.548686
Si Si7 0.815283 0.689090 0.917297
O O1 0.974853 0.500000 0.734107
O O2 0.205494 0.260890 0.788992
O O3 0.838823 0.255237 0.652439
O O4 0.912697 0.251779 0.774500
O O5 0.579860 0.500000 0.256936
O O6 0.428674 0.296298 0.275818
O O7 0.616995 0.198496 0.245258
O O8 0.814571 0.327112 0.370688
O O9 0.500000 0.242834 0.500000
O O10 0.160289 0.226776 0.447303
O O11 0.289595 0.000000 0.422839
O O12 0.154510 0.500000 0.192047
O O13 0.166188 0.742719 0.137846
O O14 0.387708 0.745108 0.112682
O O15 0.598555 0.000000 0.162524
O O16 0.897676 0.500000 0.524142
O O17 0.000000 0.749373 0.500000
O O18 0.813753 0.500000 0.916484
O O19 0.000000 0.741872 0.000000
#
# Coordination Sequence:
#
# PCOD9151889 Si02
#       7
#     4   4   4   4   4   4   4
#     4  11  21  36  59  82 109 147 190 235 275 327
#     4   9  17  34  55  78 106 138 183 234 275 325
#     4  11  25  41  54  76 113 152 188 234 288 339
#     4   8  17  32  55  85 111 137 180 231 277 321
#     4  11  21  34  55  82 114 149 182 221 272 333
#     4  10  21  35  57  83 106 138 186 238 283 331
#     4   9  18  37  64  89 114 144 182 229 275 326
#
# _framework density 18.296361000000001
#
# number of rings (size 3 to 8) (size 9 to 14) (size 15 to 20)
#    0.000    2.143    1.429    3.000    2.000    1.714 
#    0.000    6.429    0.000    4.286    0.000    0.000 
#    0.000    0.000    0.000    0.000    0.000    0.000 
#
# Total GULP energy -155958.126518 kJ/mol
# GULP energy per Si atom -5569.933090 kJ/mol
# Density = 1.825472 g / cm^3
# Si number density = 18.296361 Si / 1000 Ang^3
#
#
#
# Elastic Constant Matrix: (Units=GPa)
#
#
# Indices 1 2 3 4 5 6 
#
# 1 144.6794 22.9752 70.8242 0.0000 15.8220 0.0000
# 2 22.9752 38.8675 22.6076 0.0000 5.7244 0.0000
# 3 70.8242 22.6076 120.0390 0.0000 24.9950 0.0000
# 4 0.0000 0.0000 0.0000 15.7668 0.0000 8.6137
# 5 15.8220 5.7244 24.9950 0.0000 22.6746 0.0000
# 6 0.0000 0.0000 0.0000 8.6137 0.0000 -7.9494
#
#
#
# Elastic Compliance Matrix: (Units=1/GPa)
#
#
# Indices 1 2 3 4 5 6 
#
# 1 0.009983 -0.002766 -0.005275 0.000000 -0.000453 0.000000
# 2 -0.002766 0.029710 -0.003639 0.000000 -0.001559 0.000000
# 3 -0.005275 -0.003639 0.014498 0.000000 -0.011383 0.000000
# 4 0.000000 0.000000 0.000000 0.039840 0.000000 0.043169
# 5 -0.000453 -0.001559 -0.011383 0.000000 0.057359 0.000000
# 6 0.000000 0.000000 0.000000 0.043169 0.000000 -0.079018
#
#
# Mechanical properties :
#
#
# Convention : Reuss Voigt Hill
#
# Bulk Modulus (GPa) = 32.43417 59.59997 46.01707
# Shear Modulus (GPa) = 47.16646 18.57699 32.87173
#
# Velocity S-wave (km/s) = 5.08283 3.18989 4.24326
# Velocity P-wave (km/s) = 7.22582 6.79799 7.01517
#
# Compressibility (1/GPa) = 0.03083168
#
# Stress axis : x y z
#
# Youngs Moduli (GPa) = 100.17332 33.65905 68.97469
#
# Poissons Ratio (x) = 0.09311 0.36381
# Poissons Ratio (y) = 0.27710 0.25097
# Poissons Ratio (z) = 0.52837 0.12247
#
# Static dielectric constant tensor:
#      x y z
#    x 1.635500 0.000000 0.000740 
#    y 0.000000 1.655550 0.000000 
#    z 0.000740 0.000000 1.646380 
# 
# From -- ./inp_files/92109.got.cif
#   From: 2010.05.17/outbox.cif.g08.bks.cpg/sg10_47_cif.got.tgz:92109.got - 2010.06.03 11:33:40.
