data_PCOD9151724
_publ_section_title
;
Structure prediction by ZEFSAII (Michael W. Deem and Ramdas Pophale) SiO2 
 PCOD9151724
Probable space group: P 2/M
;
_chemical_formula_sum "Si O2"
_cell_formula_units_Z 28
_cell_length_a 18.878586
_cell_length_b 14.399012
_cell_length_c 10.369161
_cell_angle_alpha 90.000000
_cell_angle_beta 34.308776
_cell_angle_gamma 90.000000
_cell_volume 1588.756243
_symmetry_space_group_name_H-M "P 2/M"
_symmetry_group_IT_number 10
_symmetry_cell_setting 'monoclinic'
loop_
_space_group_symop_operation_xyz
x,y,z
-x,y,-z
-x,-y,-z
x,-y,z
loop_
_atom_site_type_symbol
_atom_site_label
_atom_site_fract_x
_atom_site_fract_y
_atom_site_fract_z
Si Si1 0.176058 0.201433 0.503769
Si Si2 0.831911 0.000000 0.386450
Si Si3 0.865879 0.000000 0.036935
Si Si4 0.703210 0.240758 0.946865
Si Si5 0.488944 0.891232 0.361473
Si Si6 0.493798 0.609108 0.663522
Si Si7 0.283715 0.263610 0.605943
Si Si8 0.123553 0.200961 0.080947
O O1 0.211789 0.094118 0.480324
O O2 0.250196 0.237999 0.269005
O O3 0.211324 0.255542 0.580710
O O4 0.026724 0.205271 0.702030
O O5 0.810552 0.000000 0.264560
O O6 0.983613 0.000000 0.171692
O O7 0.834899 0.093951 0.008317
O O8 0.820030 0.233536 0.868945
O O9 0.613309 0.152869 0.111822
O O10 0.619129 0.330125 0.108422
O O11 0.500000 0.880938 0.500000
O O12 0.375387 0.825884 0.485139
O O13 0.474959 0.000000 0.353291
O O14 0.500000 0.626409 0.500000
O O15 0.478415 0.500000 0.708790
O O16 0.623719 0.649055 0.524415
O O17 0.187058 0.258845 0.869930
#
# Coordination Sequence:
#
# PCOD9151724 Si02
#       8
#     4   2   2   4   4   4   4   4
#     4  11  24  34  55  86 129 157 193 234 287 345
#     4   9  18  33  45  78 117 164 200 227 262 323
#     4   9  18  29  53  76 108 167 212 223 255 317
#     4  11  22  39  57  87 117 151 194 241 301 344
#     4  10  21  34  54  78 106 150 195 242 281 327
#     4  10  21  42  70  91 106 142 199 250 293 353
#     4  11  20  37  60  87 112 151 195 237 289 343
#     4  11  20  36  58  83 119 164 200 234 272 346
#
# _framework density 17.623850000000001
#
# number of rings (size 3 to 8) (size 9 to 14) (size 15 to 20)
#    0.000    1.571    4.286    1.714    4.000    2.286 
#    0.000    4.286    0.000    5.143    0.000    0.000 
#    0.000    0.000    0.000    0.000    0.000    0.000 
#
# Total GULP energy -156386.742283 kJ/mol
# GULP energy per Si atom -5585.240796 kJ/mol
# Density = 1.758374 g / cm^3
# Si number density = 17.623850 Si / 1000 Ang^3
#
#
#
# Elastic Constant Matrix: (Units=GPa)
#
#
# Indices 1 2 3 4 5 6 
#
# 1 34.0747 16.0402 23.2933 0.0000 2.6701 0.0000
# 2 16.0402 90.4584 31.0800 0.0000 2.4922 0.0000
# 3 23.2933 31.0800 69.9751 0.0000 5.6274 0.0000
# 4 0.0000 0.0000 0.0000 13.8838 0.0000 -0.8857
# 5 2.6701 2.4922 5.6274 0.0000 29.2568 0.0000
# 6 0.0000 0.0000 0.0000 -0.8857 0.0000 15.9030
#
#
#
# Elastic Compliance Matrix: (Units=1/GPa)
#
#
# Indices 1 2 3 4 5 6 
#
# 1 0.038646 -0.002871 -0.011503 0.000000 -0.001070 0.000000
# 2 -0.002871 0.013259 -0.004940 0.000000 0.000083 0.000000
# 3 -0.011503 -0.004940 0.020513 0.000000 -0.002475 0.000000
# 4 0.000000 0.000000 0.000000 0.072283 0.000000 0.004026
# 5 -0.001070 0.000083 -0.002475 0.000000 0.034747 0.000000
# 6 0.000000 0.000000 0.000000 0.004026 0.000000 0.063105
#
#
# Mechanical properties :
#
#
# Convention : Reuss Voigt Hill
#
# Bulk Modulus (GPa) = 29.59483 37.25947 33.42715
# Shear Modulus (GPa) = 17.09721 20.08171 18.58946
#
# Velocity S-wave (km/s) = 3.11805 3.37925 3.25128
# Velocity P-wave (km/s) = 5.45820 6.03434 5.75348
#
# Compressibility (1/GPa) = 0.03378968
#
# Stress axis : x y z
#
# Youngs Moduli (GPa) = 25.87575 75.42086 48.74908
#
# Poissons Ratio (x) = 0.21653 0.56078
# Poissons Ratio (y) = 0.07429 0.24082
# Poissons Ratio (z) = 0.29766 0.37258
#
# Static dielectric constant tensor:
#      x y z
#    x 1.605710 0.000000 -0.017950 
#    y 0.000000 1.591640 0.000000 
#    z -0.017950 0.000000 1.586610 
# 
# From -- ./inp_files/25081.got.cif
#   From: 2010.05.17/outbox.cif.g08.bks.cpg/sg10_13_cif.got.tgz:25081.got - 2010.06.03 11:33:40.
