data_PCOD9151055
_publ_section_title
;
Structure prediction by ZEFSAII (Michael W. Deem and Ramdas Pophale) SiO2 
 PCOD9151055
Probable space group: P 2/M
;
_chemical_formula_sum "Si O2"
_cell_formula_units_Z 28
_cell_length_a 23.086640
_cell_length_b 8.558096
_cell_length_c 9.168750
_cell_angle_alpha 90.000000
_cell_angle_beta 126.618904
_cell_angle_gamma 90.000000
_cell_volume 1453.979824
_symmetry_space_group_name_H-M "P 2/M"
_symmetry_group_IT_number 10
_symmetry_cell_setting 'monoclinic'
loop_
_space_group_symop_operation_xyz
x,y,z
-x,y,-z
-x,-y,-z
x,-y,z
loop_
_atom_site_type_symbol
_atom_site_label
_atom_site_fract_x
_atom_site_fract_y
_atom_site_fract_z
Si Si1 0.284712 0.809693 0.592443
Si Si2 0.141238 0.812496 0.549052
Si Si3 0.001484 0.311132 0.171809
Si Si4 0.572673 0.312661 0.692765
Si Si5 0.145060 0.687384 0.883180
Si Si6 0.571730 0.810843 0.020002
Si Si7 0.713862 0.187632 0.741876
O O1 0.212621 0.759784 0.568507
O O2 0.285074 0.758494 0.424973
O O3 0.284867 0.000000 0.591767
O O4 0.356599 0.759888 0.785728
O O5 0.070179 0.758653 0.357004
O O6 0.141872 0.744783 0.712472
O O7 0.142559 0.000000 0.559587
O O8 0.006499 0.500000 0.185604
O O9 0.927562 0.263918 0.140805
O O10 0.000000 0.264482 0.000000
O O11 0.500000 0.261548 0.500000
O O12 0.575276 0.500000 0.695525
O O13 0.571387 0.253825 0.856507
O O14 0.642683 0.248079 0.715626
O O15 0.148515 0.500000 0.890523
O O16 0.215215 0.754084 0.068513
O O17 0.572426 0.000000 0.013623
O O18 0.500000 0.763573 0.000000
O O19 0.713130 0.000000 0.742466
#
# Coordination Sequence:
#
# PCOD9151055 Si02
#       7
#     4   4   4   4   4   4   4
#     4   9  20  37  57  85 116 146 186 239 293 343
#     4  11  22  37  59  86 117 153 195 242 291 345
#     4  10  22  40  60  83 115 155 196 240 292 349
#     4  11  24  40  58  85 121 157 194 237 288 346
#     4  11  23  39  59  85 118 153 191 236 290 350
#     4  10  20  37  62  88 115 152 198 243 289 343
#     4  11  22  39  63  87 114 149 192 240 289 342
#
# _framework density 19.257487999999999
#
# number of rings (size 3 to 8) (size 9 to 14) (size 15 to 20)
#    0.000    1.571    0.000    4.714    0.000    6.857 
#    0.000    4.286    0.000    0.000    0.000    0.000 
#    0.000    0.000    0.000    0.000    0.000    0.000 
#
# Total GULP energy -156587.308765 kJ/mol
# GULP energy per Si atom -5592.403884 kJ/mol
# Density = 1.921366 g / cm^3
# Si number density = 19.257488 Si / 1000 Ang^3
#
#
#
# Elastic Constant Matrix: (Units=GPa)
#
#
# Indices 1 2 3 4 5 6 
#
# 1 239.0672 47.0154 139.2567 0.0000 -0.1830 0.0000
# 2 47.0154 31.5262 41.0511 0.0000 1.2752 0.0000
# 3 139.2567 41.0511 219.6559 0.0000 -0.4539 0.0000
# 4 0.0000 0.0000 0.0000 33.6772 0.0000 1.3277
# 5 -0.1830 1.2752 -0.4539 0.0000 46.6592 0.0000
# 6 0.0000 0.0000 0.0000 1.3277 0.0000 22.0710
#
#
#
# Elastic Compliance Matrix: (Units=1/GPa)
#
#
# Indices 1 2 3 4 5 6 
#
# 1 0.007559 -0.006662 -0.003547 0.000000 0.000177 0.000000
# 2 -0.006662 0.047862 -0.004724 0.000000 -0.001380 0.000000
# 3 -0.003547 -0.004724 0.007685 0.000000 0.000190 0.000000
# 4 0.000000 0.000000 0.000000 0.029764 0.000000 -0.001790
# 5 0.000177 -0.001380 0.000190 0.000000 0.021472 0.000000
# 6 0.000000 0.000000 0.000000 -0.001790 0.000000 0.045416
#
#
# Mechanical properties :
#
#
# Convention : Reuss Voigt Hill
#
# Bulk Modulus (GPa) = 30.08460 104.98842 67.53651
# Shear Modulus (GPa) = 24.91225 38.00988 31.46106
#
# Velocity S-wave (km/s) = 3.60062 4.44753 4.04630
# Velocity P-wave (km/s) = 5.73953 9.00059 7.54827
#
# Compressibility (1/GPa) = 0.03323960
#
# Stress axis : x y z
#
# Youngs Moduli (GPa) = 132.28643 20.89347 130.12973
#
# Poissons Ratio (x) = 0.13919 0.46158
# Poissons Ratio (y) = 0.88126 0.61477
# Poissons Ratio (z) = 0.46923 0.09871
#
# Static dielectric constant tensor:
#      x y z
#    x 1.642260 0.000000 0.002630 
#    y 0.000000 1.661680 0.000000 
#    z 0.002630 0.000000 1.627150 
# 
# From -- ./inp_files/34261.got.cif
#   From: 2010.05.17/outbox.cif.g08.bks.cpg/sg10_18_cif.got.tgz:34261.got - 2010.06.03 11:33:40.
