data_PCOD9151298
_publ_section_title
;
Structure prediction by ZEFSAII (Michael W. Deem and Ramdas Pophale) SiO2 
 PCOD9151298
Probable space group: P 2/M
;
_chemical_formula_sum "Si O2"
_cell_formula_units_Z 19
_cell_length_a 5.178825
_cell_length_b 24.381614
_cell_length_c 8.638065
_cell_angle_alpha 90.000000
_cell_angle_beta 120.276443
_cell_angle_gamma 90.000000
_cell_volume 941.942198
_symmetry_space_group_name_H-M "P 2/M"
_symmetry_group_IT_number 10
_symmetry_cell_setting 'monoclinic'
loop_
_space_group_symop_operation_xyz
x,y,z
-x,y,-z
-x,-y,-z
x,-y,z
loop_
_atom_site_type_symbol
_atom_site_label
_atom_site_fract_x
_atom_site_fract_y
_atom_site_fract_z
Si Si1 0.196314 0.098113 0.715185
Si Si2 0.644708 0.618748 0.374200
Si Si3 0.357830 0.500000 0.628358
Si Si4 0.500000 0.000000 0.000000
Si Si5 0.666457 0.282601 0.890700
Si Si6 0.692313 0.829557 0.711292
O O1 0.499151 0.126626 0.748325
O O2 0.000000 0.083704 0.500000
O O3 0.999647 0.142180 0.751169
O O4 0.293463 0.047675 0.850776
O O5 0.500000 0.620641 0.500000
O O6 0.562197 0.559155 0.275839
O O7 0.534617 0.671458 0.249987
O O8 0.000000 0.620989 0.500000
O O9 0.500000 0.500000 0.500000
O O10 0.000000 0.500000 0.500000
O O11 0.712188 0.226860 0.808560
O O12 0.500000 0.268966 0.000000
O O13 0.000000 0.306855 0.000000
O O14 0.500000 0.817894 0.500000
#
# Coordination Sequence:
#
# PCOD9151298 Si02
#       6
#     4   4   2   1   4   4
#     4  10  24  43  66  96 125 161 210 253 307 380
#     4  10  20  38  62  88 121 167 215 259 312 374
#     4   8  16  32  58  86 114 158 218 262 296 368
#     4  12  26  42  72  96 132 166 200 254 326 360
#     4  12  25  38  60  94 128 160 208 263 316 382
#     4  10  23  44  65  87 122 164 204 254 305 361
#
# _framework density 20.17109
#
# number of rings (size 3 to 8) (size 9 to 14) (size 15 to 20)
#    0.000    1.684    0.000    3.474    4.421    4.211 
#    0.000    4.211    0.000    0.000    0.000    0.000 
#    0.000    0.000    0.000    0.000    0.000    0.000 
#
# Total GULP energy -105825.195708 kJ/mol
# GULP energy per Si atom -5569.747143 kJ/mol
# Density = 2.012518 g / cm^3
# Si number density = 20.171090 Si / 1000 Ang^3
#
#
#
# Elastic Constant Matrix: (Units=GPa)
#
#
# Indices 1 2 3 4 5 6 
#
# 1 119.2034 8.1509 31.5354 0.0000 -14.9111 0.0000
# 2 8.1509 139.2633 81.8750 0.0000 -11.3287 0.0000
# 3 31.5354 81.8750 69.3713 0.0000 -0.3222 0.0000
# 4 0.0000 0.0000 0.0000 15.3170 0.0000 55.8031
# 5 -14.9111 -11.3287 -0.3222 0.0000 22.4710 0.0000
# 6 0.0000 0.0000 0.0000 55.8031 0.0000 63.3151
#
#
#
# Elastic Compliance Matrix: (Units=1/GPa)
#
#
# Indices 1 2 3 4 5 6 
#
# 1 0.016692 0.016229 -0.026655 0.000000 0.018876 0.000000
# 2 0.016229 0.042592 -0.057501 0.000000 0.031417 0.000000
# 3 -0.026655 -0.057501 0.094186 0.000000 -0.045326 0.000000
# 4 0.000000 0.000000 0.000000 -0.029529 0.000000 0.026025
# 5 0.018876 0.031417 -0.045326 0.000000 0.072216 0.000000
# 6 0.000000 0.000000 0.000000 0.026025 0.000000 -0.007144
#
#
# Mechanical properties :
#
#
# Convention : Reuss Voigt Hill
#
# Bulk Modulus (GPa) = 56.76005 63.44007 60.10006
# Shear Modulus (GPa) = 15.11763 33.97242 24.54503
#
# Velocity S-wave (km/s) = 2.74062 4.10837 3.49211
# Velocity P-wave (km/s) = 6.18183 7.35012 6.79114
#
# Compressibility (1/GPa) = 0.01761802
#
# Stress axis : x y z
#
# Youngs Moduli (GPa) = 59.90855 23.47860 10.61724
#
# Poissons Ratio (x) = -0.38105 0.28300
# Poissons Ratio (y) = -0.97228 0.61050
# Poissons Ratio (z) = 1.59687 1.35003
#
# Static dielectric constant tensor:
#      x y z
#    x 1.660510 0.000000 -0.015090 
#    y 0.000000 1.703880 0.000000 
#    z -0.015090 0.000000 1.739570 
# 
# From -- ./inp_files/4646.got.cif
#   From: 2010.05.17/outbox.cif.g08.bks.cpg/sg10_3_cif.got.tgz:4646.got - 2010.06.03 11:33:40.
