data_PCOD9151818
_publ_section_title
;
Structure prediction by ZEFSAII (Michael W. Deem and Ramdas Pophale) SiO2 
 PCOD9151818
Probable space group: P 2/M
;
_chemical_formula_sum "Si O2"
_cell_formula_units_Z 24
_cell_length_a 9.419495
_cell_length_b 9.188361
_cell_length_c 15.725099
_cell_angle_alpha 90.000000
_cell_angle_beta 90.328354
_cell_angle_gamma 90.000000
_cell_volume 1360.980574
_symmetry_space_group_name_H-M "P 2/M"
_symmetry_group_IT_number 10
_symmetry_cell_setting 'monoclinic'
loop_
_space_group_symop_operation_xyz
x,y,z
-x,y,-z
-x,-y,-z
x,-y,z
loop_
_atom_site_type_symbol
_atom_site_label
_atom_site_fract_x
_atom_site_fract_y
_atom_site_fract_z
Si Si1 0.105975 0.172549 0.923444
Si Si2 0.601876 0.174773 0.579438
Si Si3 0.583534 0.174056 0.256139
Si Si4 0.082938 0.827263 0.730133
Si Si5 0.594466 0.673755 0.081564
Si Si6 0.093544 0.673821 0.416887
O O1 0.044420 0.200067 0.828848
O O2 0.247981 0.265163 0.932253
O O3 0.142113 0.000000 0.925609
O O4 0.000000 0.203059 0.000000
O O5 0.500000 0.211653 0.500000
O O6 0.517972 0.210665 0.665812
O O7 0.751757 0.254697 0.575122
O O8 0.625031 0.000000 0.577716
O O9 0.748892 0.208315 0.277369
O O10 0.542840 0.254831 0.169364
O O11 0.577835 0.000000 0.242215
O O12 0.988478 0.737889 0.664724
O O13 0.066460 0.000000 0.713329
O O14 0.595973 0.500000 0.090079
O O15 0.500000 0.713505 0.000000
O O16 0.106102 0.500000 0.410308
O O17 0.000000 0.708420 0.500000
#
# Coordination Sequence:
#
# PCOD9151818 Si02
#       6
#     4   4   4   4   4   4
#     4   9  19  36  57  80 106 139 180 224 268 313
#     4  10  21  38  60  83 106 136 176 221 267 314
#     4   9  19  36  58  82 105 135 178 223 267 314
#     4   9  18  35  58  81 105 136 177 222 265 312
#     4  10  21  35  52  78 111 145 179 216 263 318
#     4  11  24  38  53  78 111 145 178 213 260 317
#
# _framework density 17.634345
#
# number of rings (size 3 to 8) (size 9 to 14) (size 15 to 20)
#    0.000    2.333    0.000    3.000    0.000    9.333 
#    0.000    5.000    0.000    0.000    0.000    0.000 
#    0.000    0.000    0.000    0.000    0.000    0.000 
#
# Total GULP energy -133969.508904 kJ/mol
# GULP energy per Si atom -5582.062871 kJ/mol
# Density = 1.759421 g / cm^3
# Si number density = 17.634345 Si / 1000 Ang^3
#
#
#
# Elastic Constant Matrix: (Units=GPa)
#
#
# Indices 1 2 3 4 5 6 
#
# 1 120.9487 63.2832 112.6319 0.0000 -5.7288 0.0000
# 2 63.2832 47.7869 80.9770 0.0000 2.7858 0.0000
# 3 112.6319 80.9770 180.8910 0.0000 1.5520 0.0000
# 4 0.0000 0.0000 0.0000 15.7780 0.0000 3.4785
# 5 -5.7288 2.7858 1.5520 0.0000 33.9944 0.0000
# 6 0.0000 0.0000 0.0000 3.4785 0.0000 44.2012
#
#
#
# Elastic Compliance Matrix: (Units=1/GPa)
#
#
# Indices 1 2 3 4 5 6 
#
# 1 0.029366 -0.034170 -0.003056 0.000000 0.007889 0.000000
# 2 -0.034170 0.127415 -0.035637 0.000000 -0.014573 0.000000
# 3 -0.003056 -0.035637 0.023373 0.000000 0.001338 0.000000
# 4 0.000000 0.000000 0.000000 0.064499 0.000000 -0.005076
# 5 0.007889 -0.014573 0.001338 0.000000 0.031879 0.000000
# 6 0.000000 0.000000 0.000000 -0.005076 0.000000 0.023023
#
#
# Mechanical properties :
#
#
# Convention : Reuss Voigt Hill
#
# Bulk Modulus (GPa) = 29.04663 95.93453 62.49058
# Shear Modulus (GPa) = 10.94672 24.97699 17.96185
#
# Velocity S-wave (km/s) = 2.49421 3.76757 3.19497
# Velocity P-wave (km/s) = 4.98018 8.57008 7.00887
#
# Compressibility (1/GPa) = 0.03442740
#
# Stress axis : x y z
#
# Youngs Moduli (GPa) = 34.05274 7.84835 42.78502
#
# Poissons Ratio (x) = 0.26818 0.13075
# Poissons Ratio (y) = 1.16360 1.52473
# Poissons Ratio (z) = 0.10406 0.27969
#
# Static dielectric constant tensor:
#      x y z
#    x 1.572720 0.000000 -0.011790 
#    y 0.000000 1.584010 0.000000 
#    z -0.011790 0.000000 1.593850 
# 
# From -- ./inp_files/27224.got.cif
#   From: 2010.05.17/outbox.cif.g08.bks.cpg/sg10_14_cif.got.tgz:27224.got - 2010.06.03 11:33:40.
