data_PCOD9151968
_publ_section_title
;
Structure prediction by ZEFSAII (Michael W. Deem and Ramdas Pophale) SiO2 
 PCOD9151968
Probable space group: P 2/M
;
_chemical_formula_sum "Si O2"
_cell_formula_units_Z 22
_cell_length_a 7.686457
_cell_length_b 27.335700
_cell_length_c 8.895721
_cell_angle_alpha 90.000000
_cell_angle_beta 35.757259
_cell_angle_gamma 90.000000
_cell_volume 1092.225843
_symmetry_space_group_name_H-M "P 2/M"
_symmetry_group_IT_number 10
_symmetry_cell_setting 'monoclinic'
loop_
_space_group_symop_operation_xyz
x,y,z
-x,y,-z
-x,-y,-z
x,-y,z
loop_
_atom_site_type_symbol
_atom_site_label
_atom_site_fract_x
_atom_site_fract_y
_atom_site_fract_z
Si Si1 0.642599 0.590642 0.235568
Si Si2 0.357025 0.500000 0.262616
Si Si3 0.142208 0.847359 0.565523
Si Si4 0.645237 0.300006 0.233308
Si Si5 0.143388 0.945506 0.735716
Si Si6 0.641516 0.798198 0.066240
O O1 0.500000 0.589520 0.500000
O O2 0.484073 0.547957 0.255668
O O3 0.578592 0.645413 0.219643
O O4 0.000000 0.583595 0.000000
O O5 0.000000 0.500000 0.500000
O O6 0.500000 0.500000 0.000000
O O7 0.071741 0.901195 0.675246
O O8 0.487174 0.835346 0.292229
O O9 0.000000 0.841302 0.500000
O O10 0.986450 0.810327 0.792613
O O11 0.500000 0.294708 0.500000
O O12 0.565512 0.255353 0.181129
O O13 0.000000 0.297913 0.000000
O O14 0.500000 0.945681 0.500000
O O15 0.049182 0.000000 0.749913
O O16 0.000000 0.937642 0.000000
O O17 0.500000 0.804077 0.000000
#
# Coordination Sequence:
#
# PCOD9151968 Si02
#       6
#     4   2   4   4   4   4
#     4  10  21  40  61  82 115 156 190 229 284 340
#     4  12  24  38  60  92 118 146 194 242 282 332
#     4  10  21  36  54  77 106 142 179 213 263 328
#     4  10  21  36  57  83 108 142 189 227 265 327
#     4  10  21  36  54  78 105 134 173 222 271 314
#     4  10  21  36  53  78 111 142 174 220 273 319
#
# _framework density 20.142354000000001
#
# number of rings (size 3 to 8) (size 9 to 14) (size 15 to 20)
#    0.000    1.818    0.000    3.818    0.000    5.455 
#    0.000    2.727    0.000    6.545    0.000    0.000 
#    0.000    0.000    0.000    0.000    0.000    0.000 
#
# Total GULP energy -122794.143636 kJ/mol
# GULP energy per Si atom -5581.551983 kJ/mol
# Density = 2.009651 g / cm^3
# Si number density = 20.142354 Si / 1000 Ang^3
#
#
#
# Elastic Constant Matrix: (Units=GPa)
#
#
# Indices 1 2 3 4 5 6 
#
# 1 15.2880 24.9642 34.4308 0.0000 -1.6772 0.0000
# 2 24.9642 151.3047 64.4726 0.0000 20.1611 0.0000
# 3 34.4308 64.4726 184.2954 0.0000 -0.3853 0.0000
# 4 0.0000 0.0000 0.0000 29.3967 0.0000 -5.5859
# 5 -1.6772 20.1611 -0.3853 0.0000 22.3683 0.0000
# 6 0.0000 0.0000 0.0000 -5.5859 0.0000 10.5443
#
#
#
# Elastic Compliance Matrix: (Units=1/GPa)
#
#
# Indices 1 2 3 4 5 6 
#
# 1 0.145620 -0.018973 -0.020510 0.000000 0.027667 0.000000
# 2 -0.018973 0.011535 -0.000516 0.000000 -0.011829 0.000000
# 3 -0.020510 -0.000516 0.009436 0.000000 -0.000911 0.000000
# 4 0.000000 0.000000 0.000000 0.037825 0.000000 0.020038
# 5 0.027667 -0.011829 -0.000911 0.000000 0.057427 0.000000
# 6 0.000000 0.000000 0.000000 0.020038 0.000000 0.105453
#
#
# Mechanical properties :
#
#
# Convention : Reuss Voigt Hill
#
# Bulk Modulus (GPa) = 11.54816 66.51369 39.03093
# Shear Modulus (GPa) = 10.50071 27.59655 19.04863
#
# Velocity S-wave (km/s) = 2.28573 3.70547 3.07856
# Velocity P-wave (km/s) = 3.56536 7.16944 5.66183
#
# Compressibility (1/GPa) = 0.08659388
#
# Stress axis : x y z
#
# Youngs Moduli (GPa) = 6.86721 86.68905 105.97397
#
# Poissons Ratio (x) = 1.64477 2.17352
# Poissons Ratio (y) = 0.13029 0.05464
# Poissons Ratio (z) = 0.14085 0.04469
#
# Static dielectric constant tensor:
#      x y z
#    x 1.677340 0.000000 -0.020060 
#    y 0.000000 1.770230 0.000000 
#    z -0.020060 0.000000 1.717300 
# 
# From -- ./inp_files/20726.got.cif
#   From: 2010.05.17/outbox.cif.g08.bks.cpg/sg10_11_cif.got.tgz:20726.got - 2010.06.03 11:33:40.
