data_PCOD9151318
_publ_section_title
;
Structure prediction by ZEFSAII (Michael W. Deem and Ramdas Pophale) SiO2 
 PCOD9151318
Probable space group: P 2/M
;
_chemical_formula_sum "Si O2"
_cell_formula_units_Z 24
_cell_length_a 16.404297
_cell_length_b 14.479902
_cell_length_c 9.516852
_cell_angle_alpha 90.000000
_cell_angle_beta 33.771184
_cell_angle_gamma 90.000000
_cell_volume 1256.596214
_symmetry_space_group_name_H-M "P 2/M"
_symmetry_group_IT_number 10
_symmetry_cell_setting 'monoclinic'
loop_
_space_group_symop_operation_xyz
x,y,z
-x,y,-z
-x,-y,-z
x,-y,z
loop_
_atom_site_type_symbol
_atom_site_label
_atom_site_fract_x
_atom_site_fract_y
_atom_site_fract_z
Si Si1 0.643226 0.604913 0.198007
Si Si2 0.656804 0.105210 0.849494
Si Si3 0.151641 0.240676 0.959923
Si Si4 0.439915 0.395320 0.242365
Si Si5 0.812384 0.754447 0.416278
Si Si6 0.635730 0.110522 0.205588
O O1 0.500000 0.601294 0.500000
O O2 0.700946 0.500000 0.098153
O O3 0.756108 0.673005 0.111417
O O4 0.572790 0.638464 0.151760
O O5 0.751987 0.173776 0.617786
O O6 0.717574 0.000000 0.763875
O O7 0.500000 0.102442 0.000000
O O8 0.625491 0.133806 0.055329
O O9 0.183527 0.213898 0.752207
O O10 0.213133 0.154537 0.958741
O O11 0.980646 0.264526 0.215447
O O12 0.404173 0.500000 0.342309
O O13 0.297147 0.332161 0.439147
O O14 0.500000 0.399372 0.000000
O O15 0.500000 0.144245 0.500000
O O16 0.637121 0.000000 0.215362
#
# Coordination Sequence:
#
# PCOD9151318 Si02
#       6
#     4   4   4   4   4   4
#     4  10  20  38  63  88 116 156 204 250 294 350
#     4  10  22  40  63  90 119 156 200 245 297 356
#     4  11  24  38  58  90 123 160 200 245 300 351
#     4  10  22  40  62  88 118 156 202 249 298 354
#     4  11  24  39  58  88 126 161 196 245 301 355
#     4  10  22  40  64  91 118 153 200 249 295 352
#
# _framework density 19.099214
#
# number of rings (size 3 to 8) (size 9 to 14) (size 15 to 20)
#    0.000    1.667    1.667    2.000    4.667    4.000 
#    0.000    5.000    0.000    3.000    0.000    0.000 
#    0.000    0.000    0.000    0.000    0.000    0.000 
#
# Total GULP energy -133850.540658 kJ/mol
# GULP energy per Si atom -5577.105861 kJ/mol
# Density = 1.905574 g / cm^3
# Si number density = 19.099214 Si / 1000 Ang^3
#
#
#
# Elastic Constant Matrix: (Units=GPa)
#
#
# Indices 1 2 3 4 5 6 
#
# 1 164.8330 49.5545 62.9331 0.0000 9.1824 0.0000
# 2 49.5545 81.2484 45.6040 0.0000 4.3457 0.0000
# 3 62.9331 45.6040 86.3309 0.0000 6.0971 0.0000
# 4 0.0000 0.0000 0.0000 6.1866 0.0000 22.1199
# 5 9.1824 4.3457 6.0971 0.0000 28.0254 0.0000
# 6 0.0000 0.0000 0.0000 22.1199 0.0000 33.3278
#
#
#
# Elastic Compliance Matrix: (Units=1/GPa)
#
#
# Indices 1 2 3 4 5 6 
#
# 1 0.008803 -0.002484 -0.005005 0.000000 -0.001410 0.000000
# 2 -0.002484 0.018210 -0.007786 0.000000 -0.000316 0.000000
# 3 -0.005005 -0.007786 0.019443 0.000000 -0.001383 0.000000
# 4 0.000000 0.000000 0.000000 -0.117723 0.000000 0.078134
# 5 -0.001410 -0.000316 -0.001383 0.000000 0.036494 0.000000
# 6 0.000000 0.000000 0.000000 0.078134 0.000000 -0.021853
#
#
# Mechanical properties :
#
#
# Convention : Reuss Voigt Hill
#
# Bulk Modulus (GPa) = 62.87523 72.06616 67.47069
# Shear Modulus (GPa) = -240.70793 25.12934 -107.78929
#
# Velocity S-wave (km/s) = -11.23850 3.63123 -7.52057
# Velocity P-wave (km/s) = 11.63673 7.44282 6.32526
#
# Compressibility (1/GPa) = 0.01590452
#
# Stress axis : x y z
#
# Youngs Moduli (GPa) = 113.59455 54.91367 51.43264
#
# Poissons Ratio (x) = 0.13642 0.25744
# Poissons Ratio (y) = 0.28220 0.40047
# Poissons Ratio (z) = 0.56859 0.42757
#
# Static dielectric constant tensor:
#      x y z
#    x 1.752150 0.000000 0.023310 
#    y 0.000000 1.721480 0.000000 
#    z 0.023310 0.000000 1.665230 
# 
# From -- ./inp_files/29258.got.cif
#   From: 2010.05.17/outbox.cif.g08.bks.cpg/sg10_15_cif.got.tgz:29258.got - 2010.06.03 11:33:40.
