data_PCOD9151118
_publ_section_title
;
Structure prediction by ZEFSAII (Michael W. Deem and Ramdas Pophale) SiO2 
 PCOD9151118
Probable space group: P 2/M
;
_chemical_formula_sum "Si O2"
_cell_formula_units_Z 18
_cell_length_a 18.988517
_cell_length_b 7.502555
_cell_length_c 11.798791
_cell_angle_alpha 90.000000
_cell_angle_beta 147.425128
_cell_angle_gamma 90.000000
_cell_volume 904.990068
_symmetry_space_group_name_H-M "P 2/M"
_symmetry_group_IT_number 10
_symmetry_cell_setting 'monoclinic'
loop_
_space_group_symop_operation_xyz
x,y,z
-x,y,-z
-x,-y,-z
x,-y,z
loop_
_atom_site_type_symbol
_atom_site_label
_atom_site_fract_x
_atom_site_fract_y
_atom_site_fract_z
Si Si1 0.656316 0.000000 0.222103
Si Si2 0.114479 0.713214 0.871707
Si Si3 0.747206 0.000000 0.089573
Si Si4 0.747010 0.709841 0.702028
Si Si5 0.469002 0.000000 0.590312
Si Si6 0.172180 0.709878 0.432342
O O1 0.725407 0.000000 0.193427
O O2 0.710566 0.828805 0.362460
O O3 0.500000 0.000000 0.000000
O O4 0.126468 0.500000 0.869533
O O5 0.176092 0.828661 0.855201
O O6 0.962636 0.755827 0.687846
O O7 0.189088 0.757593 0.090869
O O8 0.602503 0.000000 0.839616
O O9 0.715651 0.500000 0.663611
O O10 0.619729 0.827608 0.507574
O O11 0.840232 0.738329 0.719940
O O12 0.500000 0.000000 0.500000
O O13 0.196991 0.500000 0.482941
#
# Coordination Sequence:
#
# PCOD9151118 Si02
#       6
#     2   4   2   4   2   4
#     4  12  27  45  62  81 119 164 208 248 287 342
#     4  10  21  38  63  95 124 150 190 249 308 358
#     4  12  25  40  58  88 122 161 202 246 294 350
#     4  10  20  37  63  92 123 156 194 246 301 354
#     4  12  22  37  57  85 124 160 199 240 293 352
#     4  10  22  41  65  91 119 157 201 243 296 356
#
# _framework density 19.889721999999999
#
# number of rings (size 3 to 8) (size 9 to 14) (size 15 to 20)
#    0.000    1.333    2.222    3.333    0.000    7.111 
#    0.000    5.556    0.000    0.000    0.000    0.000 
#    0.000    0.000    0.000    0.000    0.000    0.000 
#
# Total GULP energy -100637.275167 kJ/mol
# GULP energy per Si atom -5590.959731 kJ/mol
# Density = 1.984445 g / cm^3
# Si number density = 19.889722 Si / 1000 Ang^3
#
#
#
# Elastic Constant Matrix: (Units=GPa)
#
#
# Indices 1 2 3 4 5 6 
#
# 1 126.7122 46.9303 23.5610 0.0000 -2.3214 0.0000
# 2 46.9303 69.7086 34.7418 0.0000 9.2707 0.0000
# 3 23.5610 34.7418 55.7945 0.0000 16.9038 0.0000
# 4 0.0000 0.0000 0.0000 17.9797 0.0000 1.4119
# 5 -2.3214 9.2707 16.9038 0.0000 34.4199 0.0000
# 6 0.0000 0.0000 0.0000 1.4119 0.0000 36.3792
#
#
#
# Elastic Compliance Matrix: (Units=1/GPa)
#
#
# Indices 1 2 3 4 5 6 
#
# 1 0.010802 -0.007165 -0.001063 0.000000 0.003181 0.000000
# 2 -0.007165 0.025577 -0.012531 0.000000 -0.001218 0.000000
# 3 -0.001063 -0.012531 0.029574 0.000000 -0.011221 0.000000
# 4 0.000000 0.000000 0.000000 0.055788 0.000000 -0.002165
# 5 0.003181 -0.001218 -0.011221 0.000000 0.035106 0.000000
# 6 0.000000 0.000000 0.000000 -0.002165 0.000000 0.027572
#
#
# Mechanical properties :
#
#
# Convention : Reuss Voigt Hill
#
# Bulk Modulus (GPa) = 40.92809 51.40904 46.16856
# Shear Modulus (GPa) = 21.35997 27.55459 24.45728
#
# Velocity S-wave (km/s) = 3.28063 3.72609 3.51043
# Velocity P-wave (km/s) = 5.91373 6.66444 6.30028
#
# Compressibility (1/GPa) = 0.02443310
#
# Stress axis : x y z
#
# Youngs Moduli (GPa) = 92.57874 39.09836 33.81315
#
# Poissons Ratio (x) = 0.28014 0.03596
# Poissons Ratio (y) = 0.66333 0.42372
# Poissons Ratio (z) = 0.09846 0.48995
#
# Static dielectric constant tensor:
#      x y z
#    x 1.704040 0.000000 -0.004840 
#    y 0.000000 1.667260 0.000000 
#    z -0.004840 0.000000 1.667770 
# 
# From -- ./inp_files/53142.got.cif
#   From: 2010.05.17/outbox.cif.g08.bks.cpg/sg10_27_cif.got.tgz:53142.got - 2010.06.03 11:33:40.
