data_PCOD9151826
_publ_section_title
;
Structure prediction by ZEFSAII (Michael W. Deem and Ramdas Pophale) SiO2 
 PCOD9151826
Probable space group: P 2/M
;
_chemical_formula_sum "Si O2"
_cell_formula_units_Z 28
_cell_length_a 12.844605
_cell_length_b 7.396417
_cell_length_c 26.341200
_cell_angle_alpha 90.000000
_cell_angle_beta 29.662417
_cell_angle_gamma 90.000000
_cell_volume 1238.469483
_symmetry_space_group_name_H-M "P 2/M"
_symmetry_group_IT_number 10
_symmetry_cell_setting 'monoclinic'
loop_
_space_group_symop_operation_xyz
x,y,z
-x,y,-z
-x,-y,-z
x,-y,z
loop_
_atom_site_type_symbol
_atom_site_label
_atom_site_fract_x
_atom_site_fract_y
_atom_site_fract_z
Si Si1 0.615952 0.790097 0.299215
Si Si2 0.230067 0.719861 0.387169
Si Si3 0.442341 0.297643 0.204774
Si Si4 0.319492 0.293201 0.613966
Si Si5 0.854656 0.280371 0.835078
Si Si6 0.424621 0.280653 0.957696
Si Si7 0.818342 0.780434 0.115954
O O1 0.403660 0.774826 0.355509
O O2 0.605258 0.704143 0.359159
O O3 0.800136 0.722947 0.182509
O O4 0.656131 0.000000 0.292158
O O5 0.236598 0.500000 0.382377
O O6 0.263815 0.788301 0.314938
O O7 0.000000 0.777249 0.500000
O O8 0.374322 0.500000 0.218135
O O9 0.551941 0.213581 0.109485
O O10 0.618555 0.303053 0.173131
O O11 0.500000 0.214505 0.500000
O O12 0.291127 0.500000 0.607974
O O13 0.080859 0.214770 0.719217
O O14 0.870340 0.500000 0.830225
O O15 0.650514 0.237876 0.887296
O O16 0.771915 0.216459 0.925411
O O17 0.405126 0.500000 0.965911
O O18 0.803174 0.000000 0.122312
O O19 0.000000 0.729413 0.000000
#
# Coordination Sequence:
#
# PCOD9151826 Si02
#       7
#     4   4   4   4   4   4   4
#     4  10  21  36  53  74 103 138 173 212 256 307
#     4   9  18  33  52  75 104 135 168 211 258 304
#     4   9  17  28  47  76 100 123 162 206 249 297
#     4  10  21  35  53  77 103 134 174 216 262 312
#     4   8  15  28  46  69  99 130 161 205 256 305
#     4   8  14  26  45  71  99 126 161 206 256 301
#     4   9  19  34  49  69 100 136 168 199 249 309
#
# _framework density 22.608552
#
# number of rings (size 3 to 8) (size 9 to 14) (size 15 to 20)
#    0.000    3.000    0.000    1.286    2.000    2.571 
#    0.000    4.286    0.000    0.857    0.000    2.000 
#    0.000    0.000    0.000    0.000    0.000    0.000 
#
# Total GULP energy -155880.296242 kJ/mol
# GULP energy per Si atom -5567.153437 kJ/mol
# Density = 2.255709 g / cm^3
# Si number density = 22.608552 Si / 1000 Ang^3
#
#
#
# Elastic Constant Matrix: (Units=GPa)
#
#
# Indices 1 2 3 4 5 6 
#
# 1 68.1021 -5.2215 47.0838 0.0000 23.8379 0.0000
# 2 -5.2215 76.4737 10.4888 0.0000 4.8453 0.0000
# 3 47.0838 10.4888 222.3355 0.0000 28.9898 0.0000
# 4 0.0000 0.0000 0.0000 -10.2094 0.0000 -10.0326
# 5 23.8379 4.8453 28.9898 0.0000 41.3725 0.0000
# 6 0.0000 0.0000 0.0000 -10.0326 0.0000 9.2017
#
#
#
# Elastic Compliance Matrix: (Units=1/GPa)
#
#
# Indices 1 2 3 4 5 6 
#
# 1 0.020530 0.002464 -0.003174 0.000000 -0.009894 0.000000
# 2 0.002464 0.013513 -0.000845 0.000000 -0.002410 0.000000
# 3 -0.003174 -0.000845 0.005457 0.000000 -0.001896 0.000000
# 4 0.000000 0.000000 0.000000 -0.047286 0.000000 -0.051556
# 5 -0.009894 -0.002410 -0.001896 0.000000 0.031482 0.000000
# 6 0.000000 0.000000 0.000000 -0.051556 0.000000 0.052465
#
#
# Mechanical properties :
#
#
# Convention : Reuss Voigt Hill
#
# Bulk Modulus (GPa) = 27.47983 52.40150 39.94066
# Shear Modulus (GPa) = 54.70414 29.04363 41.87389
#
# Velocity S-wave (km/s) = 4.92430 3.58806 4.30830
# Velocity P-wave (km/s) = 6.67178 6.35560 6.51561
#
# Compressibility (1/GPa) = 0.03639033
#
# Stress axis : x y z
#
# Youngs Moduli (GPa) = 48.70882 74.00159 183.25369
#
# Poissons Ratio (x) = -0.18233 0.58163
# Poissons Ratio (y) = -0.12001 0.15485
# Poissons Ratio (z) = 0.15460 0.06253
#
# Static dielectric constant tensor:
#      x y z
#    x 1.833170 0.000000 0.076820 
#    y 0.000000 1.866620 0.000000 
#    z 0.076820 0.000000 2.141170 
# 
# From -- ./inp_files/88829.got.cif
#   From: 2010.05.17/outbox.cif.g08.bks.cpg/sg10_45_cif.got.tgz:88829.got - 2010.06.03 11:33:40.
