data_PCOD9151385
_publ_section_title
;
Structure prediction by ZEFSAII (Michael W. Deem and Ramdas Pophale) SiO2 
 PCOD9151385
Probable space group: P 2/M
;
_chemical_formula_sum "Si O2"
_cell_formula_units_Z 24
_cell_length_a 14.590446
_cell_length_b 9.031470
_cell_length_c 14.694382
_cell_angle_alpha 90.000000
_cell_angle_beta 141.265997
_cell_angle_gamma 90.000000
_cell_volume 1211.569832
_symmetry_space_group_name_H-M "P 2/M"
_symmetry_group_IT_number 10
_symmetry_cell_setting 'monoclinic'
loop_
_space_group_symop_operation_xyz
x,y,z
-x,y,-z
-x,-y,-z
x,-y,z
loop_
_atom_site_type_symbol
_atom_site_label
_atom_site_fract_x
_atom_site_fract_y
_atom_site_fract_z
Si Si1 0.973776 0.328980 0.375360
Si Si2 0.812219 0.824644 0.094167
Si Si3 0.516258 0.323234 0.907881
Si Si4 0.046266 0.675101 0.140849
Si Si5 0.649971 0.175976 0.565478
Si Si6 0.308404 0.669574 0.585481
O O1 0.919128 0.500000 0.330819
O O2 0.133184 0.324659 0.452778
O O3 0.000000 0.288016 0.500000
O O4 0.868504 0.224258 0.237519
O O5 0.925138 0.752470 0.110520
O O6 0.811369 0.000000 0.083153
O O7 0.650632 0.756892 0.962576
O O8 0.544362 0.500000 0.931589
O O9 0.373261 0.298111 0.735361
O O10 0.500000 0.273922 0.000000
O O11 0.049351 0.500000 0.164071
O O12 0.206255 0.743090 0.283908
O O13 0.000000 0.694501 0.000000
O O14 0.500000 0.218087 0.500000
O O15 0.636571 0.222310 0.449813
O O16 0.670489 0.000000 0.590012
O O17 0.351407 0.500000 0.596374
#
# Coordination Sequence:
#
# PCOD9151385 Si02
#       6
#     4   4   4   4   4   4
#     4  10  20  38  65  93 122 162 210 259 308 367
#     4  12  25  40  62  94 132 169 204 257 323 382
#     4  10  22  42  66  93 126 170 220 263 308 367
#     4  11  25  45  69  95 122 162 216 266 311 373
#     4  11  25  43  64  94 130 166 201 251 323 387
#     4  10  21  38  64  93 122 163 212 261 306 363
#
# _framework density 19.809011000000002
#
# number of rings (size 3 to 8) (size 9 to 14) (size 15 to 20)
#    0.000    1.333    1.667    3.500    2.333    6.667 
#    0.000    1.667    0.000    0.000    0.000    0.000 
#    0.000    0.000    0.000    0.000    0.000    0.000 
#
# Total GULP energy -134193.522714 kJ/mol
# GULP energy per Si atom -5591.396780 kJ/mol
# Density = 1.976392 g / cm^3
# Si number density = 19.809011 Si / 1000 Ang^3
#
#
#
# Elastic Constant Matrix: (Units=GPa)
#
#
# Indices 1 2 3 4 5 6 
#
# 1 72.7287 26.4034 3.8564 0.0000 -2.0853 0.0000
# 2 26.4034 64.3040 27.4293 0.0000 1.6645 0.0000
# 3 3.8564 27.4293 76.1214 0.0000 2.4668 0.0000
# 4 0.0000 0.0000 0.0000 -1.9391 0.0000 24.1419
# 5 -2.0853 1.6645 2.4668 0.0000 32.4190 0.0000
# 6 0.0000 0.0000 0.0000 24.1419 0.0000 5.3229
#
#
#
# Elastic Compliance Matrix: (Units=1/GPa)
#
#
# Indices 1 2 3 4 5 6 
#
# 1 0.016439 -0.007575 0.001854 0.000000 0.001305 0.000000
# 2 -0.007575 0.021872 -0.007464 0.000000 -0.001042 0.000000
# 3 0.001854 -0.007464 0.015755 0.000000 -0.000696 0.000000
# 4 0.000000 0.000000 0.000000 -0.008974 0.000000 0.040701
# 5 0.001305 -0.001042 -0.000696 0.000000 0.031037 0.000000
# 6 0.000000 0.000000 0.000000 0.040701 0.000000 0.003269
#
#
# Mechanical properties :
#
#
# Convention : Reuss Voigt Hill
#
# Bulk Modulus (GPa) = 36.10415 36.50359 36.30387
# Shear Modulus (GPa) = 43.47903 17.52490 30.50196
#
# Velocity S-wave (km/s) = 4.69007 2.97761 3.92829
# Velocity P-wave (km/s) = 6.89889 5.50357 6.24035
#
# Compressibility (1/GPa) = 0.02769765
#
# Stress axis : x y z
#
# Youngs Moduli (GPa) = 60.83215 45.72063 63.47187
#
# Poissons Ratio (x) = 0.34631 -0.11769
# Poissons Ratio (y) = 0.46077 0.47374
# Poissons Ratio (z) = -0.11280 0.34125
#
# Static dielectric constant tensor:
#      x y z
#    x 1.692440 0.000000 -0.011660 
#    y 0.000000 1.666030 0.000000 
#    z -0.011660 0.000000 1.689450 
# 
# From -- ./inp_files/66697.got.cif
#   From: 2010.05.17/outbox.cif.g08.bks.cpg/sg10_34_cif.got.tgz:66697.got - 2010.06.03 11:33:40.
