data_PCOD9151063
_publ_section_title
;
Structure prediction by ZEFSAII (Michael W. Deem and Ramdas Pophale) SiO2 
 PCOD9151063
Probable space group: P 2/M
;
_chemical_formula_sum "Si O2"
_cell_formula_units_Z 28
_cell_length_a 10.063419
_cell_length_b 13.175640
_cell_length_c 12.333142
_cell_angle_alpha 90.000000
_cell_angle_beta 110.244057
_cell_angle_gamma 90.000000
_cell_volume 1534.260278
_symmetry_space_group_name_H-M "P 2/M"
_symmetry_group_IT_number 10
_symmetry_cell_setting 'monoclinic'
loop_
_space_group_symop_operation_xyz
x,y,z
-x,y,-z
-x,-y,-z
x,-y,z
loop_
_atom_site_type_symbol
_atom_site_label
_atom_site_fract_x
_atom_site_fract_y
_atom_site_fract_z
Si Si1 0.337477 0.270058 0.940704
Si Si2 0.152919 0.880300 0.487014
Si Si3 0.940336 0.615672 0.105166
Si Si4 0.614302 0.209563 0.285738
Si Si5 0.831018 0.753677 0.729532
Si Si6 0.551323 0.382280 0.639003
Si Si7 0.319281 0.881354 0.133644
O O1 0.223921 0.355001 0.938068
O O2 0.320011 0.232363 0.813022
O O3 0.500000 0.304785 0.000000
O O4 0.315788 0.178150 0.019058
O O5 0.274738 0.841879 0.602662
O O6 0.161867 0.815551 0.379733
O O7 0.000000 0.866669 0.500000
O O8 0.171947 0.000000 0.469532
O O9 0.962697 0.500000 0.146968
O O10 0.026081 0.694059 0.203315
O O11 0.000000 0.625406 0.000000
O O12 0.554946 0.314323 0.319720
O O13 0.475454 0.140045 0.227521
O O14 0.703947 0.671422 0.690058
O O15 0.791591 0.830099 0.815740
O O16 0.500000 0.377914 0.500000
O O17 0.556827 0.500000 0.674295
O O18 0.295212 0.000000 0.113762
#
# Coordination Sequence:
#
# PCOD9151063 Si02
#       7
#     4   4   4   4   4   4   4
#     4  10  22  41  61  90 126 157 199 253 298 355
#     4  11  23  38  58  85 119 161 201 244 302 359
#     4  11  23  41  64  88 118 159 200 246 306 362
#     4  10  21  38  60  88 123 157 196 248 297 357
#     4  11  21  40  61  88 123 153 197 253 295 360
#     4  10  20  37  62  89 117 155 197 242 297 355
#     4  10  21  37  62  91 120 159 203 246 300 357
#
# _framework density 18.249836999999999
#
# number of rings (size 3 to 8) (size 9 to 14) (size 15 to 20)
#    0.000    1.571    2.857    2.143    0.000    4.000 
#    0.000    4.286    0.000    2.143    0.000    0.000 
#    0.000    0.000    0.000    0.000    0.000    0.000 
#
# Total GULP energy -156436.127094 kJ/mol
# GULP energy per Si atom -5587.004539 kJ/mol
# Density = 1.820830 g / cm^3
# Si number density = 18.249837 Si / 1000 Ang^3
#
#
#
# Elastic Constant Matrix: (Units=GPa)
#
#
# Indices 1 2 3 4 5 6 
#
# 1 89.9763 63.8751 47.3037 0.0000 -6.1652 0.0000
# 2 63.8751 117.4094 62.9200 0.0000 -6.4533 0.0000
# 3 47.3037 62.9200 111.8287 0.0000 -15.9450 0.0000
# 4 0.0000 0.0000 0.0000 114.4226 0.0000 -0.8304
# 5 -6.1652 -6.4533 -15.9450 0.0000 20.2261 0.0000
# 6 0.0000 0.0000 0.0000 -0.8304 0.0000 16.2544
#
#
#
# Elastic Compliance Matrix: (Units=1/GPa)
#
#
# Indices 1 2 3 4 5 6 
#
# 1 0.018861 -0.008588 -0.003061 0.000000 0.000596 0.000000
# 2 -0.008588 0.016157 -0.005742 0.000000 -0.001989 0.000000
# 3 -0.003061 -0.005742 0.014729 0.000000 0.008846 0.000000
# 4 0.000000 0.000000 0.000000 0.008743 0.000000 0.000447
# 5 0.000596 -0.001989 0.008846 0.000000 0.055962 0.000000
# 6 0.000000 0.000000 0.000000 0.000447 0.000000 0.061545
#
#
# Mechanical properties :
#
#
# Convention : Reuss Voigt Hill
#
# Bulk Modulus (GPa) = 66.82071 74.15690 70.48880
# Shear Modulus (GPa) = 23.17324 39.85497 31.51411
#
# Velocity S-wave (km/s) = 3.56726 4.67824 4.16001
# Velocity P-wave (km/s) = 7.32537 8.36085 7.86018
#
# Compressibility (1/GPa) = 0.01496542
#
# Stress axis : x y z
#
# Youngs Moduli (GPa) = 53.02004 61.89353 67.89286
#
# Poissons Ratio (x) = 0.53152 0.20785
# Poissons Ratio (y) = 0.45531 0.38981
# Poissons Ratio (z) = 0.16232 0.35537
#
# Static dielectric constant tensor:
#      x y z
#    x 1.620180 0.000000 0.007780 
#    y 0.000000 1.591670 0.000000 
#    z 0.007780 0.000000 1.613340 
# 
# From -- ./inp_files/42730.got.cif
#   From: 2010.05.17/outbox.cif.g08.bks.cpg/sg10_22_cif.got.tgz:42730.got - 2010.06.03 11:33:40.
