data_PCOD9151116
_publ_section_title
;
Structure prediction by ZEFSAII (Michael W. Deem and Ramdas Pophale) SiO2 
 PCOD9151116
Probable space group: P 2/M
;
_chemical_formula_sum "Si O2"
_cell_formula_units_Z 28
_cell_length_a 9.094417
_cell_length_b 8.487305
_cell_length_c 29.311722
_cell_angle_alpha 90.000000
_cell_angle_beta 141.074457
_cell_angle_gamma 90.000000
_cell_volume 1421.542796
_symmetry_space_group_name_H-M "P 2/M"
_symmetry_group_IT_number 10
_symmetry_cell_setting 'monoclinic'
loop_
_space_group_symop_operation_xyz
x,y,z
-x,y,-z
-x,-y,-z
x,-y,z
loop_
_atom_site_type_symbol
_atom_site_label
_atom_site_fract_x
_atom_site_fract_y
_atom_site_fract_z
Si Si1 0.871330 0.685480 0.779484
Si Si2 0.734823 0.192012 0.926835
Si Si3 0.612950 0.809285 0.075946
Si Si4 0.183650 0.690033 0.504814
Si Si5 0.553122 0.812548 0.783608
Si Si6 0.295523 0.815400 0.356996
Si Si7 0.962780 0.686456 0.354184
O O1 0.860398 0.500000 0.767913
O O2 0.697357 0.729803 0.778436
O O3 0.794585 0.774661 0.715180
O O4 0.132773 0.735647 0.856237
O O5 0.559249 0.240408 0.924668
O O6 0.643537 0.240705 0.855148
O O7 0.736936 0.000000 0.927713
O O8 0.000000 0.244929 0.000000
O O9 0.636183 0.000000 0.083024
O O10 0.500000 0.768105 0.000000
O O11 0.213869 0.500000 0.513144
O O12 0.433983 0.767628 0.573336
O O13 0.078280 0.733268 0.430209
O O14 0.000000 0.732698 0.500000
O O15 0.279815 0.775227 0.712763
O O16 0.592312 0.000000 0.789546
O O17 0.142781 0.722269 0.357169
O O18 0.266421 0.000000 0.358779
O O19 0.913653 0.500000 0.344352
#
# Coordination Sequence:
#
# PCOD9151116 Si02
#       7
#     4   4   4   4   4   4   4
#     4  12  25  41  61  86 121 161 204 254 310 368
#     4   9  18  34  58  88 119 153 194 242 297 354
#     4  10  20  37  63  92 122 157 200 250 304 363
#     4  10  22  41  64  90 122 160 200 244 302 367
#     4  11  22  38  62  90 121 158 205 255 302 358
#     4  12  25  41  63  90 121 158 205 256 304 357
#     4  11  23  40  63  91 126 164 200 243 301 364
#
# _framework density 19.696909999999999
#
# number of rings (size 3 to 8) (size 9 to 14) (size 15 to 20)
#    0.000    1.286    0.000    6.429    0.000    8.000 
#    0.000    0.714    0.000    3.000    0.000    0.000 
#    0.000    0.000    0.000    0.000    0.000    0.000 
#
# Total GULP energy -156667.634654 kJ/mol
# GULP energy per Si atom -5595.272666 kJ/mol
# Density = 1.965208 g / cm^3
# Si number density = 19.696910 Si / 1000 Ang^3
#
#
#
# Elastic Constant Matrix: (Units=GPa)
#
#
# Indices 1 2 3 4 5 6 
#
# 1 108.9650 -15.2223 31.2714 0.0000 -4.6779 0.0000
# 2 -15.2223 18.0552 0.8256 0.0000 1.3364 0.0000
# 3 31.2714 0.8256 122.4766 0.0000 -2.6002 0.0000
# 4 0.0000 0.0000 0.0000 62.8768 0.0000 17.1326
# 5 -4.6779 1.3364 -2.6002 0.0000 42.4025 0.0000
# 6 0.0000 0.0000 0.0000 17.1326 0.0000 35.3249
#
#
#
# Elastic Compliance Matrix: (Units=1/GPa)
#
#
# Indices 1 2 3 4 5 6 
#
# 1 0.011417 0.009704 -0.002964 0.000000 0.000772 0.000000
# 2 0.009704 0.063784 -0.002931 0.000000 -0.001120 0.000000
# 3 -0.002964 -0.002931 0.008948 0.000000 0.000314 0.000000
# 4 0.000000 0.000000 0.000000 0.018326 0.000000 -0.008888
# 5 0.000772 -0.001120 0.000314 0.000000 0.023723 0.000000
# 6 0.000000 0.000000 0.000000 -0.008888 0.000000 0.032619
#
#
# Mechanical properties :
#
#
# Convention : Reuss Voigt Hill
#
# Bulk Modulus (GPa) = 10.89735 31.47180 21.18458
# Shear Modulus (GPa) = 27.50445 43.62897 35.56671
#
# Velocity S-wave (km/s) = 3.74088 4.71150 4.25396
# Velocity P-wave (km/s) = 4.91970 6.75355 5.90821
#
# Compressibility (1/GPa) = 0.09176540
#
# Stress axis : x y z
#
# Youngs Moduli (GPa) = 87.59158 15.67794 111.75642
#
# Poissons Ratio (x) = -0.15213 0.33124
# Poissons Ratio (y) = -0.84997 0.32759
# Poissons Ratio (z) = 0.25962 0.04596
#
# Static dielectric constant tensor:
#      x y z
#    x 1.648170 0.000000 -0.009230 
#    y 0.000000 1.674740 0.000000 
#    z -0.009230 0.000000 1.651000 
# 
# From -- ./inp_files/92071.got.cif
#   From: 2010.05.17/outbox.cif.g08.bks.cpg/sg10_47_cif.got.tgz:92071.got - 2010.06.03 11:33:40.
