data_PCOD9151492
_publ_section_title
;
Structure prediction by ZEFSAII (Michael W. Deem and Ramdas Pophale) SiO2 
 PCOD9151492
Probable space group: P 2/M
;
_chemical_formula_sum "Si O2"
_cell_formula_units_Z 28
_cell_length_a 9.233986
_cell_length_b 9.454760
_cell_length_c 27.168436
_cell_angle_alpha 90.000000
_cell_angle_beta 142.009882
_cell_angle_gamma 90.000000
_cell_volume 1459.991905
_symmetry_space_group_name_H-M "P 2/M"
_symmetry_group_IT_number 10
_symmetry_cell_setting 'monoclinic'
loop_
_space_group_symop_operation_xyz
x,y,z
-x,y,-z
-x,-y,-z
x,-y,z
loop_
_atom_site_type_symbol
_atom_site_label
_atom_site_fract_x
_atom_site_fract_y
_atom_site_fract_z
Si Si1 0.872801 0.332640 0.305793
Si Si2 0.280192 0.341271 0.566680
Si Si3 0.705333 0.330784 0.154306
Si Si4 0.734633 0.159307 0.530849
Si Si5 0.562988 0.666460 0.743491
Si Si6 0.228742 0.165518 0.028212
Si Si7 0.046788 0.833567 0.868090
O O1 0.913075 0.500000 0.324304
O O2 0.864615 0.304360 0.245410
O O3 0.616967 0.301379 0.260568
O O4 0.067760 0.247929 0.387813
O O5 0.343343 0.500000 0.566588
O O6 0.330387 0.229733 0.538158
O O7 0.415421 0.315537 0.653634
O O8 0.000000 0.338485 0.500000
O O9 0.693541 0.500000 0.143540
O O10 0.448862 0.266482 0.096777
O O11 0.810342 0.251751 0.135077
O O12 0.500000 0.157144 0.500000
O O13 0.821433 0.000000 0.546576
O O14 0.631131 0.500000 0.765036
O O15 0.789139 0.765008 0.803274
O O16 0.289005 0.000000 0.054112
O O17 0.164490 0.178186 0.953366
O O18 0.000000 0.199674 0.000000
O O19 0.036422 0.000000 0.852630
#
# Coordination Sequence:
#
# PCOD9151492 Si02
#       7
#     4   4   4   4   4   4   4
#     4  10  22  42  63  86 117 157 202 246 300 359
#     4  10  20  39  64  87 115 157 202 249 304 356
#     4  11  24  40  63  93 123 158 201 249 295 347
#     4  11  25  40  57  87 123 157 200 251 300 354
#     4  10  21  39  63  89 117 152 201 252 297 353
#     4  10  22  42  66  91 122 161 201 240 295 361
#     4  11  24  40  61  90 125 162 196 240 299 358
#
# _framework density 19.178187999999999
#
# number of rings (size 3 to 8) (size 9 to 14) (size 15 to 20)
#    0.000    1.571    1.429    2.571    2.000    6.857 
#    0.000    0.000    0.000    0.000    0.000    0.000 
#    0.000    0.000    0.000    0.000    0.000    0.000 
#
# Total GULP energy -156493.010337 kJ/mol
# GULP energy per Si atom -5589.036083 kJ/mol
# Density = 1.913454 g / cm^3
# Si number density = 19.178188 Si / 1000 Ang^3
#
#
#
# Elastic Constant Matrix: (Units=GPa)
#
#
# Indices 1 2 3 4 5 6 
#
# 1 86.0005 46.3017 6.1126 0.0000 -18.3461 0.0000
# 2 46.3017 77.5944 34.0367 0.0000 -8.7025 0.0000
# 3 6.1126 34.0367 51.7268 0.0000 -4.1495 0.0000
# 4 0.0000 0.0000 0.0000 58.7307 0.0000 -4.6402
# 5 -18.3461 -8.7025 -4.1495 0.0000 26.4697 0.0000
# 6 0.0000 0.0000 0.0000 -4.6402 0.0000 36.6808
#
#
#
# Elastic Compliance Matrix: (Units=1/GPa)
#
#
# Indices 1 2 3 4 5 6 
#
# 1 0.021752 -0.015435 0.008495 0.000000 0.011333 0.000000
# 2 -0.015435 0.029528 -0.017911 0.000000 -0.003798 0.000000
# 3 0.008495 -0.017911 0.030497 0.000000 0.004780 0.000000
# 4 0.000000 0.000000 0.000000 0.017199 0.000000 0.002176
# 5 0.011333 -0.003798 0.004780 0.000000 0.045135 0.000000
# 6 0.000000 0.000000 0.000000 0.002176 0.000000 0.027537
#
#
# Mechanical properties :
#
#
# Convention : Reuss Voigt Hill
#
# Bulk Modulus (GPa) = 31.17551 43.13598 37.15575
# Shear Modulus (GPa) = 21.54789 32.96761 27.25775
#
# Velocity S-wave (km/s) = 3.35559 4.15060 3.77409
# Velocity P-wave (km/s) = 5.59503 6.74618 6.19739
#
# Compressibility (1/GPa) = 0.03207646
#
# Stress axis : x y z
#
# Youngs Moduli (GPa) = 45.97352 33.86591 32.78978
#
# Poissons Ratio (x) = 0.52271 -0.27855
# Poissons Ratio (y) = 0.70959 0.58728
# Poissons Ratio (z) = -0.39054 0.60656
#
# Static dielectric constant tensor:
#      x y z
#    x 1.880880 0.000000 -0.060320 
#    y 0.000000 1.652180 0.000000 
#    z -0.060320 0.000000 1.650160 
# 
# From -- ./inp_files/82196.got.cif
#   From: 2010.05.17/outbox.cif.g08.bks.cpg/sg10_42_cif.got.tgz:82196.got - 2010.06.03 11:33:40.
