data_PCOD9151656
_publ_section_title
;
Structure prediction by ZEFSAII (Michael W. Deem and Ramdas Pophale) SiO2 
 PCOD9151656
Probable space group: P 2/M
;
_chemical_formula_sum "Si O2"
_cell_formula_units_Z 30
_cell_length_a 17.122932
_cell_length_b 14.380393
_cell_length_c 8.864888
_cell_angle_alpha 90.000000
_cell_angle_beta 130.199619
_cell_angle_gamma 90.000000
_cell_volume 1667.254800
_symmetry_space_group_name_H-M "P 2/M"
_symmetry_group_IT_number 10
_symmetry_cell_setting 'monoclinic'
loop_
_space_group_symop_operation_xyz
x,y,z
-x,y,-z
-x,-y,-z
x,-y,z
loop_
_atom_site_type_symbol
_atom_site_label
_atom_site_fract_x
_atom_site_fract_y
_atom_site_fract_z
Si Si1 0.541918 0.600351 0.811650
Si Si2 0.966769 0.112397 0.122442
Si Si3 0.356441 0.894483 0.641160
Si Si4 0.339775 0.398739 0.356394
Si Si5 0.758445 0.111043 0.025044
Si Si6 0.619573 0.795530 0.633778
Si Si7 0.851727 0.108812 0.453358
Si Si8 0.500000 0.753738 0.000000
O O1 0.557967 0.500000 0.908003
O O2 0.616843 0.602846 0.761013
O O3 0.430703 0.599080 0.593218
O O4 0.548087 0.684964 0.934460
O O5 0.849742 0.127556 0.019807
O O6 0.043848 0.148076 0.348259
O O7 0.980252 0.000000 0.137181
O O8 0.000000 0.147355 0.000000
O O9 0.374253 0.872186 0.488779
O O10 0.236516 0.887564 0.531155
O O11 0.388285 0.000000 0.717861
O O12 0.418421 0.819978 0.816482
O O13 0.285450 0.500000 0.305322
O O14 0.307818 0.290791 0.327223
O O15 0.801801 0.146665 0.238375
O O16 0.738720 0.000000 0.011391
O O17 0.659603 0.162592 0.839628
O O18 0.500000 0.767558 0.500000
O O19 0.872480 0.000000 0.442559
#
# Coordination Sequence:
#
# PCOD9151656 Si02
#       8
#     4   4   4   4   4   4   4   2
#     4   9  17  31  51  70  89 117 162 215 264 300
#     4   9  16  31  54  74  95 124 162 214 263 295
#     4  11  24  35  44  65 102 144 179 206 239 290
#     4   9  17  33  51  68  90 121 160 211 264 302
#     4  10  21  33  50  74  99 132 173 209 245 296
#     4  12  22  35  50  70  98 139 177 210 246 299
#     4   9  19  34  50  69  97 131 170 216 256 286
#     4  12  20  32  46  70  98 136 172 204 248 298
#
# _framework density 17.993651
#
# number of rings (size 3 to 8) (size 9 to 14) (size 15 to 20)
#    0.000    2.000    2.667    2.800    3.733    4.800 
#    0.000    0.000    0.000    0.000    0.000    0.000 
#    0.000    9.067    0.000    0.000    0.000    0.267 
#
# Total GULP energy -167076.939071 kJ/mol
# GULP energy per Si atom -5569.231302 kJ/mol
# Density = 1.795270 g / cm^3
# Si number density = 17.993651 Si / 1000 Ang^3
#
#
#
# Elastic Constant Matrix: (Units=GPa)
#
#
# Indices 1 2 3 4 5 6 
#
# 1 26.4716 9.6969 11.7802 0.0000 -9.5360 0.0000
# 2 9.6969 87.2777 26.3396 0.0000 3.7722 0.0000
# 3 11.7802 26.3396 87.6988 0.0000 -1.2851 0.0000
# 4 0.0000 0.0000 0.0000 13.7499 0.0000 -12.6060
# 5 -9.5360 3.7722 -1.2851 0.0000 20.9104 0.0000
# 6 0.0000 0.0000 0.0000 -12.6060 0.0000 10.5106
#
#
#
# Elastic Compliance Matrix: (Units=1/GPa)
#
#
# Indices 1 2 3 4 5 6 
#
# 1 0.050319 -0.005140 -0.004870 0.000000 0.023575 0.000000
# 2 -0.005140 0.013258 -0.003364 0.000000 -0.004942 0.000000
# 3 -0.004870 -0.003364 0.013055 0.000000 -0.000812 0.000000
# 4 0.000000 0.000000 0.000000 -0.730341 0.000000 -0.875938
# 5 0.023575 -0.004942 -0.000812 0.000000 0.059416 0.000000
# 6 0.000000 0.000000 0.000000 -0.875938 0.000000 -0.955420
#
#
# Mechanical properties :
#
#
# Convention : Reuss Voigt Hill
#
# Bulk Modulus (GPa) = 20.04632 33.00908 26.52770
# Shear Modulus (GPa) = -3.31931 19.27628 7.97849
#
# Velocity S-wave (km/s) = -1.35967 3.27660 2.10800
# Velocity P-wave (km/s) = 2.94958 5.71834 4.54970
#
# Compressibility (1/GPa) = 0.04988447
#
# Stress axis : x y z
#
# Youngs Moduli (GPa) = 19.87320 75.42886 76.59777
#
# Poissons Ratio (x) = 0.38770 0.37303
# Poissons Ratio (y) = 0.10215 0.25766
# Poissons Ratio (z) = 0.09678 0.25373
#
# Static dielectric constant tensor:
#      x y z
#    x 1.637870 0.000000 -0.016760 
#    y 0.000000 1.658480 0.000000 
#    z -0.016760 0.000000 1.638310 
# 
# From -- ./inp_files/32676.got.cif
#   From: 2010.05.17/outbox.cif.g08.bks.cpg/sg10_17_cif.got.tgz:32676.got - 2010.06.03 11:33:40.
