data_PCOD9151805
_publ_section_title
;
Structure prediction by ZEFSAII (Michael W. Deem and Ramdas Pophale) SiO2 
 PCOD9151805
Probable space group: P 2/M
;
_chemical_formula_sum "Si O2"
_cell_formula_units_Z 32
_cell_length_a 18.400570
_cell_length_b 7.526065
_cell_length_c 16.896365
_cell_angle_alpha 90.000000
_cell_angle_beta 39.015964
_cell_angle_gamma 90.000000
_cell_volume 1473.037198
_symmetry_space_group_name_H-M "P 2/M"
_symmetry_group_IT_number 10
_symmetry_cell_setting 'monoclinic'
loop_
_space_group_symop_operation_xyz
x,y,z
-x,y,-z
-x,-y,-z
x,-y,z
loop_
_atom_site_type_symbol
_atom_site_label
_atom_site_fract_x
_atom_site_fract_y
_atom_site_fract_z
Si Si1 0.406716 0.716453 0.469572
Si Si2 0.948347 0.205801 0.808972
Si Si3 0.274503 0.785348 0.307729
Si Si4 0.906409 0.209414 0.017607
Si Si5 0.656847 0.714431 0.297705
Si Si6 0.523319 0.203202 0.075149
Si Si7 0.771480 0.781562 0.830838
Si Si8 0.802592 0.290913 0.457642
O O1 0.409496 0.500000 0.465068
O O2 0.540077 0.774669 0.351683
O O3 0.359473 0.767108 0.596579
O O4 0.316238 0.778421 0.480463
O O5 0.877745 0.279711 0.794032
O O6 0.083943 0.212040 0.677782
O O7 0.911528 0.000000 0.843495
O O8 0.918855 0.286685 0.919040
O O9 0.406035 0.715994 0.208596
O O10 0.228831 0.724833 0.260744
O O11 0.199613 0.738163 0.446678
O O12 0.282057 0.000000 0.297566
O O13 0.777151 0.225108 0.159730
O O14 0.934130 0.000000 0.986750
O O15 0.000000 0.284905 0.000000
O O16 0.658015 0.500000 0.295421
O O17 0.530233 0.000000 0.098351
O O18 0.500000 0.197597 0.000000
O O19 0.651283 0.279511 0.973073
O O20 0.768024 0.000000 0.830808
O O21 0.807460 0.500000 0.437600
#
# Coordination Sequence:
#
# PCOD9151805 Si02
#       8
#     4   4   4   4   4   4   4   4
#     4   8  17  34  54  76 102 132 166 208 249 288
#     4  10  21  36  52  70  97 135 173 206 245 295
#     4   9  17  31  53  77  98 126 167 209 249 295
#     4  10  21  35  51  77 112 138 158 199 258 305
#     4   9  17  34  59  79  97 130 175 209 239 290
#     4   7  11  23  46  73  94 114 149 198 244 284
#     4   8  15  30  52  75  98 127 167 211 245 284
#     4  11  22  35  50  71 102 134 167 208 254 299
#
# _framework density 21.723824
#
# number of rings (size 3 to 8) (size 9 to 14) (size 15 to 20)
#    0.000    3.000    0.000    3.375    0.000    2.250 
#    0.000    7.500    0.000    4.125    0.000    0.000 
#    0.000    0.000    0.000    0.000    0.000    0.000 
#
# Total GULP energy -178479.407907 kJ/mol
# GULP energy per Si atom -5577.481497 kJ/mol
# Density = 2.167438 g / cm^3
# Si number density = 21.723824 Si / 1000 Ang^3
#
#
#
# Elastic Constant Matrix: (Units=GPa)
#
#
# Indices 1 2 3 4 5 6 
#
# 1 159.4263 -0.3038 59.9646 0.0000 -3.2581 0.0000
# 2 -0.3038 49.5156 -16.5488 0.0000 5.6170 0.0000
# 3 59.9646 -16.5488 116.9387 0.0000 -4.3391 0.0000
# 4 0.0000 0.0000 0.0000 15.7373 0.0000 -8.1571
# 5 -3.2581 5.6170 -4.3391 0.0000 22.2669 0.0000
# 6 0.0000 0.0000 0.0000 -8.1571 0.0000 2.6575
#
#
#
# Elastic Compliance Matrix: (Units=1/GPa)
#
#
# Indices 1 2 3 4 5 6 
#
# 1 0.007868 -0.001438 -0.004213 0.000000 0.000693 0.000000
# 2 -0.001438 0.021983 0.003661 0.000000 -0.005042 0.000000
# 3 -0.004213 0.003661 0.011254 0.000000 0.000653 0.000000
# 4 0.000000 0.000000 0.000000 -0.107522 0.000000 -0.330031
# 5 0.000693 -0.005042 0.000653 0.000000 0.046410 0.000000
# 6 0.000000 0.000000 0.000000 -0.330031 0.000000 -0.636719
#
#
# Mechanical properties :
#
#
# Convention : Reuss Voigt Hill
#
# Bulk Modulus (GPa) = 26.93545 45.78939 36.36242
# Shear Modulus (GPa) = -7.80797 26.98358 9.58780
#
# Velocity S-wave (km/s) = -1.89789 3.52819 2.10311
# Velocity P-wave (km/s) = 2.76103 6.14176 4.76154
#
# Compressibility (1/GPa) = 0.03712580
#
# Stress axis : x y z
#
# Youngs Moduli (GPa) = 127.09054 45.49071 88.85690
#
# Poissons Ratio (x) = 0.06543 0.37432
# Poissons Ratio (y) = 0.18279 -0.32533
# Poissons Ratio (z) = 0.53539 -0.16656
#
# Static dielectric constant tensor:
#      x y z
#    x 1.806000 0.000000 0.000380 
#    y 0.000000 1.847610 0.000000 
#    z 0.000380 0.000000 1.761480 
# 
# From -- ./inp_files/69976.got.cif
#   From: 2010.05.17/outbox.cif.g08.bks.cpg/sg10_35_cif.got.tgz:69976.got - 2010.06.03 11:33:40.
