data_PCOD9151489
_publ_section_title
;
Structure prediction by ZEFSAII (Michael W. Deem and Ramdas Pophale) SiO2 
 PCOD9151489
Probable space group: P 2/M
;
_chemical_formula_sum "Si O2"
_cell_formula_units_Z 28
_cell_length_a 30.089233
_cell_length_b 8.479477
_cell_length_c 5.928639
_cell_angle_alpha 90.000000
_cell_angle_beta 128.666051
_cell_angle_gamma 90.000000
_cell_volume 1181.069371
_symmetry_space_group_name_H-M "P 2/M"
_symmetry_group_IT_number 10
_symmetry_cell_setting 'monoclinic'
loop_
_space_group_symop_operation_xyz
x,y,z
-x,y,-z
-x,-y,-z
x,-y,z
loop_
_atom_site_type_symbol
_atom_site_label
_atom_site_fract_x
_atom_site_fract_y
_atom_site_fract_z
Si Si1 0.663847 0.814289 0.762978
Si Si2 0.258407 0.175583 0.360446
Si Si3 0.565037 0.179085 0.787311
Si Si4 0.935375 0.326315 0.205158
Si Si5 0.968753 0.000000 0.147163
Si Si6 0.145639 0.173708 0.701579
Si Si7 0.224857 0.329759 0.666379
Si Si8 0.532230 0.500000 0.856544
O O1 0.680285 0.790167 0.554361
O O2 0.604463 0.782133 0.694847
O O3 0.674085 0.000000 0.826448
O O4 0.714273 0.723092 0.045306
O O5 0.237913 0.316780 0.447308
O O6 0.261103 0.000000 0.479529
O O7 0.207103 0.164257 0.020244
O O8 0.500000 0.165658 0.500000
O O9 0.565667 0.332680 0.949747
O O10 0.580657 0.000000 0.921044
O O11 0.920806 0.500000 0.060282
O O12 0.935710 0.167468 0.055254
O O13 0.894786 0.288895 0.289277
O O14 0.000000 0.337489 0.500000
O O15 0.000000 0.000000 0.500000
O O16 0.000000 0.000000 0.000000
O O17 0.169573 0.225612 0.537587
O O18 0.119568 0.000000 0.617724
O O19 0.211483 0.500000 0.716500
O O20 0.500000 0.500000 0.500000
O O21 0.500000 0.500000 0.000000
#
# Coordination Sequence:
#
# PCOD9151489 Si02
#       8
#     4   4   4   4   2   4   4   2
#     4   9  19  38  61  82 116 158 203 258 309 374
#     4   9  19  37  58  83 113 155 206 255 313 375
#     4   9  19  39  64  92 124 166 216 264 328 392
#     4  10  21  40  65  95 129 169 218 270 330 393
#     4  10  22  44  68  96 136 176 226 274 331 396
#     4  10  20  39  64  85 118 163 207 263 316 378
#     4  11  22  35  55  88 121 157 204 256 318 382
#     4  10  22  42  64  92 132 170 216 274 325 388
#
# _framework density 23.707329000000001
#
# number of rings (size 3 to 8) (size 9 to 14) (size 15 to 20)
#    0.000    2.286    0.714    2.571    1.000    3.429 
#   10.286    0.000    0.000    0.000    0.000    0.000 
#    0.000    0.000    0.000    0.000    0.000    0.000 
#
# Total GULP energy -155904.071157 kJ/mol
# GULP energy per Si atom -5568.002541 kJ/mol
# Density = 2.365337 g / cm^3
# Si number density = 23.707329 Si / 1000 Ang^3
#
#
#
# Elastic Constant Matrix: (Units=GPa)
#
#
# Indices 1 2 3 4 5 6 
#
# 1 180.3765 71.3009 28.3724 0.0000 -6.2941 0.0000
# 2 71.3009 149.4953 13.0380 0.0000 -13.6605 0.0000
# 3 28.3724 13.0380 47.3406 0.0000 9.3584 0.0000
# 4 0.0000 0.0000 0.0000 4.8479 0.0000 -15.9722
# 5 -6.2941 -13.6605 9.3584 0.0000 31.4457 0.0000
# 6 0.0000 0.0000 0.0000 -15.9722 0.0000 -27.7213
#
#
#
# Elastic Compliance Matrix: (Units=1/GPa)
#
#
# Indices 1 2 3 4 5 6 
#
# 1 0.007413 -0.003082 -0.003849 0.000000 0.001290 0.000000
# 2 -0.003082 0.008581 -0.001202 0.000000 0.003468 0.000000
# 3 -0.003849 -0.001202 0.025518 0.000000 -0.008887 0.000000
# 4 0.000000 0.000000 0.000000 0.071171 0.000000 -0.041007
# 5 0.001290 0.003468 -0.008887 0.000000 0.036211 0.000000
# 6 0.000000 0.000000 0.000000 -0.041007 0.000000 -0.012446
#
#
# Mechanical properties :
#
#
# Convention : Reuss Voigt Hill
#
# Bulk Modulus (GPa) = 39.60977 66.95947 53.28462
# Shear Modulus (GPa) = 31.03131 19.34787 25.18959
#
# Velocity S-wave (km/s) = 3.62184 2.85987 3.26317
# Velocity P-wave (km/s) = 5.85102 6.26184 6.05991
#
# Compressibility (1/GPa) = 0.02524629
#
# Stress axis : x y z
#
# Youngs Moduli (GPa) = 134.90524 116.53950 39.18793
#
# Poissons Ratio (x) = 0.35915 0.15083
# Poissons Ratio (y) = 0.41575 0.04710
# Poissons Ratio (z) = 0.51924 0.14007
#
# Static dielectric constant tensor:
#      x y z
#    x 1.942660 0.000000 -0.128330 
#    y 0.000000 1.959890 0.000000 
#    z -0.128330 0.000000 2.070230 
# 
# From -- ./inp_files/13690.got.cif
#   From: 2010.05.17/outbox.cif.g08.bks.cpg/sg10_7_cif.got.tgz:13690.got - 2010.06.03 11:33:40.
