data_PCOD9151418
_publ_section_title
;
Structure prediction by ZEFSAII (Michael W. Deem and Ramdas Pophale) SiO2 
 PCOD9151418
Probable space group: P 2/M
;
_chemical_formula_sum "Si O2"
_cell_formula_units_Z 28
_cell_length_a 33.888491
_cell_length_b 8.315734
_cell_length_c 34.301383
_cell_angle_alpha 90.000000
_cell_angle_beta 8.896052
_cell_angle_gamma 90.000000
_cell_volume 1494.833351
_symmetry_space_group_name_H-M "P 2/M"
_symmetry_group_IT_number 10
_symmetry_cell_setting 'monoclinic'
loop_
_space_group_symop_operation_xyz
x,y,z
-x,y,-z
-x,-y,-z
x,-y,z
loop_
_atom_site_type_symbol
_atom_site_label
_atom_site_fract_x
_atom_site_fract_y
_atom_site_fract_z
Si Si1 0.663575 0.696933 0.750671
Si Si2 0.393147 0.312172 0.749943
Si Si3 0.853920 0.818048 0.249872
Si Si4 0.723456 0.000000 0.750003
Si Si5 0.975473 0.308331 0.749988
Si Si6 0.223760 0.000000 0.750006
Si Si7 0.481392 0.811779 0.750018
Si Si8 0.886784 0.692984 0.749387
O O1 0.673685 0.500000 0.750686
O O2 0.388790 0.731232 0.999472
O O3 0.698448 0.832021 0.750041
O O4 0.885681 0.730959 0.502431
O O5 0.402136 0.500000 0.749598
O O6 0.434668 0.222862 0.750200
O O7 0.617388 0.266585 0.501252
O O8 0.119893 0.266940 0.998725
O O9 0.806801 0.849760 0.249982
O O10 0.871420 0.000000 0.249499
O O11 0.000000 0.000000 0.500000
O O12 0.500000 0.000000 0.000000
O O13 0.973186 0.500000 0.749964
O O14 0.248245 0.257951 0.500444
O O15 0.930913 0.241107 0.749781
O O16 0.748954 0.257957 0.999689
O O17 0.500000 0.000000 0.500000
O O18 0.000000 0.000000 0.000000
O O19 0.488152 0.000000 0.749989
O O20 0.889975 0.500000 0.749780
#
# Coordination Sequence:
#
# PCOD9151418 Si02
#       8
#     4   4   4   2   4   2   4   4
#     4  10  21  41  64  91 120 162 199 246 304 365
#     4  12  23  40  61  87 122 166 209 251 304 357
#     4  10  22  38  64  92 118 155 202 250 293 357
#     4  12  26  42  62  94 124 154 196 248 302 368
#     4  11  22  41  63  89 121 166 212 261 312 360
#     4  10  20  38  68  96 118 152 196 236 300 376
#     4  12  25  40  57  87 130 163 210 261 307 358
#     4   9  19  38  64  87 118 156 205 245 294 359
#
# _framework density 18.731183999999999
#
# number of rings (size 3 to 8) (size 9 to 14) (size 15 to 20)
#    0.429    0.857    0.000    6.857    0.000    2.857 
#    7.714    0.000    0.000    8.571    0.000    0.000 
#    0.000    0.000    0.000    0.000    0.000    0.000 
#
# Total GULP energy -156311.027998 kJ/mol
# GULP energy per Si atom -5582.536714 kJ/mol
# Density = 1.868855 g / cm^3
# Si number density = 18.731184 Si / 1000 Ang^3
#
#
#
# Elastic Constant Matrix: (Units=GPa)
#
#
# Indices 1 2 3 4 5 6 
#
# 1 150.1021 30.0341 97.3850 0.0000 8.6313 0.0000
# 2 30.0341 72.5680 35.5921 0.0000 -0.1607 0.0000
# 3 97.3850 35.5921 211.5180 0.0000 -8.2995 0.0000
# 4 0.0000 0.0000 0.0000 31.8810 0.0000 0.2069
# 5 8.6313 -0.1607 -8.2995 0.0000 -63.4433 0.0000
# 6 0.0000 0.0000 0.0000 0.2069 0.0000 37.3601
#
#
#
# Elastic Compliance Matrix: (Units=1/GPa)
#
#
# Indices 1 2 3 4 5 6 
#
# 1 0.009542 -0.001990 -0.003987 0.000000 0.001825 0.000000
# 2 -0.001990 0.015429 -0.001684 0.000000 -0.000090 0.000000
# 3 -0.003987 -0.001684 0.006791 0.000000 -0.001426 0.000000
# 4 0.000000 0.000000 0.000000 0.031368 0.000000 -0.000174
# 5 0.001825 -0.000090 -0.001426 0.000000 -0.015327 0.000000
# 6 0.000000 0.000000 0.000000 -0.000174 0.000000 0.026768
#
#
# Mechanical properties :
#
#
# Convention : Reuss Voigt Hill
#
# Bulk Modulus (GPa) = 60.82214 84.46783 72.64498
# Shear Modulus (GPa) = 52.42685 19.23802 35.83244
#
# Velocity S-wave (km/s) = 5.29621 3.20825 4.37851
# Velocity P-wave (km/s) = 8.36309 7.67571 8.02676
#
# Compressibility (1/GPa) = 0.01644138
#
# Stress axis : x y z
#
# Youngs Moduli (GPa) = 104.80066 64.81187 147.26177
#
# Poissons Ratio (x) = 0.12896 0.58710
# Poissons Ratio (y) = 0.20853 0.24795
# Poissons Ratio (z) = 0.41782 0.10912
#
# Static dielectric constant tensor:
#      x y z
#    x 1.635750 0.000000 0.001660 
#    y 0.000000 1.625250 0.000000 
#    z 0.001660 0.000000 1.594210 
# 
# From -- ./inp_files/96012.got.cif
#   From: 2010.05.17/outbox.cif.g08.bks.cpg/sg10_49_cif.got.tgz:96012.got - 2010.06.03 11:33:40.
