data_PCOD9151027
_publ_section_title
;
Structure prediction by ZEFSAII (Michael W. Deem and Ramdas Pophale) SiO2 
 PCOD9151027
Probable space group: P 2/M
;
_chemical_formula_sum "Si O2"
_cell_formula_units_Z 21
_cell_length_a 13.622947
_cell_length_b 17.955477
_cell_length_c 15.797005
_cell_angle_alpha 90.000000
_cell_angle_beta 17.718834
_cell_angle_gamma 90.000000
_cell_volume 1176.009017
_symmetry_space_group_name_H-M "P 2/M"
_symmetry_group_IT_number 10
_symmetry_cell_setting 'monoclinic'
loop_
_space_group_symop_operation_xyz
x,y,z
-x,y,-z
-x,-y,-z
x,-y,z
loop_
_atom_site_type_symbol
_atom_site_label
_atom_site_fract_x
_atom_site_fract_y
_atom_site_fract_z
Si Si1 0.524617 0.000000 0.646353
Si Si2 0.381910 0.846946 0.188776
Si Si3 0.886935 0.347415 0.180070
Si Si4 0.405199 0.157551 0.483433
Si Si5 0.000000 0.500000 0.000000
Si Si6 0.723710 0.000000 0.963581
Si Si7 0.267504 0.224092 0.949767
O O1 0.477802 0.925996 0.630266
O O2 0.311204 0.000000 0.905823
O O3 0.898669 0.000000 0.369741
O O4 0.490599 0.788763 0.171723
O O5 0.000000 0.856510 0.500000
O O6 0.547858 0.926397 0.073107
O O7 0.500000 0.821806 0.000000
O O8 0.500000 0.346271 0.500000
O O9 0.000000 0.309033 0.000000
O O10 0.986040 0.433245 0.084133
O O11 0.076846 0.302385 0.096118
O O12 0.500000 0.181549 0.500000
O O13 0.547311 0.204885 0.289095
O O14 0.020206 0.165034 0.798580
#
# Coordination Sequence:
#
# PCOD9151027 Si02
#       7
#     2   4   4   4   1   2   4
#     4  12  21  39  54  77 112 155 200 251 297 352
#     4  12  24  40  59  80 107 149 207 264 309 344
#     4  10  20  37  61  91 129 154 178 223 273 349
#     4  12  23  37  56  81 116 157 199 237 291 363
#     4   8  22  36  62 100 130 144 194 200 270 360
#     4  12  22  41  57  73 106 149 203 273 320 336
#     4  12  23  39  58  85 117 154 197 240 295 349
#
# _framework density 17.857005000000001
#
# number of rings (size 3 to 8) (size 9 to 14) (size 15 to 20)
#    0.571    0.000    3.810    6.857    0.000    0.000 
#    0.000    2.857    0.000    0.000    0.000    1.333 
#    0.000    0.000    0.000    0.000    0.000    0.000 
#
# Total GULP energy -116991.698761 kJ/mol
# GULP energy per Si atom -5571.033274 kJ/mol
# Density = 1.781636 g / cm^3
# Si number density = 17.857005 Si / 1000 Ang^3
#
#
#
# Elastic Constant Matrix: (Units=GPa)
#
#
# Indices 1 2 3 4 5 6 
#
# 1 107.9035 47.6183 25.1509 0.0000 7.9226 0.0000
# 2 47.6183 101.7262 2.0259 0.0000 -9.8163 0.0000
# 3 25.1509 2.0259 74.4640 0.0000 8.1975 0.0000
# 4 0.0000 0.0000 0.0000 5.9222 0.0000 3.0340
# 5 7.9226 -9.8163 8.1975 0.0000 31.3488 0.0000
# 6 0.0000 0.0000 0.0000 3.0340 0.0000 15.8153
#
#
#
# Elastic Compliance Matrix: (Units=1/GPa)
#
#
# Indices 1 2 3 4 5 6 
#
# 1 0.013425 -0.006638 -0.003863 0.000000 -0.004461 0.000000
# 2 -0.006638 0.013449 0.001264 0.000000 0.005558 0.000000
# 3 -0.003863 0.001264 0.014980 0.000000 -0.002545 0.000000
# 4 0.000000 0.000000 0.000000 0.187262 0.000000 -0.035924
# 5 -0.004461 0.005558 -0.002545 0.000000 0.035433 0.000000
# 6 0.000000 0.000000 0.000000 -0.035924 0.000000 0.070121
#
#
# Mechanical properties :
#
#
# Convention : Reuss Voigt Hill
#
# Bulk Modulus (GPa) = 42.77021 48.18710 45.47866
# Shear Modulus (GPa) = 13.85294 24.57050 19.21172
#
# Velocity S-wave (km/s) = 2.78829 3.71342 3.28360
# Velocity P-wave (km/s) = 5.86256 6.74014 6.31661
#
# Compressibility (1/GPa) = 0.02338076
#
# Stress axis : x y z
#
# Youngs Moduli (GPa) = 74.48994 74.35734 66.75690
#
# Poissons Ratio (x) = 0.49356 0.25785
# Poissons Ratio (y) = 0.49444 -0.08439
# Poissons Ratio (z) = 0.28772 -0.09400
#
# Static dielectric constant tensor:
#      x y z
#    x 2.094510 0.000000 1.275220 
#    y 0.000000 1.612810 0.000000 
#    z 1.275220 0.000000 5.237860 
# 
# From -- ./inp_files/65316.got.cif
#   From: 2010.05.17/outbox.cif.g08.bks.cpg/sg10_33_cif.got.tgz:65316.got - 2010.06.03 11:33:40.
