data_PCOD9151579
_publ_section_title
;
Structure prediction by ZEFSAII (Michael W. Deem and Ramdas Pophale) SiO2 
 PCOD9151579
Probable space group: P 2/M
;
_chemical_formula_sum "Si O2"
_cell_formula_units_Z 25
_cell_length_a 9.523440
_cell_length_b 18.968150
_cell_length_c 9.119183
_cell_angle_alpha 90.000000
_cell_angle_beta 50.194426
_cell_angle_gamma 90.000000
_cell_volume 1265.496857
_symmetry_space_group_name_H-M "P 2/M"
_symmetry_group_IT_number 10
_symmetry_cell_setting 'monoclinic'
loop_
_space_group_symop_operation_xyz
x,y,z
-x,y,-z
-x,-y,-z
x,-y,z
loop_
_atom_site_type_symbol
_atom_site_label
_atom_site_fract_x
_atom_site_fract_y
_atom_site_fract_z
Si Si1 0.127771 0.848480 0.045487
Si Si2 0.650013 0.294601 0.527972
Si Si3 0.000000 0.500000 0.500000
Si Si4 0.953697 0.277385 0.703175
Si Si5 0.929347 0.000000 0.789086
Si Si6 0.290882 0.000000 0.348107
Si Si7 0.320858 0.614291 0.204545
Si Si8 0.526849 0.860284 0.653520
O O1 0.093679 0.799570 0.207156
O O2 0.079361 0.929084 0.112228
O O3 0.333434 0.843228 0.854160
O O4 0.000000 0.822400 0.000000
O O5 0.500000 0.303891 0.500000
O O6 0.616566 0.345267 0.688779
O O7 0.641108 0.212099 0.581413
O O8 0.862089 0.305541 0.341435
O O9 0.158541 0.560821 0.357517
O O10 0.780219 0.328364 0.831887
O O11 0.000000 0.275444 0.500000
O O12 0.763054 0.000000 0.785478
O O13 0.110858 0.000000 0.569902
O O14 0.393183 0.928123 0.319830
O O15 0.500000 0.586403 0.000000
O O16 0.500000 0.878344 0.500000
#
# Coordination Sequence:
#
# PCOD9151579 Si02
#       8
#     4   4   1   4   2   2   4   4
#     4  12  24  40  62  90 123 168 218 269 332 393
#     4  10  20  40  66  98 135 172 214 273 332 382
#     4  12  22  48  70 104 136 182 208 272 324 392
#     4  10  22  41  66  97 133 169 219 277 323 389
#     4  11  26  39  58  83 120 169 216 276 327 394
#     4  11  24  41  58  81 122 169 214 275 333 378
#     4  11  23  42  72 102 134 176 222 264 320 397
#     4  11  23  39  61  88 125 166 216 272 329 387
#
# _framework density 19.755085000000001
#
# number of rings (size 3 to 8) (size 9 to 14) (size 15 to 20)
#    0.000    1.120    2.400    6.000    6.720    1.280 
#    0.000    0.400    0.000    0.960    0.000    0.000 
#    0.000    0.000    0.000    0.000    0.000    0.000 
#
# Total GULP energy -139418.257820 kJ/mol
# GULP energy per Si atom -5576.730313 kJ/mol
# Density = 1.971012 g / cm^3
# Si number density = 19.755085 Si / 1000 Ang^3
#
#
#
# Elastic Constant Matrix: (Units=GPa)
#
#
# Indices 1 2 3 4 5 6 
#
# 1 105.5252 40.7036 35.5460 0.0000 -13.8520 0.0000
# 2 40.7036 104.3496 22.9081 0.0000 -1.1228 0.0000
# 3 35.5460 22.9081 92.2795 0.0000 -25.2917 0.0000
# 4 0.0000 0.0000 0.0000 11.5748 0.0000 -8.2642
# 5 -13.8520 -1.1228 -25.2917 0.0000 29.4858 0.0000
# 6 0.0000 0.0000 0.0000 -8.2642 0.0000 -4.2999
#
#
#
# Elastic Compliance Matrix: (Units=1/GPa)
#
#
# Indices 1 2 3 4 5 6 
#
# 1 0.012494 -0.004206 -0.002881 0.000000 0.003238 0.000000
# 2 -0.004206 0.011674 -0.002219 0.000000 -0.003435 0.000000
# 3 -0.002881 -0.002219 0.015823 0.000000 0.012134 0.000000
# 4 0.000000 0.000000 0.000000 0.036419 0.000000 -0.069995
# 5 0.003238 -0.003435 0.012134 0.000000 0.045714 0.000000
# 6 0.000000 0.000000 0.000000 -0.069995 0.000000 -0.098036
#
#
# Mechanical properties :
#
#
# Convention : Reuss Voigt Hill
#
# Bulk Modulus (GPa) = 46.77647 55.60774 51.19211
# Shear Modulus (GPa) = 100.34418 20.88523 60.61471
#
# Velocity S-wave (km/s) = 7.13473 3.25500 5.54524
# Velocity P-wave (km/s) = 9.57090 6.50664 8.18347
#
# Compressibility (1/GPa) = 0.02137827
#
# Stress axis : x y z
#
# Youngs Moduli (GPa) = 80.03527 85.65909 63.19855
#
# Poissons Ratio (x) = 0.36031 0.18208
# Poissons Ratio (y) = 0.33666 0.14026
# Poissons Ratio (z) = 0.23059 0.19010
#
# Static dielectric constant tensor:
#      x y z
#    x 1.714750 0.000000 -0.025480 
#    y 0.000000 1.710920 0.000000 
#    z -0.025480 0.000000 1.687010 
# 
# From -- ./inp_files/20216.got.cif
#   From: 2010.05.17/outbox.cif.g08.bks.cpg/sg10_11_cif.got.tgz:20216.got - 2010.06.03 11:33:40.
