data_PCOD9151781
_publ_section_title
;
Structure prediction by ZEFSAII (Michael W. Deem and Ramdas Pophale) SiO2 
 PCOD9151781
Probable space group: P 2/M
;
_chemical_formula_sum "Si O2"
_cell_formula_units_Z 24
_cell_length_a 18.103649
_cell_length_b 10.712029
_cell_length_c 8.095916
_cell_angle_alpha 90.000000
_cell_angle_beta 122.193092
_cell_angle_gamma 90.000000
_cell_volume 1328.636983
_symmetry_space_group_name_H-M "P 2/M"
_symmetry_group_IT_number 10
_symmetry_cell_setting 'monoclinic'
loop_
_space_group_symop_operation_xyz
x,y,z
-x,y,-z
-x,-y,-z
x,-y,z
loop_
_atom_site_type_symbol
_atom_site_label
_atom_site_fract_x
_atom_site_fract_y
_atom_site_fract_z
Si Si1 0.865863 0.225011 0.924169
Si Si2 0.703249 0.137217 0.543062
Si Si3 0.600679 0.642618 0.576097
Si Si4 0.037814 0.145371 0.273642
Si Si5 0.193177 0.142432 0.681044
Si Si6 0.246996 0.636966 0.985964
O O1 0.780318 0.146405 0.772088
O O2 0.918018 0.231332 0.814275
O O3 0.825746 0.348345 0.956410
O O4 0.934845 0.167054 0.135172
O O5 0.638732 0.251588 0.501089
O O6 0.751088 0.147706 0.423128
O O7 0.661894 0.000000 0.504356
O O8 0.500000 0.663402 0.500000
O O9 0.610219 0.500000 0.523133
O O10 0.660317 0.648977 0.811888
O O11 0.092666 0.164677 0.504769
O O12 0.054216 0.000000 0.246226
O O13 0.228062 0.248663 0.842500
O O14 0.200315 0.000000 0.753311
O O15 0.240806 0.500000 0.900661
#
# Coordination Sequence:
#
# PCOD9151781 Si02
#       6
#     4   4   4   4   4   4
#     4   9  16  29  49  71  96 128 165 206 240 272
#     4   9  17  31  52  77 101 125 159 202 245 284
#     4   9  19  36  56  75  94 121 160 201 240 291
#     4   9  16  29  49  73  98 128 169 205 235 280
#     4   9  19  33  49  72 102 134 164 195 235 285
#     4  10  21  35  50  71  99 128 161 199 244 293
#
# _framework density 18.063624000000001
#
# number of rings (size 3 to 8) (size 9 to 14) (size 15 to 20)
#    0.000    2.833    0.000    3.000    0.000    5.667 
#    0.000    8.333    0.000    5.000    0.000    0.000 
#    0.000    0.000    0.000    0.000    0.000    0.000 
#
# Total GULP energy -133606.223094 kJ/mol
# GULP energy per Si atom -5566.925962 kJ/mol
# Density = 1.802251 g / cm^3
# Si number density = 18.063624 Si / 1000 Ang^3
#
#
#
# Elastic Constant Matrix: (Units=GPa)
#
#
# Indices 1 2 3 4 5 6 
#
# 1 70.5791 51.8353 33.3169 0.0000 18.0169 0.0000
# 2 51.8353 125.9074 49.9155 0.0000 4.5516 0.0000
# 3 33.3169 49.9155 68.9949 0.0000 5.4983 0.0000
# 4 0.0000 0.0000 0.0000 18.6869 0.0000 -4.7351
# 5 18.0169 4.5516 5.4983 0.0000 24.5691 0.0000
# 6 0.0000 0.0000 0.0000 -4.7351 0.0000 19.4394
#
#
#
# Elastic Compliance Matrix: (Units=1/GPa)
#
#
# Indices 1 2 3 4 5 6 
#
# 1 0.027495 -0.008381 -0.005835 0.000000 -0.017304 0.000000
# 2 -0.008381 0.013693 -0.006258 0.000000 0.005010 0.000000
# 3 -0.005835 -0.006258 0.021794 0.000000 0.000561 0.000000
# 4 0.000000 0.000000 0.000000 0.057033 0.000000 0.013892
# 5 -0.017304 0.005010 0.000561 0.000000 0.052338 0.000000
# 6 0.000000 0.000000 0.000000 0.013892 0.000000 0.054826
#
#
# Mechanical properties :
#
#
# Convention : Reuss Voigt Hill
#
# Bulk Modulus (GPa) = 45.38408 59.51297 52.44853
# Shear Modulus (GPa) = 18.15063 21.23335 19.69199
#
# Velocity S-wave (km/s) = 3.17332 3.43224 3.30532
# Velocity P-wave (km/s) = 6.21335 6.98032 6.60797
#
# Compressibility (1/GPa) = 0.02203416
#
# Stress axis : x y z
#
# Youngs Moduli (GPa) = 36.36978 73.03157 45.88314
#
# Poissons Ratio (x) = 0.61207 0.26772
# Poissons Ratio (y) = 0.30481 0.28716
# Poissons Ratio (z) = 0.21221 0.45706
#
# Static dielectric constant tensor:
#      x y z
#    x 1.642130 0.000000 -0.014960 
#    y 0.000000 1.613330 0.000000 
#    z -0.014960 0.000000 1.637550 
# 
# From -- ./inp_files/34450.got.cif
#   From: 2010.05.17/outbox.cif.g08.bks.cpg/sg10_18_cif.got.tgz:34450.got - 2010.06.03 11:33:40.
