data_PCOD9151090
_publ_section_title
;
Structure prediction by ZEFSAII (Michael W. Deem and Ramdas Pophale) SiO2 
 PCOD9151090
Probable space group: P 2/M
;
_chemical_formula_sum "Si O2"
_cell_formula_units_Z 32
_cell_length_a 5.315595
_cell_length_b 17.035775
_cell_length_c 15.445978
_cell_angle_alpha 90.000000
_cell_angle_beta 76.529460
_cell_angle_gamma 90.000000
_cell_volume 1360.235976
_symmetry_space_group_name_H-M "P 2/M"
_symmetry_group_IT_number 10
_symmetry_cell_setting 'monoclinic'
loop_
_space_group_symop_operation_xyz
x,y,z
-x,y,-z
-x,-y,-z
x,-y,z
loop_
_atom_site_type_symbol
_atom_site_label
_atom_site_fract_x
_atom_site_fract_y
_atom_site_fract_z
Si Si1 0.213344 0.644639 0.054877
Si Si2 0.230968 0.692477 0.724525
Si Si3 0.043956 0.619980 0.399420
Si Si4 0.449481 0.909667 0.355562
Si Si5 0.415108 0.412073 0.213349
Si Si6 0.648115 0.758694 0.571488
Si Si7 0.787618 0.835231 0.947247
Si Si8 0.023596 0.144411 0.252655
O O1 0.212623 0.611372 0.153834
O O2 0.208028 0.739506 0.060012
O O3 0.500000 0.620752 0.000000
O O4 0.000000 0.620003 0.000000
O O5 0.351793 0.650812 0.798919
O O6 0.461902 0.743638 0.666915
O O7 0.013702 0.759777 0.746965
O O8 0.177540 0.626360 0.655134
O O9 0.275819 0.589470 0.319547
O O10 0.106246 0.710586 0.417824
O O11 0.000000 0.585558 0.500000
O O12 0.338181 0.851159 0.438334
O O13 0.748933 0.892269 0.304832
O O14 0.251850 0.886524 0.294852
O O15 0.426184 0.000000 0.380402
O O16 0.508512 0.500000 0.189824
O O17 0.500000 0.724682 0.500000
O O18 0.883053 0.873303 0.851100
O O19 0.500000 0.856912 0.000000
O O20 0.000000 0.856790 0.000000
#
# Coordination Sequence:
#
# PCOD9151090 Si02
#       8
#     4   4   4   4   4   4   4   4
#     4  10  24  43  69 100 137 177 224 291 355 415
#     4  10  22  38  67  92 128 177 234 281 338 403
#     4  11  21  40  68  96 128 180 237 295 340 405
#     4  11  24  40  63  99 137 176 218 270 339 408
#     4  11  27  43  63  99 140 182 231 289 351 420
#     4  10  20  37  62  95 127 170 227 280 335 400
#     4  10  21  36  63 100 125 157 220 287 331 384
#     4  11  22  40  68  93 131 180 222 274 333 407
#
# _framework density 23.52533
#
# number of rings (size 3 to 8) (size 9 to 14) (size 15 to 20)
#    0.000    1.500    2.500    1.875   10.500    1.500 
#    0.000    0.625    0.000   10.125    0.000    0.000 
#    0.000    0.000    0.000    0.000    0.000    0.000 
#
# Total GULP energy -178401.684623 kJ/mol
# GULP energy per Si atom -5575.052644 kJ/mol
# Density = 2.347179 g / cm^3
# Si number density = 23.525330 Si / 1000 Ang^3
#
#
#
# Elastic Constant Matrix: (Units=GPa)
#
#
# Indices 1 2 3 4 5 6 
#
# 1 119.6257 5.7823 25.7298 0.0000 27.1427 0.0000
# 2 5.7823 83.4322 -10.9732 0.0000 13.8437 0.0000
# 3 25.7298 -10.9732 90.9398 0.0000 20.6419 0.0000
# 4 0.0000 0.0000 0.0000 -13.3364 0.0000 -13.7325
# 5 27.1427 13.8437 20.6419 0.0000 45.5827 0.0000
# 6 0.0000 0.0000 0.0000 -13.7325 0.0000 -2.7380
#
#
#
# Elastic Compliance Matrix: (Units=1/GPa)
#
#
# Indices 1 2 3 4 5 6 
#
# 1 0.009877 -0.000049 -0.001637 0.000000 -0.005125 0.000000
# 2 -0.000049 0.013231 0.002804 0.000000 -0.005259 0.000000
# 3 -0.001637 0.002804 0.013118 0.000000 -0.005817 0.000000
# 4 0.000000 0.000000 0.000000 0.018006 0.000000 -0.090306
# 5 -0.005125 -0.005259 -0.005817 0.000000 0.029221 0.000000
# 6 0.000000 0.000000 0.000000 -0.090306 0.000000 0.087702
#
#
# Mechanical properties :
#
#
# Convention : Reuss Voigt Hill
#
# Bulk Modulus (GPa) = 26.00082 37.23062 31.61572
# Shear Modulus (GPa) = 27.51191 24.13224 25.82207
#
# Velocity S-wave (km/s) = 3.42345 3.20628 3.31664
# Velocity P-wave (km/s) = 5.16748 5.43757 5.30424
#
# Compressibility (1/GPa) = 0.03846032
#
# Stress axis : x y z
#
# Youngs Moduli (GPa) = 101.24817 75.58272 76.22955
#
# Poissons Ratio (x) = 0.00374 0.12480
# Poissons Ratio (y) = 0.00501 -0.21375
# Poissons Ratio (z) = 0.16576 -0.21194
#
# Static dielectric constant tensor:
#      x y z
#    x 1.952910 0.000000 -0.062590 
#    y 0.000000 1.912880 0.000000 
#    z -0.062590 0.000000 1.950850 
# 
# From -- ./inp_files/59423.got.cif
#   From: 2010.05.17/outbox.cif.g08.bks.cpg/sg10_30_cif.got.tgz:59423.got - 2010.06.03 11:33:40.
