data_PCOD9151706
_publ_section_title
;
Structure prediction by ZEFSAII (Michael W. Deem and Ramdas Pophale) SiO2 
 PCOD9151706
Probable space group: P 2/M
;
_chemical_formula_sum "Si O2"
_cell_formula_units_Z 28
_cell_length_a 28.481895
_cell_length_b 7.605884
_cell_length_c 9.831513
_cell_angle_alpha 90.000000
_cell_angle_beta 40.195426
_cell_angle_gamma 90.000000
_cell_volume 1374.566275
_symmetry_space_group_name_H-M "P 2/M"
_symmetry_group_IT_number 10
_symmetry_cell_setting 'monoclinic'
loop_
_space_group_symop_operation_xyz
x,y,z
-x,y,-z
-x,-y,-z
x,-y,z
loop_
_atom_site_type_symbol
_atom_site_label
_atom_site_fract_x
_atom_site_fract_y
_atom_site_fract_z
Si Si1 0.950573 0.714889 0.810392
Si Si2 0.103300 0.712809 0.371558
Si Si3 0.577905 0.202696 0.792917
Si Si4 0.701259 0.784765 0.321362
Si Si5 0.301362 0.703421 0.270982
Si Si6 0.823664 0.703826 0.267451
Si Si7 0.268467 0.203187 0.047377
O O1 0.949322 0.500000 0.815919
O O2 0.915481 0.765169 0.742306
O O3 0.034824 0.767656 0.615722
O O4 0.899901 0.779449 0.045295
O O5 0.106700 0.500000 0.366676
O O6 0.181132 0.782112 0.242466
O O7 0.628221 0.274722 0.560160
O O8 0.630399 0.207219 0.807914
O O9 0.563879 0.000000 0.785253
O O10 0.500000 0.284661 0.000000
O O11 0.769488 0.716169 0.257624
O O12 0.705141 0.000000 0.317379
O O13 0.706525 0.726141 0.154248
O O14 0.305048 0.500000 0.306080
O O15 0.225846 0.778436 0.501216
O O16 0.299856 0.711830 0.113099
O O17 0.838102 0.500000 0.270459
O O18 0.289778 0.000000 0.005263
#
# Coordination Sequence:
#
# PCOD9151706 Si02
#       7
#     4   4   4   4   4   4   4
#     4   8  14  26  47  73  96 123 164 212 255 291
#     4   9  16  28  48  71  97 129 165 209 253 292
#     4   9  18  36  60  81 101 126 157 197 245 296
#     4   9  18  31  50  76 100 127 164 200 240 292
#     4  10  21  34  52  76 102 133 166 202 244 291
#     4   9  16  30  51  73  95 125 168 211 249 290
#     4  11  21  33  48  71 104 137 167 202 244 293
#
# _framework density 20.370062999999998
#
# number of rings (size 3 to 8) (size 9 to 14) (size 15 to 20)
#    0.000    2.714    1.429    1.714    0.000    1.429 
#    0.000    3.571    0.000    8.571    0.000    0.000 
#    0.000    0.000    0.000    0.000    0.000    0.000 
#
# Total GULP energy -156121.729912 kJ/mol
# GULP energy per Si atom -5575.776068 kJ/mol
# Density = 2.032370 g / cm^3
# Si number density = 20.370063 Si / 1000 Ang^3
#
#
#
# Elastic Constant Matrix: (Units=GPa)
#
#
# Indices 1 2 3 4 5 6 
#
# 1 54.7195 -8.5063 49.1859 0.0000 8.9801 0.0000
# 2 -8.5063 43.9578 -6.2401 0.0000 0.6543 0.0000
# 3 49.1859 -6.2401 132.2213 0.0000 -10.9590 0.0000
# 4 0.0000 0.0000 0.0000 5.7709 0.0000 -0.2271
# 5 8.9801 0.6543 -10.9590 0.0000 32.1448 0.0000
# 6 0.0000 0.0000 0.0000 -0.2271 0.0000 19.8783
#
#
#
# Elastic Compliance Matrix: (Units=1/GPa)
#
#
# Indices 1 2 3 4 5 6 
#
# 1 0.033253 0.004754 -0.013299 0.000000 -0.013921 0.000000
# 2 0.004754 0.023583 -0.000829 0.000000 -0.002091 0.000000
# 3 -0.013299 -0.000829 0.013152 0.000000 0.008216 0.000000
# 4 0.000000 0.000000 0.000000 0.173362 0.000000 0.001981
# 5 -0.013921 -0.002091 0.008216 0.000000 0.037842 0.000000
# 6 0.000000 0.000000 0.000000 0.001981 0.000000 0.050329
#
#
# Mechanical properties :
#
#
# Convention : Reuss Voigt Hill
#
# Bulk Modulus (GPa) = 19.51615 33.30860 26.41238
# Shear Modulus (GPa) = 13.61105 24.65607 19.13356
#
# Velocity S-wave (km/s) = 2.58774 3.48286 3.06812
# Velocity P-wave (km/s) = 4.30466 5.70623 5.05426
#
# Compressibility (1/GPa) = 0.05123960
#
# Stress axis : x y z
#
# Youngs Moduli (GPa) = 30.07232 42.40425 76.03218
#
# Poissons Ratio (x) = -0.20159 1.01119
# Poissons Ratio (y) = -0.14297 0.06302
# Poissons Ratio (z) = 0.39995 0.03515
#
# Static dielectric constant tensor:
#      x y z
#    x 1.668920 0.000000 -0.000110 
#    y 0.000000 1.783270 0.000000 
#    z -0.000110 0.000000 1.776950 
# 
# From -- ./inp_files/31525.got.cif
#   From: 2010.05.17/outbox.cif.g08.bks.cpg/sg10_16_cif.got.tgz:31525.got - 2010.06.03 11:33:40.
