data_PCOD9151965
_publ_section_title
;
Structure prediction by ZEFSAII (Michael W. Deem and Ramdas Pophale) SiO2 
 PCOD9151965
Probable space group: P 2/M
;
_chemical_formula_sum "Si O2"
_cell_formula_units_Z 28
_cell_length_a 19.035933
_cell_length_b 13.927596
_cell_length_c 9.157157
_cell_angle_alpha 90.000000
_cell_angle_beta 136.443167
_cell_angle_gamma 90.000000
_cell_volume 1672.925866
_symmetry_space_group_name_H-M "P 2/M"
_symmetry_group_IT_number 10
_symmetry_cell_setting 'monoclinic'
loop_
_space_group_symop_operation_xyz
x,y,z
-x,y,-z
-x,-y,-z
x,-y,z
loop_
_atom_site_type_symbol
_atom_site_label
_atom_site_fract_x
_atom_site_fract_y
_atom_site_fract_z
Si Si1 0.054376 0.388280 0.349467
Si Si2 0.840123 0.611882 0.174333
Si Si3 0.488705 0.890826 0.306538
Si Si4 0.281971 0.884776 0.344177
Si Si5 0.716208 0.795806 0.976613
Si Si6 0.901633 0.203427 0.753530
Si Si7 0.100939 0.885804 0.567264
O O1 0.060103 0.500000 0.314940
O O2 0.117388 0.377424 0.595838
O O3 0.094688 0.314549 0.290565
O O4 0.936770 0.365912 0.215075
O O5 0.813816 0.500000 0.114547
O O6 0.748534 0.685124 0.009808
O O7 0.500000 0.892809 0.500000
O O8 0.602508 0.867134 0.425252
O O9 0.461592 0.000000 0.220269
O O10 0.396924 0.818777 0.135436
O O11 0.198591 0.829343 0.312346
O O12 0.265401 0.000000 0.322266
O O13 0.274992 0.848051 0.166969
O O14 0.799998 0.840727 0.209823
O O15 0.908007 0.144680 0.613078
O O16 0.000000 0.183289 0.000000
O O17 0.000000 0.851347 0.500000
O O18 0.106592 0.000000 0.589008
#
# Coordination Sequence:
#
# PCOD9151965 Si02
#       7
#     4   4   4   4   4   4   4
#     4   9  18  34  53  75 104 137 175 218 263 312
#     4   9  17  31  55  81 103 130 173 226 266 302
#     4   8  16  32  54  77 100 135 181 219 255 304
#     4  10  21  36  53  77 110 143 175 214 262 313
#     4  11  18  33  59  78  99 136 182 221 257 309
#     4  12  23  34  51  76 110 144 170 210 269 319
#     4  11  22  33  48  74 105 137 176 214 253 310
#
# _framework density 16.737141999999999
#
# number of rings (size 3 to 8) (size 9 to 14) (size 15 to 20)
#    0.000    2.000    1.429    6.000    0.000    2.571 
#    0.000    1.429    0.000    7.286    0.000    2.000 
#    0.000    0.000    0.000    0.000    0.000    0.000 
#
# Total GULP energy -156242.023826 kJ/mol
# GULP energy per Si atom -5580.072279 kJ/mol
# Density = 1.669905 g / cm^3
# Si number density = 16.737142 Si / 1000 Ang^3
#
#
#
# Elastic Constant Matrix: (Units=GPa)
#
#
# Indices 1 2 3 4 5 6 
#
# 1 106.3101 51.5423 48.7845 0.0000 21.2343 0.0000
# 2 51.5423 113.3337 52.7458 0.0000 26.4589 0.0000
# 3 48.7845 52.7458 82.5974 0.0000 18.6043 0.0000
# 4 0.0000 0.0000 0.0000 29.7495 0.0000 -5.8256
# 5 21.2343 26.4589 18.6043 0.0000 28.7825 0.0000
# 6 0.0000 0.0000 0.0000 -5.8256 0.0000 -8.0370
#
#
#
# Elastic Compliance Matrix: (Units=1/GPa)
#
#
# Indices 1 2 3 4 5 6 
#
# 1 0.014216 -0.002866 -0.005615 0.000000 -0.004224 0.000000
# 2 -0.002866 0.014661 -0.005981 0.000000 -0.007497 0.000000
# 3 -0.005615 -0.005981 0.019980 0.000000 -0.003274 0.000000
# 4 0.000000 0.000000 0.000000 0.029436 0.000000 -0.021337
# 5 -0.004224 -0.007497 -0.003274 0.000000 0.046868 0.000000
# 6 0.000000 0.000000 0.000000 -0.021337 0.000000 -0.108959
#
#
# Mechanical properties :
#
#
# Convention : Reuss Voigt Hill
#
# Bulk Modulus (GPa) = 50.16678 67.59850 58.88264
# Shear Modulus (GPa) = 96.58277 20.04358 58.31317
#
# Velocity S-wave (km/s) = 7.60466 3.46432 5.90899
# Velocity P-wave (km/s) = 10.35115 7.51518 9.04501
#
# Compressibility (1/GPa) = 0.01993351
#
# Stress axis : x y z
#
# Youngs Moduli (GPa) = 70.34173 68.21020 50.05001
#
# Poissons Ratio (x) = 0.19549 0.28103
# Poissons Ratio (y) = 0.20160 0.29934
# Poissons Ratio (z) = 0.39497 0.40795
#
# Static dielectric constant tensor:
#      x y z
#    x 1.570010 0.000000 0.001930 
#    y 0.000000 1.579720 0.000000 
#    z 0.001930 0.000000 1.554930 
# 
# From -- ./inp_files/32773.got.cif
#   From: 2010.05.17/outbox.cif.g08.bks.cpg/sg10_17_cif.got.tgz:32773.got - 2010.06.03 11:33:40.
