data_PCOD9151537
_publ_section_title
;
Structure prediction by ZEFSAII (Michael W. Deem and Ramdas Pophale) SiO2 
 PCOD9151537
Probable space group: P 2/M
;
_chemical_formula_sum "Si O2"
_cell_formula_units_Z 28
_cell_length_a 25.552238
_cell_length_b 7.685563
_cell_length_c 9.597969
_cell_angle_alpha 90.000000
_cell_angle_beta 37.897051
_cell_angle_gamma 90.000000
_cell_volume 1157.778047
_symmetry_space_group_name_H-M "P 2/M"
_symmetry_group_IT_number 10
_symmetry_cell_setting 'monoclinic'
loop_
_space_group_symop_operation_xyz
x,y,z
-x,y,-z
-x,-y,-z
x,-y,z
loop_
_atom_site_type_symbol
_atom_site_label
_atom_site_fract_x
_atom_site_fract_y
_atom_site_fract_z
Si Si1 0.208991 0.789513 0.048794
Si Si2 0.414036 0.702555 0.249390
Si Si3 0.760709 0.290415 0.515914
Si Si4 0.886676 0.206933 0.023382
Si Si5 0.327496 0.705582 0.028249
Si Si6 0.512773 0.199142 0.624996
Si Si7 0.949694 0.802081 0.458045
O O1 0.297677 0.741318 0.933572
O O2 0.137979 0.718461 0.307052
O O3 0.205180 0.000000 0.055418
O O4 0.179860 0.729213 0.956624
O O5 0.412424 0.500000 0.209937
O O6 0.323116 0.774114 0.392349
O O7 0.427886 0.715052 0.385248
O O8 0.500000 0.780314 0.000000
O O9 0.762886 0.500000 0.507226
O O10 0.845640 0.233259 0.259400
O O11 0.743032 0.235714 0.711261
O O12 0.894922 0.000000 0.983603
O O13 0.981273 0.278446 0.792119
O O14 0.340371 0.500000 0.018313
O O15 0.415608 0.795607 0.882801
O O16 0.500000 0.282377 0.500000
O O17 0.541586 0.000000 0.546801
O O18 0.000000 0.813624 0.500000
O O19 0.930259 0.000000 0.452314
#
# Coordination Sequence:
#
# PCOD9151537 Si02
#       7
#     4   4   4   4   4   4   4
#     4   9  18  34  57  84 112 140 179 229 273 317
#     4  10  20  40  62  79 105 146 188 221 263 320
#     4  10  22  38  55  78 110 146 184 224 265 318
#     4   9  18  33  57  85 110 140 181 225 272 324
#     4  11  23  40  57  77 110 150 185 217 268 328
#     4  11  25  41  58  84 113 138 176 229 276 319
#     4   7  12  28  53  79 108 142 176 217 270 322
#
# _framework density 24.184256000000001
#
# number of rings (size 3 to 8) (size 9 to 14) (size 15 to 20)
#    0.000    2.429    1.429    2.571    2.000    3.714 
#    0.000    1.429    0.000    6.857    0.000    0.000 
#    0.000    0.000    0.000    0.000    0.000    0.000 
#
# Total GULP energy -156284.866951 kJ/mol
# GULP energy per Si atom -5581.602391 kJ/mol
# Density = 2.412921 g / cm^3
# Si number density = 24.184256 Si / 1000 Ang^3
#
#
#
# Elastic Constant Matrix: (Units=GPa)
#
#
# Indices 1 2 3 4 5 6 
#
# 1 53.6903 -7.2054 -18.7921 0.0000 8.4168 0.0000
# 2 -7.2054 49.9199 -6.5333 0.0000 -0.9208 0.0000
# 3 -18.7921 -6.5333 95.1685 0.0000 16.7319 0.0000
# 4 0.0000 0.0000 0.0000 -7.3292 0.0000 178.3728
# 5 8.4168 -0.9208 16.7319 0.0000 26.2300 0.0000
# 6 0.0000 0.0000 0.0000 178.3728 0.0000 -984.8026
#
#
#
# Elastic Compliance Matrix: (Units=1/GPa)
#
#
# Indices 1 2 3 4 5 6 
#
# 1 0.023484 0.004087 0.007003 0.000000 -0.011859 0.000000
# 2 0.004087 0.020926 0.002641 0.000000 -0.002262 0.000000
# 3 0.007003 0.002641 0.014023 0.000000 -0.011100 0.000000
# 4 0.000000 0.000000 0.000000 0.040034 0.000000 0.007251
# 5 -0.011859 -0.002262 -0.011100 0.000000 0.048931 0.000000
# 6 0.000000 0.000000 0.000000 0.007251 0.000000 0.000298
#
#
# Mechanical properties :
#
#
# Convention : Reuss Voigt Hill
#
# Bulk Modulus (GPa) = 11.64192 14.85745 13.24968
# Shear Modulus (GPa) = 33.58742 -177.75971 -72.08614
#
# Velocity S-wave (km/s) = 3.73072 -8.58265 -5.46551
# Velocity P-wave (km/s) = 4.83549 9.59474 5.85990
#
# Compressibility (1/GPa) = 0.08589652
#
# Stress axis : x y z
#
# Youngs Moduli (GPa) = 42.58209 47.78740 71.30999
#
# Poissons Ratio (x) = -0.19533 -0.49937
# Poissons Ratio (y) = -0.17405 -0.18835
# Poissons Ratio (z) = -0.29819 -0.12622
#
# Static dielectric constant tensor:
#      x y z
#    x 1.892890 0.000000 -0.014110 
#    y 0.000000 1.910300 0.000000 
#    z -0.014110 0.000000 2.019440 
# 
# From -- ./inp_files/37010.got.cif
#   From: 2010.05.17/outbox.cif.g08.bks.cpg/sg10_19_cif.got.tgz:37010.got - 2010.06.03 11:33:40.
