data_PCOD9151693
_publ_section_title
;
Structure prediction by ZEFSAII (Michael W. Deem and Ramdas Pophale) SiO2 
 PCOD9151693
Probable space group: P 2/M
;
_chemical_formula_sum "Si O2"
_cell_formula_units_Z 32
_cell_length_a 12.529781
_cell_length_b 9.489135
_cell_length_c 13.296965
_cell_angle_alpha 90.000000
_cell_angle_beta 95.342480
_cell_angle_gamma 90.000000
_cell_volume 1574.098554
_symmetry_space_group_name_H-M "P 2/M"
_symmetry_group_IT_number 10
_symmetry_cell_setting 'monoclinic'
loop_
_space_group_symop_operation_xyz
x,y,z
-x,y,-z
-x,-y,-z
x,-y,z
loop_
_atom_site_type_symbol
_atom_site_label
_atom_site_fract_x
_atom_site_fract_y
_atom_site_fract_z
Si Si1 0.746776 0.329166 0.292317
Si Si2 0.060463 0.666754 0.109299
Si Si3 0.983948 0.667964 0.332481
Si Si4 0.619417 0.330292 0.471424
Si Si5 0.341484 0.336621 0.913429
Si Si6 0.818085 0.840457 0.582388
Si Si7 0.584652 0.662339 0.865245
Si Si8 0.255349 0.155470 0.195720
O O1 0.750925 0.500000 0.283844
O O2 0.862084 0.287057 0.345809
O O3 0.646470 0.300433 0.356255
O O4 0.733150 0.271441 0.178028
O O5 0.083419 0.500000 0.105803
O O6 0.001142 0.688561 0.212340
O O7 0.169677 0.753350 0.126796
O O8 0.000000 0.704006 0.000000
O O9 0.996229 0.500000 0.351731
O O10 0.071751 0.752076 0.404122
O O11 0.500000 0.292571 0.500000
O O12 0.631284 0.500000 0.487785
O O13 0.716876 0.246791 0.531748
O O14 0.308629 0.500000 0.926106
O O15 0.458810 0.337400 0.872715
O O16 0.361899 0.281374 0.026318
O O17 0.792439 0.855225 0.698076
O O18 0.826882 0.000000 0.540676
O O19 0.615517 0.500000 0.849958
O O20 0.632894 0.761966 0.786348
O O21 0.270120 0.000000 0.154458
#
# Coordination Sequence:
#
# PCOD9151693 Si02
#       8
#     4   4   4   4   4   4   4   4
#     4   9  18  33  55  84 116 143 174 228 286 329
#     4   9  18  31  51  80 106 137 183 228 267 316
#     4   9  18  34  57  82 110 144 182 227 277 328
#     4  10  22  38  60  89 113 139 180 228 279 333
#     4   8  16  30  50  80 112 141 177 223 276 322
#     4  10  22  40  58  77 110 150 187 230 274 327
#     4   9  17  30  53  80 106 143 186 226 266 319
#     4  10  21  34  50  75 107 148 184 219 273 323
#
# _framework density 20.329096
#
# number of rings (size 3 to 8) (size 9 to 14) (size 15 to 20)
#    0.000    2.750    0.000    1.500    3.500    2.500 
#    0.000    4.375    0.000    1.500    0.000    0.000 
#    0.000    0.000    0.000    0.000    0.000    0.000 
#
# Total GULP energy -178236.072794 kJ/mol
# GULP energy per Si atom -5569.877275 kJ/mol
# Density = 2.028283 g / cm^3
# Si number density = 20.329096 Si / 1000 Ang^3
#
#
#
# Elastic Constant Matrix: (Units=GPa)
#
#
# Indices 1 2 3 4 5 6 
#
# 1 89.4518 26.5351 20.4420 0.0000 -3.5363 0.0000
# 2 26.5351 39.3679 12.7567 0.0000 -1.0351 0.0000
# 3 20.4420 12.7567 41.8208 0.0000 17.8225 0.0000
# 4 0.0000 0.0000 0.0000 12.2127 0.0000 -5.9758
# 5 -3.5363 -1.0351 17.8225 0.0000 32.8734 0.0000
# 6 0.0000 0.0000 0.0000 -5.9758 0.0000 -10.7539
#
#
#
# Elastic Compliance Matrix: (Units=1/GPa)
#
#
# Indices 1 2 3 4 5 6 
#
# 1 0.015429 -0.007830 -0.007485 0.000000 0.005471 0.000000
# 2 -0.007830 0.033542 -0.008447 0.000000 0.004793 0.000000
# 3 -0.007485 -0.008447 0.039798 0.000000 -0.022648 0.000000
# 4 0.000000 0.000000 0.000000 0.064377 0.000000 -0.035774
# 5 0.005471 0.004793 -0.022648 0.000000 0.043438 0.000000
# 6 0.000000 0.000000 0.000000 -0.035774 0.000000 -0.073110
#
#
# Mechanical properties :
#
#
# Convention : Reuss Voigt Hill
#
# Bulk Modulus (GPa) = 24.24474 32.23423 28.23949
# Shear Modulus (GPa) = 27.06412 14.26022 20.66217
#
# Velocity S-wave (km/s) = 3.65266 2.65140 3.19154
# Velocity P-wave (km/s) = 5.45355 5.02632 5.24429
#
# Compressibility (1/GPa) = 0.04124606
#
# Stress axis : x y z
#
# Youngs Moduli (GPa) = 64.81428 29.81306 25.12666
#
# Poissons Ratio (x) = 0.23344 0.18806
# Poissons Ratio (y) = 0.50751 0.21224
# Poissons Ratio (z) = 0.48511 0.25183
#
# Static dielectric constant tensor:
#      x y z
#    x 1.744530 0.000000 -0.007700 
#    y 0.000000 1.711470 0.000000 
#    z -0.007700 0.000000 1.784990 
# 
# From -- ./inp_files/63780.got.cif
#   From: 2010.05.17/outbox.cif.g08.bks.cpg/sg10_32_cif.got.tgz:63780.got - 2010.06.03 11:33:40.
