data_PCOD9151793
_publ_section_title
;
Structure prediction by ZEFSAII (Michael W. Deem and Ramdas Pophale) SiO2 
 PCOD9151793
Probable space group: P 2/M
;
_chemical_formula_sum "Si O2"
_cell_formula_units_Z 28
_cell_length_a 30.460648
_cell_length_b 9.576264
_cell_length_c 7.391230
_cell_angle_alpha 90.000000
_cell_angle_beta 40.997835
_cell_angle_gamma 90.000000
_cell_volume 1414.412231
_symmetry_space_group_name_H-M "P 2/M"
_symmetry_group_IT_number 10
_symmetry_cell_setting 'monoclinic'
loop_
_space_group_symop_operation_xyz
x,y,z
-x,y,-z
-x,-y,-z
x,-y,z
loop_
_atom_site_type_symbol
_atom_site_label
_atom_site_fract_x
_atom_site_fract_y
_atom_site_fract_z
Si Si1 0.555622 0.158109 0.588420
Si Si2 0.191264 0.166776 0.206037
Si Si3 0.681877 0.342505 0.260976
Si Si4 0.589972 0.842157 0.056008
Si Si5 0.715273 0.656732 0.580412
Si Si6 0.928795 0.169127 0.152505
Si Si7 0.839810 0.834442 0.117482
O O1 0.610864 0.264274 0.486455
O O2 0.477101 0.195071 0.848034
O O3 0.569568 0.152772 0.329507
O O4 0.565498 0.000000 0.628116
O O5 0.132422 0.208818 0.525566
O O6 0.204373 0.000000 0.184526
O O7 0.260488 0.251075 0.015195
O O8 0.164330 0.190590 0.084444
O O9 0.675963 0.500000 0.206701
O O10 0.705341 0.351576 0.395045
O O11 0.610754 0.000000 0.938394
O O12 0.649536 0.734080 0.854210
O O13 0.722884 0.500000 0.627835
O O14 0.780471 0.751053 0.399349
O O15 0.907622 0.203713 0.012813
O O16 0.932201 0.000000 0.151314
O O17 0.000000 0.223838 0.000000
O O18 0.828675 0.000000 0.177407
#
# Coordination Sequence:
#
# PCOD9151793 Si02
#       7
#     4   4   4   4   4   4   4
#     4   9  19  35  53  74 101 134 173 217 264 313
#     4   9  18  33  53  77 106 140 176 216 263 313
#     4  10  21  35  51  74 104 137 174 217 263 310
#     4   9  19  35  53  74 101 134 173 217 264 313
#     4  10  21  35  51  74 104 137 174 217 263 310
#     4   9  18  32  53  83 110 133 170 217 263 314
#     4   9  18  33  53  77 106 140 176 216 263 313
#
# _framework density 19.796209999999999
#
# number of rings (size 3 to 8) (size 9 to 14) (size 15 to 20)
#    0.000    2.714    0.000    1.714    2.000    4.000 
#    0.000    7.143    0.000    1.714    0.000    4.000 
#    0.000    0.000    0.000    0.000    0.000    0.000 
#
# Total GULP energy -156196.656669 kJ/mol
# GULP energy per Si atom -5578.452024 kJ/mol
# Density = 1.975115 g / cm^3
# Si number density = 19.796210 Si / 1000 Ang^3
#
#
#
# Elastic Constant Matrix: (Units=GPa)
#
#
# Indices 1 2 3 4 5 6 
#
# 1 83.0263 36.5581 14.8420 0.0000 -22.6456 0.0000
# 2 36.5581 55.5322 20.7150 0.0000 -12.8840 0.0000
# 3 14.8420 20.7150 48.0033 0.0000 -5.8645 0.0000
# 4 0.0000 0.0000 0.0000 -8.4117 0.0000 7.2424
# 5 -22.6456 -12.8840 -5.8645 0.0000 28.4947 0.0000
# 6 0.0000 0.0000 0.0000 7.2424 0.0000 9.9756
#
#
#
# Elastic Compliance Matrix: (Units=1/GPa)
#
#
# Indices 1 2 3 4 5 6 
#
# 1 0.019575 -0.010256 -0.000300 0.000000 0.010858 0.000000
# 2 -0.010256 0.028774 -0.008875 0.000000 0.003033 0.000000
# 3 -0.000300 -0.008875 0.024860 0.000000 0.000865 0.000000
# 4 0.000000 0.000000 0.000000 -0.073154 0.000000 0.053111
# 5 0.010858 0.003033 0.000865 0.000000 0.045273 0.000000
# 6 0.000000 0.000000 0.000000 0.053111 0.000000 0.061686
#
#
# Mechanical properties :
#
#
# Convention : Reuss Voigt Hill
#
# Bulk Modulus (GPa) = 29.11474 36.75466 32.93470
# Shear Modulus (GPa) = 31.78124 13.64149 22.71136
#
# Velocity S-wave (km/s) = 4.01112 2.62791 3.39079
# Velocity P-wave (km/s) = 6.01592 5.27397 5.65712
#
# Compressibility (1/GPa) = 0.03434686
#
# Stress axis : x y z
#
# Youngs Moduli (GPa) = 51.08441 34.75419 40.22464
#
# Poissons Ratio (x) = 0.35643 0.01208
# Poissons Ratio (y) = 0.52391 0.35700
# Poissons Ratio (z) = 0.01534 0.30845
#
# Static dielectric constant tensor:
#      x y z
#    x 1.755740 0.000000 0.027890 
#    y 0.000000 1.680390 0.000000 
#    z 0.027890 0.000000 1.691720 
# 
# From -- ./inp_files/37927.got.cif
#   From: 2010.05.17/outbox.cif.g08.bks.cpg/sg10_19_cif.got.tgz:37927.got - 2010.06.03 11:33:40.
