data_PCOD9151586
_publ_section_title
;
Structure prediction by ZEFSAII (Michael W. Deem and Ramdas Pophale) SiO2 
 PCOD9151586
Probable space group: P 2/M
;
_chemical_formula_sum "Si O2"
_cell_formula_units_Z 18
_cell_length_a 13.840682
_cell_length_b 8.258171
_cell_length_c 7.844253
_cell_angle_alpha 90.000000
_cell_angle_beta 82.829090
_cell_angle_gamma 90.000000
_cell_volume 889.575141
_symmetry_space_group_name_H-M "P 2/M"
_symmetry_group_IT_number 10
_symmetry_cell_setting 'monoclinic'
loop_
_space_group_symop_operation_xyz
x,y,z
-x,y,-z
-x,-y,-z
x,-y,z
loop_
_atom_site_type_symbol
_atom_site_label
_atom_site_fract_x
_atom_site_fract_y
_atom_site_fract_z
Si Si1 0.778963 0.183779 0.941723
Si Si2 0.431540 0.826726 0.178605
Si Si3 0.521558 0.500000 0.300335
Si Si4 0.247233 0.500000 0.817520
Si Si5 0.934759 0.500000 0.336902
Si Si6 0.981242 0.825800 0.708870
O O1 0.679089 0.193046 0.857738
O O2 0.869704 0.191607 0.791187
O O3 0.781058 0.000000 0.018948
O O4 0.778226 0.336365 0.070151
O O5 0.470434 0.662978 0.248966
O O6 0.439219 0.000000 0.273413
O O7 0.500000 0.842370 0.000000
O O8 0.500000 0.500000 0.500000
O O9 0.636656 0.500000 0.235432
O O10 0.182559 0.500000 0.656685
O O11 0.000000 0.500000 0.500000
O O12 0.966460 0.665182 0.239365
O O13 0.000000 0.830335 0.500000
O O14 0.016519 0.000000 0.768482
#
# Coordination Sequence:
#
# PCOD9151586 Si02
#       6
#     4   4   2   2   2   4
#     4  10  21  37  65  96 121 159 205 251 306 365
#     4  10  20  40  68  93 125 167 209 254 308 374
#     4  12  26  39  59  95 134 169 207 259 314 366
#     4  12  24  40  60  88 124 158 207 261 307 366
#     4  10  23  40  59  80 114 163 203 249 309 370
#     4   9  19  37  59  86 119 154 198 248 299 358
#
# _framework density 20.234379000000001
#
# number of rings (size 3 to 8) (size 9 to 14) (size 15 to 20)
#    0.000    1.778    2.222    1.667    0.000    6.667 
#    0.000    2.222    0.000    0.000    0.000    0.000 
#    0.000    0.000    0.000    0.000    0.000    0.000 
#
# Total GULP energy -100209.686447 kJ/mol
# GULP energy per Si atom -5567.204803 kJ/mol
# Density = 2.018832 g / cm^3
# Si number density = 20.234379 Si / 1000 Ang^3
#
#
#
# Elastic Constant Matrix: (Units=GPa)
#
#
# Indices 1 2 3 4 5 6 
#
# 1 139.7481 73.9545 30.7992 0.0000 4.0711 0.0000
# 2 73.9545 233.3091 48.4347 0.0000 9.6467 0.0000
# 3 30.7992 48.4347 64.6578 0.0000 -4.5166 0.0000
# 4 0.0000 0.0000 0.0000 77.1951 0.0000 0.8402
# 5 4.0711 9.6467 -4.5166 0.0000 24.2170 0.0000
# 6 0.0000 0.0000 0.0000 0.8402 0.0000 26.4902
#
#
#
# Elastic Compliance Matrix: (Units=1/GPa)
#
#
# Indices 1 2 3 4 5 6 
#
# 1 0.008962 -0.002241 -0.002668 0.000000 -0.001112 0.000000
# 2 -0.002241 0.005826 -0.003478 0.000000 -0.002592 0.000000
# 3 -0.002668 -0.003478 0.019727 0.000000 0.005513 0.000000
# 4 0.000000 0.000000 0.000000 0.012959 0.000000 -0.000411
# 5 -0.001112 -0.002592 0.005513 0.000000 0.043541 0.000000
# 6 0.000000 0.000000 0.000000 -0.000411 0.000000 0.037763
#
#
# Mechanical properties :
#
#
# Convention : Reuss Voigt Hill
#
# Bulk Modulus (GPa) = 56.36431 82.67688 69.52060
# Shear Modulus (GPa) = 33.01112 44.54888 38.78000
#
# Velocity S-wave (km/s) = 4.04349 4.69726 4.38258
# Velocity P-wave (km/s) = 7.05095 8.38852 7.74865
#
# Compressibility (1/GPa) = 0.01774172
#
# Stress axis : x y z
#
# Youngs Moduli (GPa) = 111.58196 171.65507 50.69192
#
# Poissons Ratio (x) = 0.38467 0.13524
# Poissons Ratio (y) = 0.25005 0.17628
# Poissons Ratio (z) = 0.29769 0.59694
#
# Static dielectric constant tensor:
#      x y z
#    x 1.686040 0.000000 0.003660 
#    y 0.000000 1.694720 0.000000 
#    z 0.003660 0.000000 1.631300 
# 
# From -- ./inp_files/22212.got.cif
#   From: 2010.05.17/outbox.cif.g08.bks.cpg/sg10_12_cif.got.tgz:22212.got - 2010.06.03 11:33:40.
