data_PCOD9151407
_publ_section_title
;
Structure prediction by ZEFSAII (Michael W. Deem and Ramdas Pophale) SiO2 
 PCOD9151407
Probable space group: P 2/M
;
_chemical_formula_sum "Si O2"
_cell_formula_units_Z 32
_cell_length_a 11.882038
_cell_length_b 14.843886
_cell_length_c 12.967007
_cell_angle_alpha 90.000000
_cell_angle_beta 44.555392
_cell_angle_gamma 90.000000
_cell_volume 1604.600551
_symmetry_space_group_name_H-M "P 2/M"
_symmetry_group_IT_number 10
_symmetry_cell_setting 'monoclinic'
loop_
_space_group_symop_operation_xyz
x,y,z
-x,y,-z
-x,-y,-z
x,-y,z
loop_
_atom_site_type_symbol
_atom_site_label
_atom_site_fract_x
_atom_site_fract_y
_atom_site_fract_z
Si Si1 0.785408 0.896148 0.569238
Si Si2 0.651164 0.730278 0.768352
Si Si3 0.460311 0.095511 0.648877
Si Si4 0.716571 0.717914 0.960374
Si Si5 0.666592 0.265685 0.331349
Si Si6 0.866737 0.395607 0.496978
Si Si7 0.824153 0.393809 0.079995
Si Si8 0.048345 0.228912 0.697549
O O1 0.744410 0.823803 0.684930
O O2 0.624460 0.898694 0.604523
O O3 0.915290 0.847024 0.411754
O O4 0.821234 0.000000 0.574461
O O5 0.694133 0.694452 0.854092
O O6 0.712470 0.657151 0.644827
O O7 0.461060 0.748264 0.889815
O O8 0.500000 0.095156 0.500000
O O9 0.358556 0.184231 0.732553
O O10 0.380966 0.000000 0.725111
O O11 0.871534 0.782965 0.859475
O O12 0.770267 0.640227 0.003472
O O13 0.500000 0.278905 0.500000
O O14 0.708552 0.354195 0.242012
O O15 0.808259 0.232727 0.313617
O O16 0.836165 0.500000 0.486346
O O17 0.935758 0.328308 0.365288
O O18 0.000000 0.397035 0.500000
O O19 0.826159 0.500000 0.079461
O O20 0.000000 0.359900 0.000000
#
# Coordination Sequence:
#
# PCOD9151407 Si02
#       8
#     4   4   4   4   4   4   4   4
#     4  10  20  38  66  97 126 161 209 263 313 376
#     4  10  23  42  63  89 125 167 219 258 312 374
#     4   9  16  30  57  92 123 152 196 248 309 372
#     4  11  23  42  62  84 125 174 208 261 307 373
#     4  11  21  38  62  91 122 162 203 257 321 370
#     4  10  21  38  61  88 117 153 206 264 316 365
#     4  11  25  42  61  90 126 168 211 255 317 388
#     4  11  21  37  61  91 125 161 206 257 315 375
#
# _framework density 19.942658000000002
#
# number of rings (size 3 to 8) (size 9 to 14) (size 15 to 20)
#    0.000    1.625    5.000    0.750    1.750    2.250 
#    0.000    4.375    0.000    1.875    0.000    0.000 
#    0.000    0.000    0.000    0.000    0.000    0.000 
#
# Total GULP energy -178442.848069 kJ/mol
# GULP energy per Si atom -5576.339002 kJ/mol
# Density = 1.989727 g / cm^3
# Si number density = 19.942658 Si / 1000 Ang^3
#
#
#
# Elastic Constant Matrix: (Units=GPa)
#
#
# Indices 1 2 3 4 5 6 
#
# 1 93.6385 19.8327 31.8067 0.0000 -12.1106 0.0000
# 2 19.8327 113.6479 40.0594 0.0000 0.2299 0.0000
# 3 31.8067 40.0594 109.9341 0.0000 -21.8103 0.0000
# 4 0.0000 0.0000 0.0000 12.0559 0.0000 7.3552
# 5 -12.1106 0.2299 -21.8103 0.0000 30.4563 0.0000
# 6 0.0000 0.0000 0.0000 7.3552 0.0000 6.9757
#
#
#
# Elastic Compliance Matrix: (Units=1/GPa)
#
#
# Indices 1 2 3 4 5 6 
#
# 1 0.012180 -0.001270 -0.002446 0.000000 0.003101 0.000000
# 2 -0.001270 0.010496 -0.004165 0.000000 -0.003567 0.000000
# 3 -0.002446 -0.004165 0.012979 0.000000 0.008353 0.000000
# 4 0.000000 0.000000 0.000000 0.232523 0.000000 -0.245171
# 5 0.003101 -0.003567 0.008353 0.000000 0.040076 0.000000
# 6 0.000000 0.000000 0.000000 -0.245171 0.000000 0.401863
#
#
# Mechanical properties :
#
#
# Convention : Reuss Voigt Hill
#
# Bulk Modulus (GPa) = 50.26689 55.62423 52.94556
# Shear Modulus (GPa) = 6.82585 24.93238 15.87912
#
# Velocity S-wave (km/s) = 1.85207 3.53966 2.82483
# Velocity P-wave (km/s) = 5.46205 6.68268 6.10296
#
# Compressibility (1/GPa) = 0.01989381
#
# Stress axis : x y z
#
# Youngs Moduli (GPa) = 82.10007 95.27460 77.04746
#
# Poissons Ratio (x) = 0.12096 0.18847
# Poissons Ratio (y) = 0.10424 0.32090
# Poissons Ratio (z) = 0.20083 0.39681
#
# Static dielectric constant tensor:
#      x y z
#    x 1.739160 0.000000 -0.014050 
#    y 0.000000 1.708860 0.000000 
#    z -0.014050 0.000000 1.724730 
# 
# From -- ./inp_files/65072.got.cif
#   From: 2010.05.17/outbox.cif.g08.bks.cpg/sg10_33_cif.got.tgz:65072.got - 2010.06.03 11:33:40.
