data_PCOD9151533
_publ_section_title
;
Structure prediction by ZEFSAII (Michael W. Deem and Ramdas Pophale) SiO2 
 PCOD9151533
Probable space group: P 2/M
;
_chemical_formula_sum "Si O2"
_cell_formula_units_Z 24
_cell_length_a 15.005372
_cell_length_b 14.199521
_cell_length_c 4.827427
_cell_angle_alpha 90.000000
_cell_angle_beta 107.500438
_cell_angle_gamma 90.000000
_cell_volume 980.967526
_symmetry_space_group_name_H-M "P 2/M"
_symmetry_group_IT_number 10
_symmetry_cell_setting 'monoclinic'
loop_
_space_group_symop_operation_xyz
x,y,z
-x,y,-z
-x,-y,-z
x,-y,z
loop_
_atom_site_type_symbol
_atom_site_label
_atom_site_fract_x
_atom_site_fract_y
_atom_site_fract_z
Si Si1 0.272167 0.500000 0.841312
Si Si2 0.293206 0.700522 0.846312
Si Si3 0.713583 0.900984 0.111936
Si Si4 0.854372 0.500000 0.793173
Si Si5 0.569877 0.809766 0.316726
Si Si6 0.090397 0.898711 0.385088
Si Si7 0.909950 0.305653 0.610654
O O1 0.320733 0.597427 0.970943
O O2 0.175098 0.500000 0.917901
O O3 0.239426 0.500000 0.489637
O O4 0.300558 0.797149 0.033842
O O5 0.356638 0.724008 0.637276
O O6 0.185433 0.693951 0.656549
O O7 0.636412 0.895262 0.284034
O O8 0.815933 0.899632 0.342490
O O9 0.702406 0.000000 0.947407
O O10 0.905127 0.401872 0.777085
O O11 0.500000 0.825678 0.500000
O O12 0.500000 0.790108 0.000000
O O13 0.091468 0.796816 0.236968
O O14 0.000000 0.898858 0.500000
O O15 0.091260 0.000000 0.230010
O O16 0.000000 0.307436 0.500000
#
# Coordination Sequence:
#
# PCOD9151533 Si02
#       7
#     2   4   4   2   4   4   4
#     4  10  20  40  61  83 116 154 190 241 287 346
#     4   8  19  36  56  85 115 152 192 235 291 342
#     4   8  16  33  56  86 119 153 194 239 289 347
#     4  10  21  34  58  87 118 154 192 233 288 340
#     4  10  22  39  60  85 115 150 193 244 294 344
#     4   8  13  25  51  86 123 160 195 234 284 345
#     4   9  16  31  54  85 121 155 194 237 286 345
#
# _framework density 24.465641999999999
#
# number of rings (size 3 to 8) (size 9 to 14) (size 15 to 20)
#    1.000    2.167    0.000    0.250    0.000    3.333 
#    0.000    7.500    0.000    1.000    0.000    1.167 
#    0.000   35.667    0.000    0.000    0.000    5.333 
#
# Total GULP energy -133669.315578 kJ/mol
# GULP energy per Si atom -5569.554816 kJ/mol
# Density = 2.440996 g / cm^3
# Si number density = 24.465642 Si / 1000 Ang^3
#
#
#
# Elastic Constant Matrix: (Units=GPa)
#
#
# Indices 1 2 3 4 5 6 
#
# 1 157.2703 8.4228 19.0112 0.0000 1.3416 0.0000
# 2 8.4228 299.7031 13.2829 0.0000 -8.8680 0.0000
# 3 19.0112 13.2829 43.8746 0.0000 -8.1666 0.0000
# 4 0.0000 0.0000 0.0000 -24.6541 0.0000 -8.5120
# 5 1.3416 -8.8680 -8.1666 0.0000 12.9665 0.0000
# 6 0.0000 0.0000 0.0000 -8.5120 0.0000 -72.1623
#
#
#
# Elastic Compliance Matrix: (Units=1/GPa)
#
#
# Indices 1 2 3 4 5 6 
#
# 1 0.006810 -0.000126 -0.003466 0.000000 -0.002974 0.000000
# 2 -0.000126 0.003426 -0.000616 0.000000 0.001968 0.000000
# 3 -0.003466 -0.000616 0.027719 0.000000 0.017395 0.000000
# 4 0.000000 0.000000 0.000000 -0.042283 0.000000 0.004988
# 5 -0.002974 0.001968 0.017395 0.000000 0.089731 0.000000
# 6 0.000000 0.000000 0.000000 0.004988 0.000000 -0.014446
#
#
# Mechanical properties :
#
#
# Convention : Reuss Voigt Hill
#
# Bulk Modulus (GPa) = 33.85532 64.69800 49.27666
# Shear Modulus (GPa) = 56.04233 13.90542 34.97387
#
# Velocity S-wave (km/s) = 4.79127 2.38663 3.78499
# Velocity P-wave (km/s) = 6.66906 5.83922 6.26789
#
# Compressibility (1/GPa) = 0.02953745
#
# Stress axis : x y z
#
# Youngs Moduli (GPa) = 146.85224 291.91029 36.07693
#
# Poissons Ratio (x) = 0.03671 0.12504
# Poissons Ratio (y) = 0.01847 0.02224
# Poissons Ratio (z) = 0.50900 0.17993
#
# Static dielectric constant tensor:
#      x y z
#    x 1.923880 0.000000 0.027850 
#    y 0.000000 2.063360 0.000000 
#    z 0.027850 0.000000 1.990940 
# 
# From -- ./inp_files/11196.got.cif
#   From: 2010.05.17/outbox.cif.g08.bks.cpg/sg10_6_cif.got.tgz:11196.got - 2010.06.03 11:33:40.
