data_PCOD9151331
_publ_section_title
;
Structure prediction by ZEFSAII (Michael W. Deem and Ramdas Pophale) SiO2 
 PCOD9151331
Probable space group: P 2/M
;
_chemical_formula_sum "Si O2"
_cell_formula_units_Z 18
_cell_length_a 9.309756
_cell_length_b 22.168411
_cell_length_c 8.010388
_cell_angle_alpha 90.000000
_cell_angle_beta 146.616627
_cell_angle_gamma 90.000000
_cell_volume 909.656336
_symmetry_space_group_name_H-M "P 2/M"
_symmetry_group_IT_number 10
_symmetry_cell_setting 'monoclinic'
loop_
_space_group_symop_operation_xyz
x,y,z
-x,y,-z
-x,-y,-z
x,-y,z
loop_
_atom_site_type_symbol
_atom_site_label
_atom_site_fract_x
_atom_site_fract_y
_atom_site_fract_z
Si Si1 0.911101 0.360904 0.601488
Si Si2 0.239152 0.761307 0.354189
Si Si3 0.259330 0.867921 0.638579
Si Si4 0.741569 0.000000 0.361430
Si Si5 0.585492 0.429346 0.776061
O O1 0.000000 0.347806 0.500000
O O2 0.829995 0.299951 0.615866
O O3 0.659070 0.404216 0.357192
O O4 0.152535 0.392656 0.930038
O O5 0.500000 0.752568 0.500000
O O6 0.274277 0.815201 0.519238
O O7 0.000000 0.775786 0.000000
O O8 0.000000 0.862536 0.500000
O O9 0.263154 0.934627 0.556947
O O10 0.500000 0.864051 0.000000
O O11 0.000000 0.000000 0.500000
O O12 0.500000 0.000000 0.000000
O O13 0.500000 0.422285 0.500000
O O14 0.630633 0.500000 0.852329
#
# Coordination Sequence:
#
# PCOD9151331 Si02
#       5
#     4   4   4   2   4
#     4  12  25  41  63  89 119 156 200 248 293 347
#     4  12  25  41  60  86 122 160 199 246 302 353
#     4  10  20  38  63  90 120 157 203 245 291 351
#     4   8  16  32  58  88 118 154 194 242 292 346
#     4  11  24  43  66  91 121 156 192 237 299 362
#
# _framework density 19.787692
#
# number of rings (size 3 to 8) (size 9 to 14) (size 15 to 20)
#    0.000    1.111    0.000    7.333    0.000    6.222 
#    0.000    1.111    0.000    0.000    0.000    0.000 
#    0.000    0.000    0.000    0.000    0.000    0.000 
#
# Total GULP energy -100684.034425 kJ/mol
# GULP energy per Si atom -5593.557468 kJ/mol
# Density = 1.974265 g / cm^3
# Si number density = 19.787692 Si / 1000 Ang^3
#
#
#
# Elastic Constant Matrix: (Units=GPa)
#
#
# Indices 1 2 3 4 5 6 
#
# 1 126.5608 90.9225 57.5485 0.0000 16.4981 0.0000
# 2 90.9225 211.8942 83.9834 0.0000 -3.5988 0.0000
# 3 57.5485 83.9834 143.6758 0.0000 23.0421 0.0000
# 4 0.0000 0.0000 0.0000 34.6641 0.0000 -5.0551
# 5 16.4981 -3.5988 23.0421 0.0000 34.9090 0.0000
# 6 0.0000 0.0000 0.0000 -5.0551 0.0000 103.4656
#
#
#
# Elastic Compliance Matrix: (Units=1/GPa)
#
#
# Indices 1 2 3 4 5 6 
#
# 1 0.012926 -0.005159 -0.001226 0.000000 -0.005831 0.000000
# 2 -0.005159 0.008575 -0.003891 0.000000 0.005890 0.000000
# 3 -0.001226 -0.003891 0.010845 0.000000 -0.006980 0.000000
# 4 0.000000 0.000000 0.000000 0.029055 0.000000 0.001420
# 5 -0.005831 0.005890 -0.006980 0.000000 0.036616 0.000000
# 6 0.000000 0.000000 0.000000 0.001420 0.000000 0.009734
#
#
# Mechanical properties :
#
#
# Convention : Reuss Voigt Hill
#
# Bulk Modulus (GPa) = 84.79470 105.22661 95.01066
# Shear Modulus (GPa) = 37.81147 51.25285 44.53216
#
# Velocity S-wave (km/s) = 4.37608 5.09486 4.74909
# Velocity P-wave (km/s) = 8.27519 9.37568 8.84257
#
# Compressibility (1/GPa) = 0.01179319
#
# Stress axis : x y z
#
# Youngs Moduli (GPa) = 77.36616 116.61484 92.20889
#
# Poissons Ratio (x) = 0.60165 0.11308
# Poissons Ratio (y) = 0.39915 0.35876
# Poissons Ratio (z) = 0.09488 0.45371
#
# Static dielectric constant tensor:
#      x y z
#    x 1.681760 0.000000 0.007400 
#    y 0.000000 1.709980 0.000000 
#    z 0.007400 0.000000 1.674880 
# 
# From -- ./inp_files/3971.got.cif
#   From: 2010.05.17/outbox.cif.g08.bks.cpg/sg10_2_cif.got.tgz:3971.got - 2010.06.03 11:33:40.
