data_PCOD9151307
_publ_section_title
;
Structure prediction by ZEFSAII (Michael W. Deem and Ramdas Pophale) SiO2 
 PCOD9151307
Probable space group: P 2/M
;
_chemical_formula_sum "Si O2"
_cell_formula_units_Z 28
_cell_length_a 12.814407
_cell_length_b 7.937831
_cell_length_c 15.051476
_cell_angle_alpha 90.000000
_cell_angle_beta 121.711071
_cell_angle_gamma 90.000000
_cell_volume 1302.449116
_symmetry_space_group_name_H-M "P 2/M"
_symmetry_group_IT_number 10
_symmetry_cell_setting 'monoclinic'
loop_
_space_group_symop_operation_xyz
x,y,z
-x,y,-z
-x,-y,-z
x,-y,z
loop_
_atom_site_type_symbol
_atom_site_label
_atom_site_fract_x
_atom_site_fract_y
_atom_site_fract_z
Si Si1 0.480156 0.306928 0.262095
Si Si2 0.415191 0.202970 0.881219
Si Si3 0.061782 0.300816 0.435522
Si Si4 0.728029 0.803287 0.709057
Si Si5 0.859033 0.795774 0.201839
Si Si6 0.011362 0.206131 0.106125
Si Si7 0.330423 0.195146 0.507622
O O1 0.444098 0.500000 0.238400
O O2 0.529234 0.246573 0.189361
O O3 0.363072 0.211129 0.249206
O O4 0.586924 0.286866 0.383113
O O5 0.275661 0.264341 0.830738
O O6 0.410930 0.000000 0.885268
O O7 0.500000 0.264751 0.000000
O O8 0.089382 0.500000 0.454104
O O9 0.188372 0.207024 0.472395
O O10 0.000000 0.245525 0.500000
O O11 0.963226 0.269588 0.314523
O O12 0.861266 0.733078 0.793103
O O13 0.667044 0.733156 0.591682
O O14 0.747660 0.000000 0.696797
O O15 0.899358 0.747642 0.120290
O O16 0.860591 0.000000 0.207410
O O17 0.016084 0.000000 0.106014
O O18 0.000000 0.264221 0.000000
O O19 0.372298 0.000000 0.526349
#
# Coordination Sequence:
#
# PCOD9151307 Si02
#       7
#     4   4   4   4   4   4   4
#     4  12  26  41  60  89 128 167 205 248 310 377
#     4  10  23  42  67  94 121 160 213 263 303 354
#     4  11  23  37  57  87 124 164 201 243 304 370
#     4  10  21  39  64  92 122 158 205 256 310 364
#     4  10  20  38  62  92 121 154 202 251 303 356
#     4   9  18  34  62  95 122 152 195 254 309 357
#     4  11  22  40  64  91 121 157 207 260 308 361
#
# _framework density 21.497962999999999
#
# number of rings (size 3 to 8) (size 9 to 14) (size 15 to 20)
#    0.000    1.571    1.429    3.429    2.000    7.143 
#    0.000    0.000    0.000    0.857    0.000    0.000 
#    0.000    0.000    0.000    0.000    0.000    0.000 
#
# Total GULP energy -156548.522805 kJ/mol
# GULP energy per Si atom -5591.018672 kJ/mol
# Density = 2.144903 g / cm^3
# Si number density = 21.497963 Si / 1000 Ang^3
#
#
#
# Elastic Constant Matrix: (Units=GPa)
#
#
# Indices 1 2 3 4 5 6 
#
# 1 114.8103 -6.8328 31.2194 0.0000 -26.5576 0.0000
# 2 -6.8328 23.0212 -3.2467 0.0000 -0.2927 0.0000
# 3 31.2194 -3.2467 85.1768 0.0000 -24.8198 0.0000
# 4 0.0000 0.0000 0.0000 40.9727 0.0000 -10.2917
# 5 -26.5576 -0.2927 -24.8198 0.0000 41.2388 0.0000
# 6 0.0000 0.0000 0.0000 -10.2917 0.0000 -14.5244
#
#
#
# Elastic Compliance Matrix: (Units=1/GPa)
#
#
# Indices 1 2 3 4 5 6 
#
# 1 0.010790 0.002965 -0.002196 0.000000 0.005648 0.000000
# 2 0.002965 0.044574 0.001529 0.000000 0.003146 0.000000
# 3 -0.002196 0.001529 0.014788 0.000000 0.007497 0.000000
# 4 0.000000 0.000000 0.000000 0.020719 0.000000 -0.014681
# 5 0.005648 0.003146 0.007497 0.000000 0.032421 0.000000
# 6 0.000000 0.000000 0.000000 -0.014681 0.000000 -0.058447
#
#
# Mechanical properties :
#
#
# Convention : Reuss Voigt Hill
#
# Bulk Modulus (GPa) = 13.37839 29.47646 21.42743
# Shear Modulus (GPa) = 58.70971 26.99532 42.85252
#
# Velocity S-wave (km/s) = 5.23151 3.54745 4.46952
# Velocity P-wave (km/s) = 6.53668 5.52452 6.05180
#
# Compressibility (1/GPa) = 0.07474743
#
# Stress axis : x y z
#
# Youngs Moduli (GPa) = 92.67738 22.43468 67.62251
#
# Poissons Ratio (x) = -0.06651 0.14850
# Poissons Ratio (y) = -0.27476 -0.10340
# Poissons Ratio (z) = 0.20352 -0.03430
#
# Static dielectric constant tensor:
#      x y z
#    x 1.763360 0.000000 -0.011370 
#    y 0.000000 1.780160 0.000000 
#    z -0.011370 0.000000 1.761620 
# 
# From -- ./inp_files/63661.got.cif
#   From: 2010.05.17/outbox.cif.g08.bks.cpg/sg10_32_cif.got.tgz:63661.got - 2010.06.03 11:33:40.
