data_PCOD9151744
_publ_section_title
;
Structure prediction by ZEFSAII (Michael W. Deem and Ramdas Pophale) SiO2 
 PCOD9151744
Probable space group: P 2/M
;
_chemical_formula_sum "Si O2"
_cell_formula_units_Z 22
_cell_length_a 9.894580
_cell_length_b 15.463344
_cell_length_c 15.174666
_cell_angle_alpha 90.000000
_cell_angle_beta 29.614624
_cell_angle_gamma 90.000000
_cell_volume 1147.336555
_symmetry_space_group_name_H-M "P 2/M"
_symmetry_group_IT_number 10
_symmetry_cell_setting 'monoclinic'
loop_
_space_group_symop_operation_xyz
x,y,z
-x,y,-z
-x,-y,-z
x,-y,z
loop_
_atom_site_type_symbol
_atom_site_label
_atom_site_fract_x
_atom_site_fract_y
_atom_site_fract_z
Si Si1 0.279274 0.686819 0.490049
Si Si2 0.743055 0.901845 0.801853
Si Si3 0.206643 0.850609 0.661035
Si Si4 0.000000 0.213372 0.500000
Si Si5 0.197623 0.602013 0.138913
Si Si6 0.102607 0.296730 0.843477
O O1 0.246463 0.767302 0.575210
O O2 0.212969 0.726083 0.431976
O O3 0.592990 0.660712 0.327807
O O4 0.038932 0.621785 0.654679
O O5 0.986028 0.905277 0.735192
O O6 0.841749 0.845282 0.662489
O O7 0.670537 0.000000 0.815175
O O8 0.500000 0.863398 0.000000
O O9 0.500000 0.894425 0.500000
O O10 0.123233 0.803110 0.798553
O O11 0.208526 0.500000 0.114965
O O12 0.097471 0.653282 0.109492
O O13 0.500000 0.629649 0.000000
O O14 0.000000 0.299340 0.000000
#
# Coordination Sequence:
#
# PCOD9151744 Si02
#       6
#     4   4   4   2   4   4
#     4   9  20  35  57  85 108 150 194 235 290 338
#     4  10  21  35  56  84 117 157 193 231 290 350
#     4   8  17  35  52  78 110 145 189 235 284 335
#     4  10  21  36  61  86 118 148 200 248 285 336
#     4  10  22  40  59  82 117 153 186 235 296 351
#     4  10  21  34  58  87 113 147 195 238 284 342
#
# _framework density 19.174842999999999
#
# number of rings (size 3 to 8) (size 9 to 14) (size 15 to 20)
#    0.000    2.545    0.000    1.909    5.091    7.273 
#    0.000    0.455    0.000    0.545    0.000    0.000 
#    0.000    0.000    0.000    0.000    0.000    0.000 
#
# Total GULP energy -122547.926754 kJ/mol
# GULP energy per Si atom -5570.360307 kJ/mol
# Density = 1.913120 g / cm^3
# Si number density = 19.174843 Si / 1000 Ang^3
#
#
#
# Elastic Constant Matrix: (Units=GPa)
#
#
# Indices 1 2 3 4 5 6 
#
# 1 138.8259 35.4824 74.0342 0.0000 -5.7076 0.0000
# 2 35.4824 50.5628 24.8594 0.0000 2.7574 0.0000
# 3 74.0342 24.8594 107.0266 0.0000 3.6804 0.0000
# 4 0.0000 0.0000 0.0000 32.2870 0.0000 -6.8418
# 5 -5.7076 2.7574 3.6804 0.0000 34.3058 0.0000
# 6 0.0000 0.0000 0.0000 -6.8418 0.0000 21.8137
#
#
#
# Elastic Compliance Matrix: (Units=1/GPa)
#
#
# Indices 1 2 3 4 5 6 
#
# 1 0.012861 -0.005395 -0.007760 0.000000 0.003406 0.000000
# 2 -0.005395 0.024644 -0.001900 0.000000 -0.002675 0.000000
# 3 -0.007760 -0.001900 0.015248 0.000000 -0.002774 0.000000
# 4 0.000000 0.000000 0.000000 0.033177 0.000000 0.010406
# 5 0.003406 -0.002675 -0.002774 0.000000 0.030229 0.000000
# 6 0.000000 0.000000 0.000000 0.010406 0.000000 0.049107
#
#
# Mechanical properties :
#
#
# Convention : Reuss Voigt Hill
#
# Bulk Modulus (GPa) = 44.16657 62.79638 53.48148
# Shear Modulus (GPa) = 24.63989 28.48391 26.56190
#
# Velocity S-wave (km/s) = 3.58859 3.85838 3.72593
# Velocity P-wave (km/s) = 6.34463 7.25740 6.81631
#
# Compressibility (1/GPa) = 0.02264156
#
# Stress axis : x y z
#
# Youngs Moduli (GPa) = 77.75642 40.57861 65.58196
#
# Poissons Ratio (x) = 0.21894 0.50892
# Poissons Ratio (y) = 0.41953 0.12460
# Poissons Ratio (z) = 0.60340 0.07709
#
# Static dielectric constant tensor:
#      x y z
#    x 1.696710 0.000000 -0.028430 
#    y 0.000000 1.669290 0.000000 
#    z -0.028430 0.000000 1.731970 
# 
# From -- ./inp_files/62259.got.cif
#   From: 2010.05.17/outbox.cif.g08.bks.cpg/sg10_32_cif.got.tgz:62259.got - 2010.06.03 11:33:40.
