data_PCOD9151195
_publ_section_title
;
Structure prediction by ZEFSAII (Michael W. Deem and Ramdas Pophale) SiO2 
 PCOD9151195
Probable space group: P 2/M
;
_chemical_formula_sum "Si O2"
_cell_formula_units_Z 18
_cell_length_a 5.064216
_cell_length_b 23.095315
_cell_length_c 9.291632
_cell_angle_alpha 90.000000
_cell_angle_beta 56.155632
_cell_angle_gamma 90.000000
_cell_volume 902.600760
_symmetry_space_group_name_H-M "P 2/M"
_symmetry_group_IT_number 10
_symmetry_cell_setting 'monoclinic'
loop_
_space_group_symop_operation_xyz
x,y,z
-x,y,-z
-x,-y,-z
x,-y,z
loop_
_atom_site_type_symbol
_atom_site_label
_atom_site_fract_x
_atom_site_fract_y
_atom_site_fract_z
Si Si1 0.119676 0.687177 0.127735
Si Si2 0.381619 0.000000 0.372385
Si Si3 0.562900 0.874860 0.310008
Si Si4 0.818053 0.189629 0.807587
Si Si5 0.881433 0.562047 0.871863
O O1 0.043971 0.745138 0.238803
O O2 0.012478 0.624516 0.221022
O O3 0.500000 0.683968 0.000000
O O4 0.000000 0.694622 0.000000
O O5 0.500000 0.000000 0.500000
O O6 0.509545 0.059927 0.268212
O O7 0.000000 0.000000 0.500000
O O8 0.500000 0.875050 0.500000
O O9 0.309234 0.835249 0.303983
O O10 0.918837 0.850266 0.196017
O O11 0.500000 0.191092 0.000000
O O12 0.979927 0.500000 0.774917
O O13 0.500000 0.561781 0.000000
O O14 0.000000 0.562199 0.000000
#
# Coordination Sequence:
#
# PCOD9151195 Si02
#       5
#     4   2   4   4   4
#     4   9  16  27  43  65  97 135 164 196 251 305
#     4  10  20  38  59  78  99 132 171 210 257 304
#     4  11  22  38  58  78 100 133 175 213 250 304
#     4  11  21  35  53  79 110 138 166 206 261 312
#     4   8  13  21  35  57  87 124 164 200 236 285
#
# _framework density 19.942373
#
# number of rings (size 3 to 8) (size 9 to 14) (size 15 to 20)
#    0.000    2.222    0.000    6.667    0.000    0.000 
#    0.000    3.333    0.000    0.000    0.000    0.000 
#    0.000    5.333    0.000    0.000    0.000    0.667 
#
# Total GULP energy -100236.819710 kJ/mol
# GULP energy per Si atom -5568.712206 kJ/mol
# Density = 1.989698 g / cm^3
# Si number density = 19.942373 Si / 1000 Ang^3
#
#
#
# Elastic Constant Matrix: (Units=GPa)
#
#
# Indices 1 2 3 4 5 6 
#
# 1 156.3021 54.1073 4.3603 0.0000 10.8928 0.0000
# 2 54.1073 239.8654 22.6687 0.0000 5.9039 0.0000
# 3 4.3603 22.6687 19.2642 0.0000 4.3152 0.0000
# 4 0.0000 0.0000 0.0000 104.8650 0.0000 -36.2078
# 5 10.8928 5.9039 4.3152 0.0000 28.9206 0.0000
# 6 0.0000 0.0000 0.0000 -36.2078 0.0000 50.4112
#
#
#
# Elastic Compliance Matrix: (Units=1/GPa)
#
#
# Indices 1 2 3 4 5 6 
#
# 1 0.007108 -0.001623 0.000855 0.000000 -0.002474 0.000000
# 2 -0.001623 0.005062 -0.005685 0.000000 0.000426 0.000000
# 3 0.000855 -0.005685 0.060231 0.000000 -0.008149 0.000000
# 4 0.000000 0.000000 0.000000 0.012681 0.000000 0.009108
# 5 -0.002474 0.000426 -0.008149 0.000000 0.036638 0.000000
# 6 0.000000 0.000000 0.000000 0.009108 0.000000 0.026379
#
#
# Mechanical properties :
#
#
# Convention : Reuss Voigt Hill
#
# Bulk Modulus (GPa) = 16.80784 64.18938 40.49861
# Shear Modulus (GPa) = 27.64942 59.12570 43.38756
#
# Velocity S-wave (km/s) = 3.72757 5.45093 4.66944
# Velocity P-wave (km/s) = 5.19354 8.47786 7.03019
#
# Compressibility (1/GPa) = 0.05949603
#
# Stress axis : x y z
#
# Youngs Moduli (GPa) = 140.67924 197.55261 16.60281
#
# Poissons Ratio (x) = 0.32071 -0.01420
# Poissons Ratio (y) = 0.22838 0.09438
# Poissons Ratio (z) = -0.12035 1.12300
#
# Static dielectric constant tensor:
#      x y z
#    x 1.668820 0.000000 -0.010320 
#    y 0.000000 1.851820 0.000000 
#    z -0.010320 0.000000 1.710390 
# 
# From -- ./inp_files/15123.got.cif
#   From: 2010.05.17/outbox.cif.g08.bks.cpg/sg10_8_cif.got.tgz:15123.got - 2010.06.03 11:33:40.
