data_PCOD9151813
_publ_section_title
;
Structure prediction by ZEFSAII (Michael W. Deem and Ramdas Pophale) SiO2 
 PCOD9151813
Probable space group: P 2/M
;
_chemical_formula_sum "Si O2"
_cell_formula_units_Z 28
_cell_length_a 20.898183
_cell_length_b 9.044003
_cell_length_c 23.753678
_cell_angle_alpha 90.000000
_cell_angle_beta 161.044206
_cell_angle_gamma 90.000000
_cell_volume 1458.369780
_symmetry_space_group_name_H-M "P 2/M"
_symmetry_group_IT_number 10
_symmetry_cell_setting 'monoclinic'
loop_
_space_group_symop_operation_xyz
x,y,z
-x,y,-z
-x,-y,-z
x,-y,z
loop_
_atom_site_type_symbol
_atom_site_label
_atom_site_fract_x
_atom_site_fract_y
_atom_site_fract_z
Si Si1 0.233016 0.833556 0.935810
Si Si2 0.037032 0.322990 0.874420
Si Si3 0.355034 0.834938 0.655731
Si Si4 0.340609 0.332393 0.911634
Si Si5 0.387038 0.823649 0.464336
Si Si6 0.402201 0.820540 0.244405
Si Si7 0.059795 0.333976 0.490428
O O1 0.294034 0.762705 0.927559
O O2 0.092790 0.734347 0.858030
O O3 0.152992 0.000000 0.862547
O O4 0.435025 0.843543 0.138822
O O5 0.045887 0.500000 0.884300
O O6 0.819123 0.262749 0.705998
O O7 0.202803 0.254300 0.054790
O O8 0.415660 0.775127 0.644974
O O9 0.215394 0.744321 0.580135
O O10 0.272527 0.000000 0.580434
O O11 0.404640 0.500000 0.980917
O O12 0.139027 0.343209 0.710052
O O13 0.500000 0.271331 0.000000
O O14 0.500000 0.797258 0.500000
O O15 0.529875 0.785835 0.635819
O O16 0.344538 0.000000 0.433445
O O17 0.380083 0.000000 0.220626
O O18 0.133739 0.500000 0.565046
O O19 0.000000 0.261031 0.500000
#
# Coordination Sequence:
#
# PCOD9151813 Si02
#       7
#     4   4   4   4   4   4   4
#     4  10  21  38  59  82 111 149 196 243 294 357
#     4  11  23  39  62  92 126 162 203 254 313 368
#     4   9  19  35  55  80 107 141 187 240 289 340
#     4  10  21  36  54  79 112 149 191 239 296 357
#     4  10  22  41  66  94 126 166 209 253 302 364
#     4   9  20  40  63  89 122 161 206 250 302 364
#     4  10  21  35  52  76 107 146 187 231 286 349
#
# _framework density 19.199521000000001
#
# number of rings (size 3 to 8) (size 9 to 14) (size 15 to 20)
#    0.000    2.143    0.000    3.429    2.000    6.571 
#    0.000    2.857    0.000    0.000    0.000    0.000 
#    0.000    0.000    0.000    0.000    0.000    0.000 
#
# Total GULP energy -156205.179446 kJ/mol
# GULP energy per Si atom -5578.756409 kJ/mol
# Density = 1.915582 g / cm^3
# Si number density = 19.199521 Si / 1000 Ang^3
#
#
#
# Elastic Constant Matrix: (Units=GPa)
#
#
# Indices 1 2 3 4 5 6 
#
# 1 170.1332 71.8339 59.3084 0.0000 -4.7726 0.0000
# 2 71.8339 89.4126 47.8297 0.0000 10.5716 0.0000
# 3 59.3084 47.8297 78.9445 0.0000 9.1275 0.0000
# 4 0.0000 0.0000 0.0000 24.7860 0.0000 10.9221
# 5 -4.7726 10.5716 9.1275 0.0000 35.6801 0.0000
# 6 0.0000 0.0000 0.0000 10.9221 0.0000 32.0201
#
#
#
# Elastic Compliance Matrix: (Units=1/GPa)
#
#
# Indices 1 2 3 4 5 6 
#
# 1 0.010204 -0.006426 -0.004277 0.000000 0.004363 0.000000
# 2 -0.006426 0.020797 -0.007173 0.000000 -0.005187 0.000000
# 3 -0.004277 -0.007173 0.020658 0.000000 -0.003731 0.000000
# 4 0.000000 0.000000 0.000000 0.047482 0.000000 -0.016196
# 5 0.004363 -0.005187 -0.003731 0.000000 0.031102 0.000000
# 6 0.000000 0.000000 0.000000 -0.016196 0.000000 0.036755
#
#
# Mechanical properties :
#
#
# Convention : Reuss Voigt Hill
#
# Bulk Modulus (GPa) = 62.86672 77.38161 70.12416
# Shear Modulus (GPa) = 24.03235 29.13179 26.58207
#
# Velocity S-wave (km/s) = 3.54180 3.89950 3.72495
# Velocity P-wave (km/s) = 7.03852 7.78885 7.42317
#
# Compressibility (1/GPa) = 0.01590667
#
# Stress axis : x y z
#
# Youngs Moduli (GPa) = 97.99666 48.08408 48.40767
#
# Poissons Ratio (x) = 0.30898 0.20706
# Poissons Ratio (y) = 0.62972 0.34722
# Poissons Ratio (z) = 0.41918 0.34490
#
# Static dielectric constant tensor:
#      x y z
#    x 1.696880 0.000000 -0.003650 
#    y 0.000000 1.699400 0.000000 
#    z -0.003650 0.000000 1.640670 
# 
# From -- ./inp_files/90397.got.cif
#   From: 2010.05.17/outbox.cif.g08.bks.cpg/sg10_46_cif.got.tgz:90397.got - 2010.06.03 11:33:40.
