data_PCOD9151642
_publ_section_title
;
Structure prediction by ZEFSAII (Michael W. Deem and Ramdas Pophale) SiO2 
 PCOD9151642
Probable space group: P 2/M
;
_chemical_formula_sum "Si O2"
_cell_formula_units_Z 28
_cell_length_a 16.258032
_cell_length_b 7.355299
_cell_length_c 10.399789
_cell_angle_alpha 90.000000
_cell_angle_beta 119.767099
_cell_angle_gamma 90.000000
_cell_volume 1079.537964
_symmetry_space_group_name_H-M "P 2/M"
_symmetry_group_IT_number 10
_symmetry_cell_setting 'monoclinic'
loop_
_space_group_symop_operation_xyz
x,y,z
-x,y,-z
-x,-y,-z
x,-y,z
loop_
_atom_site_type_symbol
_atom_site_label
_atom_site_fract_x
_atom_site_fract_y
_atom_site_fract_z
Si Si1 0.770269 0.223413 0.394360
Si Si2 0.105684 0.221458 0.971033
Si Si3 0.180662 0.212119 0.292089
Si Si4 0.930944 0.778139 0.332376
Si Si5 0.318483 0.208226 0.071930
Si Si6 0.601635 0.704154 0.616616
Si Si7 0.408144 0.791061 0.867009
O O1 0.819445 0.286145 0.563664
O O2 0.830725 0.275811 0.316913
O O3 0.660896 0.282499 0.295886
O O4 0.768109 0.000000 0.394961
O O5 0.049885 0.280770 0.799355
O O6 0.096233 0.000000 0.969516
O O7 0.110536 0.283065 0.124362
O O8 0.212637 0.273148 0.012381
O O9 0.293365 0.222077 0.340528
O O10 0.155735 0.000000 0.283084
O O11 0.000000 0.721919 0.500000
O O12 0.932756 0.000000 0.328966
O O13 0.392577 0.301085 0.223733
O O14 0.319336 0.000000 0.116821
O O15 0.343550 0.204798 0.943603
O O16 0.500000 0.789572 0.500000
O O17 0.600640 0.500000 0.563002
O O18 0.434629 0.000000 0.849489
O O19 0.500000 0.701458 0.000000
#
# Coordination Sequence:
#
# PCOD9151642 Si02
#       7
#     4   4   4   4   4   4   4
#     4   9  16  27  41  65  97 122 155 198 235 279
#     4   8  13  25  40  60  89 118 151 191 227 265
#     4   9  18  30  48  69  90 122 160 201 237 268
#     4   9  15  24  41  64  95 133 156 177 235 302
#     4   9  16  28  47  66  87 119 160 200 232 267
#     4  10  21  33  44  62  93 127 159 197 239 284
#     4   9  16  24  39  65  92 117 150 198 244 273
#
# _framework density 25.937021000000001
#
# number of rings (size 3 to 8) (size 9 to 14) (size 15 to 20)
#    0.000    3.000    1.429    1.286    2.000    1.143 
#    0.000    0.714    0.000    5.571    0.000    0.000 
#    0.000   18.857    0.000    0.000    0.000    0.000 
#
# Total GULP energy -156045.516469 kJ/mol
# GULP energy per Si atom -5573.054160 kJ/mol
# Density = 2.587799 g / cm^3
# Si number density = 25.937021 Si / 1000 Ang^3
#
#
#
# Elastic Constant Matrix: (Units=GPa)
#
#
# Indices 1 2 3 4 5 6 
#
# 1 54.6831 -2.4391 54.9848 0.0000 -4.3782 0.0000
# 2 -2.4391 87.4945 9.7971 0.0000 -1.4186 0.0000
# 3 54.9848 9.7971 252.6374 0.0000 -4.9463 0.0000
# 4 0.0000 0.0000 0.0000 -15.9614 0.0000 20.5637
# 5 -4.3782 -1.4186 -4.9463 0.0000 45.5121 0.0000
# 6 0.0000 0.0000 0.0000 20.5637 0.0000 -9.8103
#
#
#
# Elastic Compliance Matrix: (Units=1/GPa)
#
#
# Indices 1 2 3 4 5 6 
#
# 1 0.023682 0.001267 -0.005169 0.000000 0.001756 0.000000
# 2 0.001267 0.011551 -0.000716 0.000000 0.000404 0.000000
# 3 -0.005169 -0.000716 0.005112 0.000000 0.000036 0.000000
# 4 0.000000 0.000000 0.000000 0.036842 0.000000 0.077226
# 5 0.001756 0.000404 0.000036 0.000000 0.022158 0.000000
# 6 0.000000 0.000000 0.000000 0.077226 0.000000 0.059942
#
#
# Mechanical properties :
#
#
# Convention : Reuss Voigt Hill
#
# Bulk Modulus (GPa) = 32.14399 57.72226 44.93313
# Shear Modulus (GPa) = 27.94987 26.11288 27.03137
#
# Velocity S-wave (km/s) = 3.28625 3.17642 3.23180
# Velocity P-wave (km/s) = 5.17873 5.97963 5.59353
#
# Compressibility (1/GPa) = 0.03111001
#
# Stress axis : x y z
#
# Youngs Moduli (GPa) = 42.22659 86.57002 195.62987
#
# Poissons Ratio (x) = -0.10972 1.01120
# Poissons Ratio (y) = -0.05352 0.14005
# Poissons Ratio (z) = 0.21827 0.06197
#
# Static dielectric constant tensor:
#      x y z
#    x 2.096800 0.000000 0.048790 
#    y 0.000000 2.006490 0.000000 
#    z 0.048790 0.000000 2.077640 
# 
# From -- ./inp_files/54994.got.cif
#   From: 2010.05.17/outbox.cif.g08.bks.cpg/sg10_28_cif.got.tgz:54994.got - 2010.06.03 11:33:40.
