data_PCOD9151276
_publ_section_title
;
Structure prediction by ZEFSAII (Michael W. Deem and Ramdas Pophale) SiO2 
 PCOD9151276
Probable space group: P 2/M
;
_chemical_formula_sum "Si O2"
_cell_formula_units_Z 28
_cell_length_a 26.633544
_cell_length_b 8.723576
_cell_length_c 24.492981
_cell_angle_alpha 90.000000
_cell_angle_beta 164.064800
_cell_angle_gamma 90.000000
_cell_volume 1562.379858
_symmetry_space_group_name_H-M "P 2/M"
_symmetry_group_IT_number 10
_symmetry_cell_setting 'monoclinic'
loop_
_space_group_symop_operation_xyz
x,y,z
-x,y,-z
-x,-y,-z
x,-y,z
loop_
_atom_site_type_symbol
_atom_site_label
_atom_site_fract_x
_atom_site_fract_y
_atom_site_fract_z
Si Si1 0.882398 0.181989 0.147201
Si Si2 0.031398 0.686367 0.594202
Si Si3 0.785806 0.314451 0.438719
Si Si4 0.506186 0.819461 0.442931
Si Si5 0.069446 0.180538 0.132702
Si Si6 0.178064 0.679498 0.034206
Si Si7 0.632893 0.685548 0.979978
O O1 0.722384 0.249460 0.018450
O O2 0.073675 0.249456 0.369744
O O3 0.885103 0.000000 0.155319
O O4 0.850625 0.230390 0.051865
O O5 0.030493 0.500000 0.591481
O O6 0.872563 0.731148 0.470872
O O7 0.000000 0.742539 0.500000
O O8 0.225735 0.731153 0.824047
O O9 0.791538 0.500000 0.447463
O O10 0.575993 0.266250 0.227982
O O11 0.500000 0.771820 0.500000
O O12 0.713021 0.805177 0.639069
O O13 0.367710 0.726186 0.261121
O O14 0.453963 0.000000 0.386860
O O15 0.021070 0.000000 0.088171
O O16 0.000000 0.228187 0.000000
O O17 0.974308 0.273810 0.080898
O O18 0.172152 0.500000 0.016472
O O19 0.635612 0.500000 0.979686
#
# Coordination Sequence:
#
# PCOD9151276 Si02
#       7
#     4   4   4   4   4   4   4
#     4  11  23  39  58  78 105 142 189 235 279 333
#     4   8  14  26  48  83 121 151 183 223 271 329
#     4   9  18  34  56  81 112 148 185 231 283 327
#     4  10  20  38  62  84 110 145 182 218 262 321
#     4  10  20  38  62  84 110 145 182 218 262 321
#     4  12  25  39  58  84 116 145 179 228 281 335
#     4   9  18  34  56  81 112 148 185 231 283 327
#
# _framework density 17.921378000000001
#
# number of rings (size 3 to 8) (size 9 to 14) (size 15 to 20)
#    0.000    2.143    1.429    3.429    0.000    3.429 
#    0.000    2.857    0.000    6.857    0.000    8.000 
#    0.000    0.000    0.000    0.000    0.000    0.000 
#
# Total GULP energy -156286.371706 kJ/mol
# GULP energy per Si atom -5581.656132 kJ/mol
# Density = 1.788059 g / cm^3
# Si number density = 17.921378 Si / 1000 Ang^3
#
#
#
# Elastic Constant Matrix: (Units=GPa)
#
#
# Indices 1 2 3 4 5 6 
#
# 1 111.9323 22.1033 85.4231 0.0000 -6.1686 0.0000
# 2 22.1033 30.8874 27.4039 0.0000 5.0020 0.0000
# 3 85.4231 27.4039 123.7306 0.0000 17.3308 0.0000
# 4 0.0000 0.0000 0.0000 31.1054 0.0000 -29.8764
# 5 -6.1686 5.0020 17.3308 0.0000 32.1456 0.0000
# 6 0.0000 0.0000 0.0000 -29.8764 0.0000 62.7747
#
#
#
# Elastic Compliance Matrix: (Units=1/GPa)
#
#
# Indices 1 2 3 4 5 6 
#
# 1 0.024225 -0.003808 -0.017973 0.000000 0.014931 0.000000
# 2 -0.003808 0.040966 -0.005894 0.000000 -0.003927 0.000000
# 3 -0.017973 -0.005894 0.023960 0.000000 -0.015449 0.000000
# 4 0.000000 0.000000 0.000000 0.059219 0.000000 0.028184
# 5 0.014931 -0.003927 -0.015449 0.000000 0.042914 0.000000
# 6 0.000000 0.000000 0.000000 0.028184 0.000000 0.029344
#
#
# Mechanical properties :
#
#
# Convention : Reuss Voigt Hill
#
# Bulk Modulus (GPa) = 29.58465 59.60120 44.59293
# Shear Modulus (GPa) = 17.40672 33.97981 25.69326
#
# Velocity S-wave (km/s) = 3.11992 4.35909 3.79049
# Velocity P-wave (km/s) = 5.43345 7.65929 6.64030
#
# Compressibility (1/GPa) = 0.03380132
#
# Stress axis : x y z
#
# Youngs Moduli (GPa) = 41.27948 24.41044 41.73629
#
# Poissons Ratio (x) = 0.09295 0.75012
# Poissons Ratio (y) = 0.15718 0.24600
# Poissons Ratio (z) = 0.74191 0.14388
#
# Static dielectric constant tensor:
#      x y z
#    x 1.592450 0.000000 0.005560 
#    y 0.000000 1.610970 0.000000 
#    z 0.005560 0.000000 1.598340 
# 
# From -- ./inp_files/86539.got.cif
#   From: 2010.05.17/outbox.cif.g08.bks.cpg/sg10_44_cif.got.tgz:86539.got - 2010.06.03 11:33:40.
