data_PCOD9151827
_publ_section_title
;
Structure prediction by ZEFSAII (Michael W. Deem and Ramdas Pophale) SiO2 
 PCOD9151827
Probable space group: P 2/M
;
_chemical_formula_sum "Si O2"
_cell_formula_units_Z 28
_cell_length_a 23.282523
_cell_length_b 7.759315
_cell_length_c 25.470185
_cell_angle_alpha 90.000000
_cell_angle_beta 16.894470
_cell_angle_gamma 90.000000
_cell_volume 1337.198387
_symmetry_space_group_name_H-M "P 2/M"
_symmetry_group_IT_number 10
_symmetry_cell_setting 'monoclinic'
loop_
_space_group_symop_operation_xyz
x,y,z
-x,y,-z
-x,-y,-z
x,-y,z
loop_
_atom_site_type_symbol
_atom_site_label
_atom_site_fract_x
_atom_site_fract_y
_atom_site_fract_z
Si Si1 0.127678 0.801978 0.934707
Si Si2 0.148702 0.296894 0.128384
Si Si3 0.445011 0.195491 0.492405
Si Si4 0.275036 0.296866 0.535432
Si Si5 0.206983 0.289716 0.294263
Si Si6 0.365290 0.289256 0.042608
Si Si7 0.689952 0.797528 0.122410
O O1 0.347413 0.811568 0.719331
O O2 0.161434 0.723874 0.962729
O O3 0.053623 0.000000 0.005930
O O4 0.000000 0.718629 0.000000
O O5 0.120985 0.500000 0.162763
O O6 0.259885 0.225934 0.082094
O O7 0.931263 0.224495 0.305616
O O8 0.276024 0.279648 0.964228
O O9 0.500000 0.279877 0.500000
O O10 0.296931 0.271246 0.579092
O O11 0.377035 0.000000 0.563154
O O12 0.282069 0.500000 0.519696
O O13 0.467034 0.222101 0.338484
O O14 0.202930 0.500000 0.298662
O O15 0.246672 0.239106 0.199054
O O16 0.000000 0.230009 0.500000
O O17 0.405641 0.235912 0.151483
O O18 0.368174 0.500000 0.039357
O O19 0.732673 0.000000 0.081595
#
# Coordination Sequence:
#
# PCOD9151827 Si02
#       7
#     4   4   4   4   4   4   4
#     4   8  15  28  46  69  91 115 157 212 264 307
#     4  10  21  35  53  77 109 148 178 209 266 325
#     4   9  18  31  50  73  96 127 171 220 266 316
#     4  10  21  36  52  73 107 142 173 214 266 328
#     4   8  13  23  43  70 101 135 171 212 254 293
#     4   8  15  27  42  69 105 136 172 211 249 307
#     4  10  21  36  55  76 101 135 178 226 267 313
#
# _framework density 20.939301
#
# number of rings (size 3 to 8) (size 9 to 14) (size 15 to 20)
#    0.000    3.000    0.000    2.571    2.000    2.571 
#    0.000    4.286    0.000    2.143    0.000    2.000 
#    0.000    5.714    0.000    0.000    0.000    0.000 
#
# Total GULP energy -156062.782636 kJ/mol
# GULP energy per Si atom -5573.670808 kJ/mol
# Density = 2.089164 g / cm^3
# Si number density = 20.939301 Si / 1000 Ang^3
#
#
#
# Elastic Constant Matrix: (Units=GPa)
#
#
# Indices 1 2 3 4 5 6 
#
# 1 212.9543 1.9721 91.3978 0.0000 -27.7471 0.0000
# 2 1.9721 29.1375 -4.3342 0.0000 -6.1018 0.0000
# 3 91.3978 -4.3342 138.7468 0.0000 -8.7413 0.0000
# 4 0.0000 0.0000 0.0000 5.0188 0.0000 -13.5740
# 5 -27.7471 -6.1018 -8.7413 0.0000 23.8300 0.0000
# 6 0.0000 0.0000 0.0000 -13.5740 0.0000 19.7575
#
#
#
# Elastic Compliance Matrix: (Units=1/GPa)
#
#
# Indices 1 2 3 4 5 6 
#
# 1 0.007580 0.000332 -0.004526 0.000000 0.007251 0.000000
# 2 0.000332 0.036703 0.001581 0.000000 0.010365 0.000000
# 3 -0.004526 0.001581 0.010167 0.000000 -0.001136 0.000000
# 4 0.000000 0.000000 0.000000 -0.232187 0.000000 -0.159519
# 5 0.007251 0.010365 -0.001136 0.000000 0.052644 0.000000
# 6 0.000000 0.000000 0.000000 -0.159519 0.000000 -0.058981
#
#
# Mechanical properties :
#
#
# Convention : Reuss Voigt Hill
#
# Bulk Modulus (GPa) = 20.31547 62.10112 41.20829
# Shear Modulus (GPa) = -30.78067 29.17480 -0.80293
#
# Velocity S-wave (km/s) = -3.83821 3.73675 -0.61991
# Velocity P-wave (km/s) = 3.14950 6.95268 4.38295
#
# Compressibility (1/GPa) = 0.04922357
#
# Stress axis : x y z
#
# Youngs Moduli (GPa) = 131.92478 27.24556 98.36037
#
# Poissons Ratio (x) = -0.00905 0.44519
# Poissons Ratio (y) = -0.04382 -0.15548
# Poissons Ratio (z) = 0.59710 -0.04307
#
# Static dielectric constant tensor:
#      x y z
#    x 1.776640 0.000000 -0.021740 
#    y 0.000000 1.791210 0.000000 
#    z -0.021740 0.000000 1.744380 
# 
# From -- ./inp_files/90365.got.cif
#   From: 2010.05.17/outbox.cif.g08.bks.cpg/sg10_46_cif.got.tgz:90365.got - 2010.06.03 11:33:40.
