data_PCOD9151469
_publ_section_title
;
Structure prediction by ZEFSAII (Michael W. Deem and Ramdas Pophale) SiO2 
 PCOD9151469
Probable space group: P 2/M
;
_chemical_formula_sum "Si O2"
_cell_formula_units_Z 19
_cell_length_a 5.165436
_cell_length_b 22.701366
_cell_length_c 8.538546
_cell_angle_alpha 90.000000
_cell_angle_beta 57.725311
_cell_angle_gamma 90.000000
_cell_volume 846.555398
_symmetry_space_group_name_H-M "P 2/M"
_symmetry_group_IT_number 10
_symmetry_cell_setting 'monoclinic'
loop_
_space_group_symop_operation_xyz
x,y,z
-x,y,-z
-x,-y,-z
x,-y,z
loop_
_atom_site_type_symbol
_atom_site_label
_atom_site_fract_x
_atom_site_fract_y
_atom_site_fract_z
Si Si1 0.000000 0.500000 0.000000
Si Si2 0.787048 0.602480 0.304653
Si Si3 0.319196 0.188312 0.227021
Si Si4 0.167846 0.876454 0.780168
Si Si5 0.861382 0.000000 0.370978
Si Si6 0.361695 0.322896 0.219369
O O1 0.940206 0.551376 0.153248
O O2 0.500000 0.579077 0.500000
O O3 0.615390 0.647683 0.245757
O O4 0.051488 0.638392 0.310405
O O5 0.486632 0.141885 0.288122
O O6 0.321200 0.255299 0.282655
O O7 0.979030 0.169019 0.293334
O O8 0.500000 0.187050 0.000000
O O9 0.077305 0.940445 0.744308
O O10 0.000000 0.870276 0.000000
O O11 0.500000 0.000000 0.500000
O O12 0.000000 0.000000 0.500000
O O13 0.500000 0.322609 0.000000
#
# Coordination Sequence:
#
# PCOD9151469 Si02
#       6
#     1   4   4   4   2   4
#     4  12  26  50  72 100 136 190 226 272 344 384
#     4  12  26  44  70 102 137 176 231 278 333 404
#     4   9  19  35  66  94 122 160 218 265 325 389
#     4  10  20  39  62  92 118 166 220 269 313 390
#     4  12  25  40  57  84 128 170 210 264 337 390
#     4  11  21  44  69  99 135 178 214 276 344 403
#
# _framework density 22.443891000000001
#
# number of rings (size 3 to 8) (size 9 to 14) (size 15 to 20)
#    0.000    1.263    2.105    3.789    0.000    5.053 
#    0.000   16.842    0.000    0.000    0.000    0.000 
#    0.000    0.000    0.000    0.000    0.000    0.000 
#
# Total GULP energy -105932.433810 kJ/mol
# GULP energy per Si atom -5575.391253 kJ/mol
# Density = 2.239281 g / cm^3
# Si number density = 22.443891 Si / 1000 Ang^3
#
#
#
# Elastic Constant Matrix: (Units=GPa)
#
#
# Indices 1 2 3 4 5 6 
#
# 1 147.6132 51.9916 15.5887 0.0000 25.4099 0.0000
# 2 51.9916 163.3148 8.7545 0.0000 31.3053 0.0000
# 3 15.5887 8.7545 69.4869 0.0000 2.8151 0.0000
# 4 0.0000 0.0000 0.0000 -8.0882 0.0000 -8.7500
# 5 25.4099 31.3053 2.8151 0.0000 29.1390 0.0000
# 6 0.0000 0.0000 0.0000 -8.7500 0.0000 -24.0667
#
#
#
# Elastic Compliance Matrix: (Units=1/GPa)
#
#
# Indices 1 2 3 4 5 6 
#
# 1 0.008428 -0.001540 -0.001472 0.000000 -0.005553 0.000000
# 2 -0.001540 0.008021 -0.000372 0.000000 -0.007238 0.000000
# 3 -0.001472 -0.000372 0.014758 0.000000 0.000257 0.000000
# 4 0.000000 0.000000 0.000000 -0.203794 0.000000 0.074094
# 5 -0.005553 -0.007238 0.000257 0.000000 0.046912 0.000000
# 6 0.000000 0.000000 0.000000 0.074094 0.000000 -0.068490
#
#
# Mechanical properties :
#
#
# Convention : Reuss Voigt Hill
#
# Bulk Modulus (GPa) = 40.91667 59.23160 50.07413
# Shear Modulus (GPa) = -27.89376 19.66883 -4.11247
#
# Velocity S-wave (km/s) = -3.52919 2.96354 -1.35511
# Velocity P-wave (km/s) = 1.28969 6.17725 4.46216
#
# Compressibility (1/GPa) = 0.02443992
#
# Stress axis : x y z
#
# Youngs Moduli (GPa) = 118.65044 124.67624 67.76069
#
# Poissons Ratio (x) = 0.19197 0.09973
# Poissons Ratio (y) = 0.18269 0.02520
# Poissons Ratio (z) = 0.17463 0.04636
#
# Static dielectric constant tensor:
#      x y z
#    x 1.774020 0.000000 -0.011900 
#    y 0.000000 1.623860 0.000000 
#    z -0.011900 0.000000 1.887660 
# 
# From -- ./inp_files/15139.got.cif
#   From: 2010.05.17/outbox.cif.g08.bks.cpg/sg10_8_cif.got.tgz:15139.got - 2010.06.03 11:33:40.
