data_PCOD9151499
_publ_section_title
;
Structure prediction by ZEFSAII (Michael W. Deem and Ramdas Pophale) SiO2 
 PCOD9151499
Probable space group: P 2/M
;
_chemical_formula_sum "Si O2"
_cell_formula_units_Z 20
_cell_length_a 9.686806
_cell_length_b 16.347604
_cell_length_c 9.040522
_cell_angle_alpha 90.000000
_cell_angle_beta 130.454183
_cell_angle_gamma 90.000000
_cell_volume 1089.356690
_symmetry_space_group_name_H-M "P 2/M"
_symmetry_group_IT_number 10
_symmetry_cell_setting 'monoclinic'
loop_
_space_group_symop_operation_xyz
x,y,z
-x,y,-z
-x,-y,-z
x,-y,z
loop_
_atom_site_type_symbol
_atom_site_label
_atom_site_fract_x
_atom_site_fract_y
_atom_site_fract_z
Si Si1 0.834602 0.359850 0.492396
Si Si2 0.978994 0.500000 0.807571
Si Si3 0.300993 0.500000 0.811004
Si Si4 0.982700 0.097928 0.664008
Si Si5 0.626741 0.800096 0.449132
Si Si6 0.621674 0.906983 0.937408
O O1 0.889952 0.417317 0.672416
O O2 0.736445 0.422443 0.315958
O O3 0.711512 0.284024 0.449674
O O4 0.000000 0.331235 0.500000
O O5 0.173161 0.500000 0.863925
O O6 0.000000 0.500000 0.000000
O O7 0.500000 0.500000 0.000000
O O8 0.804126 0.142953 0.600175
O O9 0.000000 0.116012 0.500000
O O10 0.960163 0.000000 0.661691
O O11 0.173377 0.119248 0.876535
O O12 0.500000 0.783629 0.500000
O O13 0.491537 0.846893 0.244230
O O14 0.631538 0.000000 0.882292
O O15 0.500000 0.911815 0.000000
#
# Coordination Sequence:
#
# PCOD9151499 Si02
#       6
#     4   2   2   4   4   4
#     4   9  21  42  62  86 123 160 201 241 296 367
#     4   9  19  41  68  92 120 156 191 249 305 356
#     4   9  19  39  66  90 112 157 204 236 288 368
#     4  10  20  39  65  87 116 163 211 255 302 363
#     4  12  25  39  57  93 130 160 197 261 313 356
#     4  10  21  39  64  89 115 162 219 252 298 371
#
# _framework density 18.359459000000001
#
# number of rings (size 3 to 8) (size 9 to 14) (size 15 to 20)
#    0.000    2.000    2.000    2.400    0.000    4.800 
#    7.200    4.000    0.000    0.000    0.000    0.000 
#    0.000    0.000    0.000    0.000    0.000    0.000 
#
# Total GULP energy -111485.494112 kJ/mol
# GULP energy per Si atom -5574.274706 kJ/mol
# Density = 1.831767 g / cm^3
# Si number density = 18.359459 Si / 1000 Ang^3
#
#
#
# Elastic Constant Matrix: (Units=GPa)
#
#
# Indices 1 2 3 4 5 6 
#
# 1 127.2735 96.4766 99.9590 0.0000 19.1667 0.0000
# 2 96.4766 120.7530 77.4206 0.0000 6.7153 0.0000
# 3 99.9590 77.4206 143.7397 0.0000 13.3350 0.0000
# 4 0.0000 0.0000 0.0000 283.1489 0.0000 132.4376
# 5 19.1667 6.7153 13.3350 0.0000 39.0877 0.0000
# 6 0.0000 0.0000 0.0000 132.4376 0.0000 86.2525
#
#
#
# Elastic Compliance Matrix: (Units=1/GPa)
#
#
# Indices 1 2 3 4 5 6 
#
# 1 0.031206 -0.016881 -0.011833 0.000000 -0.008365 0.000000
# 2 -0.016881 0.021782 -0.000427 0.000000 0.004681 0.000000
# 3 -0.011833 -0.000427 0.015357 0.000000 0.000637 0.000000
# 4 0.000000 0.000000 0.000000 0.012532 0.000000 -0.019242
# 5 -0.008365 0.004681 0.000637 0.000000 0.028664 0.000000
# 6 0.000000 0.000000 0.000000 -0.019242 0.000000 0.041140
#
#
# Mechanical properties :
#
#
# Convention : Reuss Voigt Hill
#
# Bulk Modulus (GPa) = 99.37242 104.38653 101.87947
# Shear Modulus (GPa) = 23.54955 89.55847 56.55401
#
# Velocity S-wave (km/s) = 3.58536 6.99189 5.55613
# Velocity P-wave (km/s) = 8.44886 11.05271 9.83732
#
# Compressibility (1/GPa) = 0.01006315
#
# Stress axis : x y z
#
# Youngs Moduli (GPa) = 32.04461 45.90965 65.11597
#
# Poissons Ratio (x) = 0.77498 0.77054
# Poissons Ratio (y) = 0.54093 0.02783
# Poissons Ratio (z) = 0.37919 0.01962
#
# Static dielectric constant tensor:
#      x y z
#    x 3.355200 0.000000 -3.214100 
#    y 0.000000 1.636120 0.000000 
#    z -3.214100 0.000000 7.557760 
# 
# From -- ./inp_files/19562.got.cif
#   From: 2010.05.17/outbox.cif.g08.bks.cpg/sg10_10_cif.got.tgz:19562.got - 2010.06.03 11:33:40.
