data_PCOD9151313
_publ_section_title
;
Structure prediction by ZEFSAII (Michael W. Deem and Ramdas Pophale) SiO2 
 PCOD9151313
Probable space group: P 2/M
;
_chemical_formula_sum "Si O2"
_cell_formula_units_Z 18
_cell_length_a 5.098767
_cell_length_b 22.325308
_cell_length_c 9.581041
_cell_angle_alpha 90.000000
_cell_angle_beta 57.161814
_cell_angle_gamma 90.000000
_cell_volume 916.348734
_symmetry_space_group_name_H-M "P 2/M"
_symmetry_group_IT_number 10
_symmetry_cell_setting 'monoclinic'
loop_
_space_group_symop_operation_xyz
x,y,z
-x,y,-z
-x,-y,-z
x,-y,z
loop_
_atom_site_type_symbol
_atom_site_label
_atom_site_fract_x
_atom_site_fract_y
_atom_site_fract_z
Si Si1 0.874803 0.893478 0.380551
Si Si2 0.128014 0.240741 0.618201
Si Si3 0.128795 0.000000 0.118375
Si Si4 0.572247 0.430679 0.814686
Si Si5 0.198236 0.633658 0.687815
O O1 0.500000 0.896911 0.500000
O O2 0.979124 0.825770 0.309242
O O3 0.000000 0.904842 0.500000
O O4 0.006197 0.942171 0.237172
O O5 0.500000 0.235536 0.500000
O O6 0.068385 0.298300 0.731520
O O7 0.000000 0.254055 0.500000
O O8 0.500000 0.000000 0.000000
O O9 0.000000 0.000000 0.000000
O O10 0.550831 0.500000 0.776951
O O11 0.327577 0.392676 0.794862
O O12 0.923505 0.406035 0.701504
O O13 0.500000 0.426952 0.000000
O O14 0.500000 0.633998 0.500000
#
# Coordination Sequence:
#
# PCOD9151313 Si02
#       5
#     4   4   2   4   4
#     4  10  20  38  63  84 109 155 202 226 267 346
#     4   9  18  34  58  86 112 141 185 240 282 325
#     4  12  24  38  56  88 128 152 182 242 294 316
#     4  11  24  40  56  79 115 154 188 227 281 344
#     4  11  21  37  61  86 111 141 187 242 287 329
#
# _framework density 19.643177000000001
#
# number of rings (size 3 to 8) (size 9 to 14) (size 15 to 20)
#    0.000    1.556    0.000    6.667    0.000    4.444 
#    0.000    3.333    0.000    0.000    0.000    0.000 
#    0.000    0.000    0.000    0.000    0.000    0.000 
#
# Total GULP energy -100536.194830 kJ/mol
# GULP energy per Si atom -5585.344157 kJ/mol
# Density = 1.959847 g / cm^3
# Si number density = 19.643177 Si / 1000 Ang^3
#
#
#
# Elastic Constant Matrix: (Units=GPa)
#
#
# Indices 1 2 3 4 5 6 
#
# 1 160.8166 65.7803 41.0490 0.0000 25.1376 0.0000
# 2 65.7803 203.7506 76.7095 0.0000 28.1304 0.0000
# 3 41.0490 76.7095 62.5143 0.0000 8.6032 0.0000
# 4 0.0000 0.0000 0.0000 -41.7013 0.0000 32.4887
# 5 25.1376 28.1304 8.6032 0.0000 36.1324 0.0000
# 6 0.0000 0.0000 0.0000 32.4887 0.0000 29.5375
#
#
#
# Elastic Compliance Matrix: (Units=1/GPa)
#
#
# Indices 1 2 3 4 5 6 
#
# 1 0.008151 -0.000454 -0.004201 0.000000 -0.004317 0.000000
# 2 -0.000454 0.009947 -0.011255 0.000000 -0.004749 0.000000
# 3 -0.004201 -0.011255 0.032006 0.000000 0.004064 0.000000
# 4 0.000000 0.000000 0.000000 -0.012914 0.000000 0.014204
# 5 -0.004317 -0.004749 0.004064 0.000000 0.033409 0.000000
# 6 0.000000 0.000000 0.000000 0.014204 0.000000 0.018232
#
#
# Mechanical properties :
#
#
# Convention : Reuss Voigt Hill
#
# Bulk Modulus (GPa) = 54.68974 88.23988 71.46481
# Shear Modulus (GPa) = 39.44915 21.02991 30.23953
#
# Velocity S-wave (km/s) = 4.48625 3.27555 3.92783
# Velocity P-wave (km/s) = 7.39847 7.70224 7.55188
#
# Compressibility (1/GPa) = 0.01828497
#
# Stress axis : x y z
#
# Youngs Moduli (GPa) = 122.68279 100.53002 31.24428
#
# Poissons Ratio (x) = 0.04562 0.13127
# Poissons Ratio (y) = 0.05567 0.35164
# Poissons Ratio (z) = 0.51543 1.13142
#
# Static dielectric constant tensor:
#      x y z
#    x 1.614900 0.000000 -0.003740 
#    y 0.000000 1.739250 0.000000 
#    z -0.003740 0.000000 1.666540 
# 
# From -- ./inp_files/15120.got.cif
#   From: 2010.05.17/outbox.cif.g08.bks.cpg/sg10_8_cif.got.tgz:15120.got - 2010.06.03 11:33:40.
