data_PCOD9151406
_publ_section_title
;
Structure prediction by ZEFSAII (Michael W. Deem and Ramdas Pophale) SiO2 
 PCOD9151406
Probable space group: P 2/M
;
_chemical_formula_sum "Si O2"
_cell_formula_units_Z 24
_cell_length_a 14.217197
_cell_length_b 10.765912
_cell_length_c 14.781766
_cell_angle_alpha 90.000000
_cell_angle_beta 29.866738
_cell_angle_gamma 90.000000
_cell_volume 1126.696288
_symmetry_space_group_name_H-M "P 2/M"
_symmetry_group_IT_number 10
_symmetry_cell_setting 'monoclinic'
loop_
_space_group_symop_operation_xyz
x,y,z
-x,y,-z
-x,-y,-z
x,-y,z
loop_
_atom_site_type_symbol
_atom_site_label
_atom_site_fract_x
_atom_site_fract_y
_atom_site_fract_z
Si Si1 0.838378 0.650742 0.360438
Si Si2 0.456958 0.270329 0.767628
Si Si3 0.789565 0.646593 0.192488
Si Si4 0.785680 0.133355 0.711665
Si Si5 0.161398 0.859222 0.119033
Si Si6 0.419307 0.627702 0.168382
O O1 0.872780 0.500000 0.347604
O O2 0.676538 0.707227 0.560180
O O3 0.756376 0.659375 0.326699
O O4 0.017212 0.745009 0.217845
O O5 0.351394 0.297056 0.762157
O O6 0.431618 0.363789 0.874460
O O7 0.347315 0.153020 0.901207
O O8 0.790653 0.500000 0.171031
O O9 0.000000 0.696495 0.000000
O O10 0.782540 0.152942 0.822103
O O11 0.691657 0.245197 0.738333
O O12 0.000000 0.129025 0.500000
O O13 0.694959 0.000000 0.767341
O O14 0.080464 0.000000 0.176048
O O15 0.306044 0.500000 0.275745
O O16 0.500000 0.623803 0.000000
#
# Coordination Sequence:
#
# PCOD9151406 Si02
#       6
#     4   4   4   4   4   4
#     4  11  24  41  69 103 131 169 222 278 329 387
#     4  12  23  41  65  96 135 174 213 270 330 392
#     4  10  20  38  66  96 129 172 218 269 328 390
#     4  10  22  42  65  89 123 170 222 269 313 379
#     4  11  25  44  67  97 135 179 222 269 329 394
#     4  11  23  37  59  93 128 163 204 259 322 381
#
# _framework density 21.301214999999999
#
# number of rings (size 3 to 8) (size 9 to 14) (size 15 to 20)
#    0.000    1.167    3.333    3.000    0.000    5.333 
#    0.000    1.667    0.000    2.000    0.000    0.000 
#    0.000    0.000    0.000    0.000    0.000    0.000 
#
# Total GULP energy -133707.166583 kJ/mol
# GULP energy per Si atom -5571.131941 kJ/mol
# Density = 2.125273 g / cm^3
# Si number density = 21.301215 Si / 1000 Ang^3
#
#
#
# Elastic Constant Matrix: (Units=GPa)
#
#
# Indices 1 2 3 4 5 6 
#
# 1 91.7761 63.9633 21.8381 0.0000 12.1599 0.0000
# 2 63.9633 167.6752 43.1334 0.0000 -13.8390 0.0000
# 3 21.8381 43.1334 101.4740 0.0000 10.9213 0.0000
# 4 0.0000 0.0000 0.0000 59.3582 0.0000 7.0918
# 5 12.1599 -13.8390 10.9213 0.0000 31.4631 0.0000
# 6 0.0000 0.0000 0.0000 7.0918 0.0000 -27.1912
#
#
#
# Elastic Compliance Matrix: (Units=1/GPa)
#
#
# Indices 1 2 3 4 5 6 
#
# 1 0.017470 -0.007676 0.000616 0.000000 -0.010342 0.000000
# 2 -0.007676 0.010616 -0.003825 0.000000 0.008964 0.000000
# 3 0.000616 -0.003825 0.012003 0.000000 -0.006087 0.000000
# 4 0.000000 0.000000 0.000000 0.016338 0.000000 0.004261
# 5 -0.010342 0.008964 -0.006087 0.000000 0.041836 0.000000
# 6 0.000000 0.000000 0.000000 0.004261 0.000000 -0.035665
#
#
# Mechanical properties :
#
#
# Convention : Reuss Voigt Hill
#
# Bulk Modulus (GPa) = 54.58939 68.75497 61.67218
# Shear Modulus (GPa) = 55.26430 28.19207 41.72818
#
# Velocity S-wave (km/s) = 5.09907 3.64193 4.43081
# Velocity P-wave (km/s) = 7.76855 7.07336 7.42909
#
# Compressibility (1/GPa) = 0.01831858
#
# Stress axis : x y z
#
# Youngs Moduli (GPa) = 57.24197 94.19653 83.31067
#
# Poissons Ratio (x) = 0.72308 -0.05135
# Poissons Ratio (y) = 0.43941 0.31869
# Poissons Ratio (z) = -0.03529 0.36033
#
# Static dielectric constant tensor:
#      x y z
#    x 1.788700 0.000000 -0.012420 
#    y 0.000000 1.815500 0.000000 
#    z -0.012420 0.000000 1.838510 
# 
# From -- ./inp_files/67255.got.cif
#   From: 2010.05.17/outbox.cif.g08.bks.cpg/sg10_34_cif.got.tgz:67255.got - 2010.06.03 11:33:40.
