data_PCOD9151972
_publ_section_title
;
Structure prediction by ZEFSAII (Michael W. Deem and Ramdas Pophale) SiO2 
 PCOD9151972
Probable space group: P 2/M
;
_chemical_formula_sum "Si O2"
_cell_formula_units_Z 32
_cell_length_a 26.118279
_cell_length_b 7.578065
_cell_length_c 25.008232
_cell_angle_alpha 90.000000
_cell_angle_beta 17.424368
_cell_angle_gamma 90.000000
_cell_volume 1482.194736
_symmetry_space_group_name_H-M "P 2/M"
_symmetry_group_IT_number 10
_symmetry_cell_setting 'monoclinic'
loop_
_space_group_symop_operation_xyz
x,y,z
-x,y,-z
-x,-y,-z
x,-y,z
loop_
_atom_site_type_symbol
_atom_site_label
_atom_site_fract_x
_atom_site_fract_y
_atom_site_fract_z
Si Si1 0.295287 0.298170 0.693812
Si Si2 0.691132 0.715457 0.926511
Si Si3 0.315645 0.715596 0.300156
Si Si4 0.992007 0.283358 0.317673
Si Si5 0.975306 0.704967 0.213712
Si Si6 0.357638 0.800453 0.514622
Si Si7 0.751941 0.289647 0.143191
Si Si8 0.800851 0.714808 0.700010
O O1 0.500000 0.304654 0.500000
O O2 0.234086 0.500000 0.747836
O O3 0.279375 0.207707 0.652608
O O4 0.224051 0.219580 0.820014
O O5 0.696542 0.500000 0.920037
O O6 0.723491 0.774272 0.833283
O O7 0.838711 0.772241 0.819463
O O8 0.503196 0.769433 0.131312
O O9 0.310031 0.500000 0.304688
O O10 0.168620 0.773963 0.486695
O O11 0.284086 0.773858 0.270534
O O12 0.988697 0.500000 0.320507
O O13 0.985405 0.220452 0.263328
O O14 0.025127 0.500000 0.169069
O O15 0.782591 0.710828 0.383207
O O16 0.111125 0.781316 0.035708
O O17 0.553354 0.732691 0.323315
O O18 0.369880 0.000000 0.484254
O O19 0.777830 0.500000 0.122866
O O20 0.790396 0.500000 0.710618
O O21 0.000000 0.761839 0.500000
#
# Coordination Sequence:
#
# PCOD9151972 Si02
#       8
#     4   4   4   4   4   4   4   4
#     4   8  15  31  54  78 105 136 170 207 251 308
#     4   9  15  22  33  51  77 112 156 199 242 291
#     4   9  15  22  34  53  78 112 152 197 246 294
#     4   9  17  28  40  58  83 115 161 212 248 282
#     4  10  21  36  54  74 100 137 180 220 258 305
#     4  11  22  35  54  80 109 137 167 211 264 314
#     4   9  19  36  57  79 104 138 176 212 254 307
#     4   9  13  19  31  47  76 114 150 191 239 294
#
# _framework density 21.589607000000001
#
# number of rings (size 3 to 8) (size 9 to 14) (size 15 to 20)
#    0.000    2.750    1.250    2.250    0.000    5.750 
#    0.000    6.250    0.000    0.000    0.000    0.000 
#    0.000    0.000    0.000    2.250    0.000   13.250 
#
# Total GULP energy -178557.301494 kJ/mol
# GULP energy per Si atom -5579.915672 kJ/mol
# Density = 2.154047 g / cm^3
# Si number density = 21.589607 Si / 1000 Ang^3
#
#
#
# Elastic Constant Matrix: (Units=GPa)
#
#
# Indices 1 2 3 4 5 6 
#
# 1 120.2390 -1.9649 55.4481 0.0000 2.6527 0.0000
# 2 -1.9649 43.8768 -7.1826 0.0000 2.1873 0.0000
# 3 55.4481 -7.1826 70.2133 0.0000 -44.1228 0.0000
# 4 0.0000 0.0000 0.0000 -27.0939 0.0000 5.9632
# 5 2.6527 2.1873 -44.1228 0.0000 -10.2543 0.0000
# 6 0.0000 0.0000 0.0000 5.9632 0.0000 -77.7145
#
#
#
# Elastic Compliance Matrix: (Units=1/GPa)
#
#
# Indices 1 2 3 4 5 6 
#
# 1 0.008817 -0.000287 -0.001511 0.000000 0.008722 0.000000
# 2 -0.000287 0.023112 0.001523 0.000000 -0.001699 0.000000
# 3 -0.001511 0.001523 0.004198 0.000000 -0.018130 0.000000
# 4 0.000000 0.000000 0.000000 -0.037543 0.000000 -0.002881
# 5 0.008722 -0.001699 -0.018130 0.000000 -0.017614 0.000000
# 6 0.000000 0.000000 0.000000 -0.002881 0.000000 -0.013089
#
#
# Mechanical properties :
#
#
# Convention : Reuss Voigt Hill
#
# Bulk Modulus (GPa) = 28.10812 36.32560 32.21686
# Shear Modulus (GPa) = -253.68543 -10.47729 -132.08136
#
# Velocity S-wave (km/s) = -10.85166 -2.20533 -7.83014
# Velocity P-wave (km/s) = 11.99850 3.22140 8.17271
#
# Compressibility (1/GPa) = 0.03557691
#
# Stress axis : x y z
#
# Youngs Moduli (GPa) = 113.42364 43.26700 238.19650
#
# Poissons Ratio (x) = 0.01243 0.35994
# Poissons Ratio (y) = 0.03259 -0.36287
# Poissons Ratio (z) = 0.17140 -0.06591
#
# Static dielectric constant tensor:
#      x y z
#    x 1.768770 0.000000 0.012070 
#    y 0.000000 1.884830 0.000000 
#    z 0.012070 0.000000 1.772130 
# 
# From -- ./inp_files/90547.got.cif
#   From: 2010.05.17/outbox.cif.g08.bks.cpg/sg10_46_cif.got.tgz:90547.got - 2010.06.03 11:33:40.
