data_PCOD9151263
_publ_section_title
;
Structure prediction by ZEFSAII (Michael W. Deem and Ramdas Pophale) SiO2 
 PCOD9151263
Probable space group: P 2/M
;
_chemical_formula_sum "Si O2"
_cell_formula_units_Z 24
_cell_length_a 15.078020
_cell_length_b 8.450793
_cell_length_c 9.740015
_cell_angle_alpha 90.000000
_cell_angle_beta 69.340411
_cell_angle_gamma 90.000000
_cell_volume 1161.274352
_symmetry_space_group_name_H-M "P 2/M"
_symmetry_group_IT_number 10
_symmetry_cell_setting 'monoclinic'
loop_
_space_group_symop_operation_xyz
x,y,z
-x,y,-z
-x,-y,-z
x,-y,z
loop_
_atom_site_type_symbol
_atom_site_label
_atom_site_fract_x
_atom_site_fract_y
_atom_site_fract_z
Si Si1 0.588501 0.310332 0.545474
Si Si2 0.782576 0.189758 0.307272
Si Si3 0.102293 0.687727 0.997158
Si Si4 0.204782 0.183867 0.191040
Si Si5 0.090431 0.185066 0.524967
Si Si6 0.588687 0.808219 0.858426
O O1 0.500000 0.257501 0.500000
O O2 0.587817 0.500000 0.552854
O O3 0.684509 0.255657 0.418166
O O4 0.582143 0.246210 0.704275
O O5 0.813059 0.238700 0.139236
O O6 0.867335 0.253062 0.359257
O O7 0.779174 0.000000 0.320354
O O8 0.102941 0.500000 0.978537
O O9 0.128148 0.729618 0.138910
O O10 0.000000 0.748883 0.000000
O O11 0.172857 0.188018 0.366762
O O12 0.311821 0.246999 0.129372
O O13 0.204200 0.000000 0.148305
O O14 0.000000 0.259091 0.500000
O O15 0.065734 0.000000 0.567865
O O16 0.591765 0.000000 0.855833
O O17 0.500000 0.757863 0.000000
#
# Coordination Sequence:
#
# PCOD9151263 Si02
#       6
#     4   4   4   4   4   4
#     4  11  25  43  63  92 128 165 204 250 311 379
#     4  11  22  40  66  92 121 161 207 259 310 359
#     4  11  25  42  59  88 131 172 208 250 305 368
#     4  10  20  38  61  89 122 157 204 256 306 360
#     4   9  17  32  58  89 117 146 190 248 302 355
#     4  10  22  41  65  94 123 156 205 259 308 364
#
# _framework density 20.66695
#
# number of rings (size 3 to 8) (size 9 to 14) (size 15 to 20)
#    0.000    1.667    1.667    2.500    2.333    5.000 
#    0.000    0.000    0.000    3.500    0.000    0.000 
#    0.000    0.000    0.000    0.000    0.000    0.000 
#
# Total GULP energy -134044.851482 kJ/mol
# GULP energy per Si atom -5585.202145 kJ/mol
# Density = 2.061991 g / cm^3
# Si number density = 20.666950 Si / 1000 Ang^3
#
#
#
# Elastic Constant Matrix: (Units=GPa)
#
#
# Indices 1 2 3 4 5 6 
#
# 1 98.4318 13.4705 5.9061 0.0000 3.0311 0.0000
# 2 13.4705 18.8470 3.5590 0.0000 0.2176 0.0000
# 3 5.9061 3.5590 66.7667 0.0000 2.0343 0.0000
# 4 0.0000 0.0000 0.0000 -18.1316 0.0000 1.9479
# 5 3.0311 0.2176 2.0343 0.0000 35.7312 0.0000
# 6 0.0000 0.0000 0.0000 1.9479 0.0000 23.4223
#
#
#
# Elastic Compliance Matrix: (Units=1/GPa)
#
#
# Indices 1 2 3 4 5 6 
#
# 1 0.011310 -0.007970 -0.000549 0.000000 -0.000880 0.000000
# 2 -0.007970 0.059215 -0.002465 0.000000 0.000456 0.000000
# 3 -0.000549 -0.002465 0.015182 0.000000 -0.000803 0.000000
# 4 0.000000 0.000000 0.000000 -0.054664 0.000000 0.004546
# 5 -0.000880 0.000456 -0.000803 0.000000 0.028104 0.000000
# 6 0.000000 0.000000 0.000000 0.004546 0.000000 0.042316
#
#
# Mechanical properties :
#
#
# Convention : Reuss Voigt Hill
#
# Bulk Modulus (GPa) = 15.68891 25.54631 20.61761
# Shear Modulus (GPa) = 34.55936 18.94503 26.75220
#
# Velocity S-wave (km/s) = 4.09370 3.03096 3.60174
# Velocity P-wave (km/s) = 5.47286 4.96354 5.22441
#
# Compressibility (1/GPa) = 0.06373930
#
# Stress axis : x y z
#
# Youngs Moduli (GPa) = 88.41721 16.88749 65.86768
#
# Poissons Ratio (x) = 0.13459 0.03615
# Poissons Ratio (y) = 0.70467 0.16239
# Poissons Ratio (z) = 0.04853 0.04163
#
# Static dielectric constant tensor:
#      x y z
#    x 1.766010 0.000000 0.004790 
#    y 0.000000 1.718430 0.000000 
#    z 0.004790 0.000000 1.697280 
# 
# From -- ./inp_files/27007.got.cif
#   From: 2010.05.17/outbox.cif.g08.bks.cpg/sg10_14_cif.got.tgz:27007.got - 2010.06.03 11:33:40.
