data_PCOD9151167
_publ_section_title
;
Structure prediction by ZEFSAII (Michael W. Deem and Ramdas Pophale) SiO2 
 PCOD9151167
Probable space group: P 2/M
;
_chemical_formula_sum "Si O2"
_cell_formula_units_Z 32
_cell_length_a 20.344719
_cell_length_b 14.572425
_cell_length_c 14.724457
_cell_angle_alpha 90.000000
_cell_angle_beta 19.545932
_cell_angle_gamma 90.000000
_cell_volume 1460.494709
_symmetry_space_group_name_H-M "P 2/M"
_symmetry_group_IT_number 10
_symmetry_cell_setting 'monoclinic'
loop_
_space_group_symop_operation_xyz
x,y,z
-x,y,-z
-x,-y,-z
x,-y,z
loop_
_atom_site_type_symbol
_atom_site_label
_atom_site_fract_x
_atom_site_fract_y
_atom_site_fract_z
Si Si1 0.593742 0.105160 0.685015
Si Si2 0.281559 0.402467 0.072153
Si Si3 0.714930 0.696170 0.313941
Si Si4 0.790334 0.790456 0.743856
Si Si5 0.244573 0.394486 0.549087
Si Si6 0.778380 0.099081 0.250929
Si Si7 0.751814 0.328048 0.072810
Si Si8 0.872465 0.765905 0.429658
O O1 0.631083 0.105546 0.528614
O O2 0.779623 0.157631 0.485985
O O3 0.587880 0.000000 0.723384
O O4 0.396699 0.156848 0.971995
O O5 0.222335 0.500000 0.189780
O O6 0.213855 0.312483 0.211736
O O7 0.518225 0.399036 0.763524
O O8 0.211115 0.395149 0.059525
O O9 0.798748 0.659629 0.300099
O O10 0.763298 0.801401 0.226106
O O11 0.479636 0.692594 0.629675
O O12 0.781790 0.639775 0.137895
O O13 0.782795 0.782302 0.645219
O O14 0.000000 0.832683 0.500000
O O15 0.174539 0.500000 0.640741
O O16 0.181307 0.331706 0.546763
O O17 0.742799 0.000000 0.250187
O O18 0.000000 0.095063 0.000000
O O19 0.892500 0.241455 0.869493
#
# Coordination Sequence:
#
# PCOD9151167 Si02
#       8
#     4   4   4   4   4   4   4   4
#     4  11  24  44  69  98 132 171 218 271 329 392
#     4  10  21  42  64  91 129 172 222 269 323 388
#     4  10  20  40  65  90 134 171 216 262 332 389
#     4  12  25  43  67  91 130 178 221 275 328 381
#     4  10  22  39  64  94 127 165 215 272 331 395
#     4  10  20  37  68 100 128 167 212 263 326 389
#     4  10  22  38  62  93 127 182 211 264 325 392
#     4  12  23  40  65  91 133 165 219 273 329 385
#
# _framework density 21.910384000000001
#
# number of rings (size 3 to 8) (size 9 to 14) (size 15 to 20)
#    0.000    1.375    3.750    1.875    0.000    3.000 
#    0.000    6.250    0.000    0.750    0.000    0.000 
#    0.000    0.000    0.000    0.000    0.000    0.000 
#
# Total GULP energy -178679.843338 kJ/mol
# GULP energy per Si atom -5583.745104 kJ/mol
# Density = 2.186052 g / cm^3
# Si number density = 21.910384 Si / 1000 Ang^3
#
#
#
# Elastic Constant Matrix: (Units=GPa)
#
#
# Indices 1 2 3 4 5 6 
#
# 1 57.1965 9.9025 -13.4871 0.0000 5.2625 0.0000
# 2 9.9025 115.7158 5.7357 0.0000 0.4358 0.0000
# 3 -13.4871 5.7357 94.5602 0.0000 -2.9459 0.0000
# 4 0.0000 0.0000 0.0000 -26.9373 0.0000 5.1478
# 5 5.2625 0.4358 -2.9459 0.0000 26.0652 0.0000
# 6 0.0000 0.0000 0.0000 5.1478 0.0000 3.7033
#
#
#
# Elastic Compliance Matrix: (Units=1/GPa)
#
#
# Indices 1 2 3 4 5 6 
#
# 1 0.018728 -0.001722 0.002668 0.000000 -0.003451 0.000000
# 2 -0.001722 0.008827 -0.000778 0.000000 0.000112 0.000000
# 3 0.002668 -0.000778 0.011025 0.000000 0.000720 0.000000
# 4 0.000000 0.000000 0.000000 -0.029332 0.000000 0.040772
# 5 -0.003451 0.000112 0.000720 0.000000 0.039142 0.000000
# 6 0.000000 0.000000 0.000000 0.040772 0.000000 0.213356
#
#
# Mechanical properties :
#
#
# Convention : Reuss Voigt Hill
#
# Bulk Modulus (GPa) = 25.69472 30.19718 27.94595
# Shear Modulus (GPa) = 18.22274 18.25432 18.23853
#
# Velocity S-wave (km/s) = 2.88704 2.88954 2.88829
# Velocity P-wave (km/s) = 4.78184 4.99446 4.88931
#
# Compressibility (1/GPa) = 0.03891850
#
# Stress axis : x y z
#
# Youngs Moduli (GPa) = 53.39489 113.28443 90.69929
#
# Poissons Ratio (x) = 0.19507 -0.24200
# Poissons Ratio (y) = 0.09194 0.07052
# Poissons Ratio (z) = -0.14247 0.08808
#
# Static dielectric constant tensor:
#      x y z
#    x 1.825670 0.000000 -0.021520 
#    y 0.000000 1.814730 0.000000 
#    z -0.021520 0.000000 1.835230 
# 
# From -- ./inp_files/70753.got.cif
#   From: 2010.05.17/outbox.cif.g08.bks.cpg/sg10_36_cif.got.tgz:70753.got - 2010.06.03 11:33:40.
