data_PCOD9151861
_publ_section_title
;
Structure prediction by ZEFSAII (Michael W. Deem and Ramdas Pophale) SiO2 
 PCOD9151861
Probable space group: P 2/M
;
_chemical_formula_sum "Si O2"
_cell_formula_units_Z 32
_cell_length_a 11.558630
_cell_length_b 8.929614
_cell_length_c 20.351238
_cell_angle_alpha 90.000000
_cell_angle_beta 54.096262
_cell_angle_gamma 90.000000
_cell_volume 1701.440296
_symmetry_space_group_name_H-M "P 2/M"
_symmetry_group_IT_number 10
_symmetry_cell_setting 'monoclinic'
loop_
_space_group_symop_operation_xyz
x,y,z
-x,y,-z
-x,-y,-z
x,-y,z
loop_
_atom_site_type_symbol
_atom_site_label
_atom_site_fract_x
_atom_site_fract_y
_atom_site_fract_z
Si Si1 0.147876 0.678370 0.914695
Si Si2 0.489630 0.821132 0.668158
Si Si3 0.605993 0.679276 0.905036
Si Si4 0.169912 0.179666 0.765674
Si Si5 0.221553 0.679371 0.458888
Si Si6 0.890086 0.178063 0.778107
Si Si7 0.937183 0.319520 0.623754
Si Si8 0.446439 0.820420 0.835392
O O1 0.172298 0.500000 0.909661
O O2 0.137145 0.733591 0.843513
O O3 0.284697 0.762750 0.898889
O O4 0.000000 0.713082 0.000000
O O5 0.332909 0.781608 0.692609
O O6 0.622701 0.748318 0.587445
O O7 0.488311 0.778009 0.746321
O O8 0.504708 0.000000 0.660570
O O9 0.612326 0.500000 0.898373
O O10 0.764210 0.744922 0.861309
O O11 0.544524 0.746329 0.857814
O O12 0.500000 0.719513 0.000000
O O13 0.046511 0.212550 0.754907
O O14 0.168502 0.000000 0.779414
O O15 0.230837 0.500000 0.458083
O O16 0.100221 0.724395 0.551529
O O17 0.157407 0.719064 0.408473
O O18 0.883783 0.239861 0.706474
O O19 0.869612 0.000000 0.785740
O O20 0.931883 0.500000 0.633453
O O21 0.452707 0.000000 0.838098
#
# Coordination Sequence:
#
# PCOD9151861 Si02
#       8
#     4   4   4   4   4   4   4   4
#     4  10  21  35  55  82 109 139 182 233 281 330
#     4   9  18  34  55  80 109 141 180 228 277 323
#     4  11  25  41  57  80 112 147 183 229 284 337
#     4   9  21  39  55  77 109 149 190 229 279 338
#     4   9  18  33  56  84 113 144 184 227 275 335
#     4  11  23  39  59  82 111 148 191 232 278 339
#     4   9  19  36  56  82 115 150 182 224 281 336
#     4  10  21  37  57  81 110 143 184 228 275 332
#
# _framework density 18.807594999999999
#
# number of rings (size 3 to 8) (size 9 to 14) (size 15 to 20)
#    0.000    2.250    0.000    3.750    1.750    8.500 
#    0.000    1.875    0.000    3.750    0.000    0.000 
#    0.000    0.000    0.000    0.000    0.000    0.000 
#
# Total GULP energy -178657.212802 kJ/mol
# GULP energy per Si atom -5583.037900 kJ/mol
# Density = 1.876479 g / cm^3
# Si number density = 18.807595 Si / 1000 Ang^3
#
#
#
# Elastic Constant Matrix: (Units=GPa)
#
#
# Indices 1 2 3 4 5 6 
#
# 1 63.4120 22.0991 30.2859 0.0000 -16.5582 0.0000
# 2 22.0991 24.6435 26.9515 0.0000 -8.5420 0.0000
# 3 30.2859 26.9515 88.9581 0.0000 -30.5698 0.0000
# 4 0.0000 0.0000 0.0000 18.3149 0.0000 -1.3331
# 5 -16.5582 -8.5420 -30.5698 0.0000 27.4712 0.0000
# 6 0.0000 0.0000 0.0000 -1.3331 0.0000 65.5776
#
#
#
# Elastic Compliance Matrix: (Units=1/GPa)
#
#
# Indices 1 2 3 4 5 6 
#
# 1 0.024812 -0.019890 0.000960 0.000000 0.009839 0.000000
# 2 -0.019890 0.076743 -0.020076 0.000000 -0.010466 0.000000
# 3 0.000960 -0.020076 0.024369 0.000000 0.021454 0.000000
# 4 0.000000 0.000000 0.000000 0.054681 0.000000 0.001112
# 5 0.009839 -0.010466 0.021454 0.000000 0.062952 0.000000
# 6 0.000000 0.000000 0.000000 0.001112 0.000000 0.015272
#
#
# Mechanical properties :
#
#
# Convention : Reuss Voigt Hill
#
# Bulk Modulus (GPa) = 20.87112 37.29852 29.08482
# Shear Modulus (GPa) = 14.17186 28.78457 21.47821
#
# Velocity S-wave (km/s) = 2.74801 3.91637 3.38301
# Velocity P-wave (km/s) = 4.60326 6.35022 5.54596
#
# Compressibility (1/GPa) = 0.04791310
#
# Stress axis : x y z
#
# Youngs Moduli (GPa) = 40.30271 13.03053 41.03497
#
# Poissons Ratio (x) = 0.25917 -0.03938
# Poissons Ratio (y) = 0.80160 0.82381
# Poissons Ratio (z) = -0.03868 0.26160
#
# Static dielectric constant tensor:
#      x y z
#    x 1.664570 0.000000 -0.022560 
#    y 0.000000 1.626960 0.000000 
#    z -0.022560 0.000000 1.637070 
# 
# From -- ./inp_files/83578.got.cif
#   From: 2010.05.17/outbox.cif.g08.bks.cpg/sg10_42_cif.got.tgz:83578.got - 2010.06.03 11:33:40.
