data_PCOD9151438
_publ_section_title
;
Structure prediction by ZEFSAII (Michael W. Deem and Ramdas Pophale) SiO2 
 PCOD9151438
Probable space group: P 2/M
;
_chemical_formula_sum "Si O2"
_cell_formula_units_Z 28
_cell_length_a 10.551082
_cell_length_b 8.589181
_cell_length_c 31.058197
_cell_angle_alpha 90.000000
_cell_angle_beta 146.339969
_cell_angle_gamma 90.000000
_cell_volume 1560.061105
_symmetry_space_group_name_H-M "P 2/M"
_symmetry_group_IT_number 10
_symmetry_cell_setting 'monoclinic'
loop_
_space_group_symop_operation_xyz
x,y,z
-x,y,-z
-x,-y,-z
x,-y,z
loop_
_atom_site_type_symbol
_atom_site_label
_atom_site_fract_x
_atom_site_fract_y
_atom_site_fract_z
Si Si1 0.364178 0.313596 0.338572
Si Si2 0.857715 0.311943 0.080679
Si Si3 0.180401 0.188028 0.671006
Si Si4 0.591292 0.689155 0.092534
Si Si5 0.658733 0.813738 0.764969
Si Si6 0.146629 0.811914 0.499191
Si Si7 0.904949 0.311690 0.258173
O O1 0.360171 0.500000 0.334996
O O2 0.345884 0.248847 0.285068
O O3 0.601632 0.257556 0.426017
O O4 0.145640 0.263364 0.304896
O O5 0.873007 0.500000 0.084183
O O6 0.753265 0.267772 0.097948
O O7 0.108222 0.242725 0.147057
O O8 0.666174 0.261669 0.991933
O O9 0.430036 0.239330 0.724888
O O10 0.126918 0.249462 0.703088
O O11 0.992189 0.236858 0.582461
O O12 0.179978 0.000000 0.671642
O O13 0.588928 0.500000 0.092205
O O14 0.704148 0.741512 0.168825
O O15 0.655227 0.000000 0.762279
O O16 0.000000 0.767614 0.500000
O O17 0.164088 0.000000 0.504308
O O18 0.901283 0.500000 0.258218
#
# Coordination Sequence:
#
# PCOD9151438 Si02
#       7
#     4   4   4   4   4   4   4
#     4  11  22  36  59  87 112 141 185 233 277 326
#     4   9  16  31  57  84 109 141 186 232 273 320
#     4  10  23  40  57  78 110 152 187 221 276 336
#     4   8  15  31  55  81 112 146 178 225 279 324
#     4  11  21  36  56  82 114 147 186 230 275 327
#     4  10  20  39  60  80 111 147 185 229 275 325
#     4  10  21  38  57  82 115 147 182 227 278 329
#
# _framework density 17.948014000000001
#
# number of rings (size 3 to 8) (size 9 to 14) (size 15 to 20)
#    0.000    2.143    2.857    1.714    0.000    3.714 
#    0.000    5.714    0.000    4.286    0.000    0.000 
#    0.000    0.000    0.000    0.000    0.000    0.000 
#
# Total GULP energy -156262.894317 kJ/mol
# GULP energy per Si atom -5580.817654 kJ/mol
# Density = 1.790716 g / cm^3
# Si number density = 17.948014 Si / 1000 Ang^3
#
#
#
# Elastic Constant Matrix: (Units=GPa)
#
#
# Indices 1 2 3 4 5 6 
#
# 1 142.5259 28.1679 98.0665 0.0000 -1.8530 0.0000
# 2 28.1679 16.9468 32.0952 0.0000 2.5785 0.0000
# 3 98.0665 32.0952 188.2871 0.0000 4.9157 0.0000
# 4 0.0000 0.0000 0.0000 21.7516 0.0000 1.4411
# 5 -1.8530 2.5785 4.9157 0.0000 32.7668 0.0000
# 6 0.0000 0.0000 0.0000 1.4411 0.0000 29.0095
#
#
#
# Elastic Compliance Matrix: (Units=1/GPa)
#
#
# Indices 1 2 3 4 5 6 
#
# 1 0.012682 -0.013020 -0.004449 0.000000 0.002409 0.000000
# 2 -0.013020 0.101218 -0.010285 0.000000 -0.007158 0.000000
# 3 -0.004449 -0.010285 0.009403 0.000000 -0.000853 0.000000
# 4 0.000000 0.000000 0.000000 0.046125 0.000000 -0.002291
# 5 0.002409 -0.007158 -0.000853 0.000000 0.031346 0.000000
# 6 0.000000 0.000000 0.000000 -0.002291 0.000000 0.034585
#
#
# Mechanical properties :
#
#
# Convention : Reuss Voigt Hill
#
# Bulk Modulus (GPa) = 14.75039 73.82435 44.28737
# Shear Modulus (GPa) = 15.95070 29.33427 22.64248
#
# Velocity S-wave (km/s) = 2.98437 4.04716 3.55570
# Velocity P-wave (km/s) = 4.48459 7.94109 6.44874
#
# Compressibility (1/GPa) = 0.06779482
#
# Stress axis : x y z
#
# Youngs Moduli (GPa) = 78.85377 9.87971 106.34372
#
# Poissons Ratio (x) = 0.12864 0.47308
# Poissons Ratio (y) = 1.02669 1.09376
# Poissons Ratio (z) = 0.35079 0.10161
#
# Static dielectric constant tensor:
#      x y z
#    x 1.582930 0.000000 0.008010 
#    y 0.000000 1.615950 0.000000 
#    z 0.008010 0.000000 1.620890 
# 
# From -- ./inp_files/37265.got.cif
#   From: 2010.05.17/outbox.cif.g08.bks.cpg/sg10_19_cif.got.tgz:37265.got - 2010.06.03 11:33:40.
