data_PCOD9151365
_publ_section_title
;
Structure prediction by ZEFSAII (Michael W. Deem and Ramdas Pophale) SiO2 
 PCOD9151365
Probable space group: P 2/M
;
_chemical_formula_sum "Si O2"
_cell_formula_units_Z 28
_cell_length_a 13.668068
_cell_length_b 8.585990
_cell_length_c 12.922755
_cell_angle_alpha 90.000000
_cell_angle_beta 111.843323
_cell_angle_gamma 90.000000
_cell_volume 1407.655595
_symmetry_space_group_name_H-M "P 2/M"
_symmetry_group_IT_number 10
_symmetry_cell_setting 'monoclinic'
loop_
_space_group_symop_operation_xyz
x,y,z
-x,y,-z
-x,-y,-z
x,-y,z
loop_
_atom_site_type_symbol
_atom_site_label
_atom_site_fract_x
_atom_site_fract_y
_atom_site_fract_z
Si Si1 0.267561 0.686698 0.279918
Si Si2 0.720151 0.815090 0.494745
Si Si3 0.108604 0.688254 0.595478
Si Si4 0.492518 0.688504 0.674455
Si Si5 0.573587 0.310602 0.122119
Si Si6 0.189120 0.687948 0.844238
Si Si7 0.878205 0.186101 0.960791
O O1 0.265149 0.500000 0.283882
O O2 0.235957 0.754339 0.378641
O O3 0.388929 0.735973 0.306883
O O4 0.193129 0.741632 0.157695
O O5 0.792615 0.751564 0.430364
O O6 0.601122 0.752677 0.433225
O O7 0.719736 0.000000 0.492792
O O8 0.114537 0.500000 0.593673
O O9 0.115136 0.732726 0.718653
O O10 0.000000 0.739076 0.500000
O O11 0.488075 0.500000 0.667846
O O12 0.466051 0.739866 0.781233
O O13 0.569349 0.500000 0.121578
O O14 0.693353 0.268031 0.145522
O O15 0.500000 0.255451 0.000000
O O16 0.185572 0.500000 0.854874
O O17 0.162077 0.763369 0.942412
O O18 0.873851 0.000000 0.949384
O O19 0.000000 0.236735 0.000000
#
# Coordination Sequence:
#
# PCOD9151365 Si02
#       7
#     4   4   4   4   4   4   4
#     4  11  24  42  68  94 121 165 220 266 309 365
#     4  12  25  40  62  94 134 171 204 253 323 385
#     4  10  22  41  66  95 123 160 214 266 309 362
#     4  10  20  39  64  92 125 163 211 262 310 369
#     4   9  16  30  57  89 120 152 194 249 304 355
#     4  10  20  38  64  92 122 158 206 261 307 360
#     4  11  26  45  63  89 129 170 206 254 319 382
#
# _framework density 19.891231000000001
#
# number of rings (size 3 to 8) (size 9 to 14) (size 15 to 20)
#    0.000    1.571    1.429    3.429    2.000    7.143 
#    0.000    0.000    0.000    1.714    0.000    0.000 
#    0.000    0.000    0.000    0.000    0.000    0.000 
#
# Total GULP energy -156530.701673 kJ/mol
# GULP energy per Si atom -5590.382203 kJ/mol
# Density = 1.984596 g / cm^3
# Si number density = 19.891231 Si / 1000 Ang^3
#
#
#
# Elastic Constant Matrix: (Units=GPa)
#
#
# Indices 1 2 3 4 5 6 
#
# 1 52.7825 10.4471 26.8742 0.0000 1.5448 0.0000
# 2 10.4471 21.9775 20.2943 0.0000 3.5107 0.0000
# 3 26.8742 20.2943 155.5298 0.0000 2.4581 0.0000
# 4 0.0000 0.0000 0.0000 -7.5433 0.0000 16.1597
# 5 1.5448 3.5107 2.4581 0.0000 41.2888 0.0000
# 6 0.0000 0.0000 0.0000 16.1597 0.0000 4.3035
#
#
#
# Elastic Compliance Matrix: (Units=1/GPa)
#
#
# Indices 1 2 3 4 5 6 
#
# 1 0.021907 -0.007868 -0.002759 0.000000 0.000014 0.000000
# 2 -0.007868 0.055229 -0.005783 0.000000 -0.004057 0.000000
# 3 -0.002759 -0.005783 0.007659 0.000000 0.000139 0.000000
# 4 0.000000 0.000000 0.000000 -0.014658 0.000000 0.055040
# 5 0.000014 -0.004057 0.000139 0.000000 0.024556 0.000000
# 6 0.000000 0.000000 0.000000 0.055040 0.000000 0.025692
#
#
# Mechanical properties :
#
#
# Convention : Reuss Voigt Hill
#
# Bulk Modulus (GPa) = 19.23996 38.39121 28.81559
# Shear Modulus (GPa) = 29.32012 19.12142 24.22077
#
# Velocity S-wave (km/s) = 3.84347 3.10385 3.49329
# Velocity P-wave (km/s) = 5.42124 5.67341 5.54876
#
# Compressibility (1/GPa) = 0.05197515
#
# Stress axis : x y z
#
# Youngs Moduli (GPa) = 45.64679 18.10632 130.56985
#
# Poissons Ratio (x) = 0.14247 0.36023
# Poissons Ratio (y) = 0.35916 0.75507
# Poissons Ratio (z) = 0.12594 0.10471
#
# Static dielectric constant tensor:
#      x y z
#    x 1.680400 0.000000 0.007290 
#    y 0.000000 1.677220 0.000000 
#    z 0.007290 0.000000 1.691050 
# 
# From -- ./inp_files/50073.got.cif
#   From: 2010.05.17/outbox.cif.g08.bks.cpg/sg10_26_cif.got.tgz:50073.got - 2010.06.03 11:33:40.
