data_PCOD9151594
_publ_section_title
;
Structure prediction by ZEFSAII (Michael W. Deem and Ramdas Pophale) SiO2 
 PCOD9151594
Probable space group: P 2/M
;
_chemical_formula_sum "Si O2"
_cell_formula_units_Z 25
_cell_length_a 15.315977
_cell_length_b 7.602822
_cell_length_c 15.677091
_cell_angle_alpha 90.000000
_cell_angle_beta 141.581629
_cell_angle_gamma 90.000000
_cell_volume 1134.372205
_symmetry_space_group_name_H-M "P 2/M"
_symmetry_group_IT_number 10
_symmetry_cell_setting 'monoclinic'
loop_
_space_group_symop_operation_xyz
x,y,z
-x,y,-z
-x,-y,-z
x,-y,z
loop_
_atom_site_type_symbol
_atom_site_label
_atom_site_fract_x
_atom_site_fract_y
_atom_site_fract_z
Si Si1 0.844649 0.793345 0.866158
Si Si2 0.317696 0.288960 0.603295
Si Si3 0.365314 0.296168 0.947601
Si Si4 0.149645 0.203218 0.642008
Si Si5 0.640463 0.287279 0.865450
Si Si6 0.677160 0.794628 0.572151
Si Si7 0.500000 0.500000 0.500000
O O1 0.747862 0.775018 0.875257
O O2 0.766256 0.724794 0.721472
O O3 0.862399 0.000000 0.861349
O O4 0.000000 0.717587 0.000000
O O5 0.311279 0.500000 0.603941
O O6 0.246216 0.214733 0.632549
O O7 0.480247 0.231331 0.726134
O O8 0.248583 0.225196 0.462204
O O9 0.404468 0.500000 0.993556
O O10 0.233103 0.288166 0.783794
O O11 0.500000 0.217376 0.000000
O O12 0.330624 0.225898 0.015204
O O13 0.000000 0.281180 0.500000
O O14 0.127019 0.000000 0.648819
O O15 0.647514 0.500000 0.867108
O O16 0.549697 0.656746 0.472062
O O17 0.640151 0.000000 0.555971
#
# Coordination Sequence:
#
# PCOD9151594 Si02
#       7
#     4   4   4   4   4   4   1
#     4  10  24  44  63  89 129 176 218 266 331 392
#     4  11  22  41  67  96 130 169 218 270 331 399
#     4  10  20  41  65  93 128 163 211 272 327 386
#     4  11  25  42  62  94 135 176 217 266 326 392
#     4  10  22  38  64  95 124 164 212 271 326 385
#     4  11  24  41  64  95 135 171 215 278 328 387
#     4  12  22  40  62  98 126 166 218 260 334 402
#
# _framework density 22.038620999999999
#
# number of rings (size 3 to 8) (size 9 to 14) (size 15 to 20)
#    0.000    1.440    2.400    2.160    3.360    6.400 
#    0.000    4.800    0.000    0.000    0.000    0.000 
#    0.000    0.000    0.000    0.000    0.000    0.000 
#
# Total GULP energy -139400.376239 kJ/mol
# GULP energy per Si atom -5576.015050 kJ/mol
# Density = 2.198846 g / cm^3
# Si number density = 22.038621 Si / 1000 Ang^3
#
#
#
# Elastic Constant Matrix: (Units=GPa)
#
#
# Indices 1 2 3 4 5 6 
#
# 1 101.9029 -20.8936 71.6572 0.0000 -19.7063 0.0000
# 2 -20.8936 80.9120 -11.6709 0.0000 1.5252 0.0000
# 3 71.6572 -11.6709 130.7870 0.0000 -19.0942 0.0000
# 4 0.0000 0.0000 0.0000 -60.9158 0.0000 46.8084
# 5 -19.7063 1.5252 -19.0942 0.0000 47.8326 0.0000
# 6 0.0000 0.0000 0.0000 46.8084 0.0000 -14.2219
#
#
#
# Elastic Compliance Matrix: (Units=1/GPa)
#
#
# Indices 1 2 3 4 5 6 
#
# 1 0.017212 0.003132 -0.008633 0.000000 0.003545 0.000000
# 2 0.003132 0.013090 -0.000447 0.000000 0.000695 0.000000
# 3 -0.008633 -0.000447 0.012550 0.000000 0.001468 0.000000
# 4 0.000000 0.000000 0.000000 0.010736 0.000000 0.035335
# 5 0.003545 0.000695 0.001468 0.000000 0.022930 0.000000
# 6 0.000000 0.000000 0.000000 0.035335 0.000000 0.045985
#
#
# Mechanical properties :
#
#
# Convention : Reuss Voigt Hill
#
# Bulk Modulus (GPa) = 32.30187 43.53194 37.91691
# Shear Modulus (GPa) = 34.54992 12.83960 23.69476
#
# Velocity S-wave (km/s) = 3.96371 2.41632 3.28250
# Velocity P-wave (km/s) = 5.96966 5.25169 5.62215
#
# Compressibility (1/GPa) = 0.03095796
#
# Stress axis : x y z
#
# Youngs Moduli (GPa) = 58.09962 76.39153 79.67831
#
# Poissons Ratio (x) = -0.23929 0.68788
# Poissons Ratio (y) = -0.18199 0.03559
# Poissons Ratio (z) = 0.50158 0.03412
#
# Static dielectric constant tensor:
#      x y z
#    x 1.823060 0.000000 -0.003220 
#    y 0.000000 1.843590 0.000000 
#    z -0.003220 0.000000 1.895140 
# 
# From -- ./inp_files/66727.got.cif
#   From: 2010.05.17/outbox.cif.g08.bks.cpg/sg10_34_cif.got.tgz:66727.got - 2010.06.03 11:33:40.
