data_PCOD9151042
_publ_section_title
;
Structure prediction by ZEFSAII (Michael W. Deem and Ramdas Pophale) SiO2 
 PCOD9151042
Probable space group: P 2/M
;
_chemical_formula_sum "Si O2"
_cell_formula_units_Z 26
_cell_length_a 17.666387
_cell_length_b 9.920863
_cell_length_c 8.961529
_cell_angle_alpha 90.000000
_cell_angle_beta 124.828106
_cell_angle_gamma 90.000000
_cell_volume 1289.297800
_symmetry_space_group_name_H-M "P 2/M"
_symmetry_group_IT_number 10
_symmetry_cell_setting 'monoclinic'
loop_
_space_group_symop_operation_xyz
x,y,z
-x,y,-z
-x,-y,-z
x,-y,z
loop_
_atom_site_type_symbol
_atom_site_label
_atom_site_fract_x
_atom_site_fract_y
_atom_site_fract_z
Si Si1 0.179401 0.342000 0.195768
Si Si2 0.360068 0.159591 0.421987
Si Si3 0.829138 0.650675 0.480047
Si Si4 0.537468 0.158503 0.783326
Si Si5 0.000000 0.754179 0.500000
Si Si6 0.129686 0.851551 0.891041
Si Si7 0.295872 0.157942 0.840503
O O1 0.193405 0.500000 0.177425
O O2 0.274032 0.257997 0.317004
O O3 0.137188 0.331005 0.312984
O O4 0.124255 0.266463 0.004717
O O5 0.434486 0.206329 0.630297
O O6 0.409266 0.166633 0.315221
O O7 0.337612 0.000000 0.420450
O O8 0.790698 0.500000 0.423948
O O9 0.752367 0.757654 0.343479
O O10 0.916381 0.668299 0.471302
O O11 0.527466 0.000000 0.805693
O O12 0.606025 0.211636 0.988087
O O13 0.045279 0.841647 0.681686
O O14 0.223107 0.836282 0.897367
O O15 0.133153 0.000000 0.965703
O O16 0.304144 0.000000 0.808991
#
# Coordination Sequence:
#
# PCOD9151042 Si02
#       7
#     4   4   4   4   2   4   4
#     4  11  23  37  53  81 118 150 181 221 273 329
#     4   9  16  31  55  81 112 147 185 227 272 317
#     4  10  23  40  57  78 110 149 185 225 275 331
#     4   8  14  28  54  84 110 142 185 232 271 312
#     4  10  22  42  64  84 102 134 186 234 274 328
#     4  10  20  37  62  86 111 139 177 225 278 330
#     4   9  17  33  57  84 109 141 186 233 272 317
#
# _framework density 20.166015999999999
#
# number of rings (size 3 to 8) (size 9 to 14) (size 15 to 20)
#    0.000    2.462    1.538    1.846    0.000    5.538 
#    0.000    5.385    0.000    4.615    0.000    0.000 
#    0.000    0.000    0.000    0.000    0.000    0.000 
#
# Total GULP energy -145025.294958 kJ/mol
# GULP energy per Si atom -5577.895960 kJ/mol
# Density = 2.012012 g / cm^3
# Si number density = 20.166016 Si / 1000 Ang^3
#
#
#
# Elastic Constant Matrix: (Units=GPa)
#
#
# Indices 1 2 3 4 5 6 
#
# 1 24.4680 22.1801 21.2499 0.0000 2.2441 0.0000
# 2 22.1801 105.7474 58.8320 0.0000 -9.4612 0.0000
# 3 21.2499 58.8320 135.4677 0.0000 18.0993 0.0000
# 4 0.0000 0.0000 0.0000 82.9222 0.0000 42.1502
# 5 2.2441 -9.4612 18.0993 0.0000 26.9614 0.0000
# 6 0.0000 0.0000 0.0000 42.1502 0.0000 51.1592
#
#
#
# Elastic Compliance Matrix: (Units=1/GPa)
#
#
# Indices 1 2 3 4 5 6 
#
# 1 0.053164 -0.009801 -0.003331 0.000000 -0.005628 0.000000
# 2 -0.009801 0.016519 -0.007162 0.000000 0.011421 0.000000
# 3 -0.003331 -0.007162 0.012428 0.000000 -0.010579 0.000000
# 4 0.000000 0.000000 0.000000 0.020749 0.000000 -0.017095
# 5 -0.005628 0.011421 -0.010579 0.000000 0.048668 0.000000
# 6 0.000000 0.000000 0.000000 -0.017095 0.000000 0.033632
#
#
# Mechanical properties :
#
#
# Convention : Reuss Voigt Hill
#
# Bulk Modulus (GPa) = 24.08378 52.24523 38.16450
# Shear Modulus (GPa) = 20.86907 43.10330 31.98619
#
# Velocity S-wave (km/s) = 3.22042 4.62824 3.98696
# Velocity P-wave (km/s) = 5.07906 7.38408 6.33725
#
# Compressibility (1/GPa) = 0.04152173
#
# Stress axis : x y z
#
# Youngs Moduli (GPa) = 18.80988 60.53714 80.46166
#
# Poissons Ratio (x) = 0.59334 0.26801
# Poissons Ratio (y) = 0.18436 0.57629
# Poissons Ratio (z) = 0.06265 0.43359
#
# Static dielectric constant tensor:
#      x y z
#    x 1.736620 0.000000 -0.005710 
#    y 0.000000 1.686330 0.000000 
#    z -0.005710 0.000000 1.755540 
# 
# From -- ./inp_files/31644.got.cif
#   From: 2010.05.17/outbox.cif.g08.bks.cpg/sg10_16_cif.got.tgz:31644.got - 2010.06.03 11:33:40.
