data_PCOD9151273
_publ_section_title
;
Structure prediction by ZEFSAII (Michael W. Deem and Ramdas Pophale) SiO2 
 PCOD9151273
Probable space group: P 2/M
;
_chemical_formula_sum "Si O2"
_cell_formula_units_Z 18
_cell_length_a 5.035145
_cell_length_b 21.233475
_cell_length_c 7.723232
_cell_angle_alpha 90.000000
_cell_angle_beta 72.732877
_cell_angle_gamma 90.000000
_cell_volume 788.504647
_symmetry_space_group_name_H-M "P 2/M"
_symmetry_group_IT_number 10
_symmetry_cell_setting 'monoclinic'
loop_
_space_group_symop_operation_xyz
x,y,z
-x,y,-z
-x,-y,-z
x,-y,z
loop_
_atom_site_type_symbol
_atom_site_label
_atom_site_fract_x
_atom_site_fract_y
_atom_site_fract_z
Si Si1 0.905756 0.637276 0.716821
Si Si2 0.805452 0.500000 0.871004
Si Si3 0.800872 0.929142 0.873797
Si Si4 0.186820 0.170441 0.617746
Si Si5 0.398322 0.711084 0.722345
O O1 0.840893 0.564767 0.761105
O O2 0.654588 0.687069 0.785157
O O3 0.000000 0.642150 0.500000
O O4 0.161163 0.659135 0.783977
O O5 0.500000 0.500000 0.000000
O O6 0.000000 0.500000 0.000000
O O7 0.975334 0.884135 0.715025
O O8 0.756515 0.000000 0.809633
O O9 0.500000 0.905974 0.000000
O O10 0.000000 0.934165 0.000000
O O11 0.500000 0.148935 0.500000
O O12 0.257542 0.220178 0.757140
O O13 0.000000 0.202297 0.500000
O O14 0.500000 0.711481 0.500000
#
# Coordination Sequence:
#
# PCOD9151273 Si02
#       5
#     4   2   4   4   4
#     4  10  20  38  62  82 108 151 196 229 280 359
#     4  12  25  40  57  86 122 150 186 244 301 338
#     4  10  22  40  59  84 124 169 206 245 299 364
#     4  11  21  36  62  93 120 151 199 258 309 352
#     4   9  18  34  58  86 112 143 189 245 291 340
#
# _framework density 22.828021
#
# number of rings (size 3 to 8) (size 9 to 14) (size 15 to 20)
#    0.000    1.778    0.000    6.333    0.000    0.889 
#    0.000    8.889    0.000    0.000    0.000    0.000 
#    0.000    0.000    0.000    0.000    0.000    0.000 
#
# Total GULP energy -100487.953974 kJ/mol
# GULP energy per Si atom -5582.664110 kJ/mol
# Density = 2.277606 g / cm^3
# Si number density = 22.828021 Si / 1000 Ang^3
#
#
#
# Elastic Constant Matrix: (Units=GPa)
#
#
# Indices 1 2 3 4 5 6 
#
# 1 157.6317 30.7180 27.1940 0.0000 -37.0437 0.0000
# 2 30.7180 135.8098 42.0858 0.0000 -35.1720 0.0000
# 3 27.1940 42.0858 61.7545 0.0000 -29.8563 0.0000
# 4 0.0000 0.0000 0.0000 -118.6818 0.0000 11.4043
# 5 -37.0437 -35.1720 -29.8563 0.0000 39.3388 0.0000
# 6 0.0000 0.0000 0.0000 11.4043 0.0000 35.8435
#
#
#
# Elastic Compliance Matrix: (Units=1/GPa)
#
#
# Indices 1 2 3 4 5 6 
#
# 1 0.008151 0.000169 0.000125 0.000000 0.007922 0.000000
# 2 0.000169 0.010176 -0.004002 0.000000 0.006220 0.000000
# 3 0.000125 -0.004002 0.027157 0.000000 0.017151 0.000000
# 4 0.000000 0.000000 0.000000 -0.008176 0.000000 0.002601
# 5 0.007922 0.006220 0.017151 0.000000 0.051457 0.000000
# 6 0.000000 0.000000 0.000000 0.002601 0.000000 0.027071
#
#
# Mechanical properties :
#
#
# Convention : Reuss Voigt Hill
#
# Bulk Modulus (GPa) = 26.26839 61.68796 43.97817
# Shear Modulus (GPa) = 36.78019 8.31334 22.54676
#
# Velocity S-wave (km/s) = 4.01831 1.91040 3.14615
# Velocity P-wave (km/s) = 5.74989 5.65223 5.70127
#
# Compressibility (1/GPa) = 0.03806857
#
# Stress axis : x y z
#
# Youngs Moduli (GPa) = 122.68518 98.26946 36.82233
#
# Poissons Ratio (x) = -0.01662 -0.00461
# Poissons Ratio (y) = -0.02075 0.14738
# Poissons Ratio (z) = -0.01538 0.39331
#
# Static dielectric constant tensor:
#      x y z
#    x 1.823980 0.000000 -0.004890 
#    y 0.000000 2.028210 0.000000 
#    z -0.004890 0.000000 1.922550 
# 
# From -- ./inp_files/14926.got.cif
#   From: 2010.05.17/outbox.cif.g08.bks.cpg/sg10_8_cif.got.tgz:14926.got - 2010.06.03 11:33:40.
