data_PCOD9151513
_publ_section_title
;
Structure prediction by ZEFSAII (Michael W. Deem and Ramdas Pophale) SiO2 
 PCOD9151513
Probable space group: P 2/M
;
_chemical_formula_sum "Si O2"
_cell_formula_units_Z 28
_cell_length_a 24.543136
_cell_length_b 9.346674
_cell_length_c 22.107704
_cell_angle_alpha 90.000000
_cell_angle_beta 17.359451
_cell_angle_gamma 90.000000
_cell_volume 1513.140420
_symmetry_space_group_name_H-M "P 2/M"
_symmetry_group_IT_number 10
_symmetry_cell_setting 'monoclinic'
loop_
_space_group_symop_operation_xyz
x,y,z
-x,y,-z
-x,-y,-z
x,-y,z
loop_
_atom_site_type_symbol
_atom_site_label
_atom_site_fract_x
_atom_site_fract_y
_atom_site_fract_z
Si Si1 0.345266 0.829921 0.876270
Si Si2 0.670552 0.670491 0.980732
Si Si3 0.212279 0.664027 0.797349
Si Si4 0.423731 0.832513 0.147952
Si Si5 0.681218 0.830616 0.430372
Si Si6 0.999781 0.166139 0.428018
Si Si7 0.089730 0.830295 0.040636
O O1 0.516476 0.801734 0.650584
O O2 0.165359 0.797820 0.026963
O O3 0.345924 0.000000 0.890147
O O4 0.355019 0.737891 0.926055
O O5 0.666375 0.500000 0.986734
O O6 0.860902 0.729538 0.752286
O O7 0.518006 0.733555 0.097298
O O8 0.267754 0.500000 0.745741
O O9 0.323584 0.742437 0.626647
O O10 0.205979 0.746989 0.867178
O O11 0.000000 0.666619 0.000000
O O12 0.206161 0.816821 0.376844
O O13 0.467479 0.000000 0.113857
O O14 0.500000 0.800714 0.000000
O O15 0.679213 0.000000 0.417995
O O16 0.876103 0.799246 0.256124
O O17 0.000000 0.189737 0.500000
O O18 0.055657 0.000000 0.358885
O O19 0.116346 0.000000 0.002549
#
# Coordination Sequence:
#
# PCOD9151513 Si02
#       7
#     4   4   4   4   4   4   4
#     4  10  22  39  57  78 107 148 200 242 276 334
#     4  12  26  40  57  87 128 160 189 236 296 359
#     4   9  17  30  51  80 111 143 178 223 283 348
#     4  10  20  39  67  92 115 149 195 240 282 335
#     4   9  18  34  56  79 105 140 186 239 287 329
#     4  10  20  39  67  92 115 149 195 240 282 335
#     4   9  18  34  56  79 105 140 186 239 287 329
#
# _framework density 18.504560999999999
#
# number of rings (size 3 to 8) (size 9 to 14) (size 15 to 20)
#    0.000    2.143    1.429    1.714    0.000    5.714 
#    0.000    5.714    0.000    0.000    0.000    0.000 
#    0.000    0.000    0.000    0.000    0.000    0.000 
#
# Total GULP energy -156408.915648 kJ/mol
# GULP energy per Si atom -5586.032702 kJ/mol
# Density = 1.846244 g / cm^3
# Si number density = 18.504561 Si / 1000 Ang^3
#
#
#
# Elastic Constant Matrix: (Units=GPa)
#
#
# Indices 1 2 3 4 5 6 
#
# 1 101.5510 66.5785 22.9420 0.0000 3.5994 0.0000
# 2 66.5785 81.4785 30.3566 0.0000 8.5602 0.0000
# 3 22.9420 30.3566 49.2902 0.0000 -5.1891 0.0000
# 4 0.0000 0.0000 0.0000 3.5342 0.0000 -17.8965
# 5 3.5994 8.5602 -5.1891 0.0000 22.5902 0.0000
# 6 0.0000 0.0000 0.0000 -17.8965 0.0000 -8.5463
#
#
#
# Elastic Compliance Matrix: (Units=1/GPa)
#
#
# Indices 1 2 3 4 5 6 
#
# 1 0.021586 -0.018809 0.001972 0.000000 0.004141 0.000000
# 2 -0.018809 0.034083 -0.013610 0.000000 -0.013045 0.000000
# 3 0.001972 -0.013610 0.028962 0.000000 0.011496 0.000000
# 4 0.000000 0.000000 0.000000 0.024384 0.000000 -0.051061
# 5 0.004141 -0.013045 0.011496 0.000000 0.051191 0.000000
# 6 0.000000 0.000000 0.000000 -0.051061 0.000000 -0.010084
#
#
# Mechanical properties :
#
#
# Convention : Reuss Voigt Hill
#
# Bulk Modulus (GPa) = 42.12392 52.45266 47.28829
# Shear Modulus (GPa) = 22.83852 11.01180 16.92516
#
# Velocity S-wave (km/s) = 3.51694 2.44208 3.02760
# Velocity P-wave (km/s) = 6.26940 6.02985 6.15079
#
# Compressibility (1/GPa) = 0.02373948
#
# Stress axis : x y z
#
# Youngs Moduli (GPa) = 46.32619 29.33978 34.52771
#
# Poissons Ratio (x) = 0.55184 -0.06811
# Poissons Ratio (y) = 0.87133 0.46992
# Poissons Ratio (z) = -0.09138 0.39932
#
# Static dielectric constant tensor:
#      x y z
#    x 1.623340 0.000000 -0.031070 
#    y 0.000000 1.612420 0.000000 
#    z -0.031070 0.000000 1.637640 
# 
# From -- ./inp_files/86484.got.cif
#   From: 2010.05.17/outbox.cif.g08.bks.cpg/sg10_44_cif.got.tgz:86484.got - 2010.06.03 11:33:40.
