data_PCOD9151802
_publ_section_title
;
Structure prediction by ZEFSAII (Michael W. Deem and Ramdas Pophale) SiO2 
 PCOD9151802
Probable space group: P 2/M
;
_chemical_formula_sum "Si O2"
_cell_formula_units_Z 28
_cell_length_a 15.481498
_cell_length_b 8.677291
_cell_length_c 12.856749
_cell_angle_alpha 90.000000
_cell_angle_beta 105.506993
_cell_angle_gamma 90.000000
_cell_volume 1664.271291
_symmetry_space_group_name_H-M "P 2/M"
_symmetry_group_IT_number 10
_symmetry_cell_setting 'monoclinic'
loop_
_space_group_symop_operation_xyz
x,y,z
-x,y,-z
-x,-y,-z
x,-y,z
loop_
_atom_site_type_symbol
_atom_site_label
_atom_site_fract_x
_atom_site_fract_y
_atom_site_fract_z
Si Si1 0.908027 0.184577 0.247265
Si Si2 0.903456 0.684624 0.015340
Si Si3 0.223196 0.815807 0.201096
Si Si4 0.110976 0.185865 0.371433
Si Si5 0.597533 0.313658 0.658747
Si Si6 0.603146 0.686997 0.417974
Si Si7 0.791888 0.684930 0.394490
O O1 0.893563 0.250091 0.127697
O O2 0.836222 0.246000 0.306231
O O3 0.007824 0.229490 0.318277
O O4 0.905187 0.000000 0.242672
O O5 0.902148 0.500000 0.018343
O O6 0.827081 0.743892 0.913232
O O7 0.000000 0.734617 0.000000
O O8 0.168874 0.770578 0.288497
O O9 0.324528 0.758740 0.247790
O O10 0.220215 0.000000 0.192532
O O11 0.151191 0.262702 0.486839
O O12 0.115375 0.000000 0.384692
O O13 0.602824 0.500000 0.666279
O O14 0.495574 0.265273 0.651591
O O15 0.612931 0.268902 0.542551
O O16 0.602747 0.500000 0.417163
O O17 0.689550 0.738319 0.381754
O O18 0.792643 0.500000 0.388580
#
# Coordination Sequence:
#
# PCOD9151802 Si02
#       7
#     4   4   4   4   4   4   4
#     4  11  23  39  55  74 108 150 183 217 267 323
#     4  11  23  38  58  81 104 136 183 230 265 308
#     4  11  21  34  54  81 112 143 175 218 271 320
#     4  10  21  35  51  75 110 149 180 210 264 326
#     4   9  16  32  54  78 106 141 180 218 266 319
#     4   8  16  30  52  78 108 141 175 219 270 318
#     4  11  21  34  54  81 110 143 183 225 265 312
#
# _framework density 16.824179999999998
#
# number of rings (size 3 to 8) (size 9 to 14) (size 15 to 20)
#    0.000    1.857    2.857    3.000    0.000    4.000 
#    0.000    2.857    0.000    0.857    0.000    6.000 
#    0.000    0.000    0.000    0.000    0.000    0.000 
#
# Total GULP energy -156328.207993 kJ/mol
# GULP energy per Si atom -5583.150285 kJ/mol
# Density = 1.678589 g / cm^3
# Si number density = 16.824180 Si / 1000 Ang^3
#
#
#
# Elastic Constant Matrix: (Units=GPa)
#
#
# Indices 1 2 3 4 5 6 
#
# 1 156.5693 40.0513 103.3874 0.0000 10.3978 0.0000
# 2 40.0513 35.4985 40.9551 0.0000 -0.3712 0.0000
# 3 103.3874 40.9551 129.9538 0.0000 0.0384 0.0000
# 4 0.0000 0.0000 0.0000 29.6184 0.0000 -0.6339
# 5 10.3978 -0.3712 0.0384 0.0000 29.7180 0.0000
# 6 0.0000 0.0000 0.0000 -0.6339 0.0000 25.5178
#
#
#
# Elastic Compliance Matrix: (Units=1/GPa)
#
#
# Indices 1 2 3 4 5 6 
#
# 1 0.014675 -0.004939 -0.010117 0.000000 -0.005183 0.000000
# 2 -0.004939 0.045937 -0.010548 0.000000 0.002316 0.000000
# 3 -0.010117 -0.010548 0.019067 0.000000 0.003383 0.000000
# 4 0.000000 0.000000 0.000000 0.033781 0.000000 0.000839
# 5 -0.005183 0.002316 0.003383 0.000000 0.035488 0.000000
# 6 0.000000 0.000000 0.000000 0.000839 0.000000 0.039209
#
#
# Mechanical properties :
#
#
# Convention : Reuss Voigt Hill
#
# Bulk Modulus (GPa) = 35.12456 76.75657 55.94056
# Shear Modulus (GPa) = 20.09197 26.14603 23.11900
#
# Velocity S-wave (km/s) = 3.45951 3.94645 3.71098
# Velocity P-wave (km/s) = 6.07292 8.15400 7.18917
#
# Compressibility (1/GPa) = 0.02847011
#
# Stress axis : x y z
#
# Youngs Moduli (GPa) = 68.14194 21.76905 52.44662
#
# Poissons Ratio (x) = 0.10753 0.53060
# Poissons Ratio (y) = 0.33659 0.55321
# Poissons Ratio (z) = 0.68939 0.22962
#
# Static dielectric constant tensor:
#      x y z
#    x 1.578220 0.000000 0.004860 
#    y 0.000000 1.566010 0.000000 
#    z 0.004860 0.000000 1.526690 
# 
# From -- ./inp_files/49083.got.cif
#   From: 2010.05.17/outbox.cif.g08.bks.cpg/sg10_25_cif.got.tgz:49083.got - 2010.06.03 11:33:40.
