data_PCOD9151888
_publ_section_title
;
Structure prediction by ZEFSAII (Michael W. Deem and Ramdas Pophale) SiO2 
 PCOD9151888
Probable space group: P 2/M
;
_chemical_formula_sum "Si O2"
_cell_formula_units_Z 30
_cell_length_a 15.211308
_cell_length_b 7.567609
_cell_length_c 11.266516
_cell_angle_alpha 90.000000
_cell_angle_beta 93.554740
_cell_angle_gamma 90.000000
_cell_volume 1294.429801
_symmetry_space_group_name_H-M "P 2/M"
_symmetry_group_IT_number 10
_symmetry_cell_setting 'monoclinic'
loop_
_space_group_symop_operation_xyz
x,y,z
-x,y,-z
-x,-y,-z
x,-y,z
loop_
_atom_site_type_symbol
_atom_site_label
_atom_site_fract_x
_atom_site_fract_y
_atom_site_fract_z
Si Si1 0.914020 0.000000 0.299523
Si Si2 0.006321 0.710751 0.141762
Si Si3 0.651675 0.292457 0.197395
Si Si4 0.319674 0.797900 0.440966
Si Si5 0.633113 0.711947 0.935546
Si Si6 0.521593 0.204244 0.694151
Si Si7 0.194368 0.701083 0.636003
Si Si8 0.791847 0.288910 0.793355
O O1 0.880672 0.843226 0.389690
O O2 0.944245 0.842090 0.208584
O O3 0.990961 0.500000 0.163371
O O4 0.106617 0.755500 0.186982
O O5 0.000000 0.735008 0.000000
O O6 0.667960 0.500000 0.180741
O O7 0.574886 0.276708 0.288054
O O8 0.744803 0.221632 0.251294
O O9 0.619681 0.220822 0.067795
O O10 0.412431 0.721296 0.400337
O O11 0.264187 0.698397 0.534619
O O12 0.257921 0.800037 0.319517
O O13 0.333104 0.000000 0.482805
O O14 0.617534 0.500000 0.933377
O O15 0.572447 0.781715 0.824679
O O16 0.733703 0.748190 0.905394
O O17 0.511346 0.000000 0.663835
O O18 0.165435 0.500000 0.654926
O O19 0.785243 0.500000 0.773611
#
# Coordination Sequence:
#
# PCOD9151888 Si02
#       8
#     2   4   4   4   4   4   4   4
#     4  12  25  44  65  97 129 166 206 257 324 370
#     4  10  23  43  68 100 135 166 205 253 306 377
#     4  10  22  37  57  86 121 163 210 255 309 372
#     4  10  21  41  62  88 123 163 213 261 310 369
#     4   9  18  35  58  85 122 163 201 248 307 370
#     4  10  21  35  56  88 125 160 203 261 307 360
#     4  11  25  44  65  90 123 168 215 262 312 372
#     4   9  19  37  64  92 120 163 207 253 310 369
#
# _framework density 23.176227999999998
#
# number of rings (size 3 to 8) (size 9 to 14) (size 15 to 20)
#    0.000    2.000    0.667    1.800    3.733    4.267 
#    0.000    4.000    0.000    2.400    0.000    0.000 
#    0.000    0.000    0.000    0.000    0.000    0.000 
#
# Total GULP energy -167097.127774 kJ/mol
# GULP energy per Si atom -5569.904259 kJ/mol
# Density = 2.312348 g / cm^3
# Si number density = 23.176228 Si / 1000 Ang^3
#
#
#
# Elastic Constant Matrix: (Units=GPa)
#
#
# Indices 1 2 3 4 5 6 
#
# 1 64.2266 20.6519 26.2574 0.0000 -12.5506 0.0000
# 2 20.6519 100.4268 14.0090 0.0000 -9.4549 0.0000
# 3 26.2574 14.0090 55.9195 0.0000 -22.5246 0.0000
# 4 0.0000 0.0000 0.0000 33.0654 0.0000 -14.1474
# 5 -12.5506 -9.4549 -22.5246 0.0000 32.4896 0.0000
# 6 0.0000 0.0000 0.0000 -14.1474 0.0000 -3.7164
#
#
#
# Elastic Compliance Matrix: (Units=1/GPa)
#
#
# Indices 1 2 3 4 5 6 
#
# 1 0.020094 -0.002870 -0.008222 0.000000 0.001227 0.000000
# 2 -0.002870 0.010794 -0.000746 0.000000 0.001515 0.000000
# 3 -0.008222 -0.000746 0.028531 0.000000 0.016387 0.000000
# 4 0.000000 0.000000 0.000000 0.011505 0.000000 -0.043796
# 5 0.001227 0.001515 0.016387 0.000000 0.043055 0.000000
# 6 0.000000 0.000000 0.000000 -0.043796 0.000000 -0.102359
#
#
# Mechanical properties :
#
#
# Convention : Reuss Voigt Hill
#
# Bulk Modulus (GPa) = 27.97737 38.04548 33.01143
# Shear Modulus (GPa) = 105.90903 23.01137 64.46020
#
# Velocity S-wave (km/s) = 6.76731 3.15443 5.27953
# Velocity P-wave (km/s) = 8.55335 5.45148 7.17211
#
# Compressibility (1/GPa) = 0.03574317
#
# Stress axis : x y z
#
# Youngs Moduli (GPa) = 49.76683 92.64062 35.04922
#
# Poissons Ratio (x) = 0.26585 0.28818
# Poissons Ratio (y) = 0.14281 0.02616
# Poissons Ratio (z) = 0.40919 0.06915
#
# Static dielectric constant tensor:
#      x y z
#    x 1.922710 0.000000 0.016330 
#    y 0.000000 1.859900 0.000000 
#    z 0.016330 0.000000 1.896190 
# 
# From -- ./inp_files/49306.got.cif
#   From: 2010.05.17/outbox.cif.g08.bks.cpg/sg10_25_cif.got.tgz:49306.got - 2010.06.03 11:33:40.
