data_PCOD9151375
_publ_section_title
;
Structure prediction by ZEFSAII (Michael W. Deem and Ramdas Pophale) SiO2 
 PCOD9151375
Probable space group: P 2/M
;
_chemical_formula_sum "Si O2"
_cell_formula_units_Z 18
_cell_length_a 11.294080
_cell_length_b 11.073119
_cell_length_c 9.233758
_cell_angle_alpha 90.000000
_cell_angle_beta 136.090921
_cell_angle_gamma 90.000000
_cell_volume 800.858517
_symmetry_space_group_name_H-M "P 2/M"
_symmetry_group_IT_number 10
_symmetry_cell_setting 'monoclinic'
loop_
_space_group_symop_operation_xyz
x,y,z
-x,y,-z
-x,-y,-z
x,-y,z
loop_
_atom_site_type_symbol
_atom_site_label
_atom_site_fract_x
_atom_site_fract_y
_atom_site_fract_z
Si Si1 0.718534 0.863679 0.954612
Si Si2 0.500000 0.734901 0.000000
Si Si3 0.789965 0.365547 0.828867
Si Si4 0.923050 0.875614 0.591324
Si Si5 0.725270 0.629658 0.442171
O O1 0.919845 0.873989 0.161188
O O2 0.658964 0.000000 0.860350
O O3 0.630156 0.821300 0.026817
O O4 0.709440 0.749766 0.838440
O O5 0.421529 0.651602 0.804704
O O6 0.765352 0.500000 0.875988
O O7 0.700182 0.371839 0.592661
O O8 0.000000 0.352006 0.000000
O O9 0.831719 0.750239 0.519051
O O10 0.000000 0.881905 0.500000
O O11 0.819931 0.000000 0.525499
O O12 0.809177 0.500000 0.482517
#
# Coordination Sequence:
#
# PCOD9151375 Si02
#       5
#     4   2   4   4   4
#     4  11  24  42  68  98 131 171 216 267 324 385
#     4  12  26  44  62  96 136 176 214 264 320 390
#     4  10  22  42  68  97 130 167 214 272 325 376
#     4  10  20  38  64  96 127 166 216 272 323 373
#     4  11  24  42  65  96 130 171 215 265 323 383
#
# _framework density 22.475881000000001
#
# number of rings (size 3 to 8) (size 9 to 14) (size 15 to 20)
#    0.000    1.333    4.444    0.667    0.000    5.333 
#    0.000    3.333    0.000    0.000    0.000    0.000 
#    0.000    0.000    0.000    0.000    0.000    0.000 
#
# Total GULP energy -100277.401520 kJ/mol
# GULP energy per Si atom -5570.966751 kJ/mol
# Density = 2.242473 g / cm^3
# Si number density = 22.475881 Si / 1000 Ang^3
#
#
#
# Elastic Constant Matrix: (Units=GPa)
#
#
# Indices 1 2 3 4 5 6 
#
# 1 49.5263 65.6789 20.6299 0.0000 -10.8957 0.0000
# 2 65.6789 266.1175 47.9182 0.0000 -14.7423 0.0000
# 3 20.6299 47.9182 109.6158 0.0000 -16.7866 0.0000
# 4 0.0000 0.0000 0.0000 29.3028 0.0000 -10.1886
# 5 -10.8957 -14.7423 -16.7866 0.0000 22.0120 0.0000
# 6 0.0000 0.0000 0.0000 -10.1886 0.0000 15.9005
#
#
#
# Elastic Compliance Matrix: (Units=1/GPa)
#
#
# Indices 1 2 3 4 5 6 
#
# 1 0.032616 -0.007229 -0.001412 0.000000 0.010226 0.000000
# 2 -0.007229 0.005728 -0.001250 0.000000 -0.000695 0.000000
# 3 -0.001412 -0.001250 0.010982 0.000000 0.006839 0.000000
# 4 0.000000 0.000000 0.000000 0.043909 0.000000 0.028136
# 5 0.010226 -0.000695 0.006839 0.000000 0.055241 0.000000
# 6 0.000000 0.000000 0.000000 0.028136 0.000000 0.080920
#
#
# Mechanical properties :
#
#
# Convention : Reuss Voigt Hill
#
# Bulk Modulus (GPa) = 33.84777 77.07929 55.46353
# Shear Modulus (GPa) = 19.30297 32.84525 26.07411
#
# Velocity S-wave (km/s) = 2.93376 3.82691 3.40971
# Velocity P-wave (km/s) = 5.15444 7.34137 6.34287
#
# Compressibility (1/GPa) = 0.02954404
#
# Stress axis : x y z
#
# Youngs Moduli (GPa) = 30.66000 174.56686 91.05497
#
# Poissons Ratio (x) = 1.26193 0.12859
# Poissons Ratio (y) = 0.22164 0.11383
# Poissons Ratio (z) = 0.04330 0.21823
#
# Static dielectric constant tensor:
#      x y z
#    x 1.864270 0.000000 0.027620 
#    y 0.000000 2.068680 0.000000 
#    z 0.027620 0.000000 1.869720 
# 
# From -- ./inp_files/24245.got.cif
#   From: 2010.05.17/outbox.cif.g08.bks.cpg/sg10_13_cif.got.tgz:24245.got - 2010.06.03 11:33:40.
