data_PCOD9151357
_publ_section_title
;
Structure prediction by ZEFSAII (Michael W. Deem and Ramdas Pophale) SiO2 
 PCOD9151357
Probable space group: P 2/M
;
_chemical_formula_sum "Si O2"
_cell_formula_units_Z 18
_cell_length_a 20.523385
_cell_length_b 9.126107
_cell_length_c 5.091397
_cell_angle_alpha 90.000000
_cell_angle_beta 97.316077
_cell_angle_gamma 90.000000
_cell_volume 945.847978
_symmetry_space_group_name_H-M "P 2/M"
_symmetry_group_IT_number 10
_symmetry_cell_setting 'monoclinic'
loop_
_space_group_symop_operation_xyz
x,y,z
-x,y,-z
-x,-y,-z
x,-y,z
loop_
_atom_site_type_symbol
_atom_site_label
_atom_site_fract_x
_atom_site_fract_y
_atom_site_fract_z
Si Si1 0.925336 0.328425 0.860126
Si Si2 0.546369 0.500000 0.773254
Si Si3 0.277774 0.828012 0.544290
Si Si4 0.327359 0.665643 0.064039
Si Si5 0.128327 0.172411 0.666782
O O1 0.908414 0.500000 0.827995
O O2 0.915947 0.250200 0.576460
O O3 0.881616 0.249141 0.058460
O O4 0.000000 0.317231 0.000000
O O5 0.500000 0.500000 0.500000
O O6 0.597313 0.636114 0.811455
O O7 0.500000 0.500000 0.000000
O O8 0.289651 0.749633 0.273872
O O9 0.202911 0.812779 0.604026
O O10 0.292364 0.000000 0.528343
O O11 0.321536 0.751299 0.789662
O O12 0.300147 0.500000 0.014141
O O13 0.112768 0.000000 0.680384
#
# Coordination Sequence:
#
# PCOD9151357 Si02
#       5
#     4   2   4   4   4
#     4  11  24  41  59  84 115 153 197 250 303 347
#     4  10  20  38  64  90 120 154 197 242 275 330
#     4  11  22  39  58  87 126 153 189 244 304 346
#     4  10  22  36  62  91 112 158 199 235 280 349
#     4  11  24  39  60  86 115 157 195 241 299 358
#
# _framework density 19.030542000000001
#
# number of rings (size 3 to 8) (size 9 to 14) (size 15 to 20)
#    0.667    0.667    0.000    6.000    0.000   13.333 
#    0.000    0.000    0.000   13.333    0.000    0.000 
#    0.000    0.000    0.000    0.000    0.000    0.000 
#
# Total GULP energy -100588.591340 kJ/mol
# GULP energy per Si atom -5588.255074 kJ/mol
# Density = 1.898723 g / cm^3
# Si number density = 19.030542 Si / 1000 Ang^3
#
#
#
# Elastic Constant Matrix: (Units=GPa)
#
#
# Indices 1 2 3 4 5 6 
#
# 1 38.6435 33.2705 0.0325 0.0000 0.4466 0.0000
# 2 33.2705 105.3301 10.9149 0.0000 -5.6130 0.0000
# 3 0.0325 10.9149 68.7242 0.0000 -4.7639 0.0000
# 4 0.0000 0.0000 0.0000 330.9714 0.0000 -47.3195
# 5 0.4466 -5.6130 -4.7639 0.0000 40.9900 0.0000
# 6 0.0000 0.0000 0.0000 -47.3195 0.0000 -5.2211
#
#
#
# Elastic Compliance Matrix: (Units=1/GPa)
#
#
# Indices 1 2 3 4 5 6 
#
# 1 0.035891 -0.011608 0.001703 0.000000 -0.001783 0.000000
# 2 -0.011608 0.013462 -0.002012 0.000000 0.001736 0.000000
# 3 0.001703 -0.002012 0.014970 0.000000 0.001446 0.000000
# 4 0.000000 0.000000 0.000000 0.001316 0.000000 -0.011928
# 5 -0.001783 0.001736 0.001446 0.000000 0.024821 0.000000
# 6 0.000000 0.000000 0.000000 -0.011928 0.000000 -0.083427
#
#
# Mechanical properties :
#
#
# Convention : Reuss Voigt Hill
#
# Bulk Modulus (GPa) = 24.69879 33.45927 29.07903
# Shear Modulus (GPa) = 112.70561 84.58006 98.64283
#
# Velocity S-wave (km/s) = 7.70403 6.67389 7.20739
# Velocity P-wave (km/s) = 9.59911 8.77541 9.19649
#
# Compressibility (1/GPa) = 0.04048781
#
# Stress axis : x y z
#
# Youngs Moduli (GPa) = 27.86214 74.28485 66.80075
#
# Poissons Ratio (x) = 0.86232 -0.11377
# Poissons Ratio (y) = 0.32343 0.13442
# Poissons Ratio (z) = -0.04745 0.14947
#
# Static dielectric constant tensor:
#      x y z
#    x 1.665610 0.000000 0.012410 
#    y 0.000000 1.666130 0.000000 
#    z 0.012410 0.000000 1.624240 
# 
# From -- ./inp_files/10596.got.cif
#   From: 2010.05.17/outbox.cif.g08.bks.cpg/sg10_6_cif.got.tgz:10596.got - 2010.06.03 11:33:40.
