data_PCOD9151739
_publ_section_title
;
Structure prediction by ZEFSAII (Michael W. Deem and Ramdas Pophale) SiO2 
 PCOD9151739
Probable space group: P 2/M
;
_chemical_formula_sum "Si O2"
_cell_formula_units_Z 28
_cell_length_a 7.490757
_cell_length_b 33.640750
_cell_length_c 5.324264
_cell_angle_alpha 90.000000
_cell_angle_beta 75.572275
_cell_angle_gamma 90.000000
_cell_volume 1299.373072
_symmetry_space_group_name_H-M "P 2/M"
_symmetry_group_IT_number 10
_symmetry_cell_setting 'monoclinic'
loop_
_space_group_symop_operation_xyz
x,y,z
-x,y,-z
-x,-y,-z
x,-y,z
loop_
_atom_site_type_symbol
_atom_site_label
_atom_site_fract_x
_atom_site_fract_y
_atom_site_fract_z
Si Si1 0.685547 0.215525 0.278693
Si Si2 0.220259 0.086259 0.428656
Si Si3 0.000000 0.748383 0.500000
Si Si4 0.797079 0.290050 0.969002
Si Si5 0.378209 0.000000 0.294306
Si Si6 0.775935 0.869881 0.067235
Si Si7 0.372228 0.457240 0.794165
Si Si8 0.624574 0.371133 0.204816
O O1 0.500000 0.211913 0.500000
O O2 0.872691 0.222635 0.376043
O O3 0.670608 0.255062 0.115474
O O4 0.713543 0.175306 0.117246
O O5 0.285890 0.102872 0.674741
O O6 0.000000 0.090331 0.500000
O O7 0.264896 0.040679 0.353481
O O8 0.289993 0.112620 0.173161
O O9 0.159145 0.718389 0.336759
O O10 0.741120 0.332311 0.098060
O O11 0.000000 0.281600 0.000000
O O12 0.500000 0.000000 0.500000
O O13 0.500000 0.000000 0.000000
O O14 0.000000 0.870285 0.000000
O O15 0.500000 0.457356 0.500000
O O16 0.270208 0.500000 0.830781
O O17 0.274597 0.414179 0.814495
O O18 0.500000 0.457420 0.000000
O O19 0.500000 0.365926 0.500000
O O20 0.500000 0.374388 0.000000
#
# Coordination Sequence:
#
# PCOD9151739 Si02
#       8
#     4   4   2   4   2   4   4   4
#     4  11  25  41  64  93 124 169 213 264 321 379
#     4  10  23  43  69  93 127 169 209 250 308 375
#     4  10  24  42  62  84 125 167 216 262 312 382
#     4  10  23  39  57  82 120 163 206 254 315 371
#     4  12  25  42  67  96 136 168 206 268 311 362
#     4  10  22  41  67  95 125 164 208 260 310 371
#     4   8  14  27  47  76 110 144 185 243 309 365
#     4  10  21  34  57  86 115 150 202 258 305 376
#
# _framework density 21.548853999999999
#
# number of rings (size 3 to 8) (size 9 to 14) (size 15 to 20)
#    0.000    2.000    0.000    2.786   11.000    1.714 
#    0.000    2.857    0.000    0.429    0.000    0.500 
#    0.000    0.000    0.000    0.000    0.000    0.000 
#
# Total GULP energy -156149.649444 kJ/mol
# GULP energy per Si atom -5576.773194 kJ/mol
# Density = 2.149981 g / cm^3
# Si number density = 21.548854 Si / 1000 Ang^3
#
#
#
# Elastic Constant Matrix: (Units=GPa)
#
#
# Indices 1 2 3 4 5 6 
#
# 1 44.8973 14.1800 26.5215 0.0000 0.8734 0.0000
# 2 14.1800 200.6542 67.0904 0.0000 -14.3052 0.0000
# 3 26.5215 67.0904 142.3416 0.0000 6.3215 0.0000
# 4 0.0000 0.0000 0.0000 54.2580 0.0000 -10.7306
# 5 0.8734 -14.3052 6.3215 0.0000 23.6938 0.0000
# 6 0.0000 0.0000 0.0000 -10.7306 0.0000 28.9918
#
#
#
# Elastic Compliance Matrix: (Units=1/GPa)
#
#
# Indices 1 2 3 4 5 6 
#
# 1 0.025039 -0.000233 -0.004562 0.000000 0.000154 0.000000
# 2 -0.000233 0.006401 -0.003183 0.000000 0.004723 0.000000
# 3 -0.004562 -0.003183 0.009567 0.000000 -0.004306 0.000000
# 4 0.000000 0.000000 0.000000 0.019886 0.000000 0.007360
# 5 0.000154 0.004723 -0.004306 0.000000 0.046200 0.000000
# 6 0.000000 0.000000 0.000000 0.007360 0.000000 0.037217
#
#
# Mechanical properties :
#
#
# Convention : Reuss Voigt Hill
#
# Bulk Modulus (GPa) = 39.92092 67.05301 53.48697
# Shear Modulus (GPa) = 29.65296 40.06212 34.85754
#
# Velocity S-wave (km/s) = 3.71358 4.31644 4.02631
# Velocity P-wave (km/s) = 6.07894 7.48509 6.81836
#
# Compressibility (1/GPa) = 0.02504952
#
# Stress axis : x y z
#
# Youngs Moduli (GPa) = 39.93820 156.21868 104.52465
#
# Poissons Ratio (x) = 0.03641 0.47687
# Poissons Ratio (y) = 0.00931 0.33275
# Poissons Ratio (z) = 0.18221 0.49731
#
# Static dielectric constant tensor:
#      x y z
#    x 1.790840 0.000000 0.079230 
#    y 0.000000 1.911150 0.000000 
#    z 0.079230 0.000000 2.178260 
# 
# From -- ./inp_files/5513.got.cif
#   From: 2010.05.17/outbox.cif.g08.bks.cpg/sg10_3_cif.got.tgz:5513.got - 2010.06.03 11:33:40.
