data_PCOD9151774
_publ_section_title
;
Structure prediction by ZEFSAII (Michael W. Deem and Ramdas Pophale) SiO2 
 PCOD9151774
Probable space group: P 2/M
;
_chemical_formula_sum "Si O2"
_cell_formula_units_Z 28
_cell_length_a 30.265078
_cell_length_b 7.373268
_cell_length_c 9.442068
_cell_angle_alpha 90.000000
_cell_angle_beta 38.238129
_cell_angle_gamma 90.000000
_cell_volume 1304.101326
_symmetry_space_group_name_H-M "P 2/M"
_symmetry_group_IT_number 10
_symmetry_cell_setting 'monoclinic'
loop_
_space_group_symop_operation_xyz
x,y,z
-x,y,-z
-x,-y,-z
x,-y,z
loop_
_atom_site_type_symbol
_atom_site_label
_atom_site_fract_x
_atom_site_fract_y
_atom_site_fract_z
Si Si1 0.929601 0.793416 0.608432
Si Si2 0.772736 0.778177 0.975921
Si Si3 0.643574 0.778441 0.801443
Si Si4 0.495503 0.221379 0.674176
Si Si5 0.059658 0.711111 0.743735
Si Si6 0.220010 0.781289 0.368184
Si Si7 0.634613 0.778630 0.499080
O O1 0.850686 0.714690 0.831530
O O2 0.938671 0.797506 0.415841
O O3 0.000000 0.708532 0.500000
O O4 0.926267 0.000000 0.671971
O O5 0.764233 0.723171 0.833255
O O6 0.774323 0.000000 0.972196
O O7 0.706493 0.721299 0.237843
O O8 0.718294 0.719291 0.681738
O O9 0.634054 0.720770 0.663484
O O10 0.643769 0.000000 0.800896
O O11 0.577139 0.721918 0.065770
O O12 0.500000 0.279734 0.500000
O O13 0.564527 0.278585 0.589799
O O14 0.495477 0.000000 0.673354
O O15 0.043342 0.500000 0.760398
O O16 0.139266 0.725856 0.606113
O O17 0.000000 0.784837 0.000000
O O18 0.220916 0.000000 0.366071
O O19 0.634391 0.000000 0.499300
#
# Coordination Sequence:
#
# PCOD9151774 Si02
#       7
#     4   4   4   4   4   4   4
#     4   9  18  32  51  74  98 125 160 201 243 288
#     4   8  14  25  39  57  83 114 147 184 227 274
#     4   9  16  24  36  58  86 116 151 190 230 271
#     4   9  15  22  33  51  82 124 157 180 219 276
#     4  10  21  35  50  70  97 128 161 197 238 286
#     4   9  17  30  47  65  88 119 155 194 235 280
#     4   9  15  22  34  55  86 119 149 186 230 275
#
# _framework density 21.470725999999999
#
# number of rings (size 3 to 8) (size 9 to 14) (size 15 to 20)
#    0.000    3.000    0.000    2.571    0.000    7.714 
#    0.000    2.857    0.000    0.000    0.000    0.000 
#    0.000   16.571    0.000    0.000    0.000    1.714 
#
# Total GULP energy -156335.185260 kJ/mol
# GULP energy per Si atom -5583.399474 kJ/mol
# Density = 2.142186 g / cm^3
# Si number density = 21.470726 Si / 1000 Ang^3
#
#
#
# Elastic Constant Matrix: (Units=GPa)
#
#
# Indices 1 2 3 4 5 6 
#
# 1 202.2886 -2.4993 104.5346 0.0000 -22.4749 0.0000
# 2 -2.4993 76.1265 -5.7732 0.0000 0.5689 0.0000
# 3 104.5346 -5.7732 192.7343 0.0000 -14.5177 0.0000
# 4 0.0000 0.0000 0.0000 299.4425 0.0000 -94.2933
# 5 -22.4749 0.5689 -14.5177 0.0000 28.9007 0.0000
# 6 0.0000 0.0000 0.0000 -94.2933 0.0000 56.4926
#
#
#
# Elastic Compliance Matrix: (Units=1/GPa)
#
#
# Indices 1 2 3 4 5 6 
#
# 1 0.007251 -0.000067 -0.003648 0.000000 0.003807 0.000000
# 2 -0.000067 0.013167 0.000423 0.000000 -0.000099 0.000000
# 3 -0.003648 0.000423 0.007239 0.000000 0.000791 0.000000
# 4 0.000000 0.000000 0.000000 0.007040 0.000000 0.011750
# 5 0.003807 -0.000099 0.000791 0.000000 0.037962 0.000000
# 6 0.000000 0.000000 0.000000 0.011750 0.000000 0.037313
#
#
# Mechanical properties :
#
#
# Convention : Reuss Voigt Hill
#
# Bulk Modulus (GPa) = 47.45283 73.74151 60.59717
# Shear Modulus (GPa) = 40.46004 101.95965 71.20984
#
# Velocity S-wave (km/s) = 4.34571 6.89861 5.76524
# Velocity P-wave (km/s) = 6.87964 9.89314 8.52067
#
# Compressibility (1/GPa) = 0.02107356
#
# Stress axis : x y z
#
# Youngs Moduli (GPa) = 137.91851 75.94937 138.13559
#
# Poissons Ratio (x) = 0.00509 0.50389
# Poissons Ratio (y) = 0.00925 -0.05848
# Poissons Ratio (z) = 0.50310 -0.03215
#
# Static dielectric constant tensor:
#      x y z
#    x 1.738440 0.000000 -0.018160 
#    y 0.000000 1.814680 0.000000 
#    z -0.018160 0.000000 1.733550 
# 
# From -- ./inp_files/37903.got.cif
#   From: 2010.05.17/outbox.cif.g08.bks.cpg/sg10_19_cif.got.tgz:37903.got - 2010.06.03 11:33:40.
