data_PCOD9151505
_publ_section_title
;
Structure prediction by ZEFSAII (Michael W. Deem and Ramdas Pophale) SiO2 
 PCOD9151505
Probable space group: P 2/M
;
_chemical_formula_sum "Si O2"
_cell_formula_units_Z 28
_cell_length_a 15.257084
_cell_length_b 17.827388
_cell_length_c 5.530058
_cell_angle_alpha 90.000000
_cell_angle_beta 119.219427
_cell_angle_gamma 90.000000
_cell_volume 1312.750183
_symmetry_space_group_name_H-M "P 2/M"
_symmetry_group_IT_number 10
_symmetry_cell_setting 'monoclinic'
loop_
_space_group_symop_operation_xyz
x,y,z
-x,y,-z
-x,-y,-z
x,-y,z
loop_
_atom_site_type_symbol
_atom_site_label
_atom_site_fract_x
_atom_site_fract_y
_atom_site_fract_z
Si Si1 0.902556 0.822166 0.523777
Si Si2 0.281903 0.589307 0.682787
Si Si3 0.100281 0.327964 0.213859
Si Si4 0.778751 0.916800 0.686440
Si Si5 0.766466 0.765865 0.959267
Si Si6 0.542121 0.087792 0.301975
Si Si7 0.618675 0.649499 0.680992
O O1 0.937547 0.749867 0.720608
O O2 0.860246 0.895901 0.594639
O O3 0.000000 0.841846 0.500000
O O4 0.802517 0.783300 0.275055
O O5 0.275058 0.500000 0.674952
O O6 0.172447 0.626298 0.490400
O O7 0.340379 0.615367 0.517138
O O8 0.335063 0.614035 0.007401
O O9 0.165561 0.298571 0.073641
O O10 0.000000 0.370890 0.000000
O O11 0.788819 0.846173 0.874030
O O12 0.662597 0.913034 0.448683
O O13 0.795136 0.000000 0.809639
O O14 0.656177 0.735587 0.758472
O O15 0.500000 0.117991 0.500000
O O16 0.507931 0.000000 0.255273
O O17 0.500000 0.123910 0.000000
O O18 0.500000 0.642691 0.500000
#
# Coordination Sequence:
#
# PCOD9151505 Si02
#       7
#     4   4   4   4   4   4   4
#     4  11  21  39  67  91 121 178 233 278 347 415
#     4  11  24  42  68 106 143 175 222 278 336 405
#     4  10  20  39  65  92 129 175 226 279 335 401
#     4  10  24  40  59  94 132 168 221 293 357 412
#     4  10  22  40  63  90 122 174 227 279 331 405
#     4   9  19  37  59  83 117 162 206 255 328 406
#     4  11  24  44  68  98 138 184 230 273 330 407
#
# _framework density 21.329269
#
# number of rings (size 3 to 8) (size 9 to 14) (size 15 to 20)
#    0.000    1.714    2.857    0.857    2.000    3.429 
#    0.000    0.714    0.000    3.000    0.000    0.000 
#    0.000    0.000    0.000    0.000    0.000    0.000 
#
# Total GULP energy -155973.555148 kJ/mol
# GULP energy per Si atom -5570.484112 kJ/mol
# Density = 2.128072 g / cm^3
# Si number density = 21.329269 Si / 1000 Ang^3
#
#
#
# Elastic Constant Matrix: (Units=GPa)
#
#
# Indices 1 2 3 4 5 6 
#
# 1 106.0207 43.3323 52.1201 0.0000 8.1306 0.0000
# 2 43.3323 93.4186 26.4022 0.0000 -0.1142 0.0000
# 3 52.1201 26.4022 124.5720 0.0000 4.3306 0.0000
# 4 0.0000 0.0000 0.0000 -104.6018 0.0000 22.7783
# 5 8.1306 -0.1142 4.3306 0.0000 32.8607 0.0000
# 6 0.0000 0.0000 0.0000 22.7783 0.0000 -6.6627
#
#
#
# Elastic Compliance Matrix: (Units=1/GPa)
#
#
# Indices 1 2 3 4 5 6 
#
# 1 0.014090 -0.005214 -0.004690 0.000000 -0.002886 0.000000
# 2 -0.005214 0.013320 -0.000691 0.000000 0.001427 0.000000
# 3 -0.004690 -0.000691 0.010142 0.000000 -0.000179 0.000000
# 4 0.000000 0.000000 0.000000 -0.037414 0.000000 -0.127911
# 5 -0.002886 0.001427 -0.000179 0.000000 0.031174 0.000000
# 6 0.000000 0.000000 0.000000 -0.127911 0.000000 -0.587391
#
#
# Mechanical properties :
#
#
# Convention : Reuss Voigt Hill
#
# Bulk Modulus (GPa) = 61.11465 63.08005 62.09735
# Shear Modulus (GPa) = -9.44404 -2.20365 -5.82384
#
# Velocity S-wave (km/s) = -2.10650 -1.01755 -1.65420
# Velocity P-wave (km/s) = 4.77480 5.31583 5.05256
#
# Compressibility (1/GPa) = 0.01636269
#
# Stress axis : x y z
#
# Youngs Moduli (GPa) = 70.97283 75.07495 98.59615
#
# Poissons Ratio (x) = 0.39142 0.46239
# Poissons Ratio (y) = 0.37003 0.06816
# Poissons Ratio (z) = 0.33285 0.05190
#
# Static dielectric constant tensor:
#      x y z
#    x 1.833820 0.000000 -0.020430 
#    y 0.000000 1.754330 0.000000 
#    z -0.020430 0.000000 1.953570 
# 
# From -- ./inp_files/9622.got.cif
#   From: 2010.05.17/outbox.cif.g08.bks.cpg/sg10_5_cif.got.tgz:9622.got - 2010.06.03 11:33:40.
