data_PCOD9151316
_publ_section_title
;
Structure prediction by ZEFSAII (Michael W. Deem and Ramdas Pophale) SiO2 
 PCOD9151316
Probable space group: P 2/M
;
_chemical_formula_sum "Si O2"
_cell_formula_units_Z 32
_cell_length_a 26.386639
_cell_length_b 7.646372
_cell_length_c 25.360747
_cell_angle_alpha 90.000000
_cell_angle_beta 16.960614
_cell_angle_gamma 90.000000
_cell_volume 1492.654158
_symmetry_space_group_name_H-M "P 2/M"
_symmetry_group_IT_number 10
_symmetry_cell_setting 'monoclinic'
loop_
_space_group_symop_operation_xyz
x,y,z
-x,y,-z
-x,-y,-z
x,-y,z
loop_
_atom_site_type_symbol
_atom_site_label
_atom_site_fract_x
_atom_site_fract_y
_atom_site_fract_z
Si Si1 0.952467 0.790626 0.217948
Si Si2 0.456925 0.290705 0.372695
Si Si3 0.213977 0.702471 0.152758
Si Si4 0.258389 0.292911 0.991318
Si Si5 0.537576 0.210877 0.901417
Si Si6 0.420337 0.712666 0.523233
Si Si7 0.972682 0.801333 0.084313
Si Si8 0.078810 0.796390 0.475495
O O1 0.749039 0.746202 0.428969
O O2 0.021965 0.720668 0.091789
O O3 0.962246 0.000000 0.204853
O O4 0.079785 0.728888 0.136984
O O5 0.473800 0.500000 0.354991
O O6 0.584073 0.219262 0.201123
O O7 0.512702 0.236039 0.376599
O O8 0.162557 0.500000 0.198505
O O9 0.063122 0.787307 0.337744
O O10 0.240277 0.779440 0.068305
O O11 0.391947 0.713471 0.008319
O O12 0.292823 0.500000 0.963298
O O13 0.733118 0.274332 0.695610
O O14 0.524565 0.000000 0.908488
O O15 0.500000 0.251857 0.000000
O O16 0.500000 0.760794 0.500000
O O17 0.400115 0.500000 0.543104
O O18 0.234367 0.801872 0.704925
O O19 0.043831 0.000000 0.010277
O O20 0.000000 0.714361 0.000000
O O21 0.000000 0.717816 0.500000
O O22 0.114982 0.000000 0.427047
#
# Coordination Sequence:
#
# PCOD9151316 Si02
#       8
#     4   4   4   4   4   4   4   4
#     4  10  21  37  58  84 112 145 191 242 287 338
#     4   9  19  38  59  78 110 152 190 234 288 341
#     4  11  24  39  57  88 123 152 192 238 281 337
#     4  10  23  41  60  81 112 158 197 230 282 342
#     4  10  20  38  63  87 116 155 193 231 279 335
#     4   9  18  31  50  80 107 132 179 234 278 329
#     4   9  19  34  50  75 110 143 175 219 284 349
#     4  10  20  38  63  88 119 157 193 231 280 336
#
# _framework density 21.438323
#
# number of rings (size 3 to 8) (size 9 to 14) (size 15 to 20)
#    0.000    2.250    1.250    0.750    1.750    4.500 
#    0.000    3.750    0.000    0.000    0.000    0.000 
#    0.000    0.000    0.000    0.000    0.000    0.000 
#
# Total GULP energy -178512.875863 kJ/mol
# GULP energy per Si atom -5578.527371 kJ/mol
# Density = 2.138953 g / cm^3
# Si number density = 21.438323 Si / 1000 Ang^3
#
#
#
# Elastic Constant Matrix: (Units=GPa)
#
#
# Indices 1 2 3 4 5 6 
#
# 1 157.4799 -8.7956 58.5990 0.0000 19.2899 0.0000
# 2 -8.7956 37.6443 -13.6242 0.0000 7.3636 0.0000
# 3 58.5990 -13.6242 116.5505 0.0000 13.4936 0.0000
# 4 0.0000 0.0000 0.0000 -8.0470 0.0000 61.0767
# 5 19.2899 7.3636 13.4936 0.0000 34.2263 0.0000
# 6 0.0000 0.0000 0.0000 61.0767 0.0000 -194.2378
#
#
#
# Elastic Compliance Matrix: (Units=1/GPa)
#
#
# Indices 1 2 3 4 5 6 
#
# 1 0.008172 0.001306 -0.003552 0.000000 -0.003486 0.000000
# 2 0.001306 0.029967 0.003854 0.000000 -0.008702 0.000000
# 3 -0.003552 0.003854 0.011192 0.000000 -0.003239 0.000000
# 4 0.000000 0.000000 0.000000 0.089621 0.000000 0.028181
# 5 -0.003486 -0.008702 -0.003239 0.000000 0.034331 0.000000
# 6 0.000000 0.000000 0.000000 0.028181 0.000000 0.003713
#
#
# Mechanical properties :
#
#
# Convention : Reuss Voigt Hill
#
# Bulk Modulus (GPa) = 19.03147 42.67032 30.85089
# Shear Modulus (GPa) = 26.13760 -15.24534 5.44613
#
# Velocity S-wave (km/s) = 3.49549 -2.66959 1.59558
# Velocity P-wave (km/s) = 5.01875 3.23183 4.22093
#
# Compressibility (1/GPa) = 0.05254455
#
# Stress axis : x y z
#
# Youngs Moduli (GPa) = 122.37207 33.37040 89.35284
#
# Poissons Ratio (x) = -0.04357 0.31742
# Poissons Ratio (y) = -0.15976 -0.34437
# Poissons Ratio (z) = 0.43471 -0.12861
#
# Static dielectric constant tensor:
#      x y z
#    x 1.804500 0.000000 0.034690 
#    y 0.000000 1.812280 0.000000 
#    z 0.034690 0.000000 1.760710 
# 
# From -- ./inp_files/90606.got.cif
#   From: 2010.05.17/outbox.cif.g08.bks.cpg/sg10_46_cif.got.tgz:90606.got - 2010.06.03 11:33:40.
