data_PCOD9151149
_publ_section_title
;
Structure prediction by ZEFSAII (Michael W. Deem and Ramdas Pophale) SiO2 
 PCOD9151149
Probable space group: P 2/M
;
_chemical_formula_sum "Si O2"
_cell_formula_units_Z 26
_cell_length_a 8.473307
_cell_length_b 22.461514
_cell_length_c 8.564455
_cell_angle_alpha 90.000000
_cell_angle_beta 128.789179
_cell_angle_gamma 90.000000
_cell_volume 1270.525738
_symmetry_space_group_name_H-M "P 2/M"
_symmetry_group_IT_number 10
_symmetry_cell_setting 'monoclinic'
loop_
_space_group_symop_operation_xyz
x,y,z
-x,y,-z
-x,-y,-z
x,-y,z
loop_
_atom_site_type_symbol
_atom_site_label
_atom_site_fract_x
_atom_site_fract_y
_atom_site_fract_z
Si Si1 0.725098 0.155562 0.718021
Si Si2 0.427060 0.933037 0.131632
Si Si3 0.000000 0.259183 0.000000
Si Si4 0.616638 0.432510 0.927043
Si Si5 0.864585 0.933247 0.557246
Si Si6 0.054926 0.432276 0.351064
Si Si7 0.315959 0.653093 0.298085
O O1 0.500000 0.165310 0.500000
O O2 0.688784 0.122376 0.862011
O O3 0.851039 0.107998 0.696423
O O4 0.870698 0.212935 0.814148
O O5 0.634583 0.937067 0.357092
O O6 0.332988 0.000000 0.083471
O O7 0.500000 0.922839 0.000000
O O8 0.184129 0.306699 0.097869
O O9 0.540823 0.500000 0.862594
O O10 0.590919 0.398114 0.752010
O O11 0.500000 0.403901 0.000000
O O12 0.848970 0.434425 0.123052
O O13 0.000000 0.908995 0.500000
O O14 0.938762 0.000000 0.636542
O O15 0.142632 0.500000 0.395737
O O16 0.181388 0.380138 0.345983
O O17 0.000000 0.421504 0.500000
O O18 0.500000 0.685535 0.500000
#
# Coordination Sequence:
#
# PCOD9151149 Si02
#       7
#     4   4   2   4   4   4   4
#     4  10  22  41  63  83 122 161 205 252 306 351
#     4   9  18  34  60  93 124 151 189 245 314 378
#     4  12  26  44  62  84 116 170 224 262 278 356
#     4  10  20  37  64  99 131 158 196 252 319 383
#     4   9  18  34  60  93 124 151 189 245 314 378
#     4  10  20  37  64  99 131 158 196 252 319 383
#     4  12  24  42  66  87 126 165 212 259 310 355
#
# _framework density 20.463971000000001
#
# number of rings (size 3 to 8) (size 9 to 14) (size 15 to 20)
#    0.000    1.846    1.538    2.308    2.154    5.538 
#    0.000    2.308    0.000    0.000    0.000    0.000 
#    0.000    0.000    0.000    0.000    0.000    0.000 
#
# Total GULP energy -144757.092647 kJ/mol
# GULP energy per Si atom -5567.580486 kJ/mol
# Density = 2.041739 g / cm^3
# Si number density = 20.463971 Si / 1000 Ang^3
#
#
#
# Elastic Constant Matrix: (Units=GPa)
#
#
# Indices 1 2 3 4 5 6 
#
# 1 67.5041 27.8536 10.9366 0.0000 -9.0756 0.0000
# 2 27.8536 67.6343 16.6771 0.0000 -12.5400 0.0000
# 3 10.9366 16.6771 88.1504 0.0000 16.7105 0.0000
# 4 0.0000 0.0000 0.0000 39.5424 0.0000 45.2316
# 5 -9.0756 -12.5400 16.7105 0.0000 38.9241 0.0000
# 6 0.0000 0.0000 0.0000 45.2316 0.0000 30.9221
#
#
#
# Elastic Compliance Matrix: (Units=1/GPa)
#
#
# Indices 1 2 3 4 5 6 
#
# 1 0.018151 -0.006584 -0.001531 0.000000 0.002768 0.000000
# 2 -0.006584 0.019754 -0.004176 0.000000 0.006622 0.000000
# 3 -0.001531 -0.004176 0.013767 0.000000 -0.007613 0.000000
# 4 0.000000 0.000000 0.000000 -0.037565 0.000000 0.054949
# 5 0.002768 0.006622 -0.007613 0.000000 0.031738 0.000000
# 6 0.000000 0.000000 0.000000 0.054949 0.000000 -0.048037
#
#
# Mechanical properties :
#
#
# Convention : Reuss Voigt Hill
#
# Bulk Modulus (GPa) = 36.91309 37.13591 37.02450
# Shear Modulus (GPa) = 159.13236 33.06581 96.09909
#
# Velocity S-wave (km/s) = 8.82786 4.02407 6.86018
# Velocity P-wave (km/s) = 11.04469 6.30692 8.99340
#
# Compressibility (1/GPa) = 0.02709066
#
# Stress axis : x y z
#
# Youngs Moduli (GPa) = 55.09355 50.62187 72.63578
#
# Poissons Ratio (x) = 0.33331 0.11121
# Poissons Ratio (y) = 0.36275 0.30330
# Poissons Ratio (z) = 0.08435 0.21138
#
# Static dielectric constant tensor:
#      x y z
#    x 1.736310 0.000000 0.008380 
#    y 0.000000 1.753670 0.000000 
#    z 0.008380 0.000000 1.802370 
# 
# From -- ./inp_files/20487.got.cif
#   From: 2010.05.17/outbox.cif.g08.bks.cpg/sg10_11_cif.got.tgz:20487.got - 2010.06.03 11:33:40.
