data_PCOD9151384
_publ_section_title
;
Structure prediction by ZEFSAII (Michael W. Deem and Ramdas Pophale) SiO2 
 PCOD9151384
Probable space group: P 2/M
;
_chemical_formula_sum "Si O2"
_cell_formula_units_Z 32
_cell_length_a 20.363650
_cell_length_b 8.801522
_cell_length_c 26.325122
_cell_angle_alpha 90.000000
_cell_angle_beta 159.363988
_cell_angle_gamma 90.000000
_cell_volume 1662.863363
_symmetry_space_group_name_H-M "P 2/M"
_symmetry_group_IT_number 10
_symmetry_cell_setting 'monoclinic'
loop_
_space_group_symop_operation_xyz
x,y,z
-x,y,-z
-x,-y,-z
x,-y,z
loop_
_atom_site_type_symbol
_atom_site_label
_atom_site_fract_x
_atom_site_fract_y
_atom_site_fract_z
Si Si1 0.368008 0.680638 0.663656
Si Si2 0.151778 0.679884 0.334630
Si Si3 0.222256 0.181606 0.662472
Si Si4 0.287578 0.180892 0.141376
Si Si5 0.040962 0.181360 0.358625
Si Si6 0.100025 0.818057 0.189731
Si Si7 0.694897 0.318848 0.169283
Si Si8 0.561998 0.817768 0.637410
O O1 0.347407 0.500000 0.647927
O O2 0.317137 0.744595 0.682117
O O3 0.572593 0.729653 0.793850
O O4 0.222890 0.754255 0.518910
O O5 0.137256 0.500000 0.330127
O O6 0.048147 0.761374 0.306130
O O7 0.077182 0.733530 0.226243
O O8 0.367416 0.731984 0.492962
O O9 0.301677 0.249114 0.772014
O O10 0.000000 0.213189 0.500000
O O11 0.246352 0.000000 0.678605
O O12 0.341110 0.213621 0.238304
O O13 0.317220 0.000000 0.155165
O O14 0.074044 0.213577 0.973103
O O15 0.862070 0.244425 0.258556
O O16 0.044694 0.000000 0.363418
O O17 0.293309 0.776845 0.302165
O O18 0.104795 0.000000 0.202206
O O19 0.724573 0.500000 0.193836
O O20 0.500000 0.290490 0.000000
O O21 0.527011 0.000000 0.609226
#
# Coordination Sequence:
#
# PCOD9151384 Si02
#       8
#     4   4   4   4   4   4   4   4
#     4  12  24  39  64  95 128 164 205 258 315 368
#     4  12  25  40  61  91 126 167 210 257 315 373
#     4  11  23  40  66  96 125 165 212 254 298 360
#     4  10  21  39  64  92 124 163 210 259 310 371
#     4  12  24  42  67  92 122 164 211 258 306 366
#     4  10  22  40  62  91 125 165 210 259 313 370
#     4  11  25  44  67  98 133 166 202 252 315 373
#     4  10  20  38  65  92 122 162 211 261 310 372
#
# _framework density 19.243915000000001
#
# number of rings (size 3 to 8) (size 9 to 14) (size 15 to 20)
#    0.000    1.000    2.500    4.875    0.000    6.500 
#    0.000    0.000    0.000    2.250    0.000    0.000 
#    0.000    0.000    0.000    0.000    0.000    0.000 
#
# Total GULP energy -179058.677180 kJ/mol
# GULP energy per Si atom -5595.583662 kJ/mol
# Density = 1.920012 g / cm^3
# Si number density = 19.243915 Si / 1000 Ang^3
#
#
#
# Elastic Constant Matrix: (Units=GPa)
#
#
# Indices 1 2 3 4 5 6 
#
# 1 85.5384 16.5378 -13.5746 0.0000 -6.8959 0.0000
# 2 16.5378 61.6910 15.5616 0.0000 -6.6854 0.0000
# 3 -13.5746 15.5616 30.7882 0.0000 -13.0156 0.0000
# 4 0.0000 0.0000 0.0000 32.6698 0.0000 16.8262
# 5 -6.8959 -6.6854 -13.0156 0.0000 33.4264 0.0000
# 6 0.0000 0.0000 0.0000 16.8262 0.0000 32.3279
#
#
#
# Elastic Compliance Matrix: (Units=1/GPa)
#
#
# Indices 1 2 3 4 5 6 
#
# 1 0.015697 -0.006810 0.013354 0.000000 0.007076 0.000000
# 2 -0.006810 0.021533 -0.015154 0.000000 -0.002999 0.000000
# 3 0.013354 -0.015154 0.054957 0.000000 0.021123 0.000000
# 4 0.000000 0.000000 0.000000 0.041820 0.000000 -0.021767
# 5 0.007076 -0.002999 0.021123 0.000000 0.039002 0.000000
# 6 0.000000 0.000000 0.000000 -0.021767 0.000000 0.042262
#
#
# Mechanical properties :
#
#
# Convention : Reuss Voigt Hill
#
# Bulk Modulus (GPa) = 13.33896 23.89635 18.61766
# Shear Modulus (GPa) = 19.41907 30.31766 24.86837
#
# Velocity S-wave (km/s) = 3.18008 3.97349 3.59872
# Velocity P-wave (km/s) = 4.52001 5.78758 5.19262
#
# Compressibility (1/GPa) = 0.07496839
#
# Stress axis : x y z
#
# Youngs Moduli (GPa) = 63.70655 46.44063 18.19605
#
# Poissons Ratio (x) = 0.31625 -0.24299
# Poissons Ratio (y) = 0.43382 0.27574
# Poissons Ratio (z) = -0.85075 0.70375
#
# Static dielectric constant tensor:
#      x y z
#    x 1.643560 0.000000 -0.005720 
#    y 0.000000 1.644690 0.000000 
#    z -0.005720 0.000000 1.651250 
# 
# From -- ./inp_files/93822.got.cif
#   From: 2010.05.17/outbox.cif.g08.bks.cpg/sg10_47_cif.got.tgz:93822.got - 2010.06.03 11:33:40.
