data_PCOD9151891
_publ_section_title
;
Structure prediction by ZEFSAII (Michael W. Deem and Ramdas Pophale) SiO2 
 PCOD9151891
Probable space group: P 2/M
;
_chemical_formula_sum "Si O2"
_cell_formula_units_Z 28
_cell_length_a 12.310707
_cell_length_b 7.547256
_cell_length_c 14.343381
_cell_angle_alpha 90.000000
_cell_angle_beta 105.685307
_cell_angle_gamma 90.000000
_cell_volume 1283.045769
_symmetry_space_group_name_H-M "P 2/M"
_symmetry_group_IT_number 10
_symmetry_cell_setting 'monoclinic'
loop_
_space_group_symop_operation_xyz
x,y,z
-x,y,-z
-x,-y,-z
x,-y,z
loop_
_atom_site_type_symbol
_atom_site_label
_atom_site_fract_x
_atom_site_fract_y
_atom_site_fract_z
Si Si1 0.383785 0.782724 0.426668
Si Si2 0.667568 0.209233 0.792938
Si Si3 0.219398 0.294700 0.864199
Si Si4 0.931306 0.785748 0.341767
Si Si5 0.835960 0.784269 0.515884
Si Si6 0.533222 0.713287 0.112436
Si Si7 0.874445 0.203887 0.960234
O O1 0.500000 0.724806 0.500000
O O2 0.363023 0.720710 0.316279
O O3 0.280368 0.726315 0.467311
O O4 0.385454 0.000000 0.425423
O O5 0.560111 0.225456 0.836109
O O6 0.781279 0.282932 0.868001
O O7 0.688385 0.000000 0.786098
O O8 0.237975 0.500000 0.893554
O O9 0.121408 0.280829 0.765569
O O10 0.336750 0.228046 0.846316
O O11 0.183905 0.203974 0.951855
O O12 0.858765 0.728634 0.415113
O O13 0.058504 0.730274 0.395387
O O14 0.929679 0.000000 0.337302
O O15 0.837319 0.000000 0.514970
O O16 0.530196 0.500000 0.116632
O O17 0.500000 0.767212 0.000000
O O18 0.893154 0.000000 0.934286
O O19 0.000000 0.284585 0.000000
#
# Coordination Sequence:
#
# PCOD9151891 Si02
#       7
#     4   4   4   4   4   4   4
#     4   9  18  31  50  80 115 141 170 222 278 327
#     4  10  21  35  57  86 109 140 186 230 273 324
#     4  11  23  37  56  82 110 147 187 224 274 330
#     4   9  18  33  57  83 107 141 182 228 273 322
#     4   8  16  32  53  79 110 143 179 219 277 334
#     4  10  21  39  57  74 107 149 182 220 273 326
#     4  10  22  38  57  84 115 146 181 227 277 324
#
# _framework density 21.823073000000001
#
# number of rings (size 3 to 8) (size 9 to 14) (size 15 to 20)
#    0.000    2.429    1.429    1.286    4.000    1.714 
#    0.000    1.429    0.000    1.286    0.000    0.000 
#    0.000    0.000    0.000    0.000    0.000    0.000 
#
# Total GULP energy -156355.715419 kJ/mol
# GULP energy per Si atom -5584.132694 kJ/mol
# Density = 2.177340 g / cm^3
# Si number density = 21.823073 Si / 1000 Ang^3
#
#
#
# Elastic Constant Matrix: (Units=GPa)
#
#
# Indices 1 2 3 4 5 6 
#
# 1 164.5972 2.1644 71.4165 0.0000 12.2534 0.0000
# 2 2.1644 52.8826 1.1468 0.0000 3.5701 0.0000
# 3 71.4165 1.1468 141.0985 0.0000 23.1071 0.0000
# 4 0.0000 0.0000 0.0000 12.7272 0.0000 -12.8109
# 5 12.2534 3.5701 23.1071 0.0000 19.4172 0.0000
# 6 0.0000 0.0000 0.0000 -12.8109 0.0000 13.9070
#
#
#
# Elastic Compliance Matrix: (Units=1/GPa)
#
#
# Indices 1 2 3 4 5 6 
#
# 1 0.007789 -0.000219 -0.003903 0.000000 -0.000231 0.000000
# 2 -0.000219 0.019185 0.000633 0.000000 -0.004143 0.000000
# 3 -0.003903 0.000633 0.010773 0.000000 -0.010473 0.000000
# 4 0.000000 0.000000 0.000000 1.079832 0.000000 0.994721
# 5 -0.000231 -0.004143 -0.010473 0.000000 0.064872 0.000000
# 6 0.000000 0.000000 0.000000 0.994721 0.000000 0.988224
#
#
# Mechanical properties :
#
#
# Convention : Reuss Voigt Hill
#
# Bulk Modulus (GPa) = 32.49931 56.44816 44.47374
# Shear Modulus (GPa) = 2.28529 28.13367 15.20948
#
# Velocity S-wave (km/s) = 1.02443 3.59440 2.64284
# Velocity P-wave (km/s) = 4.04027 6.56877 5.45309
#
# Compressibility (1/GPa) = 0.03076988
#
# Stress axis : x y z
#
# Youngs Moduli (GPa) = 128.38906 52.12483 92.82795
#
# Poissons Ratio (x) = 0.01139 0.36228
# Poissons Ratio (y) = 0.02806 -0.05878
# Poissons Ratio (z) = 0.50107 -0.03300
#
# Static dielectric constant tensor:
#      x y z
#    x 1.779280 0.000000 0.025450 
#    y 0.000000 1.823650 0.000000 
#    z 0.025450 0.000000 1.755390 
# 
# From -- ./inp_files/63390.got.cif
#   From: 2010.05.17/outbox.cif.g08.bks.cpg/sg10_32_cif.got.tgz:63390.got - 2010.06.03 11:33:40.
