data_PCOD9151258
_publ_section_title
;
Structure prediction by ZEFSAII (Michael W. Deem and Ramdas Pophale) SiO2 
 PCOD9151258
Probable space group: P 2/M
;
_chemical_formula_sum "Si O2"
_cell_formula_units_Z 32
_cell_length_a 20.371808
_cell_length_b 14.531400
_cell_length_c 8.950098
_cell_angle_alpha 90.000000
_cell_angle_beta 143.168876
_cell_angle_gamma 90.000000
_cell_volume 1588.268531
_symmetry_space_group_name_H-M "P 2/M"
_symmetry_group_IT_number 10
_symmetry_cell_setting 'monoclinic'
loop_
_space_group_symop_operation_xyz
x,y,z
-x,y,-z
-x,-y,-z
x,-y,z
loop_
_atom_site_type_symbol
_atom_site_label
_atom_site_fract_x
_atom_site_fract_y
_atom_site_fract_z
Si Si1 0.112004 0.722873 0.109527
Si Si2 0.184925 0.601016 0.734678
Si Si3 0.873865 0.099833 0.711709
Si Si4 0.740831 0.395704 0.456311
Si Si5 0.890543 0.780747 0.236218
Si Si6 0.752055 0.106951 0.189070
Si Si7 0.447620 0.602655 0.242131
Si Si8 0.580682 0.754872 0.029187
O O1 0.173140 0.809553 0.298296
O O2 0.189596 0.635641 0.274706
O O3 0.096002 0.753505 0.910996
O O4 0.000000 0.708899 0.000000
O O5 0.145060 0.500000 0.708253
O O6 0.180046 0.607822 0.545975
O O7 0.127677 0.685977 0.707017
O O8 0.314978 0.606374 0.008241
O O9 0.850413 0.109758 0.492697
O O10 0.827003 0.000000 0.669406
O O11 0.000000 0.098855 0.000000
O O12 0.700015 0.500000 0.393412
O O13 0.649494 0.321737 0.246980
O O14 0.793038 0.847949 0.109462
O O15 0.000000 0.825365 0.500000
O O16 0.658550 0.172287 0.088670
O O17 0.720883 0.000000 0.116378
O O18 0.500000 0.608875 0.500000
O O19 0.474465 0.500000 0.229696
O O20 0.480341 0.689848 0.202637
O O21 0.500000 0.801110 0.000000
#
# Coordination Sequence:
#
# PCOD9151258 Si02
#       8
#     4   4   4   4   4   4   4   4
#     4  11  22  36  58  88 127 163 205 253 302 368
#     4   9  18  36  59  85 122 165 204 248 299 362
#     4   9  17  34  61  87 115 150 194 250 302 352
#     4  10  20  38  61  88 125 160 205 255 303 363
#     4  12  23  37  62  88 123 167 205 248 306 365
#     4  11  23  43  66  91 124 159 207 255 306 372
#     4   9  18  35  62  92 123 159 204 254 305 359
#     4  11  22  40  65  91 123 162 200 251 313 362
#
# _framework density 20.147725999999999
#
# number of rings (size 3 to 8) (size 9 to 14) (size 15 to 20)
#    0.000    1.750    3.750    3.375    0.000    4.000 
#    0.000    1.250    0.000    0.375    0.000    0.000 
#    0.000    0.000    0.000    0.000    0.000    0.000 
#
# Total GULP energy -178399.384799 kJ/mol
# GULP energy per Si atom -5574.980775 kJ/mol
# Density = 2.010187 g / cm^3
# Si number density = 20.147726 Si / 1000 Ang^3
#
#
#
# Elastic Constant Matrix: (Units=GPa)
#
#
# Indices 1 2 3 4 5 6 
#
# 1 97.6403 34.1535 23.0192 0.0000 -4.8246 0.0000
# 2 34.1535 105.6581 11.9881 0.0000 2.1900 0.0000
# 3 23.0192 11.9881 64.7101 0.0000 -23.2379 0.0000
# 4 0.0000 0.0000 0.0000 18.1300 0.0000 -8.9386
# 5 -4.8246 2.1900 -23.2379 0.0000 16.6535 0.0000
# 6 0.0000 0.0000 0.0000 -8.9386 0.0000 4.5868
#
#
#
# Elastic Compliance Matrix: (Units=1/GPa)
#
#
# Indices 1 2 3 4 5 6 
#
# 1 0.012422 -0.003435 -0.004666 0.000000 -0.002461 0.000000
# 2 -0.003435 0.011117 -0.003447 0.000000 -0.007267 0.000000
# 3 -0.004666 -0.003447 0.034935 0.000000 0.047849 0.000000
# 4 0.000000 0.000000 0.000000 1.406850 0.000000 2.741621
# 5 -0.002461 -0.007267 0.047849 0.000000 0.127058 0.000000
# 6 0.000000 0.000000 0.000000 2.741621 0.000000 5.560793
#
#
# Mechanical properties :
#
#
# Convention : Reuss Voigt Hill
#
# Bulk Modulus (GPa) = 28.26702 45.14776 36.70739
# Shear Modulus (GPa) = 0.69560 21.13058 10.91309
#
# Velocity S-wave (km/s) = 0.58822 3.24200 2.32987
# Velocity P-wave (km/s) = 3.81073 6.03913 5.04940
#
# Compressibility (1/GPa) = 0.03537692
#
# Stress axis : x y z
#
# Youngs Moduli (GPa) = 80.50507 89.95604 28.62465
#
# Poissons Ratio (x) = 0.30898 0.13356
# Poissons Ratio (y) = 0.27652 0.09868
# Poissons Ratio (z) = 0.37563 0.31011
#
# Static dielectric constant tensor:
#      x y z
#    x 1.743840 0.000000 0.014690 
#    y 0.000000 1.739780 0.000000 
#    z 0.014690 0.000000 1.749560 
# 
# From -- ./inp_files/35156.got.cif
#   From: 2010.05.17/outbox.cif.g08.bks.cpg/sg10_18_cif.got.tgz:35156.got - 2010.06.03 11:33:40.
