data_PCOD9151524
_publ_section_title
;
Structure prediction by ZEFSAII (Michael W. Deem and Ramdas Pophale) SiO2 
 PCOD9151524
Probable space group: P 2/M
;
_chemical_formula_sum "Si O2"
_cell_formula_units_Z 24
_cell_length_a 8.870299
_cell_length_b 15.851232
_cell_length_c 13.688997
_cell_angle_alpha 90.000000
_cell_angle_beta 35.706207
_cell_angle_gamma 90.000000
_cell_volume 1123.336601
_symmetry_space_group_name_H-M "P 2/M"
_symmetry_group_IT_number 10
_symmetry_cell_setting 'monoclinic'
loop_
_space_group_symop_operation_xyz
x,y,z
-x,y,-z
-x,-y,-z
x,-y,z
loop_
_atom_site_type_symbol
_atom_site_label
_atom_site_fract_x
_atom_site_fract_y
_atom_site_fract_z
Si Si1 0.657164 0.597537 0.519527
Si Si2 0.265659 0.718964 0.813661
Si Si3 0.969590 0.740262 0.632175
Si Si4 0.528310 0.828411 0.121875
Si Si5 0.913112 0.838278 0.257485
Si Si6 0.700608 0.000000 0.686002
Si Si7 0.775874 0.000000 0.206067
O O1 0.500000 0.600606 0.500000
O O2 0.703355 0.500000 0.518599
O O3 0.474097 0.646214 0.692454
O O4 0.916849 0.653186 0.386754
O O5 0.363172 0.794504 0.831755
O O6 0.200947 0.760200 0.743758
O O7 0.000000 0.686802 0.000000
O O8 0.000000 0.746843 0.500000
O O9 0.668259 0.756318 0.808786
O O10 0.121323 0.814378 0.611232
O O11 0.373050 0.915159 0.216749
O O12 0.780278 0.843013 0.924888
O O13 0.804089 0.920679 0.263262
O O14 0.499565 0.000000 0.701747
O O15 0.000000 0.000000 0.500000
O O16 0.000000 0.000000 0.000000
#
# Coordination Sequence:
#
# PCOD9151524 Si02
#       7
#     4   4   4   4   4   2   2
#     4  11  24  45  72  98 131 176 229 289 358 431
#     4  10  20  39  70  99 131 174 226 284 342 416
#     4  12  25  42  66  97 141 179 227 282 348 412
#     4  11  22  41  65 100 138 182 225 284 345 407
#     4  11  22  40  72  99 132 188 240 276 333 416
#     4  12  24  37  67 109 150 177 228 298 348 396
#     4  12  20  45  74 105 138 190 245 285 341 409
#
# _framework density 21.364923000000001
#
# number of rings (size 3 to 8) (size 9 to 14) (size 15 to 20)
#    0.000    0.833    6.667    1.500    0.000    1.333 
#    0.000    2.917    0.000    5.000    0.000    0.000 
#    0.000    0.000    0.000    0.000    0.000    0.000 
#
# Total GULP energy -134159.453471 kJ/mol
# GULP energy per Si atom -5589.977228 kJ/mol
# Density = 2.131630 g / cm^3
# Si number density = 21.364923 Si / 1000 Ang^3
#
#
#
# Elastic Constant Matrix: (Units=GPa)
#
#
# Indices 1 2 3 4 5 6 
#
# 1 116.5112 45.1165 34.5918 0.0000 6.6641 0.0000
# 2 45.1165 150.9616 51.2905 0.0000 -7.3962 0.0000
# 3 34.5918 51.2905 63.1657 0.0000 -23.5220 0.0000
# 4 0.0000 0.0000 0.0000 18.1872 0.0000 -5.6566
# 5 6.6641 -7.3962 -23.5220 0.0000 50.0797 0.0000
# 6 0.0000 0.0000 0.0000 -5.6566 0.0000 36.1759
#
#
#
# Elastic Compliance Matrix: (Units=1/GPa)
#
#
# Indices 1 2 3 4 5 6 
#
# 1 0.011484 -0.001245 -0.007170 0.000000 -0.005080 0.000000
# 2 -0.001245 0.009569 -0.007878 0.000000 -0.002121 0.000000
# 3 -0.007170 -0.007878 0.031605 0.000000 0.014635 0.000000
# 4 0.000000 0.000000 0.000000 0.057794 0.000000 0.009037
# 5 -0.005080 -0.002121 0.014635 0.000000 0.027205 0.000000
# 6 0.000000 0.000000 0.000000 0.009037 0.000000 0.029056
#
#
# Mechanical properties :
#
#
# Convention : Reuss Voigt Hill
#
# Bulk Modulus (GPa) = 49.82074 65.84843 57.83458
# Shear Modulus (GPa) = 24.27309 34.19789 29.23549
#
# Velocity S-wave (km/s) = 3.37429 4.00516 3.70319
# Velocity P-wave (km/s) = 6.20892 7.23022 6.73895
#
# Compressibility (1/GPa) = 0.02007196
#
# Stress axis : x y z
#
# Youngs Moduli (GPa) = 87.07612 104.50358 31.64085
#
# Poissons Ratio (x) = 0.13011 0.22686
# Poissons Ratio (y) = 0.10842 0.24927
# Poissons Ratio (z) = 0.62431 0.82330
#
# Static dielectric constant tensor:
#      x y z
#    x 1.834280 0.000000 0.005920 
#    y 0.000000 1.734570 0.000000 
#    z 0.005920 0.000000 1.808790 
# 
# From -- ./inp_files/61707.got.cif
#   From: 2010.05.17/outbox.cif.g08.bks.cpg/sg10_31_cif.got.tgz:61707.got - 2010.06.03 11:33:40.
