data_PCOD9151613
_publ_section_title
;
Structure prediction by ZEFSAII (Michael W. Deem and Ramdas Pophale) SiO2 
 PCOD9151613
Probable space group: P 2/M
;
_chemical_formula_sum "Si O2"
_cell_formula_units_Z 22
_cell_length_a 12.371098
_cell_length_b 17.970398
_cell_length_c 7.576780
_cell_angle_alpha 90.000000
_cell_angle_beta 38.822023
_cell_angle_gamma 90.000000
_cell_volume 1055.969055
_symmetry_space_group_name_H-M "P 2/M"
_symmetry_group_IT_number 10
_symmetry_cell_setting 'monoclinic'
loop_
_space_group_symop_operation_xyz
x,y,z
-x,y,-z
-x,-y,-z
x,-y,z
loop_
_atom_site_type_symbol
_atom_site_label
_atom_site_fract_x
_atom_site_fract_y
_atom_site_fract_z
Si Si1 0.000000 0.690137 0.500000
Si Si2 0.950016 0.000000 0.853436
Si Si3 0.679284 0.000000 0.657231
Si Si4 0.693098 0.413937 0.739886
Si Si5 0.689910 0.889753 0.320287
Si Si6 0.202428 0.578551 0.792884
Si Si7 0.849145 0.264366 0.045494
O O1 0.154968 0.636717 0.373045
O O2 0.066085 0.740419 0.254637
O O3 0.123612 0.000000 0.515918
O O4 0.000000 0.000000 0.000000
O O5 0.825838 0.071487 0.013120
O O6 0.691710 0.072379 0.512026
O O7 0.500000 0.000000 0.000000
O O8 0.702877 0.500000 0.793995
O O9 0.714179 0.418189 0.503296
O O10 0.500000 0.383310 0.000000
O O11 0.500000 0.906781 0.500000
O O12 0.729072 0.802818 0.257644
O O13 0.244855 0.500000 0.829675
O O14 0.239892 0.654473 0.844692
O O15 0.000000 0.577242 0.000000
O O16 0.000000 0.266237 0.000000
#
# Coordination Sequence:
#
# PCOD9151613 Si02
#       7
#     2   2   2   4   4   4   4
#     4  12  23  40  66  93 122 182 230 264 356 401
#     4   8  16  37  68  89 126 166 202 246 322 386
#     4  10  20  41  72 106 125 167 213 256 328 390
#     4  10  21  38  62  95 127 162 226 295 344 408
#     4  10  21  41  64  93 136 175 210 263 324 393
#     4   9  17  35  62  86 123 174 215 276 343 382
#     4  11  22  41  63  92 134 174 225 279 328 396
#
# _framework density 20.833943999999999
#
# number of rings (size 3 to 8) (size 9 to 14) (size 15 to 20)
#    0.000    2.182    3.636    3.000    0.000    2.182 
#    6.545    1.818    0.000    3.818    0.000    0.000 
#    0.000    0.000    0.000    0.000    0.000    0.000 
#
# Total GULP energy -122513.528688 kJ/mol
# GULP energy per Si atom -5568.796759 kJ/mol
# Density = 2.078653 g / cm^3
# Si number density = 20.833944 Si / 1000 Ang^3
#
#
#
# Elastic Constant Matrix: (Units=GPa)
#
#
# Indices 1 2 3 4 5 6 
#
# 1 42.3185 9.8435 25.8392 0.0000 -0.6060 0.0000
# 2 9.8435 125.6809 37.6425 0.0000 2.5245 0.0000
# 3 25.8392 37.6425 155.6869 0.0000 -5.6629 0.0000
# 4 0.0000 0.0000 0.0000 34.0077 0.0000 -5.0555
# 5 -0.6060 2.5245 -5.6629 0.0000 42.5296 0.0000
# 6 0.0000 0.0000 0.0000 -5.0555 0.0000 15.1509
#
#
#
# Elastic Compliance Matrix: (Units=1/GPa)
#
#
# Indices 1 2 3 4 5 6 
#
# 1 0.026373 -0.000809 -0.004186 0.000000 -0.000134 0.000000
# 2 -0.000809 0.008629 -0.001981 0.000000 -0.000787 0.000000
# 3 -0.004186 -0.001981 0.007636 0.000000 0.001075 0.000000
# 4 0.000000 0.000000 0.000000 0.030940 0.000000 0.010324
# 5 -0.000134 -0.000787 0.001075 0.000000 0.023701 0.000000
# 6 0.000000 0.000000 0.000000 0.010324 0.000000 0.069447
#
#
# Mechanical properties :
#
#
# Convention : Reuss Voigt Hill
#
# Bulk Modulus (GPa) = 34.86068 52.25961 43.56014
# Shear Modulus (GPa) = 26.28260 35.02839 30.65549
#
# Velocity S-wave (km/s) = 3.55565 4.10483 3.84007
# Velocity P-wave (km/s) = 5.79878 6.89960 6.37300
#
# Compressibility (1/GPa) = 0.02868562
#
# Stress axis : x y z
#
# Youngs Moduli (GPa) = 37.91799 115.88713 130.95961
#
# Poissons Ratio (x) = 0.09376 0.54824
# Poissons Ratio (y) = 0.03068 0.25940
# Poissons Ratio (z) = 0.15874 0.22954
#
# Static dielectric constant tensor:
#      x y z
#    x 1.777880 0.000000 -0.018350 
#    y 0.000000 1.830860 0.000000 
#    z -0.018350 0.000000 1.673100 
# 
# From -- ./inp_files/30060.got.cif
#   From: 2010.05.17/outbox.cif.g08.bks.cpg/sg10_16_cif.got.tgz:30060.got - 2010.06.03 11:33:40.
