data_PCOD9151961
_publ_section_title
;
Structure prediction by ZEFSAII (Michael W. Deem and Ramdas Pophale) SiO2 
 PCOD9151961
Probable space group: P 2/M
;
_chemical_formula_sum "Si O2"
_cell_formula_units_Z 32
_cell_length_a 16.287126
_cell_length_b 8.754638
_cell_length_c 26.219690
_cell_angle_alpha 90.000000
_cell_angle_beta 29.733226
_cell_angle_gamma 90.000000
_cell_volume 1854.209805
_symmetry_space_group_name_H-M "P 2/M"
_symmetry_group_IT_number 10
_symmetry_cell_setting 'monoclinic'
loop_
_space_group_symop_operation_xyz
x,y,z
-x,y,-z
-x,-y,-z
x,-y,z
loop_
_atom_site_type_symbol
_atom_site_label
_atom_site_fract_x
_atom_site_fract_y
_atom_site_fract_z
Si Si1 0.222747 0.816820 0.022795
Si Si2 0.725916 0.684718 0.525336
Si Si3 0.513879 0.816820 0.731663
Si Si4 0.839697 0.683367 0.053435
Si Si5 0.098605 0.316263 0.300465
Si Si6 0.597757 0.816726 0.800748
Si Si7 0.027839 0.315282 0.223412
Si Si8 0.343707 0.685835 0.552098
O O1 0.152179 0.747819 0.008354
O O2 0.417197 0.772521 0.919890
O O3 0.214736 0.000000 0.024074
O O4 0.125640 0.757151 0.124102
O O5 0.717836 0.500000 0.533304
O O6 0.623586 0.757151 0.626156
O O7 0.654571 0.729862 0.508295
O O8 0.919873 0.729342 0.419844
O O9 0.329421 0.747820 0.831112
O O10 0.594064 0.772520 0.743023
O O11 0.501695 0.000000 0.737116
O O12 0.830583 0.500000 0.056473
O O13 0.000000 0.727033 0.000000
O O14 0.103088 0.500000 0.298971
O O15 0.251564 0.253038 0.249479
O O16 0.099279 0.270658 0.240438
O O17 0.609827 0.000000 0.796724
O O18 0.035586 0.500000 0.215555
O O19 0.834029 0.270138 0.328838
O O20 0.500000 0.741322 0.500000
O O21 0.653525 0.500000 0.448825
#
# Coordination Sequence:
#
# PCOD9151961 Si02
#       8
#     4   4   4   4   4   4   4   4
#     4  10  21  36  53  76 106 137 168 208 259 307
#     4   9  18  33  52  76 104 133 170 213 255 303
#     4  10  21  36  53  76 106 137 168 208 259 307
#     4  10  21  37  57  79 102 133 173 212 251 300
#     4   9  19  34  52  75 103 135 172 217 262 300
#     4   9  20  36  51  70  99 135 172 209 255 312
#     4   9  18  33  52  76 104 133 170 213 255 303
#     4   8  15  30  52  75 100 131 167 208 250 294
#
# _framework density 17.258023999999999
#
# number of rings (size 3 to 8) (size 9 to 14) (size 15 to 20)
#    0.000    2.750    0.000    3.375    0.000    7.000 
#    0.000    9.375    0.000    0.750    0.000    0.000 
#    0.000    0.000    0.000    0.000    0.000    0.000 
#
# Total GULP energy -178459.422407 kJ/mol
# GULP energy per Si atom -5576.856950 kJ/mol
# Density = 1.721874 g / cm^3
# Si number density = 17.258024 Si / 1000 Ang^3
#
#
#
# Elastic Constant Matrix: (Units=GPa)
#
#
# Indices 1 2 3 4 5 6 
#
# 1 175.0929 47.9008 133.5295 0.0000 -19.2157 0.0000
# 2 47.9008 32.9366 47.5691 0.0000 -0.2134 0.0000
# 3 133.5295 47.5691 172.3948 0.0000 17.4807 0.0000
# 4 0.0000 0.0000 0.0000 -0.3062 0.0000 22.0942
# 5 -19.2157 -0.2134 17.4807 0.0000 29.3937 0.0000
# 6 0.0000 0.0000 0.0000 22.0942 0.0000 -34.7145
#
#
#
# Elastic Compliance Matrix: (Units=1/GPa)
#
#
# Indices 1 2 3 4 5 6 
#
# 1 0.031791 -0.008553 -0.025929 0.000000 0.036141 0.000000
# 2 -0.008553 0.055233 -0.008608 0.000000 -0.000071 0.000000
# 3 -0.025929 -0.008608 0.031909 0.000000 -0.035990 0.000000
# 4 0.000000 0.000000 0.000000 0.072696 0.000000 0.046268
# 5 0.036141 -0.000071 -0.035990 0.000000 0.079051 0.000000
# 6 0.000000 0.000000 0.000000 0.046268 0.000000 0.000641
#
#
# Mechanical properties :
#
#
# Convention : Reuss Voigt Hill
#
# Bulk Modulus (GPa) = 30.53246 93.15812 61.84529
# Shear Modulus (GPa) = 13.57151 8.96961 11.27056
#
# Velocity S-wave (km/s) = 2.80730 2.28224 2.55828
# Velocity P-wave (km/s) = 5.31395 7.81291 6.68131
#
# Compressibility (1/GPa) = 0.03275203
#
# Stress axis : x y z
#
# Youngs Moduli (GPa) = 31.45503 18.10527 31.33940
#
# Poissons Ratio (x) = 0.15485 0.81260
# Poissons Ratio (y) = 0.26903 0.26978
# Poissons Ratio (z) = 0.81560 0.15586
#
# Static dielectric constant tensor:
#      x y z
#    x 1.571770 0.000000 -0.005650 
#    y 0.000000 1.581560 0.000000 
#    z -0.005650 0.000000 1.562980 
# 
# From -- ./inp_files/71515.got.cif
#   From: 2010.05.17/outbox.cif.g08.bks.cpg/sg10_36_cif.got.tgz:71515.got - 2010.06.03 11:33:40.
