data_PCOD9151852
_publ_section_title
;
Structure prediction by ZEFSAII (Michael W. Deem and Ramdas Pophale) SiO2 
 PCOD9151852
Probable space group: P 2/M
;
_chemical_formula_sum "Si O2"
_cell_formula_units_Z 32
_cell_length_a 12.258801
_cell_length_b 18.183931
_cell_length_c 14.645263
_cell_angle_alpha 90.000000
_cell_angle_beta 29.866289
_cell_angle_gamma 90.000000
_cell_volume 1625.708783
_symmetry_space_group_name_H-M "P 2/M"
_symmetry_group_IT_number 10
_symmetry_cell_setting 'monoclinic'
loop_
_space_group_symop_operation_xyz
x,y,z
-x,y,-z
-x,-y,-z
x,-y,z
loop_
_atom_site_type_symbol
_atom_site_label
_atom_site_fract_x
_atom_site_fract_y
_atom_site_fract_z
Si Si1 0.280477 0.419089 0.719641
Si Si2 0.299803 0.083779 0.093849
Si Si3 0.607898 0.412269 0.021440
Si Si4 0.951907 0.322510 0.260642
Si Si5 0.527240 0.339385 0.698937
Si Si6 0.397908 0.082962 0.810364
Si Si7 0.851584 0.776207 0.022360
Si Si8 0.883965 0.089070 0.488641
O O1 0.500000 0.423132 0.500000
O O2 0.183476 0.500000 0.796705
O O3 0.127428 0.366420 0.772168
O O4 0.368826 0.390418 0.751649
O O5 0.062117 0.113536 0.286013
O O6 0.287134 0.000000 0.142321
O O7 0.500000 0.122108 0.000000
O O8 0.352787 0.078263 0.950906
O O9 0.642474 0.500000 0.011922
O O10 0.460312 0.378280 0.211070
O O11 0.500000 0.403717 0.000000
O O12 0.835840 0.366768 0.857973
O O13 0.753761 0.324593 0.478764
O O14 0.026093 0.244914 0.161262
O O15 0.379425 0.266697 0.815332
O O16 0.218154 0.140026 0.907589
O O17 0.645405 0.113857 0.630194
O O18 0.386419 0.000000 0.779764
O O19 0.000000 0.752352 0.000000
O O20 0.000000 0.111260 0.500000
O O21 0.855196 0.000000 0.515557
#
# Coordination Sequence:
#
# PCOD9151852 Si02
#       8
#     4   4   4   4   4   4   4   4
#     4   9  16  29  57  95 119 139 186 248 301 345
#     4   9  15  27  50  78 108 138 170 222 291 354
#     4  10  22  38  60  94 133 172 210 242 281 348
#     4  10  21  39  62  88 122 163 205 251 306 364
#     4  10  21  39  62  89 122 163 203 249 307 362
#     4  10  21  35  54  83 115 150 195 250 308 368
#     4  11  23  40  60  83 111 155 207 254 314 378
#     4   9  15  27  51  80 110 139 170 220 291 359
#
# _framework density 19.683721999999999
#
# number of rings (size 3 to 8) (size 9 to 14) (size 15 to 20)
#    0.000    2.250    2.500    0.750    0.000    3.250 
#    0.000    5.625    5.500    0.000    0.000    5.250 
#    0.000    0.000    0.000    0.000    0.000    0.000 
#
# Total GULP energy -178153.174444 kJ/mol
# GULP energy per Si atom -5567.286701 kJ/mol
# Density = 1.963892 g / cm^3
# Si number density = 19.683722 Si / 1000 Ang^3
#
#
#
# Elastic Constant Matrix: (Units=GPa)
#
#
# Indices 1 2 3 4 5 6 
#
# 1 83.9058 27.5511 40.4186 0.0000 -0.0347 0.0000
# 2 27.5511 62.4620 28.3451 0.0000 -6.3358 0.0000
# 3 40.4186 28.3451 148.9769 0.0000 -1.3977 0.0000
# 4 0.0000 0.0000 0.0000 13.9396 0.0000 4.8085
# 5 -0.0347 -6.3358 -1.3977 0.0000 26.1235 0.0000
# 6 0.0000 0.0000 0.0000 4.8085 0.0000 22.4668
#
#
#
# Elastic Compliance Matrix: (Units=1/GPa)
#
#
# Indices 1 2 3 4 5 6 
#
# 1 0.015200 -0.005446 -0.003101 0.000000 -0.001467 0.000000
# 2 -0.005446 0.019918 -0.002268 0.000000 0.004702 0.000000
# 3 -0.003101 -0.002268 0.007984 0.000000 -0.000127 0.000000
# 4 0.000000 0.000000 0.000000 0.077457 0.000000 -0.016578
# 5 -0.001467 0.004702 -0.000127 0.000000 0.039411 0.000000
# 6 0.000000 0.000000 0.000000 -0.016578 0.000000 0.048058
#
#
# Mechanical properties :
#
#
# Convention : Reuss Voigt Hill
#
# Bulk Modulus (GPa) = 46.57356 54.21938 50.39647
# Shear Modulus (GPa) = 21.11347 25.77464 23.44405
#
# Velocity S-wave (km/s) = 3.27867 3.62254 3.45489
# Velocity P-wave (km/s) = 6.16808 6.71582 6.44777
#
# Compressibility (1/GPa) = 0.02147141
#
# Stress axis : x y z
#
# Youngs Moduli (GPa) = 65.79099 50.20587 125.24672
#
# Poissons Ratio (x) = 0.27341 0.38844
# Poissons Ratio (y) = 0.35828 0.28407
# Poissons Ratio (z) = 0.20405 0.11387
#
# Static dielectric constant tensor:
#      x y z
#    x 1.670120 0.000000 0.000530 
#    y 0.000000 1.774860 0.000000 
#    z 0.000530 0.000000 1.716420 
# 
# From -- ./inp_files/65390.got.cif
#   From: 2010.05.17/outbox.cif.g08.bks.cpg/sg10_33_cif.got.tgz:65390.got - 2010.06.03 11:33:40.
