data_PCOD9151386
_publ_section_title
;
Structure prediction by ZEFSAII (Michael W. Deem and Ramdas Pophale) SiO2 
 PCOD9151386
Probable space group: P 2/M
;
_chemical_formula_sum "Si O2"
_cell_formula_units_Z 24
_cell_length_a 10.200166
_cell_length_b 12.393593
_cell_length_c 13.756036
_cell_angle_alpha 90.000000
_cell_angle_beta 148.473315
_cell_angle_gamma 90.000000
_cell_volume 909.311692
_symmetry_space_group_name_H-M "P 2/M"
_symmetry_group_IT_number 10
_symmetry_cell_setting 'monoclinic'
loop_
_space_group_symop_operation_xyz
x,y,z
-x,y,-z
-x,-y,-z
x,-y,z
loop_
_atom_site_type_symbol
_atom_site_label
_atom_site_fract_x
_atom_site_fract_y
_atom_site_fract_z
Si Si1 0.169331 0.885710 0.405833
Si Si2 0.319826 0.155826 0.799428
Si Si3 0.770288 0.618031 0.927485
Si Si4 0.868338 0.384086 0.310771
Si Si5 0.223014 0.121841 0.021719
Si Si6 0.634169 0.341199 0.483657
O O1 0.359052 0.788161 0.517170
O O2 0.967841 0.874921 0.366366
O O3 0.299229 0.000000 0.488876
O O4 0.976231 0.882372 0.192973
O O5 0.316977 0.284774 0.805029
O O6 0.477439 0.119655 0.807776
O O7 0.500000 0.115764 0.000000
O O8 0.770957 0.500000 0.984199
O O9 0.801978 0.746767 0.974361
O O10 0.519556 0.616698 0.704631
O O11 0.000000 0.606957 0.000000
O O12 0.748760 0.500000 0.226148
O O13 0.000000 0.378798 0.500000
O O14 0.076735 0.371008 0.357044
O O15 0.181830 0.000000 0.041617
O O16 0.500000 0.373520 0.500000
#
# Coordination Sequence:
#
# PCOD9151386 Si02
#       6
#     4   4   4   4   4   4
#     4   9  19  37  61  90 125 163 206 257 311 369
#     4   9  18  33  55  87 121 154 198 251 305 363
#     4  11  25  43  62  87 121 162 208 260 316 374
#     4  10  21  37  57  83 119 162 204 250 306 366
#     4  10  20  38  65  93 123 163 208 256 311 371
#     4  11  23  40  62  89 122 162 211 260 312 371
#
# _framework density 26.393588999999999
#
# number of rings (size 3 to 8) (size 9 to 14) (size 15 to 20)
#    0.000    2.000    0.000    3.000    0.000    7.000 
#    0.000   10.833    0.000    5.500    0.000    0.000 
#    0.000    0.000    0.000    0.000    0.000    0.000 
#
# Total GULP energy -133697.705741 kJ/mol
# GULP energy per Si atom -5570.737739 kJ/mol
# Density = 2.633352 g / cm^3
# Si number density = 26.393589 Si / 1000 Ang^3
#
#
#
# Elastic Constant Matrix: (Units=GPa)
#
#
# Indices 1 2 3 4 5 6 
#
# 1 109.4810 42.5974 11.5321 0.0000 17.8977 0.0000
# 2 42.5974 320.3531 23.5891 0.0000 -4.1568 0.0000
# 3 11.5321 23.5891 63.4580 0.0000 -5.5724 0.0000
# 4 0.0000 0.0000 0.0000 26.4346 0.0000 -2.7453
# 5 17.8977 -4.1568 -5.5724 0.0000 33.8009 0.0000
# 6 0.0000 0.0000 0.0000 -2.7453 0.0000 -3.0543
#
#
#
# Elastic Compliance Matrix: (Units=1/GPa)
#
#
# Indices 1 2 3 4 5 6 
#
# 1 0.010912 -0.001384 -0.002020 0.000000 -0.006281 0.000000
# 2 -0.001384 0.003386 -0.000920 0.000000 0.000997 0.000000
# 3 -0.002020 -0.000920 0.016795 0.000000 0.003725 0.000000
# 4 0.000000 0.000000 0.000000 0.034599 0.000000 -0.031099
# 5 -0.006281 0.000997 0.003725 0.000000 0.033648 0.000000
# 6 0.000000 0.000000 0.000000 -0.031099 0.000000 -0.299454
#
#
# Mechanical properties :
#
#
# Convention : Reuss Voigt Hill
#
# Bulk Modulus (GPa) = 44.55221 72.08102 58.31661
# Shear Modulus (GPa) = -27.17622 39.14113 5.98246
#
# Velocity S-wave (km/s) = -3.21230 3.85512 1.50717
# Velocity P-wave (km/s) = 1.77710 6.86916 5.01714
#
# Compressibility (1/GPa) = 0.02244558
#
# Stress axis : x y z
#
# Youngs Moduli (GPa) = 91.64205 295.31507 59.54293
#
# Poissons Ratio (x) = 0.40863 0.12029
# Poissons Ratio (y) = 0.12681 0.05476
# Poissons Ratio (z) = 0.18514 0.27160
#
# Static dielectric constant tensor:
#      x y z
#    x 2.588720 0.000000 0.500570 
#    y 0.000000 2.148220 0.000000 
#    z 0.500570 0.000000 2.748200 
# 
# From -- ./inp_files/76722.got.cif
#   From: 2010.05.17/outbox.cif.g08.bks.cpg/sg10_39_cif.got.tgz:76722.got - 2010.06.03 11:33:40.
