data_PCOD9151584
_publ_section_title
;
Structure prediction by ZEFSAII (Michael W. Deem and Ramdas Pophale) SiO2 
 PCOD9151584
Probable space group: P 2/M
;
_chemical_formula_sum "Si O2"
_cell_formula_units_Z 20
_cell_length_a 9.488571
_cell_length_b 11.888073
_cell_length_c 7.873651
_cell_angle_alpha 90.000000
_cell_angle_beta 107.117673
_cell_angle_gamma 90.000000
_cell_volume 848.811108
_symmetry_space_group_name_H-M "P 2/M"
_symmetry_group_IT_number 10
_symmetry_cell_setting 'monoclinic'
loop_
_space_group_symop_operation_xyz
x,y,z
-x,y,-z
-x,-y,-z
x,-y,z
loop_
_atom_site_type_symbol
_atom_site_label
_atom_site_fract_x
_atom_site_fract_y
_atom_site_fract_z
Si Si1 0.327068 0.370496 0.304159
Si Si2 0.420701 0.242603 0.789155
Si Si3 0.852352 0.000000 0.825305
Si Si4 0.834033 0.629921 0.119628
Si Si5 0.497973 0.000000 0.296054
Si Si6 0.914628 0.774171 0.647119
O O1 0.344584 0.500000 0.358753
O O2 0.477306 0.309594 0.306101
O O3 0.232214 0.300898 0.405025
O O4 0.237526 0.368145 0.092345
O O5 0.279083 0.315214 0.787925
O O6 0.416384 0.112524 0.731479
O O7 0.500000 0.237161 0.000000
O O8 0.677891 0.000000 0.826756
O O9 0.869912 0.109342 0.715657
O O10 0.000000 0.000000 0.000000
O O11 0.868517 0.500000 0.172700
O O12 0.975374 0.707278 0.190145
O O13 0.500000 0.000000 0.500000
O O14 0.000000 0.787854 0.500000
#
# Coordination Sequence:
#
# PCOD9151584 Si02
#       6
#     4   4   2   4   2   4
#     4  10  20  40  67  96 133 179 229 282 337 411
#     4  10  22  41  69  98 134 177 232 284 341 409
#     4  12  27  49  76  99 134 188 240 284 345 420
#     4  10  22  40  67 101 134 178 231 285 342 414
#     4  12  27  45  72 103 142 182 228 288 355 414
#     4  12  26  42  65  97 139 178 228 289 350 407
#
# _framework density 23.562367999999999
#
# number of rings (size 3 to 8) (size 9 to 14) (size 15 to 20)
#    0.000    1.200    2.000    3.600    5.600    6.400 
#    0.000    0.000    0.000    3.600    0.000    0.000 
#    0.000    0.000    0.000    0.000    0.000    0.000 
#
# Total GULP energy -111959.437465 kJ/mol
# GULP energy per Si atom -5597.971873 kJ/mol
# Density = 2.350874 g / cm^3
# Si number density = 23.562368 Si / 1000 Ang^3
#
#
#
# Elastic Constant Matrix: (Units=GPa)
#
#
# Indices 1 2 3 4 5 6 
#
# 1 24.1397 13.2511 -10.3734 0.0000 -17.5607 0.0000
# 2 13.2511 192.9816 4.7045 0.0000 -19.3151 0.0000
# 3 -10.3734 4.7045 83.1007 0.0000 -7.6536 0.0000
# 4 0.0000 0.0000 0.0000-1524.9976 0.0000-6041.9644
# 5 -17.5607 -19.3151 -7.6536 0.0000 49.2144 0.0000
# 6 0.0000 0.0000 0.0000-6041.9644 0.0000**********
#
#
#
# Elastic Compliance Matrix: (Units=1/GPa)
#
#
# Indices 1 2 3 4 5 6 
#
# 1 0.064350 -0.002302 0.010343 0.000000 0.023666 0.000000
# 2 -0.002302 0.005477 -0.000482 0.000000 0.001253 0.000000
# 3 0.010343 -0.000482 0.013873 0.000000 0.005659 0.000000
# 4 0.000000 0.000000 0.000000 0.029586 0.000000 -0.007633
# 5 0.023666 0.001253 0.005659 0.000000 0.030136 0.000000
# 6 0.000000 0.000000 0.000000 -0.007633 0.000000 0.001927
#
#
# Mechanical properties :
#
#
# Convention : Reuss Voigt Hill
#
# Bulk Modulus (GPa) = 10.11965 35.04293 22.58129
# Shear Modulus (GPa) = 30.64275 -4959.43050 -2464.39387
#
# Velocity S-wave (km/s) = 3.61015 -45.92798 -32.37550
# Velocity P-wave (km/s) = 4.65637 52.89235 37.25533
#
# Compressibility (1/GPa) = 0.09881768
#
# Stress axis : x y z
#
# Youngs Moduli (GPa) = 15.54002 182.57858 72.08172
#
# Poissons Ratio (x) = 0.42030 -0.74552
# Poissons Ratio (y) = 0.03577 0.03474
# Poissons Ratio (z) = -0.16073 0.08801
#
# Static dielectric constant tensor:
#      x y z
#    x 1.776610 0.000000 -0.012110 
#    y 0.000000 1.803210 0.000000 
#    z -0.012110 0.000000 1.871680 
# 
# From -- ./inp_files/17975.got.cif
#   From: 2010.05.17/outbox.cif.g08.bks.cpg/sg10_9_cif.got.tgz:17975.got - 2010.06.03 11:33:40.
