data_PCOD9151983
_publ_section_title
;
Structure prediction by ZEFSAII (Michael W. Deem and Ramdas Pophale) SiO2 
 PCOD9151983
Probable space group: P 2/M
;
_chemical_formula_sum "Si O2"
_cell_formula_units_Z 32
_cell_length_a 8.710722
_cell_length_b 19.755493
_cell_length_c 12.764877
_cell_angle_alpha 90.000000
_cell_angle_beta 134.042096
_cell_angle_gamma 90.000000
_cell_volume 1579.008214
_symmetry_space_group_name_H-M "P 2/M"
_symmetry_group_IT_number 10
_symmetry_cell_setting 'monoclinic'
loop_
_space_group_symop_operation_xyz
x,y,z
-x,y,-z
-x,-y,-z
x,-y,z
loop_
_atom_site_type_symbol
_atom_site_label
_atom_site_fract_x
_atom_site_fract_y
_atom_site_fract_z
Si Si1 0.553730 0.577989 0.189602
Si Si2 0.615855 0.579486 0.451045
Si Si3 0.121338 0.363464 0.953144
Si Si4 0.865348 0.794505 0.033329
Si Si5 0.973358 0.344016 0.324840
Si Si6 0.232647 0.926946 0.555156
Si Si7 0.555401 0.882738 0.140376
Si Si8 0.016512 0.187975 0.330344
O O1 0.622682 0.500000 0.207760
O O2 0.493350 0.587500 0.283817
O O3 0.331796 0.593502 0.028107
O O4 0.740071 0.629263 0.245190
O O5 0.500000 0.607175 0.500000
O O6 0.651115 0.500000 0.486125
O O7 0.841765 0.613262 0.534892
O O8 0.183395 0.285109 0.003273
O O9 0.994207 0.358847 0.784068
O O10 0.000000 0.387892 0.000000
O O11 0.016663 0.805547 0.205379
O O12 0.641931 0.832189 0.939575
O O13 0.000000 0.819941 0.000000
O O14 0.010101 0.265076 0.367110
O O15 0.405011 0.921192 0.730957
O O16 0.000000 0.930376 0.500000
O O17 0.197744 0.860802 0.465454
O O18 0.263395 0.000000 0.514791
O O19 0.781937 0.844129 0.238459
O O20 0.500000 0.916687 0.000000
#
# Coordination Sequence:
#
# PCOD9151983 Si02
#       8
#     4   4   4   4   4   4   4   4
#     4  11  23  36  53  79 109 143 181 224 275 326
#     4  10  22  39  55  74 105 143 181 222 270 325
#     4  10  21  36  54  77 106 140 180 226 272 320
#     4   9  18  34  54  77 106 139 178 223 267 316
#     4  11  21  35  56  81 107 138 181 226 272 322
#     4   9  18  33  54  81 110 139 175 220 267 316
#     4   9  17  31  53  79 107 139 176 218 266 315
#     4   9  19  34  54  82 108 137 177 223 272 319
#
# _framework density 20.265885000000001
#
# number of rings (size 3 to 8) (size 9 to 14) (size 15 to 20)
#    0.000    2.250    0.000    2.625    0.000    9.000 
#    0.000    2.500    0.000    2.250    0.000    0.000 
#    0.000    0.000    0.000    0.000    0.000    0.000 
#
# Total GULP energy -178259.030688 kJ/mol
# GULP energy per Si atom -5570.594709 kJ/mol
# Density = 2.021976 g / cm^3
# Si number density = 20.265885 Si / 1000 Ang^3
#
#
#
# Elastic Constant Matrix: (Units=GPa)
#
#
# Indices 1 2 3 4 5 6 
#
# 1 52.2585 16.6720 10.3385 0.0000 -11.2928 0.0000
# 2 16.6720 61.6311 34.9773 0.0000 -8.3255 0.0000
# 3 10.3385 34.9773 92.5396 0.0000 1.4898 0.0000
# 4 0.0000 0.0000 0.0000 19.6989 0.0000 -6.5279
# 5 -11.2928 -8.3255 1.4898 0.0000 26.3942 0.0000
# 6 0.0000 0.0000 0.0000 -6.5279 0.0000 10.4009
#
#
#
# Elastic Compliance Matrix: (Units=1/GPa)
#
#
# Indices 1 2 3 4 5 6 
#
# 1 0.022533 -0.004417 -0.000982 0.000000 0.008303 0.000000
# 2 -0.004417 0.022885 -0.008250 0.000000 0.005795 0.000000
# 3 -0.000982 -0.008250 0.014095 0.000000 -0.003818 0.000000
# 4 0.000000 0.000000 0.000000 0.064095 0.000000 0.040228
# 5 0.008303 0.005795 -0.003818 0.000000 0.043483 0.000000
# 6 0.000000 0.000000 0.000000 0.040228 0.000000 0.121393
#
#
# Mechanical properties :
#
#
# Convention : Reuss Voigt Hill
#
# Bulk Modulus (GPa) = 31.03914 36.71166 33.87540
# Shear Modulus (GPa) = 15.31298 20.92823 18.12061
#
# Velocity S-wave (km/s) = 2.75181 3.21702 2.99347
# Velocity P-wave (km/s) = 5.04438 5.65273 5.35720
#
# Compressibility (1/GPa) = 0.03221739
#
# Stress axis : x y z
#
# Youngs Moduli (GPa) = 44.37897 43.69665 70.94471
#
# Poissons Ratio (x) = 0.19300 0.06965
# Poissons Ratio (y) = 0.19601 0.58528
# Poissons Ratio (z) = 0.04357 0.36049
#
# Static dielectric constant tensor:
#      x y z
#    x 1.715390 0.000000 -0.058030 
#    y 0.000000 1.735910 0.000000 
#    z -0.058030 0.000000 1.747670 
# 
# From -- ./inp_files/43620.got.cif
#   From: 2010.05.17/outbox.cif.g08.bks.cpg/sg10_22_cif.got.tgz:43620.got - 2010.06.03 11:33:40.
