data_PCOD9151460
_publ_section_title
;
Structure prediction by ZEFSAII (Michael W. Deem and Ramdas Pophale) SiO2 
 PCOD9151460
Probable space group: P 2/M
;
_chemical_formula_sum "Si O2"
_cell_formula_units_Z 30
_cell_length_a 32.222298
_cell_length_b 8.599566
_cell_length_c 5.544012
_cell_angle_alpha 90.000000
_cell_angle_beta 120.990100
_cell_angle_gamma 90.000000
_cell_volume 1316.945737
_symmetry_space_group_name_H-M "P 2/M"
_symmetry_group_IT_number 10
_symmetry_cell_setting 'monoclinic'
loop_
_space_group_symop_operation_xyz
x,y,z
-x,y,-z
-x,-y,-z
x,-y,z
loop_
_atom_site_type_symbol
_atom_site_label
_atom_site_fract_x
_atom_site_fract_y
_atom_site_fract_z
Si Si1 0.699773 0.672149 0.904340
Si Si2 0.055638 0.173209 0.751472
Si Si3 0.205170 0.328484 0.484157
Si Si4 0.226025 0.166207 0.125758
Si Si5 0.399258 0.313747 0.155201
Si Si6 0.869316 0.320968 0.357637
Si Si7 0.556628 0.814323 0.211862
Si Si8 0.030587 0.500000 0.844177
O O1 0.686745 0.500000 0.771290
O O2 0.718607 0.782627 0.751074
O O3 0.656563 0.723970 0.945281
O O4 0.750600 0.660927 0.195490
O O5 0.089634 0.210169 0.622825
O O6 0.057625 0.332303 0.915798
O O7 0.000000 0.164278 0.500000
O O8 0.068135 0.000000 0.888571
O O9 0.207431 0.500000 0.369768
O O10 0.218880 0.174055 0.387302
O O11 0.152246 0.311085 0.438887
O O12 0.217362 0.000000 0.985822
O O13 0.180522 0.277161 0.927901
O O14 0.404092 0.500000 0.151109
O O15 0.427210 0.257239 0.481724
O O16 0.415889 0.244247 0.948048
O O17 0.883743 0.500000 0.357979
O O18 0.562857 0.000000 0.247671
O O19 0.500000 0.779521 0.000000
O O20 0.000000 0.500000 0.500000
O O21 0.000000 0.500000 0.000000
#
# Coordination Sequence:
#
# PCOD9151460 Si02
#       8
#     4   4   4   4   4   4   4   2
#     4   9  21  40  61  84 120 162 208 263 325 392
#     4  10  21  40  65  93 128 167 215 277 335 398
#     4   9  19  37  60  84 116 161 206 255 316 388
#     4  11  22  35  55  87 122 158 203 260 321 388
#     4  11  24  42  69 103 132 175 233 288 338 402
#     4  10  20  39  62  85 117 162 212 258 317 390
#     4  11  25  45  67  96 139 184 225 279 350 416
#     4  10  22  44  68  96 130 170 214 262 326 390
#
# _framework density 22.779982
#
# number of rings (size 3 to 8) (size 9 to 14) (size 15 to 20)
#    0.000    1.867    0.667    3.600    1.867    6.667 
#    4.800    0.000    0.000    0.000    0.000    0.000 
#    0.000    0.000    0.000    0.000    0.000    0.000 
#
# Total GULP energy -167057.907486 kJ/mol
# GULP energy per Si atom -5568.596916 kJ/mol
# Density = 2.272813 g / cm^3
# Si number density = 22.779982 Si / 1000 Ang^3
#
#
#
# Elastic Constant Matrix: (Units=GPa)
#
#
# Indices 1 2 3 4 5 6 
#
# 1 136.3797 46.8898 6.0483 0.0000 -5.6555 0.0000
# 2 46.8898 101.1729 2.9371 0.0000 -16.5219 0.0000
# 3 6.0483 2.9371 30.7645 0.0000 -5.5041 0.0000
# 4 0.0000 0.0000 0.0000 21.7062 0.0000 -4.8813
# 5 -5.6555 -16.5219 -5.5041 0.0000 29.0318 0.0000
# 6 0.0000 0.0000 0.0000 -4.8813 0.0000 -6.5799
#
#
#
# Elastic Compliance Matrix: (Units=1/GPa)
#
#
# Indices 1 2 3 4 5 6 
#
# 1 0.008800 -0.004191 -0.001501 0.000000 -0.000955 0.000000
# 2 -0.004191 0.012893 0.000786 0.000000 0.006670 0.000000
# 3 -0.001501 0.000786 0.033903 0.000000 0.006583 0.000000
# 4 0.000000 0.000000 0.000000 0.039483 0.000000 -0.029291
# 5 -0.000955 0.006670 0.006583 0.000000 0.039303 0.000000
# 6 0.000000 0.000000 0.000000 -0.029291 0.000000 -0.130249
#
#
# Mechanical properties :
#
#
# Convention : Reuss Voigt Hill
#
# Bulk Modulus (GPa) = 21.84135 42.22973 32.03554
# Shear Modulus (GPa) = 171.19869 22.99440 97.09654
#
# Velocity S-wave (km/s) = 8.67850 3.18057 6.53576
# Velocity P-wave (km/s) = 10.48954 5.66272 8.42902
#
# Compressibility (1/GPa) = 0.04578471
#
# Stress axis : x y z
#
# Youngs Moduli (GPa) = 113.63132 77.56222 29.49615
#
# Poissons Ratio (x) = 0.32507 0.04427
# Poissons Ratio (y) = 0.47624 -0.02320
# Poissons Ratio (z) = 0.17056 -0.06100
#
# Static dielectric constant tensor:
#      x y z
#    x 1.892660 0.000000 -0.145210 
#    y 0.000000 2.121590 0.000000 
#    z -0.145210 0.000000 2.100830 
# 
# From -- ./inp_files/13668.got.cif
#   From: 2010.05.17/outbox.cif.g08.bks.cpg/sg10_7_cif.got.tgz:13668.got - 2010.06.03 11:33:40.
