data_PCOD9151035
_publ_section_title
;
Structure prediction by ZEFSAII (Michael W. Deem and Ramdas Pophale) SiO2 
 PCOD9151035
Probable space group: P 2/M
;
_chemical_formula_sum "Si O2"
_cell_formula_units_Z 32
_cell_length_a 11.061261
_cell_length_b 19.119986
_cell_length_c 14.139689
_cell_angle_alpha 90.000000
_cell_angle_beta 30.784793
_cell_angle_gamma 90.000000
_cell_volume 1530.540991
_symmetry_space_group_name_H-M "P 2/M"
_symmetry_group_IT_number 10
_symmetry_cell_setting 'monoclinic'
loop_
_space_group_symop_operation_xyz
x,y,z
-x,y,-z
-x,-y,-z
x,-y,z
loop_
_atom_site_type_symbol
_atom_site_label
_atom_site_fract_x
_atom_site_fract_y
_atom_site_fract_z
Si Si1 0.329321 0.421569 0.534924
Si Si2 0.366040 0.417580 0.296584
Si Si3 0.073651 0.597482 0.054954
Si Si4 0.306820 0.078279 0.047924
Si Si5 0.963407 0.760317 0.922724
Si Si6 0.734371 0.706726 0.778072
Si Si7 0.450066 0.815716 0.243227
Si Si8 0.078849 0.803329 0.653039
O O1 0.500000 0.387481 0.500000
O O2 0.431475 0.500000 0.449970
O O3 0.305798 0.393095 0.444673
O O4 0.081506 0.428286 0.753611
O O5 0.298750 0.500000 0.327588
O O6 0.261107 0.363892 0.288832
O O7 0.652130 0.413261 0.105778
O O8 0.003747 0.678323 0.096712
O O9 0.000000 0.570762 0.000000
O O10 0.107101 0.132420 0.217148
O O11 0.217151 0.000000 0.089374
O O12 0.500000 0.075136 0.000000
O O13 0.449524 0.111542 0.864066
O O14 0.126722 0.790013 0.730945
O O15 0.687252 0.770296 0.088201
O O16 0.000000 0.793570 0.000000
O O17 0.706789 0.773095 0.726509
O O18 0.946676 0.733336 0.702419
O O19 0.500000 0.701818 0.000000
O O20 0.301321 0.819448 0.438492
#
# Coordination Sequence:
#
# PCOD9151035 Si02
#       8
#     4   4   4   4   4   4   4   4
#     4  10  21  36  54  79 114 154 201 258 325 385
#     4  11  24  39  58  88 120 161 216 270 319 376
#     4  11  20  35  59  84 117 161 206 261 331 378
#     4  10  20  37  61  99 139 164 203 259 303 358
#     4  10  23  40  60  95 127 155 208 269 311 367
#     4  12  21  42  63  86 122 166 214 254 307 378
#     4  11  21  39  65  94 124 170 206 248 305 376
#     4  11  22  40  66  91 125 177 208 243 316 375
#
# _framework density 20.907641000000002
#
# number of rings (size 3 to 8) (size 9 to 14) (size 15 to 20)
#    0.000    1.250    6.250    0.750    1.750    1.750 
#    2.250    1.250    0.000    7.500    0.000    7.000 
#    0.000    0.000    0.000    0.000    0.000    0.125 
#
# Total GULP energy -178570.456342 kJ/mol
# GULP energy per Si atom -5580.326761 kJ/mol
# Density = 2.086005 g / cm^3
# Si number density = 20.907641 Si / 1000 Ang^3
#
#
#
# Elastic Constant Matrix: (Units=GPa)
#
#
# Indices 1 2 3 4 5 6 
#
# 1 54.9546 17.2070 25.6773 0.0000 32.4431 0.0000
# 2 17.2070 116.4130 35.3008 0.0000 18.9968 0.0000
# 3 25.6773 35.3008 163.2340 0.0000 40.8745 0.0000
# 4 0.0000 0.0000 0.0000 13.4805 0.0000 7.5845
# 5 32.4431 18.9968 40.8745 0.0000 37.6598 0.0000
# 6 0.0000 0.0000 0.0000 7.5845 0.0000 44.7960
#
#
#
# Elastic Compliance Matrix: (Units=1/GPa)
#
#
# Indices 1 2 3 4 5 6 
#
# 1 0.038165 -0.000734 0.003152 0.000000 -0.035929 0.000000
# 2 -0.000734 0.009536 -0.001237 0.000000 -0.002836 0.000000
# 3 0.003152 -0.001237 0.008818 0.000000 -0.011662 0.000000
# 4 0.000000 0.000000 0.000000 0.081992 0.000000 -0.013882
# 5 -0.035929 -0.002836 -0.011662 0.000000 0.071594 0.000000
# 6 0.000000 0.000000 0.000000 -0.013882 0.000000 0.024674
#
#
# Mechanical properties :
#
#
# Convention : Reuss Voigt Hill
#
# Bulk Modulus (GPa) = 16.98300 54.55243 35.76772
# Shear Modulus (GPa) = 19.83778 36.28169 28.05974
#
# Velocity S-wave (km/s) = 3.08365 4.17025 3.66742
# Velocity P-wave (km/s) = 4.56279 7.02401 5.92266
#
# Compressibility (1/GPa) = 0.05888241
#
# Stress axis : x y z
#
# Youngs Moduli (GPa) = 26.20195 104.86147 113.40275
#
# Poissons Ratio (x) = 0.07696 -0.35745
# Poissons Ratio (y) = 0.01923 0.14025
# Poissons Ratio (z) = -0.08259 0.12969
#
# Static dielectric constant tensor:
#      x y z
#    x 1.864650 0.000000 -0.007990 
#    y 0.000000 1.787790 0.000000 
#    z -0.007990 0.000000 1.756760 
# 
# From -- ./inp_files/65371.got.cif
#   From: 2010.05.17/outbox.cif.g08.bks.cpg/sg10_33_cif.got.tgz:65371.got - 2010.06.03 11:33:40.
