data_PCOD9151250
_publ_section_title
;
Structure prediction by ZEFSAII (Michael W. Deem and Ramdas Pophale) SiO2 
 PCOD9151250
Probable space group: P 2/M
;
_chemical_formula_sum "Si O2"
_cell_formula_units_Z 26
_cell_length_a 10.836478
_cell_length_b 12.917182
_cell_length_c 23.803264
_cell_angle_alpha 90.000000
_cell_angle_beta 22.004510
_cell_angle_gamma 90.000000
_cell_volume 1248.396276
_symmetry_space_group_name_H-M "P 2/M"
_symmetry_group_IT_number 10
_symmetry_cell_setting 'monoclinic'
loop_
_space_group_symop_operation_xyz
x,y,z
-x,y,-z
-x,-y,-z
x,-y,z
loop_
_atom_site_type_symbol
_atom_site_label
_atom_site_fract_x
_atom_site_fract_y
_atom_site_fract_z
Si Si1 0.622096 0.210431 0.679495
Si Si2 0.832828 0.000000 0.896776
Si Si3 0.827023 0.773012 0.900545
Si Si4 0.666636 0.000000 0.177473
Si Si5 0.331456 0.000000 0.203936
Si Si6 0.373949 0.619649 0.698879
Si Si7 0.800440 0.381873 0.410773
Si Si8 0.655787 0.777511 0.799289
O O1 0.475482 0.308312 0.708153
O O2 0.614161 0.228922 0.749974
O O3 0.000000 0.194513 0.500000
O O4 0.406649 0.106451 0.759210
O O5 0.984691 0.886877 0.822145
O O6 0.500000 0.000000 0.000000
O O7 0.683155 0.000000 0.022985
O O8 0.076552 0.678268 0.792588
O O9 0.500000 0.763106 0.000000
O O10 0.687060 0.774120 0.023224
O O11 0.387503 0.000000 0.246602
O O12 0.000000 0.000000 0.000000
O O13 0.181055 0.111037 0.254039
O O14 0.296865 0.500000 0.745468
O O15 0.675151 0.618744 0.527783
O O16 0.500000 0.342032 0.500000
O O17 0.864495 0.500000 0.366135
O O18 0.118074 0.312488 0.273215
#
# Coordination Sequence:
#
# PCOD9151250 Si02
#       8
#     4   2   4   2   2   4   4   4
#     4  11  23  41  62  91 126 163 201 251 305 364
#     4   8  16  32  55  84 115 151 185 230 302 365
#     4  10  21  38  62  90 123 158 201 257 314 369
#     4  10  23  37  67  94 119 159 204 246 301 366
#     4   8  18  33  53  84 118 144 184 237 286 363
#     4  11  25  40  59  89 123 160 208 258 306 366
#     4  10  21  39  61  84 113 158 211 252 295 357
#     4  10  20  38  61  85 120 157 197 246 311 364
#
# _framework density 20.826722
#
# number of rings (size 3 to 8) (size 9 to 14) (size 15 to 20)
#    0.000    2.000    1.538    1.154    6.462    1.846 
#    0.000    1.923    0.000    0.000    0.000    0.000 
#    0.000    0.000    0.000    0.000    0.000    0.000 
#
# Total GULP energy -145025.704182 kJ/mol
# GULP energy per Si atom -5577.911699 kJ/mol
# Density = 2.077932 g / cm^3
# Si number density = 20.826722 Si / 1000 Ang^3
#
#
#
# Elastic Constant Matrix: (Units=GPa)
#
#
# Indices 1 2 3 4 5 6 
#
# 1 67.9286 18.5735 6.5815 0.0000 6.1876 0.0000
# 2 18.5735 168.5226 46.6954 0.0000 -18.6338 0.0000
# 3 6.5815 46.6954 58.6196 0.0000 -2.4162 0.0000
# 4 0.0000 0.0000 0.0000 28.9784 0.0000 -11.5355
# 5 6.1876 -18.6338 -2.4162 0.0000 29.8803 0.0000
# 6 0.0000 0.0000 0.0000 -11.5355 0.0000 163.1998
#
#
#
# Elastic Compliance Matrix: (Units=1/GPa)
#
#
# Indices 1 2 3 4 5 6 
#
# 1 0.015765 -0.002192 -0.000216 0.000000 -0.004649 0.000000
# 2 -0.002192 0.008505 -0.006312 0.000000 0.005247 0.000000
# 3 -0.000216 -0.006312 0.022025 0.000000 -0.002111 0.000000
# 4 0.000000 0.000000 0.000000 0.035508 0.000000 0.002510
# 5 -0.004649 0.005247 -0.002111 0.000000 0.037531 0.000000
# 6 0.000000 0.000000 0.000000 0.002510 0.000000 0.006305
#
#
# Mechanical properties :
#
#
# Convention : Reuss Voigt Hill
#
# Bulk Modulus (GPa) = 34.65641 48.75243 41.70442
# Shear Modulus (GPa) = 32.74484 59.29305 46.01894
#
# Velocity S-wave (km/s) = 3.96946 5.34149 4.70575
# Velocity P-wave (km/s) = 6.13884 7.84228 7.04226
#
# Compressibility (1/GPa) = 0.02885469
#
# Stress axis : x y z
#
# Youngs Moduli (GPa) = 63.43164 117.58135 45.40362
#
# Poissons Ratio (x) = 0.25771 0.00979
# Poissons Ratio (y) = 0.13903 0.28660
# Poissons Ratio (z) = 0.01368 0.74222
#
# Static dielectric constant tensor:
#      x y z
#    x 1.856010 0.000000 -0.037790 
#    y 0.000000 1.781270 0.000000 
#    z -0.037790 0.000000 1.755400 
# 
# From -- ./inp_files/92839.got.cif
#   From: 2010.05.17/outbox.cif.g08.bks.cpg/sg10_47_cif.got.tgz:92839.got - 2010.06.03 11:33:40.
