data_PCOD9151191
_publ_section_title
;
Structure prediction by ZEFSAII (Michael W. Deem and Ramdas Pophale) SiO2 
 PCOD9151191
Probable space group: P 2/M
;
_chemical_formula_sum "Si O2"
_cell_formula_units_Z 16
_cell_length_a 6.792680
_cell_length_b 13.010888
_cell_length_c 7.241764
_cell_angle_alpha 90.000000
_cell_angle_beta 121.248124
_cell_angle_gamma 90.000000
_cell_volume 547.170201
_symmetry_space_group_name_H-M "P 2/M"
_symmetry_group_IT_number 10
_symmetry_cell_setting 'monoclinic'
loop_
_space_group_symop_operation_xyz
x,y,z
-x,y,-z
-x,-y,-z
x,-y,z
loop_
_atom_site_type_symbol
_atom_site_label
_atom_site_fract_x
_atom_site_fract_y
_atom_site_fract_z
Si Si1 0.107544 0.611587 0.302565
Si Si2 0.514063 0.657825 0.220518
Si Si3 0.392456 0.888413 0.197436
Si Si4 0.014064 0.157825 0.720518
O O1 0.994581 0.500000 0.235557
O O2 0.272244 0.613065 0.562622
O O3 0.284058 0.623900 0.216958
O O4 0.970753 0.718228 0.245859
O O5 0.529247 0.781772 0.254142
O O6 0.772242 0.886935 0.062622
O O7 0.500000 0.630992 0.000000
O O8 0.215940 0.876100 0.283040
O O9 0.505419 0.000000 0.264444
O O10 0.000000 0.130990 0.500000
#
# Coordination Sequence:
#
# PCOD9151191 Si02
#       4
#     4   4   4   4
#     4  10  22  38  56  82 112 142 182 226 268 322
#     4  10  20  38  58  80 112 144 180 226 270 320
#     4  10  22  38  56  82 112 142 182 226 268 322
#     4  10  20  38  58  80 112 144 180 226 270 320
#
# _framework density 29.241358999999999
#
# number of rings (size 3 to 8) (size 9 to 14) (size 15 to 20)
#    0.000    2.000    0.000    4.500    0.000    5.000 
#    0.000   22.500    0.000    0.000    0.000    0.000 
#    0.000    0.000    0.000    0.000    0.000    0.000 
#
# Total GULP energy -90073.077287 kJ/mol
# GULP energy per Si atom -5629.567330 kJ/mol
# Density = 2.917480 g / cm^3
# Si number density = 29.241359 Si / 1000 Ang^3
#
#
#
# Elastic Constant Matrix: (Units=GPa)
#
#
# Indices 1 2 3 4 5 6 
#
# 1 113.3537 45.0523 44.9382 0.0000 -27.5616 0.0000
# 2 45.0523 282.8477 54.9912 0.0000 -0.3618 0.0000
# 3 44.9382 54.9912 209.5276 0.0000 -45.0926 0.0000
# 4 0.0000 0.0000 0.0000 36.5950 0.0000 -0.5736
# 5 -27.5616 -0.3618 -45.0926 0.0000 60.7023 0.0000
# 6 0.0000 0.0000 0.0000 -0.5736 0.0000 18.6560
#
#
#
# Elastic Compliance Matrix: (Units=1/GPa)
#
#
# Indices 1 2 3 4 5 6 
#
# 1 0.010845 -0.001521 -0.001034 0.000000 0.004147 0.000000
# 2 -0.001521 0.003975 -0.001024 0.000000 -0.001428 0.000000
# 3 -0.001034 -0.001024 0.006143 0.000000 0.004088 0.000000
# 4 0.000000 0.000000 0.000000 0.027339 0.000000 0.000841
# 5 0.004147 -0.001428 0.004088 0.000000 0.021385 0.000000
# 6 0.000000 0.000000 0.000000 0.000841 0.000000 0.053628
#
#
# Mechanical properties :
#
#
# Convention : Reuss Voigt Hill
#
# Bulk Modulus (GPa) = 72.44530 99.52136 85.98333
# Shear Modulus (GPa) = 37.01642 53.90712 45.46177
#
# Velocity S-wave (km/s) = 3.56180 4.29828 3.94726
# Velocity P-wave (km/s) = 6.46096 7.66433 7.08823
#
# Compressibility (1/GPa) = 0.01380352
#
# Stress axis : x y z
#
# Youngs Moduli (GPa) = 92.21065 251.56861 162.78650
#
# Poissons Ratio (x) = 0.38263 0.16838
# Poissons Ratio (y) = 0.14025 0.16675
# Poissons Ratio (z) = 0.09538 0.25769
#
# Static dielectric constant tensor:
#      x y z
#    x 2.322570 0.000000 -0.006300 
#    y 0.000000 2.143790 0.000000 
#    z -0.006300 0.000000 2.200770 
# 
# From -- ./inp_files/17463.got.cif
#   From: 2010.05.17/outbox.cif.g08.bks.cpg/sg10_9_cif.got.tgz:17463.got - 2010.06.03 11:33:40.
