data_PCOD9151467
_publ_section_title
;
Structure prediction by ZEFSAII (Michael W. Deem and Ramdas Pophale) SiO2 
 PCOD9151467
Probable space group: P 2/M
;
_chemical_formula_sum "Si O2"
_cell_formula_units_Z 32
_cell_length_a 10.361746
_cell_length_b 18.067343
_cell_length_c 13.446857
_cell_angle_alpha 90.000000
_cell_angle_beta 36.571376
_cell_angle_gamma 90.000000
_cell_volume 1499.912110
_symmetry_space_group_name_H-M "P 2/M"
_symmetry_group_IT_number 10
_symmetry_cell_setting 'monoclinic'
loop_
_space_group_symop_operation_xyz
x,y,z
-x,y,-z
-x,-y,-z
x,-y,z
loop_
_atom_site_type_symbol
_atom_site_label
_atom_site_fract_x
_atom_site_fract_y
_atom_site_fract_z
Si Si1 0.264267 0.585463 0.193502
Si Si2 0.788961 0.153866 0.195971
Si Si3 0.782720 0.327681 0.184654
Si Si4 0.034009 0.087961 0.725905
Si Si5 0.159545 0.587390 0.653108
Si Si6 0.565104 0.082467 0.072950
Si Si7 0.682557 0.839492 0.612997
Si Si8 0.656432 0.667763 0.651836
O O1 0.216780 0.500000 0.252960
O O2 0.268005 0.636288 0.289135
O O3 0.092833 0.605055 0.213408
O O4 0.500000 0.588271 0.000000
O O5 0.812280 0.242048 0.197969
O O6 0.796983 0.109150 0.292906
O O7 0.553219 0.145876 0.292481
O O8 0.000000 0.130902 0.000000
O O9 0.746325 0.372430 0.308457
O O10 0.599939 0.330814 0.212929
O O11 0.000000 0.356511 0.000000
O O12 0.127253 0.122442 0.567197
O O13 0.009033 0.000000 0.729082
O O14 0.805290 0.117022 0.913147
O O15 0.186870 0.500000 0.648069
O O16 0.261640 0.615998 0.487674
O O17 0.375489 0.127174 0.244029
O O18 0.582246 0.000000 0.109034
O O19 0.500000 0.074262 0.000000
O O20 0.728622 0.752384 0.591733
#
# Coordination Sequence:
#
# PCOD9151467 Si02
#       8
#     4   4   4   4   4   4   4   4
#     4  10  22  42  65  90 124 163 205 257 310 363
#     4  10  20  39  62  89 127 162 200 257 318 367
#     4  10  22  39  62  88 123 164 204 255 309 367
#     4  11  23  39  65  94 122 163 208 255 311 371
#     4  11  23  40  62  90 125 162 203 257 309 362
#     4  10  23  44  64  87 124 165 209 259 308 363
#     4  11  23  41  62  92 127 162 205 257 312 369
#     4  11  23  40  61  91 124 164 206 252 311 371
#
# _framework density 21.334582999999999
#
# number of rings (size 3 to 8) (size 9 to 14) (size 15 to 20)
#    0.000    1.500    1.250    3.375    0.000    7.500 
#    9.000    1.875    0.000    0.000    0.000    0.000 
#    0.000    0.000    0.000    0.000    0.000    0.000 
#
# Total GULP energy -178667.210300 kJ/mol
# GULP energy per Si atom -5583.350322 kJ/mol
# Density = 2.128602 g / cm^3
# Si number density = 21.334583 Si / 1000 Ang^3
#
#
#
# Elastic Constant Matrix: (Units=GPa)
#
#
# Indices 1 2 3 4 5 6 
#
# 1 53.6504 23.0472 1.2630 0.0000 13.9510 0.0000
# 2 23.0472 33.2646 14.1866 0.0000 9.0087 0.0000
# 3 1.2630 14.1866 72.1160 0.0000 9.6879 0.0000
# 4 0.0000 0.0000 0.0000 30.5663 0.0000 4.1038
# 5 13.9510 9.0087 9.6879 0.0000 34.8675 0.0000
# 6 0.0000 0.0000 0.0000 4.1038 0.0000 30.2283
#
#
#
# Elastic Compliance Matrix: (Units=1/GPa)
#
#
# Indices 1 2 3 4 5 6 
#
# 1 0.029134 -0.019994 0.004462 0.000000 -0.007730 0.000000
# 2 -0.019994 0.048240 -0.008871 0.000000 -0.001999 0.000000
# 3 0.004462 -0.008871 0.016065 0.000000 -0.003957 0.000000
# 4 0.000000 0.000000 0.000000 0.033323 0.000000 -0.004524
# 5 -0.007730 -0.001999 -0.003957 0.000000 0.033389 0.000000
# 6 0.000000 0.000000 0.000000 -0.004524 0.000000 0.033696
#
#
# Mechanical properties :
#
#
# Convention : Reuss Voigt Hill
#
# Bulk Modulus (GPa) = 22.40603 26.22494 24.31549
# Shear Modulus (GPa) = 19.41519 27.16802 23.29161
#
# Velocity S-wave (km/s) = 3.01995 3.57238 3.30772
# Velocity P-wave (km/s) = 4.76289 5.41616 5.10000
#
# Compressibility (1/GPa) = 0.04463084
#
# Stress axis : x y z
#
# Youngs Moduli (GPa) = 34.32468 20.72987 62.24690
#
# Poissons Ratio (x) = 0.41448 -0.27772
# Poissons Ratio (y) = 0.68630 0.55219
# Poissons Ratio (z) = -0.15314 0.18389
#
# Static dielectric constant tensor:
#      x y z
#    x 1.817040 0.000000 -0.050840 
#    y 0.000000 1.754290 0.000000 
#    z -0.050840 0.000000 1.813280 
# 
# From -- ./inp_files/65378.got.cif
#   From: 2010.05.17/outbox.cif.g08.bks.cpg/sg10_33_cif.got.tgz:65378.got - 2010.06.03 11:33:40.
