data_PCOD9151822
_publ_section_title
;
Structure prediction by ZEFSAII (Michael W. Deem and Ramdas Pophale) SiO2 
 PCOD9151822
Probable space group: P 2/M
;
_chemical_formula_sum "Si O2"
_cell_formula_units_Z 24
_cell_length_a 17.743552
_cell_length_b 7.785718
_cell_length_c 25.009810
_cell_angle_alpha 90.000000
_cell_angle_beta 21.693470
_cell_angle_gamma 90.000000
_cell_volume 1277.113805
_symmetry_space_group_name_H-M "P 2/M"
_symmetry_group_IT_number 10
_symmetry_cell_setting 'monoclinic'
loop_
_space_group_symop_operation_xyz
x,y,z
-x,y,-z
-x,-y,-z
x,-y,z
loop_
_atom_site_type_symbol
_atom_site_label
_atom_site_fract_x
_atom_site_fract_y
_atom_site_fract_z
Si Si1 0.024122 0.797584 0.924329
Si Si2 0.272875 0.298720 0.659037
Si Si3 0.860953 0.500000 0.671989
Si Si4 0.120824 0.797387 0.148192
Si Si5 0.303928 0.500000 0.339943
Si Si6 0.740812 0.200000 0.829039
Si Si7 0.384402 0.797006 0.876069
O O1 0.191722 0.723437 0.773164
O O2 0.073111 0.000000 0.896735
O O3 0.000000 0.725745 0.000000
O O4 0.807416 0.783102 0.037445
O O5 0.500000 0.226750 0.500000
O O6 0.280163 0.500000 0.642088
O O7 0.098004 0.225263 0.735426
O O8 0.773056 0.500000 0.670351
O O9 0.788423 0.329607 0.750273
O O10 0.105354 0.500000 0.507466
O O11 0.145679 0.734133 0.191989
O O12 0.160267 0.000000 0.125896
O O13 0.292628 0.733353 0.993534
O O14 0.438698 0.670621 0.258607
O O15 0.796370 0.000000 0.781211
O O16 0.500000 0.203006 0.000000
O O17 0.440415 0.000000 0.842496
#
# Coordination Sequence:
#
# PCOD9151822 Si02
#       7
#     4   4   2   4   2   4   4
#     4   9  19  37  58  81 109 147 197 242 282 337
#     4  10  21  35  52  83 118 152 187 231 294 346
#     4  11  25  40  56  84 119 150 189 233 279 345
#     4   9  19  35  59  85 108 144 190 233 285 344
#     4  11  24  40  57  82 112 158 194 220 287 342
#     4  10  21  39  62  89 116 146 187 238 292 337
#     4   9  19  37  60  85 111 145 193 238 277 335
#
# _framework density 18.792373000000001
#
# number of rings (size 3 to 8) (size 9 to 14) (size 15 to 20)
#    0.000    2.333    0.000    2.750    5.833    4.333 
#    3.000    1.667    0.000    0.000    0.000    0.000 
#    0.000    0.000    0.000    0.000    0.000    0.000 
#
# Total GULP energy -133876.194664 kJ/mol
# GULP energy per Si atom -5578.174778 kJ/mol
# Density = 1.874960 g / cm^3
# Si number density = 18.792373 Si / 1000 Ang^3
#
#
#
# Elastic Constant Matrix: (Units=GPa)
#
#
# Indices 1 2 3 4 5 6 
#
# 1 57.3251 8.2648 12.6022 0.0000 14.3303 0.0000
# 2 8.2648 71.8665 35.3362 0.0000 3.8569 0.0000
# 3 12.6022 35.3362 101.4036 0.0000 -5.0472 0.0000
# 4 0.0000 0.0000 0.0000 27.9259 0.0000 -18.9789
# 5 14.3303 3.8569 -5.0472 0.0000 21.9045 0.0000
# 6 0.0000 0.0000 0.0000 -18.9789 0.0000 42.4321
#
#
#
# Elastic Compliance Matrix: (Units=1/GPa)
#
#
# Indices 1 2 3 4 5 6 
#
# 1 0.022014 0.000002 -0.003493 0.000000 -0.015207 0.000000
# 2 0.000002 0.017213 -0.006221 0.000000 -0.004466 0.000000
# 3 -0.003493 -0.006221 0.012778 0.000000 0.006325 0.000000
# 4 0.000000 0.000000 0.000000 0.051448 0.000000 0.023012
# 5 -0.015207 -0.004466 0.006325 0.000000 0.057845 0.000000
# 6 0.000000 0.000000 0.000000 0.023012 0.000000 0.033860
#
#
# Mechanical properties :
#
#
# Convention : Reuss Voigt Hill
#
# Bulk Modulus (GPa) = 30.69302 38.11131 34.40216
# Shear Modulus (GPa) = 22.17869 30.07863 26.12866
#
# Velocity S-wave (km/s) = 3.43913 4.00506 3.73283
# Velocity P-wave (km/s) = 5.66906 6.45845 6.07659
#
# Compressibility (1/GPa) = 0.03258070
#
# Stress axis : x y z
#
# Youngs Moduli (GPa) = 45.42659 58.09641 78.25762
#
# Poissons Ratio (x) = -0.00013 0.27339
# Poissons Ratio (y) = -0.00010 0.48682
# Poissons Ratio (z) = 0.15870 0.36140
#
# Static dielectric constant tensor:
#      x y z
#    x 1.676290 0.000000 0.005020 
#    y 0.000000 1.654290 0.000000 
#    z 0.005020 0.000000 1.639010 
# 
# From -- ./inp_files/90026.got.cif
#   From: 2010.05.17/outbox.cif.g08.bks.cpg/sg10_46_cif.got.tgz:90026.got - 2010.06.03 11:33:40.
