data_PCOD9151461
_publ_section_title
;
Structure prediction by ZEFSAII (Michael W. Deem and Ramdas Pophale) SiO2 
 PCOD9151461
Probable space group: P 2/M
;
_chemical_formula_sum "Si O2"
_cell_formula_units_Z 28
_cell_length_a 11.413169
_cell_length_b 7.951385
_cell_length_c 14.847651
_cell_angle_alpha 90.000000
_cell_angle_beta 112.842250
_cell_angle_gamma 90.000000
_cell_volume 1241.762320
_symmetry_space_group_name_H-M "P 2/M"
_symmetry_group_IT_number 10
_symmetry_cell_setting 'monoclinic'
loop_
_space_group_symop_operation_xyz
x,y,z
-x,y,-z
-x,-y,-z
x,-y,z
loop_
_atom_site_type_symbol
_atom_site_label
_atom_site_fract_x
_atom_site_fract_y
_atom_site_fract_z
Si Si1 0.643625 0.697265 0.530552
Si Si2 0.044356 0.200924 0.910998
Si Si3 0.684308 0.192342 0.258863
Si Si4 0.217996 0.203726 0.247662
Si Si5 0.586761 0.203019 0.845257
Si Si6 0.856797 0.304451 0.456088
Si Si7 0.315303 0.687851 0.937112
O O1 0.500000 0.769181 0.500000
O O2 0.626558 0.500000 0.502295
O O3 0.715418 0.717170 0.646637
O O4 0.744462 0.768305 0.486959
O O5 0.929004 0.246919 0.810603
O O6 0.171472 0.299160 0.929047
O O7 0.070246 0.000000 0.909775
O O8 0.000000 0.227533 0.000000
O O9 0.543883 0.259397 0.240838
O O10 0.797603 0.291789 0.338821
O O11 0.681937 0.198121 0.150224
O O12 0.697150 0.000000 0.292310
O O13 0.294939 0.253541 0.180814
O O14 0.226054 0.000000 0.257246
O O15 0.583719 0.000000 0.847755
O O16 0.601113 0.264065 0.951565
O O17 0.870322 0.500000 0.487359
O O18 0.000000 0.230824 0.500000
O O19 0.346232 0.500000 0.916740
#
# Coordination Sequence:
#
# PCOD9151461 Si02
#       7
#     4   4   4   4   4   4   4
#     4  10  22  40  62  89 123 161 201 250 309 369
#     4  10  20  39  62  85 121 162 200 247 301 357
#     4  11  24  41  65  90 118 159 207 254 302 362
#     4  10  21  37  63  92 119 155 199 250 303 354
#     4  10  21  41  63  89 124 161 201 249 303 359
#     4  10  23  43  63  87 123 163 203 255 315 368
#     4  12  25  38  59  90 126 163 203 248 300 366
#
# _framework density 22.548597999999998
#
# number of rings (size 3 to 8) (size 9 to 14) (size 15 to 20)
#    0.000    1.571    1.429    3.000    2.000    5.429 
#    0.000    0.000    0.000    0.000    0.000    0.000 
#    0.000    0.000    0.000    0.000    0.000    0.000 
#
# Total GULP energy -156459.190555 kJ/mol
# GULP energy per Si atom -5587.828234 kJ/mol
# Density = 2.249728 g / cm^3
# Si number density = 22.548598 Si / 1000 Ang^3
#
#
#
# Elastic Constant Matrix: (Units=GPa)
#
#
# Indices 1 2 3 4 5 6 
#
# 1 124.4120 17.6614 38.5028 0.0000 24.6994 0.0000
# 2 17.6614 26.9881 3.8642 0.0000 4.4115 0.0000
# 3 38.5028 3.8642 102.7796 0.0000 20.4613 0.0000
# 4 0.0000 0.0000 0.0000 21.0030 0.0000 7.5719
# 5 24.6994 4.4115 20.4613 0.0000 43.5659 0.0000
# 6 0.0000 0.0000 0.0000 7.5719 0.0000 5.1363
#
#
#
# Elastic Compliance Matrix: (Units=1/GPa)
#
#
# Indices 1 2 3 4 5 6 
#
# 1 0.010576 -0.005842 -0.002941 0.000000 -0.004023 0.000000
# 2 -0.005842 0.040953 0.000899 0.000000 -0.001257 0.000000
# 3 -0.002941 0.000899 0.011565 0.000000 -0.003855 0.000000
# 4 0.000000 0.000000 0.000000 0.101622 0.000000 -0.149813
# 5 -0.004023 -0.001257 -0.003855 0.000000 0.027172 0.000000
# 6 0.000000 0.000000 0.000000 -0.149813 0.000000 0.415549
#
#
# Mechanical properties :
#
#
# Convention : Reuss Voigt Hill
#
# Bulk Modulus (GPa) = 21.13034 41.58183 31.35609
# Shear Modulus (GPa) = 7.82493 26.88446 17.35470
#
# Velocity S-wave (km/s) = 1.86488 3.45670 2.77728
# Velocity P-wave (km/s) = 3.74545 5.86624 4.92144
#
# Compressibility (1/GPa) = 0.04732531
#
# Stress axis : x y z
#
# Youngs Moduli (GPa) = 94.55188 24.41798 86.46671
#
# Poissons Ratio (x) = 0.14266 0.25434
# Poissons Ratio (y) = 0.55242 -0.07775
# Poissons Ratio (z) = 0.27812 -0.02196
#
# Static dielectric constant tensor:
#      x y z
#    x 1.875820 0.000000 -0.001740 
#    y 0.000000 1.822730 0.000000 
#    z -0.001740 0.000000 1.791690 
# 
# From -- ./inp_files/63915.got.cif
#   From: 2010.05.17/outbox.cif.g08.bks.cpg/sg10_32_cif.got.tgz:63915.got - 2010.06.03 11:33:40.
