data_PCOD9151190
_publ_section_title
;
Structure prediction by ZEFSAII (Michael W. Deem and Ramdas Pophale) SiO2 
 PCOD9151190
Probable space group: P 2/M
;
_chemical_formula_sum "Si O2"
_cell_formula_units_Z 32
_cell_length_a 16.410429
_cell_length_b 14.532771
_cell_length_c 12.824667
_cell_angle_alpha 90.000000
_cell_angle_beta 143.599871
_cell_angle_gamma 90.000000
_cell_volume 1815.002187
_symmetry_space_group_name_H-M "P 2/M"
_symmetry_group_IT_number 10
_symmetry_cell_setting 'monoclinic'
loop_
_space_group_symop_operation_xyz
x,y,z
-x,y,-z
-x,-y,-z
x,-y,z
loop_
_atom_site_type_symbol
_atom_site_label
_atom_site_fract_x
_atom_site_fract_y
_atom_site_fract_z
Si Si1 0.427115 0.891866 0.037500
Si Si2 0.261291 0.393706 0.105932
Si Si3 0.668899 0.392976 0.580894
Si Si4 0.161612 0.099909 0.639399
Si Si5 0.050936 0.606992 0.257169
Si Si6 0.508326 0.721087 0.752419
Si Si7 0.374260 0.601782 0.792837
Si Si8 0.120285 0.291202 0.539701
O O1 0.471327 0.822067 0.175073
O O2 0.455136 0.000000 0.089109
O O3 0.500000 0.869728 0.000000
O O4 0.264022 0.883908 0.842379
O O5 0.278418 0.500000 0.087946
O O6 0.320419 0.387736 0.283687
O O7 0.343610 0.325467 0.115398
O O8 0.099193 0.373006 0.943397
O O9 0.622755 0.500000 0.508018
O O10 0.821810 0.382519 0.690383
O O11 0.576742 0.310556 0.438415
O O12 0.176335 0.188034 0.582130
O O13 0.000000 0.095550 0.500000
O O14 0.201492 0.000000 0.636482
O O15 0.049005 0.500000 0.286749
O O16 0.074703 0.667196 0.383796
O O17 0.421977 0.665077 0.748594
O O18 0.340455 0.500000 0.719495
O O19 0.242464 0.646445 0.709364
O O20 0.500000 0.597408 0.000000
O O21 0.000000 0.289522 0.500000
#
# Coordination Sequence:
#
# PCOD9151190 Si02
#       8
#     4   4   4   4   4   4   4   4
#     4  10  22  39  58  82 112 145 183 225 273 333
#     4  10  22  36  56  83 110 145 189 234 276 327
#     4  10  20  38  58  79 110 147 190 234 275 322
#     4   9  19  35  55  77 105 137 176 225 270 314
#     4  10  21  36  54  78 111 151 188 223 270 328
#     4  12  21  34  58  82 109 140 183 227 279 325
#     4  11  23  35  48  73 112 151 178 211 263 328
#     4  11  22  34  53  78 110 146 183 226 269 328
#
# _framework density 17.630832000000002
#
# number of rings (size 3 to 8) (size 9 to 14) (size 15 to 20)
#    0.000    1.625    1.250    4.125    5.250    3.500 
#    0.000    0.000    0.000    1.500    0.000    0.000 
#    0.000    3.000    0.000    0.000    0.000    0.000 
#
# Total GULP energy -178397.371375 kJ/mol
# GULP energy per Si atom -5574.917855 kJ/mol
# Density = 1.759070 g / cm^3
# Si number density = 17.630832 Si / 1000 Ang^3
#
#
#
# Elastic Constant Matrix: (Units=GPa)
#
#
# Indices 1 2 3 4 5 6 
#
# 1 66.2219 39.2012 17.0348 0.0000 8.8308 0.0000
# 2 39.2012 127.2283 49.1376 0.0000 -2.8084 0.0000
# 3 17.0348 49.1376 92.3467 0.0000 14.7629 0.0000
# 4 0.0000 0.0000 0.0000 29.9205 0.0000 -5.3821
# 5 8.8308 -2.8084 14.7629 0.0000 26.0495 0.0000
# 6 0.0000 0.0000 0.0000 -5.3821 0.0000 14.9234
#
#
#
# Elastic Compliance Matrix: (Units=1/GPa)
#
#
# Indices 1 2 3 4 5 6 
#
# 1 0.019892 -0.006794 0.001255 0.000000 -0.008187 0.000000
# 2 -0.006794 0.012707 -0.006702 0.000000 0.007472 0.000000
# 3 0.001255 -0.006702 0.015776 0.000000 -0.010089 0.000000
# 4 0.000000 0.000000 0.000000 0.035741 0.000000 0.012890
# 5 -0.008187 0.007472 -0.010089 0.000000 0.047687 0.000000
# 6 0.000000 0.000000 0.000000 0.012890 0.000000 0.071658
#
#
# Mechanical properties :
#
#
# Convention : Reuss Voigt Hill
#
# Bulk Modulus (GPa) = 41.85674 55.17155 48.51414
# Shear Modulus (GPa) = 21.19470 26.20689 23.70080
#
# Velocity S-wave (km/s) = 3.47095 3.85960 3.67042
# Velocity P-wave (km/s) = 6.31312 7.15700 6.74826
#
# Compressibility (1/GPa) = 0.02389102
#
# Stress axis : x y z
#
# Youngs Moduli (GPa) = 50.27214 78.69786 63.38543
#
# Poissons Ratio (x) = 0.53469 -0.07953
# Poissons Ratio (y) = 0.34156 0.42484
# Poissons Ratio (z) = -0.06307 0.52747
#
# Static dielectric constant tensor:
#      x y z
#    x 1.607470 0.000000 0.034200 
#    y 0.000000 1.622180 0.000000 
#    z 0.034200 0.000000 1.669970 
# 
# From -- ./inp_files/42990.got.cif
#   From: 2010.05.17/outbox.cif.g08.bks.cpg/sg10_22_cif.got.tgz:42990.got - 2010.06.03 11:33:40.
