data_PCOD9151381
_publ_section_title
;
Structure prediction by ZEFSAII (Michael W. Deem and Ramdas Pophale) SiO2 
 PCOD9151381
Probable space group: P 2/M
;
_chemical_formula_sum "Si O2"
_cell_formula_units_Z 28
_cell_length_a 14.819370
_cell_length_b 9.192418
_cell_length_c 20.004246
_cell_angle_alpha 90.000000
_cell_angle_beta 147.748935
_cell_angle_gamma 90.000000
_cell_volume 1454.193240
_symmetry_space_group_name_H-M "P 2/M"
_symmetry_group_IT_number 10
_symmetry_cell_setting 'monoclinic'
loop_
_space_group_symop_operation_xyz
x,y,z
-x,y,-z
-x,-y,-z
x,-y,z
loop_
_atom_site_type_symbol
_atom_site_label
_atom_site_fract_x
_atom_site_fract_y
_atom_site_fract_z
Si Si1 0.991039 0.669439 0.213369
Si Si2 0.309926 0.825609 0.357356
Si Si3 0.107719 0.826338 0.719697
Si Si4 0.799694 0.826593 0.863198
Si Si5 0.614223 0.173470 0.217929
Si Si6 0.856706 0.334317 0.467868
Si Si7 0.302997 0.669121 0.070917
O O1 0.007666 0.500000 0.241647
O O2 0.171300 0.743575 0.314822
O O3 0.887609 0.753404 0.205475
O O4 0.882778 0.679694 0.077685
O O5 0.500000 0.789839 0.500000
O O6 0.267553 0.790501 0.253156
O O7 0.287737 0.000000 0.350845
O O8 0.270010 0.794536 0.774418
O O9 0.944738 0.755284 0.581782
O O10 0.090596 0.000000 0.712971
O O11 0.701249 0.740446 0.858917
O O12 0.776590 0.000000 0.858372
O O13 0.000000 0.796776 0.000000
O O14 0.706468 0.245933 0.339416
O O15 0.431200 0.244837 0.103460
O O16 0.605979 0.000000 0.219903
O O17 0.811568 0.500000 0.458142
O O18 0.000000 0.342606 0.500000
O O19 0.351240 0.500000 0.103905
#
# Coordination Sequence:
#
# PCOD9151381 Si02
#       7
#     4   4   4   4   4   4   4
#     4  11  24  40  59  85 119 160 202 248 307 371
#     4  10  22  41  65  93 123 154 195 251 309 367
#     4  10  21  37  59  85 118 161 203 248 301 359
#     4  10  20  38  65  90 115 155 200 245 303 368
#     4  10  21  37  58  86 119 157 204 252 298 356
#     4   9  17  32  55  81 112 150 192 241 297 354
#     4  11  24  39  59  87 119 158 203 253 307 364
#
# _framework density 19.254662
#
# number of rings (size 3 to 8) (size 9 to 14) (size 15 to 20)
#    0.000    1.857    1.429    2.143    0.000    8.000 
#    0.000    7.143    0.000    0.000    0.000    0.000 
#    0.000    0.000    0.000    0.000    0.000    0.000 
#
# Total GULP energy -156326.728029 kJ/mol
# GULP energy per Si atom -5583.097430 kJ/mol
# Density = 1.921084 g / cm^3
# Si number density = 19.254662 Si / 1000 Ang^3
#
#
#
# Elastic Constant Matrix: (Units=GPa)
#
#
# Indices 1 2 3 4 5 6 
#
# 1 98.5488 72.6704 39.1073 0.0000 0.2052 0.0000
# 2 72.6704 94.6917 45.6546 0.0000 9.2765 0.0000
# 3 39.1073 45.6546 93.9184 0.0000 7.3254 0.0000
# 4 0.0000 0.0000 0.0000 27.0899 0.0000 0.1699
# 5 0.2052 9.2765 7.3254 0.0000 31.6443 0.0000
# 6 0.0000 0.0000 0.0000 0.1699 0.0000 27.9759
#
#
#
# Elastic Compliance Matrix: (Units=1/GPa)
#
#
# Indices 1 2 3 4 5 6 
#
# 1 0.024442 -0.018536 -0.001608 0.000000 0.005647 0.000000
# 2 -0.018536 0.028053 -0.005384 0.000000 -0.006857 0.000000
# 3 -0.001608 -0.005384 0.014064 0.000000 -0.001667 0.000000
# 4 0.000000 0.000000 0.000000 0.036916 0.000000 -0.000224
# 5 0.005647 -0.006857 -0.001667 0.000000 0.033961 0.000000
# 6 0.000000 0.000000 0.000000 -0.000224 0.000000 0.035746
#
#
# Mechanical properties :
#
#
# Convention : Reuss Voigt Hill
#
# Bulk Modulus (GPa) = 64.49646 66.89151 65.69398
# Shear Modulus (GPa) = 21.79551 25.99046 23.89299
#
# Velocity S-wave (km/s) = 3.36811 3.67798 3.52645
# Velocity P-wave (km/s) = 6.97817 7.26998 7.12557
#
# Compressibility (1/GPa) = 0.01550473
#
# Stress axis : x y z
#
# Youngs Moduli (GPa) = 40.91334 35.64629 71.10315
#
# Poissons Ratio (x) = 0.66074 0.11430
# Poissons Ratio (y) = 0.75837 0.38281
# Poissons Ratio (z) = 0.06577 0.19192
#
# Static dielectric constant tensor:
#      x y z
#    x 1.661220 0.000000 -0.006520 
#    y 0.000000 1.641000 0.000000 
#    z -0.006520 0.000000 1.691050 
# 
# From -- ./inp_files/49658.got.cif
#   From: 2010.05.17/outbox.cif.g08.bks.cpg/sg10_25_cif.got.tgz:49658.got - 2010.06.03 11:33:40.
