data_PCOD9151355
_publ_section_title
;
Structure prediction by ZEFSAII (Michael W. Deem and Ramdas Pophale) SiO2 
 PCOD9151355
Probable space group: P 2/M
;
_chemical_formula_sum "Si O2"
_cell_formula_units_Z 28
_cell_length_a 22.356178
_cell_length_b 9.026535
_cell_length_c 24.686358
_cell_angle_alpha 90.000000
_cell_angle_beta 17.285658
_cell_angle_gamma 90.000000
_cell_volume 1480.235243
_symmetry_space_group_name_H-M "P 2/M"
_symmetry_group_IT_number 10
_symmetry_cell_setting 'monoclinic'
loop_
_space_group_symop_operation_xyz
x,y,z
-x,y,-z
-x,-y,-z
x,-y,z
loop_
_atom_site_type_symbol
_atom_site_label
_atom_site_fract_x
_atom_site_fract_y
_atom_site_fract_z
Si Si1 0.563360 0.174799 0.005526
Si Si2 0.232908 0.669889 0.778393
Si Si3 0.857723 0.825300 0.573116
Si Si4 0.022329 0.323513 0.324620
Si Si5 0.352750 0.824311 0.782437
Si Si6 0.895932 0.176826 0.217404
Si Si7 0.759677 0.677914 0.447608
O O1 0.754624 0.258237 0.863344
O O2 0.612661 0.000000 0.958096
O O3 0.500000 0.225969 0.000000
O O4 0.370399 0.191116 0.210373
O O5 0.304425 0.500000 0.714160
O O6 0.344244 0.763100 0.728307
O O7 0.227640 0.747431 0.724686
O O8 0.000000 0.666603 0.000000
O O9 0.000000 0.777492 0.500000
O O10 0.905279 0.737727 0.477957
O O11 0.899631 0.000000 0.527807
O O12 0.030447 0.500000 0.319680
O O13 0.907797 0.281080 0.368635
O O14 0.535877 0.739496 0.652273
O O15 0.388341 0.000000 0.751474
O O16 0.133572 0.797633 0.998681
O O17 0.836097 0.248588 0.325951
O O18 0.862488 0.000000 0.246528
O O19 0.754343 0.500000 0.446715
#
# Coordination Sequence:
#
# PCOD9151355 Si02
#       7
#     4   4   4   4   4   4   4
#     4  10  20  38  64  90 117 151 191 235 285 343
#     4   9  17  32  57  88 120 155 193 238 297 358
#     4  10  20  38  64  90 117 151 191 235 285 343
#     4  11  25  41  58  86 123 157 193 242 294 349
#     4  10  21  38  61  88 118 152 197 251 300 345
#     4  10  21  38  61  88 118 152 197 251 300 345
#     4  11  25  42  58  81 117 161 202 240 290 354
#
# _framework density 18.915914000000001
#
# number of rings (size 3 to 8) (size 9 to 14) (size 15 to 20)
#    0.000    1.857    1.429    2.143    0.000    8.571 
#    0.000    8.571    0.000    0.000    0.000    0.000 
#    0.000    0.000    0.000    0.000    0.000    0.000 
#
# Total GULP energy -156494.667105 kJ/mol
# GULP energy per Si atom -5589.095254 kJ/mol
# Density = 1.887286 g / cm^3
# Si number density = 18.915914 Si / 1000 Ang^3
#
#
#
# Elastic Constant Matrix: (Units=GPa)
#
#
# Indices 1 2 3 4 5 6 
#
# 1 86.4825 32.2236 23.4340 0.0000 -10.0119 0.0000
# 2 32.2236 62.3763 24.2513 0.0000 -3.8641 0.0000
# 3 23.4340 24.2513 57.9169 0.0000 -6.8655 0.0000
# 4 0.0000 0.0000 0.0000 24.9274 0.0000 -2.2376
# 5 -10.0119 -3.8641 -6.8655 0.0000 29.6808 0.0000
# 6 0.0000 0.0000 0.0000 -2.2376 0.0000 38.3431
#
#
#
# Elastic Compliance Matrix: (Units=1/GPa)
#
#
# Indices 1 2 3 4 5 6 
#
# 1 0.015203 -0.006457 -0.003023 0.000000 0.003589 0.000000
# 2 -0.006457 0.021904 -0.006662 0.000000 -0.000867 0.000000
# 3 -0.003023 -0.006662 0.021649 0.000000 0.003121 0.000000
# 4 0.000000 0.000000 0.000000 0.040328 0.000000 0.002353
# 5 0.003589 -0.000867 0.003121 0.000000 0.035511 0.000000
# 6 0.000000 0.000000 0.000000 0.002353 0.000000 0.026218
#
#
# Mechanical properties :
#
#
# Convention : Reuss Voigt Hill
#
# Bulk Modulus (GPa) = 37.77402 40.73261 39.25332
# Shear Modulus (GPa) = 24.76246 27.04804 25.90525
#
# Velocity S-wave (km/s) = 3.62205 3.78552 3.70468
# Velocity P-wave (km/s) = 6.12414 6.37864 6.25269
#
# Compressibility (1/GPa) = 0.02647322
#
# Stress axis : x y z
#
# Youngs Moduli (GPa) = 65.77563 45.65467 46.19244
#
# Poissons Ratio (x) = 0.29477 0.13962
# Poissons Ratio (y) = 0.42468 0.30773
# Poissons Ratio (z) = 0.19881 0.30415
#
# Static dielectric constant tensor:
#      x y z
#    x 1.622400 0.000000 -0.005640 
#    y 0.000000 1.631680 0.000000 
#    z -0.005640 0.000000 1.669500 
# 
# From -- ./inp_files/90339.got.cif
#   From: 2010.05.17/outbox.cif.g08.bks.cpg/sg10_46_cif.got.tgz:90339.got - 2010.06.03 11:33:40.
