data_PCOD9151371
_publ_section_title
;
Structure prediction by ZEFSAII (Michael W. Deem and Ramdas Pophale) SiO2 
 PCOD9151371
Probable space group: P 2/M
;
_chemical_formula_sum "Si O2"
_cell_formula_units_Z 20
_cell_length_a 17.200417
_cell_length_b 12.331670
_cell_length_c 9.319168
_cell_angle_alpha 90.000000
_cell_angle_beta 148.764318
_cell_angle_gamma 90.000000
_cell_volume 1025.030274
_symmetry_space_group_name_H-M "P 2/M"
_symmetry_group_IT_number 10
_symmetry_cell_setting 'monoclinic'
loop_
_space_group_symop_operation_xyz
x,y,z
-x,y,-z
-x,-y,-z
x,-y,z
loop_
_atom_site_type_symbol
_atom_site_label
_atom_site_fract_x
_atom_site_fract_y
_atom_site_fract_z
Si Si1 0.856029 0.621471 0.873719
Si Si2 0.335661 0.806893 0.564967
Si Si3 0.311589 0.809286 0.860116
Si Si4 0.153279 0.000000 0.142156
Si Si5 0.930303 0.376929 0.545429
Si Si6 0.167176 0.000000 0.818763
O O1 0.797964 0.500000 0.812864
O O2 0.738953 0.694733 0.604182
O O3 0.000000 0.613534 0.000000
O O4 0.935315 0.668317 0.141855
O O5 0.307085 0.842927 0.684864
O O6 0.251556 0.896183 0.339128
O O7 0.513567 0.796316 0.827282
O O8 0.212631 0.700116 0.695856
O O9 0.245717 0.895137 0.869559
O O10 0.147152 0.000000 0.959335
O O11 0.000000 0.000000 0.000000
O O12 0.893225 0.500000 0.538697
O O13 0.000000 0.385817 0.500000
O O14 0.000000 0.000000 0.500000
#
# Coordination Sequence:
#
# PCOD9151371 Si02
#       6
#     4   4   4   2   4   2
#     4  10  20  38  64  93 126 167 217 261 306 368
#     4  11  24  41  64  95 129 169 206 261 315 371
#     4  11  24  42  64  93 133 166 208 256 319 378
#     4  12  27  44  69  95 122 161 214 263 311 375
#     4  10  22  40  63  92 127 169 214 263 313 368
#     4  12  27  44  67  95 124 165 210 260 314 379
#
# _framework density 19.511619
#
# number of rings (size 3 to 8) (size 9 to 14) (size 15 to 20)
#    0.000    1.200    2.000    3.600    5.600    4.000 
#    0.000    2.000    0.000    3.600    0.000    0.000 
#    0.000    0.000    0.000    0.000    0.000    0.000 
#
# Total GULP energy -111508.606206 kJ/mol
# GULP energy per Si atom -5575.430310 kJ/mol
# Density = 1.946721 g / cm^3
# Si number density = 19.511619 Si / 1000 Ang^3
#
#
#
# Elastic Constant Matrix: (Units=GPa)
#
#
# Indices 1 2 3 4 5 6 
#
# 1 116.6698 40.3718 81.8507 0.0000 -9.4915 0.0000
# 2 40.3718 94.7523 68.4711 0.0000 8.7286 0.0000
# 3 81.8507 68.4711 169.8015 0.0000 -7.3014 0.0000
# 4 0.0000 0.0000 0.0000 -12.4439 0.0000 -38.1038
# 5 -9.4915 8.7286 -7.3014 0.0000 33.6191 0.0000
# 6 0.0000 0.0000 0.0000 -38.1038 0.0000 -5.4856
#
#
#
# Elastic Compliance Matrix: (Units=1/GPa)
#
#
# Indices 1 2 3 4 5 6 
#
# 1 0.013382 -0.002008 -0.005508 0.000000 0.003103 0.000000
# 2 -0.002008 0.016161 -0.005808 0.000000 -0.006024 0.000000
# 3 -0.005508 -0.005808 0.010987 0.000000 0.002339 0.000000
# 4 0.000000 0.000000 0.000000 0.003965 0.000000 -0.027539
# 5 0.003103 -0.006024 0.002339 0.000000 0.032693 0.000000
# 6 0.000000 0.000000 0.000000 -0.027539 0.000000 0.008994
#
#
# Mechanical properties :
#
#
# Convention : Reuss Voigt Hill
#
# Bulk Modulus (GPa) = 72.02894 84.73452 78.38173
# Shear Modulus (GPa) = 42.56861 15.83992 29.20426
#
# Velocity S-wave (km/s) = 4.67594 2.85234 3.87300
# Velocity P-wave (km/s) = 8.13318 7.37359 7.76268
#
# Compressibility (1/GPa) = 0.01388331
#
# Stress axis : x y z
#
# Youngs Moduli (GPa) = 74.72475 61.87573 91.01752
#
# Poissons Ratio (x) = 0.12423 0.50131
# Poissons Ratio (y) = 0.15003 0.52865
# Poissons Ratio (z) = 0.41157 0.35939
#
# Static dielectric constant tensor:
#      x y z
#    x 0.975570 0.000000 1.679910 
#    y 0.000000 1.479380 0.000000 
#    z 1.679910 0.000000 -2.415660 
# 
# From -- ./inp_files/32490.got.cif
#   From: 2010.05.17/outbox.cif.g08.bks.cpg/sg10_17_cif.got.tgz:32490.got - 2010.06.03 11:33:40.
