data_PCOD9151675
_publ_section_title
;
Structure prediction by ZEFSAII (Michael W. Deem and Ramdas Pophale) SiO2 
 PCOD9151675
Probable space group: P 2/M
;
_chemical_formula_sum "Si O2"
_cell_formula_units_Z 32
_cell_length_a 24.696693
_cell_length_b 8.355380
_cell_length_c 17.700719
_cell_angle_alpha 90.000000
_cell_angle_beta 146.170920
_cell_angle_gamma 90.000000
_cell_volume 2033.436603
_symmetry_space_group_name_H-M "P 2/M"
_symmetry_group_IT_number 10
_symmetry_cell_setting 'monoclinic'
loop_
_space_group_symop_operation_xyz
x,y,z
-x,y,-z
-x,-y,-z
x,-y,z
loop_
_atom_site_type_symbol
_atom_site_label
_atom_site_fract_x
_atom_site_fract_y
_atom_site_fract_z
Si Si1 0.386168 0.691774 0.212295
Si Si2 0.262651 0.687051 0.203233
Si Si3 0.890331 0.810576 0.856854
Si Si4 0.655593 0.805688 0.323928
Si Si5 0.410504 0.184781 0.490254
Si Si6 0.384409 0.186493 0.884872
Si Si7 0.260023 0.686871 0.432430
Si Si8 0.432185 0.805851 0.101106
O O1 0.393022 0.500000 0.224545
O O2 0.293353 0.741149 0.155188
O O3 0.482241 0.764815 0.362156
O O4 0.387702 0.744338 0.127225
O O5 0.237258 0.500000 0.172917
O O6 0.178268 0.778324 0.150124
O O7 0.359577 0.711207 0.366464
O O8 0.839222 0.724166 0.726857
O O9 0.891008 0.000000 0.842245
O O10 0.000000 0.756851 0.000000
O O11 0.665150 0.747341 0.248271
O O12 0.732423 0.736003 0.471777
O O13 0.546489 0.760516 0.225885
O O14 0.659726 0.000000 0.328888
O O15 0.341655 0.210417 0.483178
O O16 0.408232 0.000000 0.464340
O O17 0.355302 0.000000 0.855926
O O18 0.500000 0.187918 0.000000
O O19 0.378286 0.253764 0.962386
O O20 0.283469 0.500000 0.450802
O O21 0.430160 0.000000 0.098648
#
# Coordination Sequence:
#
# PCOD9151675 Si02
#       8
#     4   4   4   4   4   4   4   4
#     4  11  21  30  41  61  91 121 150 184 219 258
#     4  10  21  34  47  64  87 116 146 179 222 268
#     4  10  21  37  55  71  87 109 142 185 228 268
#     4   9  15  26  43  62  87 118 154 191 221 256
#     4  11  20  30  44  61  84 117 154 189 221 253
#     4   7  12  23  39  59  82 113 154 191 221 254
#     4  11  20  29  45  68  93 119 148 182 222 269
#     4   9  16  26  42  61  84 121 159 188 221 256
#
# _framework density 15.736905999999999
#
# number of rings (size 3 to 8) (size 9 to 14) (size 15 to 20)
#    0.000    2.250    1.250    6.750    0.000    4.500 
#    0.000    0.625    0.000    2.250    0.000    0.000 
#    0.000    1.000    0.000   11.250    0.000    5.625 
#
# Total GULP energy -178340.082443 kJ/mol
# GULP energy per Si atom -5573.127576 kJ/mol
# Density = 1.570109 g / cm^3
# Si number density = 15.736906 Si / 1000 Ang^3
#
#
#
# Elastic Constant Matrix: (Units=GPa)
#
#
# Indices 1 2 3 4 5 6 
#
# 1 81.9693 0.4027 45.5793 0.0000 -17.7572 0.0000
# 2 0.4027 23.6590 7.7685 0.0000 3.3245 0.0000
# 3 45.5793 7.7685 72.6869 0.0000 -7.2769 0.0000
# 4 0.0000 0.0000 0.0000 -12.1529 0.0000 10.7671
# 5 -17.7572 3.3245 -7.2769 0.0000 12.6832 0.0000
# 6 0.0000 0.0000 0.0000 10.7671 0.0000 13.0459
#
#
#
# Elastic Compliance Matrix: (Units=1/GPa)
#
#
# Indices 1 2 3 4 5 6 
#
# 1 0.025756 -0.000071 -0.013295 0.000000 0.028451 0.000000
# 2 -0.000071 0.046683 -0.006556 0.000000 -0.016097 0.000000
# 3 -0.013295 -0.006556 0.022390 0.000000 -0.004049 0.000000
# 4 0.000000 0.000000 0.000000 -0.047530 0.000000 0.039228
# 5 0.028451 -0.016097 -0.004049 0.000000 0.120573 0.000000
# 6 0.000000 0.000000 0.000000 0.039228 0.000000 0.044277
#
#
# Mechanical properties :
#
#
# Convention : Reuss Voigt Hill
#
# Bulk Modulus (GPa) = 18.18686 31.75734 24.97210
# Shear Modulus (GPa) = 18.49652 11.01956 14.75804
#
# Velocity S-wave (km/s) = 3.43207 2.64907 3.06567
# Velocity P-wave (km/s) = 5.22373 5.43882 5.33236
#
# Compressibility (1/GPa) = 0.05498476
#
# Stress axis : x y z
#
# Youngs Moduli (GPa) = 38.82586 21.42102 44.66341
#
# Poissons Ratio (x) = 0.00152 0.59379
# Poissons Ratio (y) = 0.00275 0.29283
# Poissons Ratio (z) = 0.51618 0.14045
#
# Static dielectric constant tensor:
#      x y z
#    x 1.557710 0.000000 -0.037210 
#    y 0.000000 1.533740 0.000000 
#    z -0.037210 0.000000 1.519400 
# 
# From -- ./inp_files/79998.got.cif
#   From: 2010.05.17/outbox.cif.g08.bks.cpg/sg10_40_cif.got.tgz:79998.got - 2010.06.03 11:33:40.
