data_PCOD9151129
_publ_section_title
;
Structure prediction by ZEFSAII (Michael W. Deem and Ramdas Pophale) SiO2 
 PCOD9151129
Probable space group: P 2/M
;
_chemical_formula_sum "Si O2"
_cell_formula_units_Z 32
_cell_length_a 16.118505
_cell_length_b 21.012020
_cell_length_c 9.622743
_cell_angle_alpha 90.000000
_cell_angle_beta 27.882850
_cell_angle_gamma 90.000000
_cell_volume 1524.145969
_symmetry_space_group_name_H-M "P 2/M"
_symmetry_group_IT_number 10
_symmetry_cell_setting 'monoclinic'
loop_
_space_group_symop_operation_xyz
x,y,z
-x,y,-z
-x,-y,-z
x,-y,z
loop_
_atom_site_type_symbol
_atom_site_label
_atom_site_fract_x
_atom_site_fract_y
_atom_site_fract_z
Si Si1 0.667226 0.377212 0.342584
Si Si2 0.672230 0.391098 0.655034
Si Si3 0.789069 0.188255 0.806149
Si Si4 0.201473 0.750033 0.500615
Si Si5 0.982578 0.426040 0.683979
Si Si6 0.792735 0.134980 0.296094
Si Si7 0.537336 0.928047 0.109149
Si Si8 0.781387 0.243354 0.108819
O O1 0.500000 0.398396 0.500000
O O2 0.669112 0.406431 0.494766
O O3 0.671312 0.299861 0.341058
O O4 0.835696 0.393928 0.998084
O O5 0.700135 0.314927 0.614694
O O6 0.836653 0.419420 0.497099
O O7 0.500000 0.407977 0.000000
O O8 0.757243 0.228138 0.714981
O O9 0.000000 0.172591 0.500000
O O10 0.671588 0.124901 0.968561
O O11 0.746603 0.233618 0.998483
O O12 0.242011 0.809089 0.539996
O O13 0.988827 0.740230 0.827514
O O14 0.934372 0.500000 0.740305
O O15 0.000000 0.399256 0.500000
O O16 0.651237 0.081029 0.535445
O O17 0.757255 0.173039 0.207314
O O18 0.000000 0.116379 0.000000
O O19 0.604331 0.000000 0.027347
O O20 0.500000 0.917814 0.000000
#
# Coordination Sequence:
#
# PCOD9151129 Si02
#       8
#     4   4   4   4   4   4   4   4
#     4  12  26  42  67 106 142 181 226 281 340 403
#     4  12  26  41  69 105 140 184 225 281 341 404
#     4  10  23  39  62  95 127 172 210 274 342 397
#     4  10  20  37  63  96 133 169 218 267 337 409
#     4  11  27  51  75 100 139 186 232 280 334 402
#     4  10  21  39  62  93 131 167 208 271 334 397
#     4  11  24  42  65  91 123 173 229 267 318 404
#     4  10  22  37  62  97 136 166 211 275 343 404
#
# _framework density 20.995365
#
# number of rings (size 3 to 8) (size 9 to 14) (size 15 to 20)
#    0.000    1.250    3.750    1.125    7.000    2.000 
#    0.000    1.250    0.000    0.000    0.000    0.000 
#    0.000    0.000    0.000    0.000    0.000    0.000 
#
# Total GULP energy -178847.432623 kJ/mol
# GULP energy per Si atom -5588.982269 kJ/mol
# Density = 2.094758 g / cm^3
# Si number density = 20.995365 Si / 1000 Ang^3
#
#
#
# Elastic Constant Matrix: (Units=GPa)
#
#
# Indices 1 2 3 4 5 6 
#
# 1 94.0024 3.4898 33.4302 0.0000 18.1242 0.0000
# 2 3.4898 37.9341 10.2244 0.0000 -1.9307 0.0000
# 3 33.4302 10.2244 100.9338 0.0000 7.8348 0.0000
# 4 0.0000 0.0000 0.0000 104.5723 0.0000 -27.2929
# 5 18.1242 -1.9307 7.8348 0.0000 32.7516 0.0000
# 6 0.0000 0.0000 0.0000 -27.2929 0.0000 20.9343
#
#
#
# Elastic Compliance Matrix: (Units=1/GPa)
#
#
# Indices 1 2 3 4 5 6 
#
# 1 0.013267 -0.000514 -0.003841 0.000000 -0.006453 0.000000
# 2 -0.000514 0.027292 -0.002793 0.000000 0.002561 0.000000
# 3 -0.003841 -0.002793 0.011525 0.000000 -0.000796 0.000000
# 4 0.000000 0.000000 0.000000 0.014495 0.000000 0.018898
# 5 -0.006453 0.002561 -0.000796 0.000000 0.034445 0.000000
# 6 0.000000 0.000000 0.000000 0.018898 0.000000 0.072406
#
#
# Mechanical properties :
#
#
# Convention : Reuss Voigt Hill
#
# Bulk Modulus (GPa) = 26.46388 36.35099 31.40744
# Shear Modulus (GPa) = 24.95967 44.03336 34.49652
#
# Velocity S-wave (km/s) = 3.45166 4.58459 4.05786
# Velocity P-wave (km/s) = 5.34016 6.73617 6.07838
#
# Compressibility (1/GPa) = 0.03778735
#
# Stress axis : x y z
#
# Youngs Moduli (GPa) = 75.37250 36.64078 86.77165
#
# Poissons Ratio (x) = 0.01882 0.33332
# Poissons Ratio (y) = 0.03872 0.24238
# Poissons Ratio (z) = 0.28953 0.10235
#
# Static dielectric constant tensor:
#      x y z
#    x 1.767840 0.000000 0.014050 
#    y 0.000000 1.743020 0.000000 
#    z 0.014050 0.000000 1.828940 
# 
# From -- ./inp_files/30597.got.cif
#   From: 2010.05.17/outbox.cif.g08.bks.cpg/sg10_16_cif.got.tgz:30597.got - 2010.06.03 11:33:40.
