data_PCOD9151374
_publ_section_title
;
Structure prediction by ZEFSAII (Michael W. Deem and Ramdas Pophale) SiO2 
 PCOD9151374
Probable space group: P 2/M
;
_chemical_formula_sum "Si O2"
_cell_formula_units_Z 27
_cell_length_a 11.676782
_cell_length_b 20.255347
_cell_length_c 6.884610
_cell_angle_alpha 90.000000
_cell_angle_beta 122.270871
_cell_angle_gamma 90.000000
_cell_volume 1376.806679
_symmetry_space_group_name_H-M "P 2/M"
_symmetry_group_IT_number 10
_symmetry_cell_setting 'monoclinic'
loop_
_space_group_symop_operation_xyz
x,y,z
-x,y,-z
-x,-y,-z
x,-y,z
loop_
_atom_site_type_symbol
_atom_site_label
_atom_site_fract_x
_atom_site_fract_y
_atom_site_fract_z
Si Si1 0.341935 0.928784 0.913697
Si Si2 0.000000 0.360991 0.500000
Si Si3 0.000000 0.000000 0.000000
Si Si4 0.637624 0.788497 0.998208
Si Si5 0.895497 0.893795 0.586429
Si Si6 0.868118 0.576335 0.019474
Si Si7 0.820688 0.748312 0.514304
Si Si8 0.645964 0.680140 0.676362
O O1 0.248799 0.915362 0.640378
O O2 0.300141 0.000000 0.961794
O O3 0.500000 0.932691 0.000000
O O4 0.329173 0.863763 0.034255
O O5 0.924062 0.311011 0.575996
O O6 0.907159 0.404953 0.276096
O O7 0.943994 0.942368 0.797236
O O8 0.624798 0.736098 0.818818
O O9 0.500000 0.790704 0.000000
O O10 0.757001 0.765530 0.248095
O O11 0.882814 0.817471 0.641976
O O12 0.000000 0.896676 0.500000
O O13 0.825483 0.500000 0.969814
O O14 0.753080 0.626120 0.843117
O O15 0.000000 0.583527 0.000000
O O16 0.705618 0.719718 0.548089
O O17 0.500000 0.649629 0.500000
#
# Coordination Sequence:
#
# PCOD9151374 Si02
#       8
#     4   2   1   4   4   4   4   4
#     4   9  19  38  66  86 121 171 213 261 328 384
#     4  12  21  42  72  93 126 174 222 264 319 388
#     4  12  26  40  62  92 134 166 224 272 334 398
#     4  10  20  38  64  93 129 171 213 272 328 384
#     4  11  24  42  63  90 129 172 217 273 330 387
#     4  11  25  43  66  99 137 175 217 264 320 395
#     4  11  23  39  67  97 125 171 224 269 326 388
#     4  12  24  41  70 101 133 168 219 272 331 393
#
# _framework density 19.610595
#
# number of rings (size 3 to 8) (size 9 to 14) (size 15 to 20)
#    0.000    1.185    5.926    0.444    0.000    3.852 
#    0.000    0.000    0.000    2.667    0.000    0.000 
#    0.000    0.000    0.000    0.000    0.000    0.000 
#
# Total GULP energy -150503.836705 kJ/mol
# GULP energy per Si atom -5574.216174 kJ/mol
# Density = 1.956596 g / cm^3
# Si number density = 19.610595 Si / 1000 Ang^3
#
#
#
# Elastic Constant Matrix: (Units=GPa)
#
#
# Indices 1 2 3 4 5 6 
#
# 1 68.0133 38.5978 31.0647 0.0000 6.6485 0.0000
# 2 38.5978 141.1209 43.3086 0.0000 7.4495 0.0000
# 3 31.0647 43.3086 79.0151 0.0000 20.6978 0.0000
# 4 0.0000 0.0000 0.0000 -13.4809 0.0000 25.4160
# 5 6.6485 7.4495 20.6978 0.0000 19.4352 0.0000
# 6 0.0000 0.0000 0.0000 25.4160 0.0000 2.6505
#
#
#
# Elastic Compliance Matrix: (Units=1/GPa)
#
#
# Indices 1 2 3 4 5 6 
#
# 1 0.019308 -0.003512 -0.005947 0.000000 0.001075 0.000000
# 2 -0.003512 0.009237 -0.004257 0.000000 0.002194 0.000000
# 3 -0.005947 -0.004257 0.022699 0.000000 -0.020508 0.000000
# 4 0.000000 0.000000 0.000000 -0.003888 0.000000 0.037283
# 5 0.001075 0.002194 -0.020508 0.000000 0.072084 0.000000
# 6 0.000000 0.000000 0.000000 0.037283 0.000000 0.019775
#
#
# Mechanical properties :
#
#
# Convention : Reuss Voigt Hill
#
# Bulk Modulus (GPa) = 41.99747 57.12130 49.55939
# Shear Modulus (GPa) = 28.63925 13.39951 21.01938
#
# Velocity S-wave (km/s) = 3.82566 2.61680 3.27745
# Velocity P-wave (km/s) = 6.40128 6.19041 6.29673
#
# Compressibility (1/GPa) = 0.02381096
#
# Stress axis : x y z
#
# Youngs Moduli (GPa) = 51.79313 108.25577 44.05448
#
# Poissons Ratio (x) = 0.38024 0.26200
# Poissons Ratio (y) = 0.18192 0.18754
# Poissons Ratio (z) = 0.30802 0.46084
#
# Static dielectric constant tensor:
#      x y z
#    x 1.659640 0.000000 0.016920 
#    y 0.000000 1.700530 0.000000 
#    z 0.016920 0.000000 1.670430 
# 
# From -- ./inp_files/7810.got.cif
#   From: 2010.05.17/outbox.cif.g08.bks.cpg/sg10_4_cif.got.tgz:7810.got - 2010.06.03 11:33:40.
