data_PCOD9151003
_publ_section_title
;
Structure prediction by ZEFSAII (Michael W. Deem and Ramdas Pophale) SiO2 
 PCOD9151003
Probable space group: P 2/M
;
_chemical_formula_sum "Si O2"
_cell_formula_units_Z 28
_cell_length_a 12.446908
_cell_length_b 8.237270
_cell_length_c 12.635157
_cell_angle_alpha 90.000000
_cell_angle_beta 69.074498
_cell_angle_gamma 90.000000
_cell_volume 1210.022658
_symmetry_space_group_name_H-M "P 2/M"
_symmetry_group_IT_number 10
_symmetry_cell_setting 'monoclinic'
loop_
_space_group_symop_operation_xyz
x,y,z
-x,y,-z
-x,-y,-z
x,-y,z
loop_
_atom_site_type_symbol
_atom_site_label
_atom_site_fract_x
_atom_site_fract_y
_atom_site_fract_z
Si Si1 0.136537 0.689481 0.251631
Si Si2 0.591200 0.814787 0.041038
Si Si3 0.702062 0.196045 0.629418
Si Si4 0.192106 0.311345 0.774793
Si Si5 0.844698 0.194570 0.982981
Si Si6 0.450335 0.815151 0.700502
Si Si7 0.903919 0.811571 0.404944
O O1 0.152245 0.500000 0.231205
O O2 0.250131 0.758727 0.270543
O O3 0.102707 0.765099 0.149325
O O4 0.026477 0.724602 0.364199
O O5 0.715464 0.740151 0.006758
O O6 0.610328 0.000000 0.993059
O O7 0.500000 0.728847 0.000000
O O8 0.542218 0.828247 0.175097
O O9 0.576935 0.255008 0.631794
O O10 0.802321 0.252743 0.515217
O O11 0.694234 0.000000 0.628631
O O12 0.170093 0.500000 0.761538
O O13 0.330334 0.277767 0.725892
O O14 0.142957 0.205461 0.697480
O O15 0.132527 0.266150 0.908504
O O16 0.846423 0.000000 0.997053
O O17 0.437887 0.000000 0.661597
O O18 0.922651 0.000000 0.424141
#
# Coordination Sequence:
#
# PCOD9151003 Si02
#       7
#     4   4   4   4   4   4   4
#     4  12  25  40  61  92 127 159 196 249 313 368
#     4   8  13  24  48  80 111 144 185 235 287 338
#     4  10  22  41  66  92 119 158 209 256 295 350
#     4  11  23  40  61  91 128 160 197 247 308 366
#     4  10  20  37  61  87 118 158 203 247 294 356
#     4   9  18  35  59  87 119 157 201 246 294 353
#     4  11  24  43  65  87 116 161 214 257 295 351
#
# _framework density 23.140062
#
# number of rings (size 3 to 8) (size 9 to 14) (size 15 to 20)
#    0.000    1.857    0.000    5.571    0.000    6.857 
#    0.000    5.714    0.000    4.714    0.000    0.000 
#    0.000    0.000    0.000    0.000    0.000    0.000 
#
# Total GULP energy -156274.309852 kJ/mol
# GULP energy per Si atom -5581.225352 kJ/mol
# Density = 2.308739 g / cm^3
# Si number density = 23.140062 Si / 1000 Ang^3
#
#
#
# Elastic Constant Matrix: (Units=GPa)
#
#
# Indices 1 2 3 4 5 6 
#
# 1 62.1050 -8.1102 18.3206 0.0000 -5.2764 0.0000
# 2 -8.1102 45.5412 -2.1726 0.0000 -5.5119 0.0000
# 3 18.3206 -2.1726 90.8140 0.0000 -11.1114 0.0000
# 4 0.0000 0.0000 0.0000 -14.9211 0.0000 -3.9115
# 5 -5.2764 -5.5119 -11.1114 0.0000 35.6116 0.0000
# 6 0.0000 0.0000 0.0000 -3.9115 0.0000 -28.6951
#
#
#
# Elastic Compliance Matrix: (Units=1/GPa)
#
#
# Indices 1 2 3 4 5 6 
#
# 1 0.017657 0.003246 -0.003226 0.000000 0.002112 0.000000
# 2 0.003246 0.023061 0.000408 0.000000 0.004178 0.000000
# 3 -0.003226 0.000408 0.012083 0.000000 0.003355 0.000000
# 4 0.000000 0.000000 0.000000 -0.069503 0.000000 0.009474
# 5 0.002112 0.004178 0.003355 0.000000 0.030087 0.000000
# 6 0.000000 0.000000 0.000000 0.009474 0.000000 -0.036141
#
#
# Mechanical properties :
#
#
# Convention : Reuss Voigt Hill
#
# Bulk Modulus (GPa) = 18.63692 23.83732 21.23712
# Shear Modulus (GPa) = -873.19239 11.09388 -431.04925
#
# Velocity S-wave (km/s) = -19.44660 2.19195 -13.66319
# Velocity P-wave (km/s) = 22.27455 4.09022 15.48266
#
# Compressibility (1/GPa) = 0.05365694
#
# Stress axis : x y z
#
# Youngs Moduli (GPa) = 56.63556 43.36266 82.76368
#
# Poissons Ratio (x) = -0.14076 0.26699
# Poissons Ratio (y) = -0.18385 -0.03377
# Poissons Ratio (z) = 0.18270 -0.01769
#
# Static dielectric constant tensor:
#      x y z
#    x 1.932580 0.000000 -0.014480 
#    y 0.000000 1.821960 0.000000 
#    z -0.014480 0.000000 1.955580 
# 
# From -- ./inp_files/63584.got.cif
#   From: 2010.05.17/outbox.cif.g08.bks.cpg/sg10_32_cif.got.tgz:63584.got - 2010.06.03 11:33:40.
