data_PCOD9151935
_publ_section_title
;
Structure prediction by ZEFSAII (Michael W. Deem and Ramdas Pophale) SiO2 
 PCOD9151935
Probable space group: P 2/M
;
_chemical_formula_sum "Si O2"
_cell_formula_units_Z 28
_cell_length_a 10.065521
_cell_length_b 8.490187
_cell_length_c 31.325559
_cell_angle_alpha 90.000000
_cell_angle_beta 36.609814
_cell_angle_gamma 90.000000
_cell_volume 1596.476693
_symmetry_space_group_name_H-M "P 2/M"
_symmetry_group_IT_number 10
_symmetry_cell_setting 'monoclinic'
loop_
_space_group_symop_operation_xyz
x,y,z
-x,y,-z
-x,-y,-z
x,-y,z
loop_
_atom_site_type_symbol
_atom_site_label
_atom_site_fract_x
_atom_site_fract_y
_atom_site_fract_z
Si Si1 0.542177 0.189758 0.722642
Si Si2 0.043185 0.690536 0.844648
Si Si3 0.244881 0.688801 0.562157
Si Si4 0.259549 0.691098 0.157095
Si Si5 0.047994 0.809440 0.439612
Si Si6 0.340185 0.318065 0.999319
Si Si7 0.144178 0.188653 0.280265
O O1 0.296338 0.256764 0.781812
O O2 0.666345 0.238353 0.734388
O O3 0.710054 0.237832 0.641215
O O4 0.529100 0.000000 0.725796
O O5 0.033144 0.500000 0.848411
O O6 0.921418 0.739653 0.832061
O O7 0.890555 0.751105 0.923563
O O8 0.500000 0.742434 0.500000
O O9 0.240660 0.500000 0.563979
O O10 0.132669 0.747737 0.547393
O O11 0.089061 0.751050 0.640476
O O12 0.266294 0.500000 0.154952
O O13 0.502468 0.750235 0.078174
O O14 0.196006 0.748503 0.220084
O O15 0.000000 0.755985 0.500000
O O16 0.040135 0.000000 0.440834
O O17 0.295146 0.500000 0.999029
O O18 0.500000 0.321095 0.000000
O O19 0.139259 0.000000 0.281049
#
# Coordination Sequence:
#
# PCOD9151935 Si02
#       7
#     4   4   4   4   4   4   4
#     4   9  19  34  49  69  99 132 165 201 241 287
#     4   9  17  30  51  76  98 126 165 204 246 295
#     4  10  21  36  54  77 102 127 161 206 250 290
#     4   9  17  31  52  76 100 126 162 208 249 287
#     4   9  19  36  55  74  99 133 169 201 240 294
#     4   7  12  26  47  70  97 127 159 199 245 290
#     4  10  21  36  52  71  99 135 169 198 239 296
#
# _framework density 17.538620000000002
#
# number of rings (size 3 to 8) (size 9 to 14) (size 15 to 20)
#    0.000    3.000    0.000    3.429    0.000    6.000 
#    0.000    4.286    0.000    6.857    0.000    0.000 
#    0.000    0.000    0.000    0.000    0.000    0.000 
#
# Total GULP energy -155980.616245 kJ/mol
# GULP energy per Si atom -5570.736294 kJ/mol
# Density = 1.749870 g / cm^3
# Si number density = 17.538620 Si / 1000 Ang^3
#
#
#
# Elastic Constant Matrix: (Units=GPa)
#
#
# Indices 1 2 3 4 5 6 
#
# 1 87.9292 20.1479 119.7239 0.0000 0.9456 0.0000
# 2 20.1479 11.1788 31.4867 0.0000 -0.0752 0.0000
# 3 119.7239 31.4867 211.6675 0.0000 0.7060 0.0000
# 4 0.0000 0.0000 0.0000 24.1436 0.0000 -6.0005
# 5 0.9456 -0.0752 0.7060 0.0000 36.1569 0.0000
# 6 0.0000 0.0000 0.0000 -6.0005 0.0000 30.0121
#
#
#
# Elastic Compliance Matrix: (Units=1/GPa)
#
#
# Indices 1 2 3 4 5 6 
#
# 1 0.051657 -0.018621 -0.026445 0.000000 -0.000873 0.000000
# 2 -0.018621 0.160698 -0.013376 0.000000 0.001082 0.000000
# 3 -0.026445 -0.013376 0.021671 0.000000 0.000241 0.000000
# 4 0.000000 0.000000 0.000000 0.043585 0.000000 0.008714
# 5 -0.000873 0.001082 0.000241 0.000000 0.027678 0.000000
# 6 0.000000 0.000000 0.000000 0.008714 0.000000 0.035062
#
#
# Mechanical properties :
#
#
# Convention : Reuss Voigt Hill
#
# Bulk Modulus (GPa) = 8.53667 72.61027 40.57347
# Shear Modulus (GPa) = 10.07492 27.35700 18.71596
#
# Velocity S-wave (km/s) = 2.39935 3.95373 3.27024
# Velocity P-wave (km/s) = 3.54313 7.89511 6.11909
#
# Compressibility (1/GPa) = 0.11714168
#
# Stress axis : x y z
#
# Youngs Moduli (GPa) = 19.35860 6.22285 46.14396
#
# Poissons Ratio (x) = 0.11588 1.22029
# Poissons Ratio (y) = 0.36048 0.61721
# Poissons Ratio (z) = 0.51194 0.08324
#
# Static dielectric constant tensor:
#      x y z
#    x 1.569910 0.000000 0.002180 
#    y 0.000000 1.605820 0.000000 
#    z 0.002180 0.000000 1.616080 
# 
# From -- ./inp_files/86461.got.cif
#   From: 2010.05.17/outbox.cif.g08.bks.cpg/sg10_44_cif.got.tgz:86461.got - 2010.06.03 11:33:40.
