data_PCOD9151710
_publ_section_title
;
Structure prediction by ZEFSAII (Michael W. Deem and Ramdas Pophale) SiO2 
 PCOD9151710
Probable space group: P 2/M
;
_chemical_formula_sum "Si O2"
_cell_formula_units_Z 32
_cell_length_a 27.678374
_cell_length_b 13.769372
_cell_length_c 9.642456
_cell_angle_alpha 90.000000
_cell_angle_beta 153.464395
_cell_angle_gamma 90.000000
_cell_volume 1641.763843
_symmetry_space_group_name_H-M "P 2/M"
_symmetry_group_IT_number 10
_symmetry_cell_setting 'monoclinic'
loop_
_space_group_symop_operation_xyz
x,y,z
-x,y,-z
-x,-y,-z
x,-y,z
loop_
_atom_site_type_symbol
_atom_site_label
_atom_site_fract_x
_atom_site_fract_y
_atom_site_fract_z
Si Si1 0.507504 0.887280 0.685455
Si Si2 0.973380 0.615678 0.272740
Si Si3 0.302670 0.766634 0.259034
Si Si4 0.284517 0.385375 0.435166
Si Si5 0.826473 0.276787 0.338966
Si Si6 0.814703 0.113692 0.811383
Si Si7 0.700748 0.751950 0.287877
Si Si8 0.038873 0.889286 0.247837
O O1 0.500000 0.887910 0.500000
O O2 0.399554 0.837834 0.467651
O O3 0.520713 0.000000 0.765598
O O4 0.604661 0.816779 0.980025
O O5 0.991185 0.500000 0.311114
O O6 0.000000 0.646313 0.500000
O O7 0.061124 0.667154 0.399690
O O8 0.847158 0.632357 0.911996
O O9 0.335411 0.678104 0.443083
O O10 0.219908 0.832126 0.137369
O O11 0.250119 0.716312 0.989962
O O12 0.301561 0.500000 0.467730
O O13 0.328851 0.337645 0.689070
O O14 0.769683 0.294040 0.339440
O O15 0.858400 0.164249 0.430872
O O16 0.763647 0.173069 0.551388
O O17 0.782014 0.000000 0.727114
O O18 0.942279 0.116826 0.109304
O O19 0.066441 0.000000 0.290101
O O20 0.000000 0.846270 0.000000
#
# Coordination Sequence:
#
# PCOD9151710 Si02
#       8
#     4   4   4   4   4   4   4   4
#     4  11  24  43  66  94 125 161 211 266 319 376
#     4  10  21  38  63  93 125 164 204 247 306 375
#     4  11  23  40  63  90 121 160 209 265 316 367
#     4  10  23  43  66  94 129 164 204 256 316 380
#     4  12  22  35  61  89 122 161 205 253 310 363
#     4  10  21  37  55  84 122 159 202 250 304 374
#     4  11  23  40  63  89 122 163 209 260 315 371
#     4  10  21  34  52  81 121 165 203 240 298 378
#
# _framework density 19.491230999999999
#
# number of rings (size 3 to 8) (size 9 to 14) (size 15 to 20)
#    0.000    1.375    3.750    2.250    0.000    4.000 
#    0.000    6.875    0.000    0.750    0.000    0.000 
#    0.000    0.000    0.000    0.000    0.000    0.000 
#
# Total GULP energy -178608.174635 kJ/mol
# GULP energy per Si atom -5581.505457 kJ/mol
# Density = 1.944687 g / cm^3
# Si number density = 19.491231 Si / 1000 Ang^3
#
#
#
# Elastic Constant Matrix: (Units=GPa)
#
#
# Indices 1 2 3 4 5 6 
#
# 1 91.1592 48.6221 6.9786 0.0000 -5.0491 0.0000
# 2 48.6221 107.0572 11.6643 0.0000 -0.7361 0.0000
# 3 6.9786 11.6643 26.3617 0.0000 -6.3683 0.0000
# 4 0.0000 0.0000 0.0000 24.6920 0.0000 -1.3821
# 5 -5.0491 -0.7361 -6.3683 0.0000 23.3011 0.0000
# 6 0.0000 0.0000 0.0000 -1.3821 0.0000 20.3472
#
#
#
# Elastic Compliance Matrix: (Units=1/GPa)
#
#
# Indices 1 2 3 4 5 6 
#
# 1 0.014681 -0.006620 -0.000256 0.000000 0.002902 0.000000
# 2 -0.006620 0.012818 -0.004463 0.000000 -0.002249 0.000000
# 3 -0.000256 -0.004463 0.042751 0.000000 0.011488 0.000000
# 4 0.000000 0.000000 0.000000 0.040654 0.000000 0.002761
# 5 0.002902 -0.002249 0.011488 0.000000 0.046614 0.000000
# 6 0.000000 0.000000 0.000000 0.002761 0.000000 0.049334
#
#
# Mechanical properties :
#
#
# Convention : Reuss Voigt Hill
#
# Bulk Modulus (GPa) = 21.02024 39.90091 30.46058
# Shear Modulus (GPa) = 20.37596 24.15559 22.26577
#
# Velocity S-wave (km/s) = 3.23676 3.52420 3.38353
# Velocity P-wave (km/s) = 4.97762 6.08897 5.56113
#
# Compressibility (1/GPa) = 0.04757319
#
# Stress axis : x y z
#
# Youngs Moduli (GPa) = 68.11512 78.01498 23.39106
#
# Poissons Ratio (x) = 0.51644 0.00600
# Poissons Ratio (y) = 0.45091 0.10438
# Poissons Ratio (z) = 0.01746 0.34814
#
# Static dielectric constant tensor:
#      x y z
#    x 1.788320 0.000000 -0.073900 
#    y 0.000000 1.688850 0.000000 
#    z -0.073900 0.000000 1.756460 
# 
# From -- ./inp_files/36389.got.cif
#   From: 2010.05.17/outbox.cif.g08.bks.cpg/sg10_19_cif.got.tgz:36389.got - 2010.06.03 11:33:40.
