data_PCOD9151919
_publ_section_title
;
Structure prediction by ZEFSAII (Michael W. Deem and Ramdas Pophale) SiO2 
 PCOD9151919
Probable space group: P 2/M
;
_chemical_formula_sum "Si O2"
_cell_formula_units_Z 32
_cell_length_a 12.638979
_cell_length_b 19.203943
_cell_length_c 15.756474
_cell_angle_alpha 90.000000
_cell_angle_beta 24.344749
_cell_angle_gamma 90.000000
_cell_volume 1576.510529
_symmetry_space_group_name_H-M "P 2/M"
_symmetry_group_IT_number 10
_symmetry_cell_setting 'monoclinic'
loop_
_space_group_symop_operation_xyz
x,y,z
-x,y,-z
-x,-y,-z
x,-y,z
loop_
_atom_site_type_symbol
_atom_site_label
_atom_site_fract_x
_atom_site_fract_y
_atom_site_fract_z
Si Si1 0.747790 0.582987 0.628422
Si Si2 0.384780 0.808796 0.291391
Si Si3 0.676651 0.419538 0.487544
Si Si4 0.958056 0.222632 0.937282
Si Si5 0.403820 0.920963 0.973867
Si Si6 0.556817 0.308266 0.054718
Si Si7 0.860241 0.379400 0.179445
Si Si8 0.012193 0.199931 0.721821
O O1 0.707362 0.500000 0.666677
O O2 0.783476 0.598531 0.502130
O O3 0.505228 0.626272 0.840462
O O4 0.000000 0.600825 0.500000
O O5 0.396892 0.883177 0.235660
O O6 0.363528 0.751310 0.232413
O O7 0.189037 0.800477 0.510754
O O8 0.665534 0.793867 0.126156
O O9 0.589127 0.500000 0.555059
O O10 0.859734 0.413523 0.272306
O O11 0.432128 0.373163 0.640612
O O12 0.007952 0.304792 0.907170
O O13 0.128824 0.199265 0.731712
O O14 0.000000 0.192122 0.000000
O O15 0.348024 0.000000 0.988202
O O16 0.500000 0.922079 0.000000
O O17 0.163952 0.868717 0.151505
O O18 0.169752 0.268780 0.145884
O O19 0.500000 0.327815 0.000000
O O20 0.000000 0.417671 0.000000
#
# Coordination Sequence:
#
# PCOD9151919 Si02
#       8
#     4   4   4   4   4   4   4   4
#     4  10  24  44  63  85 118 163 214 263 316 380
#     4  10  22  37  60  90 125 160 202 246 304 361
#     4  10  23  41  60  86 117 151 199 256 321 396
#     4   9  21  36  54  87 118 153 194 248 299 361
#     4   9  19  38  62  94 132 166 204 245 293 355
#     4  10  23  37  59  85 114 157 204 257 310 361
#     4  10  21  35  64  87 114 150 193 250 320 375
#     4  10  22  38  61  90 126 162 202 248 303 362
#
# _framework density 20.297993999999999
#
# number of rings (size 3 to 8) (size 9 to 14) (size 15 to 20)
#    0.000    2.500    0.000    2.250   10.500    6.750 
#    0.000    1.250    0.000    6.000    0.000    7.000 
#    0.000    0.000    0.000    0.000    0.000    0.000 
#
# Total GULP energy -178429.805724 kJ/mol
# GULP energy per Si atom -5575.931429 kJ/mol
# Density = 2.025180 g / cm^3
# Si number density = 20.297994 Si / 1000 Ang^3
#
#
#
# Elastic Constant Matrix: (Units=GPa)
#
#
# Indices 1 2 3 4 5 6 
#
# 1 130.4544 33.0656 47.5793 0.0000 35.7138 0.0000
# 2 33.0656 93.0928 34.7801 0.0000 4.9782 0.0000
# 3 47.5793 34.7801 124.0712 0.0000 45.2526 0.0000
# 4 0.0000 0.0000 0.0000 15.4754 0.0000 5.4010
# 5 35.7138 4.9782 45.2526 0.0000 41.4508 0.0000
# 6 0.0000 0.0000 0.0000 5.4010 0.0000 26.1268
#
#
#
# Elastic Compliance Matrix: (Units=1/GPa)
#
#
# Indices 1 2 3 4 5 6 
#
# 1 0.011022 -0.003458 0.000091 0.000000 -0.009181 0.000000
# 2 -0.003458 0.013436 -0.004883 0.000000 0.006696 0.000000
# 3 0.000091 -0.004883 0.015301 0.000000 -0.016197 0.000000
# 4 0.000000 0.000000 0.000000 0.069643 0.000000 -0.014397
# 5 -0.009181 0.006696 -0.016197 0.000000 0.048913 0.000000
# 6 0.000000 0.000000 0.000000 -0.014397 0.000000 0.041251
#
#
# Mechanical properties :
#
#
# Convention : Reuss Voigt Hill
#
# Bulk Modulus (GPa) = 42.99217 64.27427 53.63322
# Shear Modulus (GPa) = 22.33941 32.09017 27.21479
#
# Velocity S-wave (km/s) = 3.32109 3.98043 3.66561
# Velocity P-wave (km/s) = 5.99438 7.27043 6.66303
#
# Compressibility (1/GPa) = 0.02326005
#
# Stress axis : x y z
#
# Youngs Moduli (GPa) = 90.72636 74.42482 65.35474
#
# Poissons Ratio (x) = 0.25736 -0.00595
# Poissons Ratio (y) = 0.31373 0.31912
# Poissons Ratio (z) = -0.00826 0.36340
#
# Static dielectric constant tensor:
#      x y z
#    x 1.780650 0.000000 0.005780 
#    y 0.000000 1.711840 0.000000 
#    z 0.005780 0.000000 1.791540 
# 
# From -- ./inp_files/65384.got.cif
#   From: 2010.05.17/outbox.cif.g08.bks.cpg/sg10_33_cif.got.tgz:65384.got - 2010.06.03 11:33:40.
