data_PCOD9151020
_publ_section_title
;
Structure prediction by ZEFSAII (Michael W. Deem and Ramdas Pophale) SiO2 
 PCOD9151020
Probable space group: P 2/M
;
_chemical_formula_sum "Si O2"
_cell_formula_units_Z 30
_cell_length_a 7.878703
_cell_length_b 27.013646
_cell_length_c 8.382926
_cell_angle_alpha 90.000000
_cell_angle_beta 50.835027
_cell_angle_gamma 90.000000
_cell_volume 1383.313329
_symmetry_space_group_name_H-M "P 2/M"
_symmetry_group_IT_number 10
_symmetry_cell_setting 'monoclinic'
loop_
_space_group_symop_operation_xyz
x,y,z
-x,y,-z
-x,-y,-z
x,-y,z
loop_
_atom_site_type_symbol
_atom_site_label
_atom_site_fract_x
_atom_site_fract_y
_atom_site_fract_z
Si Si1 0.672193 0.899894 0.761473
Si Si2 0.252704 0.287411 0.916535
Si Si3 0.432849 0.818105 0.729195
Si Si4 0.742897 0.554198 0.918914
Si Si5 0.890647 0.942505 0.355204
Si Si6 0.068652 0.349318 0.289445
Si Si7 0.000000 0.117606 0.000000
Si Si8 0.687226 0.386239 0.277180
O O1 0.615405 0.845742 0.727620
O O2 0.686710 0.933261 0.593178
O O3 0.906921 0.909269 0.701339
O O4 0.500000 0.913940 0.000000
O O5 0.387801 0.238321 0.803247
O O6 0.378127 0.333878 0.762561
O O7 0.212742 0.307693 0.117776
O O8 0.000000 0.280978 0.000000
O O9 0.500000 0.821975 0.500000
O O10 0.205023 0.845935 0.911933
O O11 0.854020 0.500000 0.849632
O O12 0.820417 0.597432 0.754925
O O13 0.500000 0.547405 0.000000
O O14 0.746700 0.577356 0.096018
O O15 0.873193 0.920266 0.192131
O O16 0.949330 0.000000 0.324046
O O17 0.000000 0.329900 0.500000
O O18 0.881033 0.367098 0.276852
O O19 0.500000 0.407924 0.500000
#
# Coordination Sequence:
#
# PCOD9151020 Si02
#       8
#     4   4   4   4   4   4   2   4
#     4  11  23  42  64  95 130 169 211 262 324 382
#     4   9  20  39  63  90 120 165 208 263 328 382
#     4  12  23  42  67  93 130 172 209 265 331 390
#     4  10  21  37  59  89 128 170 213 269 330 386
#     4  11  25  45  68  96 131 173 217 268 321 387
#     4  10  21  39  63  91 125 165 216 272 322 392
#     4  12  23  44  68 100 130 162 217 274 308 400
#     4  10  20  37  61  89 122 164 216 265 320 392
#
# _framework density 21.687062000000001
#
# number of rings (size 3 to 8) (size 9 to 14) (size 15 to 20)
#    0.000    1.467    3.333    3.400    0.000    2.667 
#    0.000    8.667    0.000    0.000    0.000    0.000 
#    0.000    0.000    0.000    0.000    0.000    0.000 
#
# Total GULP energy -167087.639219 kJ/mol
# GULP energy per Si atom -5569.587974 kJ/mol
# Density = 2.163770 g / cm^3
# Si number density = 21.687062 Si / 1000 Ang^3
#
#
#
# Elastic Constant Matrix: (Units=GPa)
#
#
# Indices 1 2 3 4 5 6 
#
# 1 31.0437 23.5734 -0.8967 0.0000 -0.1377 0.0000
# 2 23.5734 135.3105 31.9127 0.0000 2.9961 0.0000
# 3 -0.8967 31.9127 127.4119 0.0000 13.9023 0.0000
# 4 0.0000 0.0000 0.0000 21.4673 0.0000 -12.5259
# 5 -0.1377 2.9961 13.9023 0.0000 22.6228 0.0000
# 6 0.0000 0.0000 0.0000 -12.5259 0.0000 20.4709
#
#
#
# Elastic Compliance Matrix: (Units=1/GPa)
#
#
# Indices 1 2 3 4 5 6 
#
# 1 0.037610 -0.007030 0.002035 0.000000 -0.000091 0.000000
# 2 -0.007030 0.009169 -0.002368 0.000000 0.000198 0.000000
# 3 0.002035 -0.002368 0.009026 0.000000 -0.005220 0.000000
# 4 0.000000 0.000000 0.000000 0.072449 0.000000 0.044331
# 5 -0.000091 0.000198 -0.005220 0.000000 0.047384 0.000000
# 6 0.000000 0.000000 0.000000 0.044331 0.000000 0.075975
#
#
# Mechanical properties :
#
#
# Convention : Reuss Voigt Hill
#
# Bulk Modulus (GPa) = 24.34314 44.77164 34.55739
# Shear Modulus (GPa) = 17.85517 28.85733 23.35625
#
# Velocity S-wave (km/s) = 2.87245 3.65173 3.28528
# Velocity P-wave (km/s) = 4.71703 6.20237 5.50998
#
# Compressibility (1/GPa) = 0.04107933
#
# Stress axis : x y z
#
# Youngs Moduli (GPa) = 26.58902 109.06036 110.79675
#
# Poissons Ratio (x) = 0.76672 -0.22552
# Poissons Ratio (y) = 0.18693 0.26233
# Poissons Ratio (z) = -0.05412 0.25822
#
# Static dielectric constant tensor:
#      x y z
#    x 1.908540 0.000000 0.093310 
#    y 0.000000 1.806770 0.000000 
#    z 0.093310 0.000000 2.130860 
# 
# From -- ./inp_files/20777.got.cif
#   From: 2010.05.17/outbox.cif.g08.bks.cpg/sg10_11_cif.got.tgz:20777.got - 2010.06.03 11:33:40.
