data_PCOD9151431
_publ_section_title
;
Structure prediction by ZEFSAII (Michael W. Deem and Ramdas Pophale) SiO2 
 PCOD9151431
Probable space group: P 2/M
;
_chemical_formula_sum "Si O2"
_cell_formula_units_Z 28
_cell_length_a 15.063253
_cell_length_b 15.589559
_cell_length_c 8.678615
_cell_angle_alpha 90.000000
_cell_angle_beta 40.109980
_cell_angle_gamma 90.000000
_cell_volume 1312.991978
_symmetry_space_group_name_H-M "P 2/M"
_symmetry_group_IT_number 10
_symmetry_cell_setting 'monoclinic'
loop_
_space_group_symop_operation_xyz
x,y,z
-x,y,-z
-x,-y,-z
x,-y,z
loop_
_atom_site_type_symbol
_atom_site_label
_atom_site_fract_x
_atom_site_fract_y
_atom_site_fract_z
Si Si1 0.688623 0.691221 0.006532
Si Si2 0.720458 0.212543 0.269475
Si Si3 0.136474 0.241325 0.476340
Si Si4 0.433069 0.792895 0.230877
Si Si5 0.956732 0.901300 0.875781
Si Si6 0.873752 0.356343 0.256345
Si Si7 0.339171 0.500000 0.896788
Si Si8 0.333144 0.500000 0.536513
O O1 0.819886 0.739905 0.756195
O O2 0.666198 0.724044 0.210029
O O3 0.546520 0.719150 0.111041
O O4 0.712720 0.589978 0.967737
O O5 0.610501 0.177488 0.539820
O O6 0.831389 0.272426 0.212432
O O7 0.802555 0.135697 0.080980
O O8 0.286794 0.234000 0.356518
O O9 0.076673 0.324045 0.643167
O O10 0.050918 0.158741 0.642381
O O11 0.500000 0.846988 0.000000
O O12 0.965971 0.000000 0.816281
O O13 0.000000 0.896451 0.000000
O O14 0.742425 0.417486 0.433467
O O15 0.000000 0.398940 0.000000
O O16 0.311320 0.500000 0.750190
O O17 0.504195 0.500000 0.702790
#
# Coordination Sequence:
#
# PCOD9151431 Si02
#       8
#     4   4   4   4   4   4   2   2
#     4  11  23  36  61  86 126 168 199 250 297 355
#     4  11  19  37  61  88 120 158 201 242 310 365
#     4  10  20  39  59  89 122 154 205 245 305 365
#     4   9  19  35  57  87 118 160 204 244 288 356
#     4  11  21  39  70  96 115 152 201 256 300 361
#     4  11  19  37  56  79 117 160 205 252 295 349
#     4  11  22  37  52  90 117 156 216 248 297 348
#     4  11  23  33  58  84 120 157 215 267 287 336
#
# _framework density 21.325339
#
# number of rings (size 3 to 8) (size 9 to 14) (size 15 to 20)
#    0.000    1.429    5.714    2.357    2.000    1.143 
#    0.000    5.357    0.000   12.000    0.000    0.000 
#    0.000    0.000    0.000    0.000    0.000    0.000 
#
# Total GULP energy -156062.954679 kJ/mol
# GULP energy per Si atom -5573.676953 kJ/mol
# Density = 2.127680 g / cm^3
# Si number density = 21.325339 Si / 1000 Ang^3
#
#
#
# Elastic Constant Matrix: (Units=GPa)
#
#
# Indices 1 2 3 4 5 6 
#
# 1 55.8015 21.4929 15.8707 0.0000 8.9206 0.0000
# 2 21.4929 129.5419 56.0752 0.0000 -1.0609 0.0000
# 3 15.8707 56.0752 152.5395 0.0000 20.8123 0.0000
# 4 0.0000 0.0000 0.0000 -9.4488 0.0000 -1.1730
# 5 8.9206 -1.0609 20.8123 0.0000 20.7379 0.0000
# 6 0.0000 0.0000 0.0000 -1.1730 0.0000 16.1469
#
#
#
# Elastic Compliance Matrix: (Units=1/GPa)
#
#
# Indices 1 2 3 4 5 6 
#
# 1 0.020759 -0.003757 0.000540 0.000000 -0.009664 0.000000
# 2 -0.003757 0.010232 -0.004244 0.000000 0.006398 0.000000
# 3 0.000540 -0.004244 0.009409 0.000000 -0.009892 0.000000
# 4 0.000000 0.000000 0.000000 -0.104887 0.000000 -0.007620
# 5 -0.009664 0.006398 -0.009892 0.000000 0.062633 0.000000
# 6 0.000000 0.000000 0.000000 -0.007620 0.000000 0.061378
#
#
# Mechanical properties :
#
#
# Convention : Reuss Voigt Hill
#
# Bulk Modulus (GPa) = 39.24828 58.30672 48.77750
# Shear Modulus (GPa) = 60.28575 21.78346 41.03460
#
# Velocity S-wave (km/s) = 5.32268 3.19953 4.39135
# Velocity P-wave (km/s) = 7.49793 6.40704 6.97385
#
# Compressibility (1/GPa) = 0.02547882
#
# Stress axis : x y z
#
# Youngs Moduli (GPa) = 48.17167 97.73095 106.27921
#
# Poissons Ratio (x) = 0.36718 -0.05737
# Poissons Ratio (y) = 0.18098 0.45100
# Poissons Ratio (z) = -0.02600 0.41473
#
# Static dielectric constant tensor:
#      x y z
#    x 1.837830 0.000000 0.067730 
#    y 0.000000 1.738050 0.000000 
#    z 0.067730 0.000000 1.909090 
# 
# From -- ./inp_files/30135.got.cif
#   From: 2010.05.17/outbox.cif.g08.bks.cpg/sg10_16_cif.got.tgz:30135.got - 2010.06.03 11:33:40.
