data_PCOD9151198
_publ_section_title
;
Structure prediction by ZEFSAII (Michael W. Deem and Ramdas Pophale) SiO2 
 PCOD9151198
Probable space group: P 2/M
;
_chemical_formula_sum "Si O2"
_cell_formula_units_Z 24
_cell_length_a 17.790526
_cell_length_b 8.251599
_cell_length_c 17.588152
_cell_angle_alpha 90.000000
_cell_angle_beta 24.244529
_cell_angle_gamma 90.000000
_cell_volume 1060.229005
_symmetry_space_group_name_H-M "P 2/M"
_symmetry_group_IT_number 10
_symmetry_cell_setting 'monoclinic'
loop_
_space_group_symop_operation_xyz
x,y,z
-x,y,-z
-x,-y,-z
x,-y,z
loop_
_atom_site_type_symbol
_atom_site_label
_atom_site_fract_x
_atom_site_fract_y
_atom_site_fract_z
Si Si1 0.714666 0.305879 0.130884
Si Si2 0.927836 0.000000 0.481575
Si Si3 0.104077 0.817932 0.721228
Si Si4 0.495989 0.000000 0.912785
Si Si5 0.786982 0.687397 0.225398
Si Si6 0.526860 0.681119 0.148269
Si Si7 0.894893 0.673462 0.439185
O O1 0.758904 0.500000 0.092952
O O2 0.672208 0.260091 0.257235
O O3 0.569178 0.284418 0.198180
O O4 0.893601 0.208124 0.940218
O O5 0.987479 0.834804 0.385485
O O6 0.000000 0.000000 0.500000
O O7 0.706364 0.000000 0.689081
O O8 0.220138 0.783114 0.689752
O O9 0.130206 0.696067 0.627841
O O10 0.137292 0.000000 0.663391
O O11 0.409456 0.165509 0.959516
O O12 0.500000 0.000000 0.000000
O O13 0.745612 0.500000 0.280695
O O14 0.000000 0.695060 0.000000
O O15 0.602497 0.500000 0.061916
O O16 0.309241 0.669728 0.338812
O O17 0.983718 0.500000 0.373781
#
# Coordination Sequence:
#
# PCOD9151198 Si02
#       7
#     4   2   4   2   4   4   4
#     4   9  18  33  52  77 105 140 186 227 266 315
#     4  10  22  40  58  83 112 135 175 216 259 328
#     4  11  20  30  49  79 110 143 185 226 265 312
#     4  10  22  38  58  83 110 139 169 212 267 320
#     4   8  15  29  47  69 104 143 180 225 269 308
#     4   9  20  38  59  80 107 143 178 215 265 320
#     4  10  20  38  59  79 109 146 177 216 268 315
#
# _framework density 22.636617999999999
#
# number of rings (size 3 to 8) (size 9 to 14) (size 15 to 20)
#    0.000    2.500    0.833    2.500    1.167    5.000 
#    0.000    0.833    0.000    5.000    0.000    0.000 
#    0.000    0.000    0.000    0.000    0.000    0.000 
#
# Total GULP energy -133949.649692 kJ/mol
# GULP energy per Si atom -5581.235404 kJ/mol
# Density = 2.258510 g / cm^3
# Si number density = 22.636618 Si / 1000 Ang^3
#
#
#
# Elastic Constant Matrix: (Units=GPa)
#
#
# Indices 1 2 3 4 5 6 
#
# 1 110.4344 66.6831 -5.3395 0.0000 20.4651 0.0000
# 2 66.6831 154.5714 6.9498 0.0000 21.9877 0.0000
# 3 -5.3395 6.9498 33.5492 0.0000 -8.9623 0.0000
# 4 0.0000 0.0000 0.0000 -7.7812 0.0000 10.5077
# 5 20.4651 21.9877 -8.9623 0.0000 34.8483 0.0000
# 6 0.0000 0.0000 0.0000 10.5077 0.0000 26.0928
#
#
#
# Elastic Compliance Matrix: (Units=1/GPa)
#
#
# Indices 1 2 3 4 5 6 
#
# 1 0.012975 -0.005148 0.002108 0.000000 -0.003830 0.000000
# 2 -0.005148 0.009416 -0.003811 0.000000 -0.003898 0.000000
# 3 0.002108 -0.003811 0.033549 0.000000 0.009795 0.000000
# 4 0.000000 0.000000 0.000000 -0.083245 0.000000 0.033523
# 5 -0.003830 -0.003898 0.009795 0.000000 0.035923 0.000000
# 6 0.000000 0.000000 0.000000 0.033523 0.000000 0.024825
#
#
# Mechanical properties :
#
#
# Convention : Reuss Voigt Hill
#
# Bulk Modulus (GPa) = 23.67497 48.34910 36.01203
# Shear Modulus (GPa) = 81.66824 25.98274 53.82549
#
# Velocity S-wave (km/s) = 6.01301 3.39162 4.88157
# Velocity P-wave (km/s) = 7.66092 6.06157 6.90769
#
# Compressibility (1/GPa) = 0.04223870
#
# Stress axis : x y z
#
# Youngs Moduli (GPa) = 77.07146 106.20149 29.80757
#
# Poissons Ratio (x) = 0.54667 -0.06284
# Poissons Ratio (y) = 0.39673 0.11360
# Poissons Ratio (z) = -0.16249 0.40476
#
# Static dielectric constant tensor:
#      x y z
#    x 1.827220 0.000000 -0.030510 
#    y 0.000000 1.867010 0.000000 
#    z -0.030510 0.000000 1.867210 
# 
# From -- ./inp_files/66343.got.cif
#   From: 2010.05.17/outbox.cif.g08.bks.cpg/sg10_34_cif.got.tgz:66343.got - 2010.06.03 11:33:40.
