data_PCOD9151424
_publ_section_title
;
Structure prediction by ZEFSAII (Michael W. Deem and Ramdas Pophale) SiO2 
 PCOD9151424
Probable space group: P 2/M
;
_chemical_formula_sum "Si O2"
_cell_formula_units_Z 24
_cell_length_a 8.981498
_cell_length_b 19.172670
_cell_length_c 10.021340
_cell_angle_alpha 90.000000
_cell_angle_beta 133.809552
_cell_angle_gamma 90.000000
_cell_volume 1245.319175
_symmetry_space_group_name_H-M "P 2/M"
_symmetry_group_IT_number 10
_symmetry_cell_setting 'monoclinic'
loop_
_space_group_symop_operation_xyz
x,y,z
-x,y,-z
-x,-y,-z
x,-y,z
loop_
_atom_site_type_symbol
_atom_site_label
_atom_site_fract_x
_atom_site_fract_y
_atom_site_fract_z
Si Si1 0.205108 0.500000 0.033663
Si Si2 0.510809 0.121230 0.152140
Si Si3 0.181635 0.000000 0.006446
Si Si4 0.937424 0.500000 0.615704
Si Si5 0.932035 0.652774 0.612232
Si Si6 0.791602 0.654414 0.959521
Si Si7 0.448962 0.755913 0.620689
Si Si8 0.172416 0.000000 0.711630
O O1 0.302255 0.576024 0.115296
O O2 0.000000 0.500000 0.000000
O O3 0.134528 0.500000 0.835621
O O4 0.324519 0.070370 0.089301
O O5 0.570222 0.175529 0.301670
O O6 0.685733 0.066121 0.223883
O O7 0.500000 0.159207 0.000000
O O8 0.077052 0.000000 0.797537
O O9 0.000000 0.000000 0.000000
O O10 0.838717 0.575200 0.584433
O O11 0.000000 0.500000 0.500000
O O12 0.758899 0.710899 0.517277
O O13 0.000000 0.652631 0.500000
O O14 0.120341 0.663597 0.834445
O O15 0.628031 0.709667 0.802889
O O16 0.000000 0.658335 0.000000
O O17 0.500000 0.773959 0.500000
O O18 0.000000 0.000000 0.500000
#
# Coordination Sequence:
#
# PCOD9151424 Si02
#       8
#     2   4   2   2   4   4   4   2
#     4   8  16  31  57  79 107 156 199 251 313 346
#     4   9  22  42  61  87 126 156 192 242 283 349
#     4   9  19  41  68  94 118 154 191 235 293 335
#     4   8  16  35  57  79 113 149 199 263 299 349
#     4  10  22  39  60  86 116 159 207 251 309 362
#     4  10  20  39  57  83 122 155 202 261 302 356
#     4  12  25  39  58  89 125 162 200 244 304 359
#     4   9  19  41  68  92 118 153 196 234 282 348
#
# _framework density 19.272168000000001
#
# number of rings (size 3 to 8) (size 9 to 14) (size 15 to 20)
#    0.000    2.333    1.667    1.000    2.333    3.333 
#    3.000    2.500    0.000    6.000    0.000    0.000 
#    0.000    0.000    0.000    0.000    0.000    0.000 
#
# Total GULP energy -133610.296135 kJ/mol
# GULP energy per Si atom -5567.095672 kJ/mol
# Density = 1.922830 g / cm^3
# Si number density = 19.272168 Si / 1000 Ang^3
#
#
#
# Elastic Constant Matrix: (Units=GPa)
#
#
# Indices 1 2 3 4 5 6 
#
# 1 83.7894 27.0478 34.8479 0.0000 -26.2779 0.0000
# 2 27.0478 97.7307 31.6608 0.0000 -21.2469 0.0000
# 3 34.8479 31.6608 107.1542 0.0000 -29.8252 0.0000
# 4 0.0000 0.0000 0.0000 31.3956 0.0000 -26.5198
# 5 -26.2779 -21.2469 -29.8252 0.0000 31.4615 0.0000
# 6 0.0000 0.0000 0.0000 -26.5198 0.0000 -63.4771
#
#
#
# Elastic Compliance Matrix: (Units=1/GPa)
#
#
# Indices 1 2 3 4 5 6 
#
# 1 0.016713 -0.001606 -0.001871 0.000000 0.011101 0.000000
# 2 -0.001606 0.012394 -0.001608 0.000000 0.005505 0.000000
# 3 -0.001871 -0.001608 0.013148 0.000000 0.009816 0.000000
# 4 0.000000 0.000000 0.000000 0.023543 0.000000 -0.009836
# 5 0.011101 0.005505 0.009816 0.000000 0.054080 0.000000
# 6 0.000000 0.000000 0.000000 -0.009836 0.000000 -0.011644
#
#
# Mechanical properties :
#
#
# Convention : Reuss Voigt Hill
#
# Bulk Modulus (GPa) = 31.16619 52.86527 42.01573
# Shear Modulus (GPa) = 38.73041 12.88385 25.80713
#
# Velocity S-wave (km/s) = 4.48778 2.58838 3.66333
# Velocity P-wave (km/s) = 6.56203 6.03518 6.30411
#
# Compressibility (1/GPa) = 0.03208605
#
# Stress axis : x y z
#
# Youngs Moduli (GPa) = 59.83487 80.68277 76.05787
#
# Poissons Ratio (x) = 0.12957 0.14229
# Poissons Ratio (y) = 0.09609 0.12227
# Poissons Ratio (z) = 0.11194 0.12971
#
# Static dielectric constant tensor:
#      x y z
#    x 1.644650 0.000000 -0.014330 
#    y 0.000000 1.691560 0.000000 
#    z -0.014330 0.000000 1.572500 
# 
# From -- ./inp_files/20305.got.cif
#   From: 2010.05.17/outbox.cif.g08.bks.cpg/sg10_11_cif.got.tgz:20305.got - 2010.06.03 11:33:40.
