data_PCOD9151720
_publ_section_title
;
Structure prediction by ZEFSAII (Michael W. Deem and Ramdas Pophale) SiO2 
 PCOD9151720
Probable space group: P 2/M
;
_chemical_formula_sum "Si O2"
_cell_formula_units_Z 24
_cell_length_a 10.025118
_cell_length_b 10.123989
_cell_length_c 12.698475
_cell_angle_alpha 90.000000
_cell_angle_beta 64.604048
_cell_angle_gamma 90.000000
_cell_volume 1164.276878
_symmetry_space_group_name_H-M "P 2/M"
_symmetry_group_IT_number 10
_symmetry_cell_setting 'monoclinic'
loop_
_space_group_symop_operation_xyz
x,y,z
-x,y,-z
-x,-y,-z
x,-y,z
loop_
_atom_site_type_symbol
_atom_site_label
_atom_site_fract_x
_atom_site_fract_y
_atom_site_fract_z
Si Si1 0.450130 0.856504 0.855354
Si Si2 0.171246 0.345081 0.413263
Si Si3 0.230286 0.849468 0.203691
Si Si4 0.457476 0.229233 0.401204
Si Si5 0.967375 0.148754 0.134501
Si Si6 0.715358 0.349606 0.203980
O O1 0.595245 0.838571 0.876885
O O2 0.516120 0.859259 0.712150
O O3 0.343368 0.731381 0.879112
O O4 0.380221 0.000000 0.900791
O O5 0.204113 0.500000 0.388685
O O6 0.194606 0.262371 0.299639
O O7 0.291243 0.284003 0.453038
O O8 0.000000 0.331175 0.500000
O O9 0.119324 0.834523 0.145191
O O10 0.207843 0.000000 0.252293
O O11 0.500000 0.172258 0.500000
O O12 0.578593 0.342248 0.332087
O O13 0.848625 0.260524 0.202108
O O14 0.909679 0.000000 0.177081
O O15 0.000000 0.157052 0.000000
O O16 0.755950 0.500000 0.168682
#
# Coordination Sequence:
#
# PCOD9151720 Si02
#       6
#     4   4   4   4   4   4
#     4   8  17  34  55  78 108 145 185 225 275 331
#     4  10  21  34  53  81 113 153 193 226 271 332
#     4   9  19  37  58  80 109 144 185 235 283 332
#     4   9  20  34  52  80 115 150 191 231 273 327
#     4  10  22  41  63  85 110 144 189 241 294 343
#     4  10  21  35  56  83 114 148 184 230 282 334
#
# _framework density 20.613652999999999
#
# number of rings (size 3 to 8) (size 9 to 14) (size 15 to 20)
#    1.000    1.667    0.000    1.000    2.333    3.000 
#    0.000    0.833    0.000    5.000    0.000    0.000 
#    0.000    0.000    0.000    0.000    0.000    0.000 
#
# Total GULP energy -133693.054795 kJ/mol
# GULP energy per Si atom -5570.543950 kJ/mol
# Density = 2.056674 g / cm^3
# Si number density = 20.613653 Si / 1000 Ang^3
#
#
#
# Elastic Constant Matrix: (Units=GPa)
#
#
# Indices 1 2 3 4 5 6 
#
# 1 151.7458 57.9889 33.2797 0.0000 16.6255 0.0000
# 2 57.9889 119.9506 24.8028 0.0000 -6.2794 0.0000
# 3 33.2797 24.8028 31.5860 0.0000 -9.5812 0.0000
# 4 0.0000 0.0000 0.0000 15.4585 0.0000 -8.8949
# 5 16.6255 -6.2794 -9.5812 0.0000 19.9928 0.0000
# 6 0.0000 0.0000 0.0000 -8.8949 0.0000 12.6159
#
#
#
# Elastic Compliance Matrix: (Units=1/GPa)
#
#
# Indices 1 2 3 4 5 6 
#
# 1 0.015156 -0.004516 -0.019512 0.000000 -0.023372 0.000000
# 2 -0.004516 0.011307 -0.002229 0.000000 0.006239 0.000000
# 3 -0.019512 -0.002229 0.068658 0.000000 0.048429 0.000000
# 4 0.000000 0.000000 0.000000 0.108849 0.000000 0.076744
# 5 -0.023372 0.006239 0.048429 0.000000 0.094622 0.000000
# 6 0.000000 0.000000 0.000000 0.076744 0.000000 0.133374
#
#
# Mechanical properties :
#
#
# Convention : Reuss Voigt Hill
#
# Bulk Modulus (GPa) = 23.46957 59.49170 41.48064
# Shear Modulus (GPa) = 10.02644 22.09416 16.06030
#
# Velocity S-wave (km/s) = 2.20784 3.27742 2.79428
# Velocity P-wave (km/s) = 4.23197 6.57609 5.52967
#
# Compressibility (1/GPa) = 0.04260836
#
# Stress axis : x y z
#
# Youngs Moduli (GPa) = 65.98253 88.43844 14.56489
#
# Poissons Ratio (x) = 0.39937 0.28419
# Poissons Ratio (y) = 0.29796 0.03246
# Poissons Ratio (z) = 1.28744 0.19711
#
# Static dielectric constant tensor:
#      x y z
#    x 1.765560 0.000000 -0.004900 
#    y 0.000000 1.719120 0.000000 
#    z -0.004900 0.000000 1.766830 
# 
# From -- ./inp_files/60660.got.cif
#   From: 2010.05.17/outbox.cif.g08.bks.cpg/sg10_31_cif.got.tgz:60660.got - 2010.06.03 11:33:40.
