data_PCOD9151306
_publ_section_title
;
Structure prediction by ZEFSAII (Michael W. Deem and Ramdas Pophale) SiO2 
 PCOD9151306
Probable space group: P 2/M
;
_chemical_formula_sum "Si O2"
_cell_formula_units_Z 26
_cell_length_a 5.131059
_cell_length_b 14.326790
_cell_length_c 19.540552
_cell_angle_alpha 90.000000
_cell_angle_beta 119.842797
_cell_angle_gamma 90.000000
_cell_volume 1245.974470
_symmetry_space_group_name_H-M "P 2/M"
_symmetry_group_IT_number 10
_symmetry_cell_setting 'monoclinic'
loop_
_space_group_symop_operation_xyz
x,y,z
-x,y,-z
-x,-y,-z
x,-y,z
loop_
_atom_site_type_symbol
_atom_site_label
_atom_site_fract_x
_atom_site_fract_y
_atom_site_fract_z
Si Si1 0.573043 0.252245 0.819026
Si Si2 0.558755 0.613461 0.585255
Si Si3 0.762617 0.387757 0.320143
Si Si4 0.146525 0.000000 0.943806
Si Si5 0.230904 0.112746 0.416399
Si Si6 0.548607 0.112237 0.319078
Si Si7 0.223101 0.797225 0.910443
O O1 0.453292 0.342504 0.763617
O O2 0.533768 0.169408 0.758696
O O3 0.366427 0.227384 0.856518
O O4 0.922519 0.261655 0.885215
O O5 0.500000 0.643653 0.500000
O O6 0.547251 0.500000 0.582376
O O7 0.333567 0.642239 0.615756
O O8 0.895753 0.641427 0.648843
O O9 0.747741 0.500000 0.315823
O O10 0.095040 0.903348 0.898442
O O11 0.500000 0.000000 0.000000
O O12 0.000000 0.000000 0.000000
O O13 0.500000 0.146908 0.500000
O O14 0.320808 0.134864 0.350447
O O15 0.888134 0.139337 0.386146
O O16 0.233943 0.000000 0.422923
O O17 0.543959 0.000000 0.306902
O O18 0.500000 0.788303 0.000000
#
# Coordination Sequence:
#
# PCOD9151306 Si02
#       7
#     4   4   4   2   4   4   4
#     4  12  24  39  61  87 119 153 194 240 298 360
#     4   9  17  33  59  87 118 158 201 249 305 357
#     4  10  21  38  59  86 122 161 202 247 299 353
#     4  10  20  38  62  92 120 148 185 224 291 362
#     4   9  17  33  53  72 103 152 197 232 270 320
#     4  10  21  34  52  79 111 143 185 234 284 334
#     4  11  24  41  64  88 119 152 190 238 291 366
#
# _framework density 20.867201000000001
#
# number of rings (size 3 to 8) (size 9 to 14) (size 15 to 20)
#    0.000    1.846    0.000    5.077    2.154    3.692 
#    0.000    4.615    0.000    2.769    0.000    0.000 
#    0.000    0.000    0.000    0.000    0.000    0.000 
#
# Total GULP energy -145320.180738 kJ/mol
# GULP energy per Si atom -5589.237721 kJ/mol
# Density = 2.081971 g / cm^3
# Si number density = 20.867201 Si / 1000 Ang^3
#
#
#
# Elastic Constant Matrix: (Units=GPa)
#
#
# Indices 1 2 3 4 5 6 
#
# 1 84.2833 15.3881 13.7054 0.0000 -0.0658 0.0000
# 2 15.3881 63.2665 22.6278 0.0000 0.4036 0.0000
# 3 13.7054 22.6278 65.1019 0.0000 1.0233 0.0000
# 4 0.0000 0.0000 0.0000 79.0945 0.0000 0.2713
# 5 -0.0658 0.4036 1.0233 0.0000 40.7442 0.0000
# 6 0.0000 0.0000 0.0000 0.2713 0.0000 16.3585
#
#
#
# Elastic Compliance Matrix: (Units=1/GPa)
#
#
# Indices 1 2 3 4 5 6 
#
# 1 0.012601 -0.002417 -0.001814 0.000000 0.000090 0.000000
# 2 -0.002417 0.018513 -0.005925 0.000000 -0.000038 0.000000
# 3 -0.001814 -0.005925 0.017808 0.000000 -0.000391 0.000000
# 4 0.000000 0.000000 0.000000 0.012644 0.000000 -0.000210
# 5 0.000090 -0.000038 -0.000391 0.000000 0.024554 0.000000
# 6 0.000000 0.000000 0.000000 -0.000210 0.000000 0.061134
#
#
# Mechanical properties :
#
#
# Convention : Reuss Voigt Hill
#
# Bulk Modulus (GPa) = 34.95277 35.12159 35.03718
# Shear Modulus (GPa) = 28.23211 37.96814 33.10013
#
# Velocity S-wave (km/s) = 3.68223 4.27020 3.98707
# Velocity P-wave (km/s) = 5.90465 6.41719 6.16625
#
# Compressibility (1/GPa) = 0.02861003
#
# Stress axis : x y z
#
# Youngs Moduli (GPa) = 79.35843 54.01466 56.15393
#
# Poissons Ratio (x) = 0.13053 0.10188
# Poissons Ratio (y) = 0.19178 0.33274
# Poissons Ratio (z) = 0.14398 0.32006
#
# Static dielectric constant tensor:
#      x y z
#    x 1.720220 0.000000 0.018580 
#    y 0.000000 1.809230 0.000000 
#    z 0.018580 0.000000 1.705350 
# 
# From -- ./inp_files/73462.got.cif
#   From: 2010.05.17/outbox.cif.g08.bks.cpg/sg10_37_cif.got.tgz:73462.got - 2010.06.03 11:33:40.
