data_PCOD9151873
_publ_section_title
;
Structure prediction by ZEFSAII (Michael W. Deem and Ramdas Pophale) SiO2 
 PCOD9151873
Probable space group: P 2/M
;
_chemical_formula_sum "Si O2"
_cell_formula_units_Z 32
_cell_length_a 12.169056
_cell_length_b 14.745150
_cell_length_c 10.259579
_cell_angle_alpha 90.000000
_cell_angle_beta 49.733346
_cell_angle_gamma 90.000000
_cell_volume 1404.706413
_symmetry_space_group_name_H-M "P 2/M"
_symmetry_group_IT_number 10
_symmetry_cell_setting 'monoclinic'
loop_
_space_group_symop_operation_xyz
x,y,z
-x,y,-z
-x,-y,-z
x,-y,z
loop_
_atom_site_type_symbol
_atom_site_label
_atom_site_fract_x
_atom_site_fract_y
_atom_site_fract_z
Si Si1 0.368295 0.390352 0.692520
Si Si2 0.119046 0.608889 0.684729
Si Si3 0.581457 0.101670 0.824289
Si Si4 0.212956 0.394077 0.059430
Si Si5 0.162279 0.346220 0.371914
Si Si6 0.949806 0.889778 0.180712
Si Si7 0.627537 0.888896 0.499926
Si Si8 0.117225 0.141353 0.312860
O O1 0.500000 0.356395 0.500000
O O2 0.391329 0.500000 0.682950
O O3 0.219021 0.372400 0.730989
O O4 0.331327 0.356058 0.867535
O O5 0.113084 0.500000 0.674579
O O6 0.200999 0.645495 0.493037
O O7 0.953119 0.642446 0.824877
O O8 0.593171 0.142454 0.672588
O O9 0.736416 0.092199 0.769530
O O10 0.516547 0.000000 0.856450
O O11 0.500000 0.154972 0.000000
O O12 0.199693 0.500000 0.035829
O O13 0.249274 0.388098 0.185362
O O14 0.145339 0.242912 0.341254
O O15 0.000000 0.387990 0.500000
O O16 0.787029 0.858826 0.336111
O O17 0.056929 0.861318 0.213923
O O18 0.949361 0.000000 0.181207
O O19 0.000000 0.859229 0.000000
O O20 0.500000 0.863756 0.500000
O O21 0.632980 0.000000 0.499126
O O22 0.000000 0.101656 0.500000
#
# Coordination Sequence:
#
# PCOD9151873 Si02
#       8
#     4   4   4   4   4   4   4   4
#     4   9  17  29  48  78 110 136 169 217 269 318
#     4   9  16  30  53  79 106 137 176 222 269 318
#     4  10  21  35  56  82 107 142 183 225 270 320
#     4   9  16  30  53  79 104 135 177 220 263 312
#     4   9  19  33  52  79 104 137 176 224 270 315
#     4  10  21  35  56  85 112 140 177 224 275 328
#     4   9  18  33  53  81 112 137 169 218 270 318
#     4  11  21  37  56  79 111 146 185 225 276 327
#
# _framework density 22.780562
#
# number of rings (size 3 to 8) (size 9 to 14) (size 15 to 20)
#    0.000    2.500    1.250    1.125    1.750    3.500 
#    0.000    5.625    0.000    3.750    0.000    0.000 
#    0.000    0.000    0.000    0.000    0.000    0.125 
#
# Total GULP energy -178466.715230 kJ/mol
# GULP energy per Si atom -5577.084851 kJ/mol
# Density = 2.272871 g / cm^3
# Si number density = 22.780562 Si / 1000 Ang^3
#
#
#
# Elastic Constant Matrix: (Units=GPa)
#
#
# Indices 1 2 3 4 5 6 
#
# 1 83.8894 0.4127 53.9836 0.0000 21.9727 0.0000
# 2 0.4127 47.6761 13.5439 0.0000 2.3225 0.0000
# 3 53.9836 13.5439 219.6980 0.0000 27.9983 0.0000
# 4 0.0000 0.0000 0.0000 1.3279 0.0000 10.2046
# 5 21.9727 2.3225 27.9983 0.0000 38.1164 0.0000
# 6 0.0000 0.0000 0.0000 10.2046 0.0000 -4.1421
#
#
#
# Elastic Compliance Matrix: (Units=1/GPa)
#
#
# Indices 1 2 3 4 5 6 
#
# 1 0.015670 0.001063 -0.003041 0.000000 -0.006864 0.000000
# 2 0.001063 0.021426 -0.001476 0.000000 -0.000834 0.000000
# 3 -0.003041 -0.001476 0.005687 0.000000 -0.002335 0.000000
# 4 0.000000 0.000000 0.000000 0.037781 0.000000 0.093079
# 5 -0.006864 -0.000834 -0.002335 0.000000 0.031958 0.000000
# 6 0.000000 0.000000 0.000000 0.093079 0.000000 -0.012112
#
#
# Mechanical properties :
#
#
# Convention : Reuss Voigt Hill
#
# Bulk Modulus (GPa) = 27.87466 54.12710 41.00088
# Shear Modulus (GPa) = 41.91917 25.94864 33.93390
#
# Velocity S-wave (km/s) = 4.29433 3.37867 3.86372
# Velocity P-wave (km/s) = 6.07051 6.24759 6.15968
#
# Compressibility (1/GPa) = 0.03587488
#
# Stress axis : x y z
#
# Youngs Moduli (GPa) = 63.81558 46.67328 175.82498
#
# Poissons Ratio (x) = -0.04960 0.53471
# Poissons Ratio (y) = -0.06782 0.25946
# Poissons Ratio (z) = 0.19407 0.06887
#
# Static dielectric constant tensor:
#      x y z
#    x 1.804030 0.000000 0.012200 
#    y 0.000000 1.893120 0.000000 
#    z 0.012200 0.000000 1.911880 
# 
# From -- ./inp_files/26046.got.cif
#   From: 2010.05.17/outbox.cif.g08.bks.cpg/sg10_14_cif.got.tgz:26046.got - 2010.06.03 11:33:40.
