data_PCOD9151871
_publ_section_title
;
Structure prediction by ZEFSAII (Michael W. Deem and Ramdas Pophale) SiO2 
 PCOD9151871
Probable space group: P 2/M
;
_chemical_formula_sum "Si O2"
_cell_formula_units_Z 32
_cell_length_a 9.287067
_cell_length_b 14.701998
_cell_length_c 22.232367
_cell_angle_alpha 90.000000
_cell_angle_beta 151.282016
_cell_angle_gamma 90.000000
_cell_volume 1458.589025
_symmetry_space_group_name_H-M "P 2/M"
_symmetry_group_IT_number 10
_symmetry_cell_setting 'monoclinic'
loop_
_space_group_symop_operation_xyz
x,y,z
-x,y,-z
-x,-y,-z
x,-y,z
loop_
_atom_site_type_symbol
_atom_site_label
_atom_site_fract_x
_atom_site_fract_y
_atom_site_fract_z
Si Si1 0.698990 0.897754 0.708091
Si Si2 0.853453 0.397707 0.173304
Si Si3 0.025958 0.898428 0.417341
Si Si4 0.401510 0.278229 0.074162
Si Si5 0.213274 0.707442 0.203552
Si Si6 0.219998 0.397246 0.430221
Si Si7 0.754213 0.899151 0.184137
Si Si8 0.752251 0.289346 0.329135
O O1 0.382674 0.889707 0.556863
O O2 0.727302 0.813596 0.762676
O O3 0.984045 0.888584 0.768591
O O4 0.706106 0.000000 0.736894
O O5 0.822244 0.500000 0.138106
O O6 0.548090 0.347381 0.079822
O O7 0.073972 0.340379 0.211245
O O8 0.999304 0.404580 0.292911
O O9 0.925004 0.893405 0.310780
O O10 0.857899 0.812544 0.384289
O O11 0.939574 0.000000 0.407595
O O12 0.504818 0.178451 0.089618
O O13 0.551361 0.286868 0.194520
O O14 0.049762 0.295520 0.942203
O O15 0.530246 0.669072 0.297151
O O16 0.500000 0.349517 0.500000
O O17 0.307233 0.500000 0.481558
O O18 0.050227 0.344132 0.420202
O O19 0.621362 0.000000 0.129615
#
# Coordination Sequence:
#
# PCOD9151871 Si02
#       8
#     4   4   4   4   4   4   4   4
#     4  10  21  35  55  86 122 155 190 240 297 342
#     4  10  22  40  62  88 116 151 193 238 292 346
#     4   9  19  36  57  82 116 155 197 238 284 348
#     4  10  21  40  59  81 115 157 201 241 279 342
#     4  12  24  37  55  88 122 153 194 239 293 341
#     4   9  20  41  66  89 114 149 192 238 289 350
#     4   9  17  33  59  88 112 149 202 249 283 330
#     4  10  23  38  61  85 115 157 195 239 287 343
#
# _framework density 21.93901
#
# number of rings (size 3 to 8) (size 9 to 14) (size 15 to 20)
#    0.000    2.125    1.250    1.125    1.750    4.500 
#    0.000    2.500    0.000    9.750    0.000    0.000 
#    0.000    0.000    0.000    0.000    0.000    0.000 
#
# Total GULP energy -178667.193210 kJ/mol
# GULP energy per Si atom -5583.349788 kJ/mol
# Density = 2.188908 g / cm^3
# Si number density = 21.939010 Si / 1000 Ang^3
#
#
#
# Elastic Constant Matrix: (Units=GPa)
#
#
# Indices 1 2 3 4 5 6 
#
# 1 89.7144 35.7113 20.5860 0.0000 30.6448 0.0000
# 2 35.7113 96.5113 19.4681 0.0000 19.5386 0.0000
# 3 20.5860 19.4681 48.7462 0.0000 16.6497 0.0000
# 4 0.0000 0.0000 0.0000 11.0795 0.0000 -18.0604
# 5 30.6448 19.5386 16.6497 0.0000 45.1022 0.0000
# 6 0.0000 0.0000 0.0000 -18.0604 0.0000 -44.3240
#
#
#
# Elastic Compliance Matrix: (Units=1/GPa)
#
#
# Indices 1 2 3 4 5 6 
#
# 1 0.016064 -0.003757 -0.002416 0.000000 -0.008395 0.000000
# 2 -0.003757 0.012710 -0.002839 0.000000 -0.001905 0.000000
# 3 -0.002416 -0.002839 0.024817 0.000000 -0.006290 0.000000
# 4 0.000000 0.000000 0.000000 0.054234 0.000000 -0.022099
# 5 -0.008395 -0.001905 -0.006290 0.000000 0.031023 0.000000
# 6 0.000000 0.000000 0.000000 -0.022099 0.000000 -0.013557
#
#
# Mechanical properties :
#
#
# Convention : Reuss Voigt Hill
#
# Bulk Modulus (GPa) = 28.11560 42.94474 35.53017
# Shear Modulus (GPa) = 32.22247 12.98532 22.60390
#
# Velocity S-wave (km/s) = 3.83656 2.43550 3.21332
# Velocity P-wave (km/s) = 5.69814 5.24652 5.47699
#
# Compressibility (1/GPa) = 0.03556744
#
# Stress axis : x y z
#
# Youngs Moduli (GPa) = 62.25079 78.67791 40.29525
#
# Poissons Ratio (x) = 0.29560 0.09735
# Poissons Ratio (y) = 0.23388 0.11438
# Poissons Ratio (z) = 0.15040 0.22334
#
# Static dielectric constant tensor:
#      x y z
#    x 1.790930 0.000000 -0.005820 
#    y 0.000000 1.814860 0.000000 
#    z -0.005820 0.000000 1.836670 
# 
# From -- ./inp_files/88282.got.cif
#   From: 2010.05.17/outbox.cif.g08.bks.cpg/sg10_45_cif.got.tgz:88282.got - 2010.06.03 11:33:40.
