data_PCOD9151875
_publ_section_title
;
Structure prediction by ZEFSAII (Michael W. Deem and Ramdas Pophale) SiO2 
 PCOD9151875
Probable space group: P 2/M
;
_chemical_formula_sum "Si O2"
_cell_formula_units_Z 32
_cell_length_a 16.620671
_cell_length_b 7.798040
_cell_length_c 25.646050
_cell_angle_alpha 90.000000
_cell_angle_beta 26.297910
_cell_angle_gamma 90.000000
_cell_volume 1472.637832
_symmetry_space_group_name_H-M "P 2/M"
_symmetry_group_IT_number 10
_symmetry_cell_setting 'monoclinic'
loop_
_space_group_symop_operation_xyz
x,y,z
-x,y,-z
-x,-y,-z
x,-y,z
loop_
_atom_site_type_symbol
_atom_site_label
_atom_site_fract_x
_atom_site_fract_y
_atom_site_fract_z
Si Si1 0.999916 0.293462 0.872722
Si Si2 0.572975 0.801603 0.825532
Si Si3 0.753788 0.293879 0.504786
Si Si4 0.800448 0.806396 0.089245
Si Si5 0.200164 0.206662 0.401253
Si Si6 0.154004 0.291244 0.244813
Si Si7 0.367671 0.301405 0.710229
Si Si8 0.222850 0.299800 0.090934
O O1 0.013738 0.500000 0.862243
O O2 0.193266 0.225205 0.781508
O O3 0.933020 0.225519 0.856050
O O4 0.843573 0.257061 0.006431
O O5 0.644354 0.730665 0.728933
O O6 0.742916 0.788013 0.766117
O O7 0.520133 0.000000 0.849489
O O8 0.408015 0.712557 0.951008
O O9 0.745673 0.500000 0.505323
O O10 0.763837 0.250891 0.560057
O O11 0.567356 0.223576 0.588566
O O12 0.942764 0.241189 0.369187
O O13 0.678855 0.705120 0.200913
O O14 0.730003 0.000000 0.128013
O O15 0.000000 0.806170 0.000000
O O16 0.000000 0.269154 0.500000
O O17 0.198507 0.000000 0.397026
O O18 0.169542 0.500000 0.241000
O O19 0.236537 0.232425 0.141617
O O20 0.376428 0.500000 0.689159
O O21 0.177984 0.500000 0.124077
#
# Coordination Sequence:
#
# PCOD9151875 Si02
#       8
#     4   4   4   4   4   4   4   4
#     4   9  18  34  53  74 106 144 180 219 265 315
#     4  11  23  38  58  83 110 141 179 224 275 329
#     4  10  21  35  56  83 110 143 183 221 264 322
#     4   9  17  29  47  72 102 136 173 216 264 311
#     4  10  21  38  56  79 112 143 174 220 274 326
#     4  10  21  39  58  79 109 143 182 227 270 320
#     4   9  18  33  52  77 108 142 179 218 262 318
#     4  10  22  38  57  80 108 145 185 225 271 318
#
# _framework density 21.729714000000001
#
# number of rings (size 3 to 8) (size 9 to 14) (size 15 to 20)
#    0.000    2.250    1.250    1.125    1.750    5.750 
#    0.000    0.625    0.000    3.750    0.000    0.000 
#    0.000    7.000    0.000    0.000    0.000    0.000 
#
# Total GULP energy -178617.075933 kJ/mol
# GULP energy per Si atom -5581.783623 kJ/mol
# Density = 2.168026 g / cm^3
# Si number density = 21.729714 Si / 1000 Ang^3
#
#
#
# Elastic Constant Matrix: (Units=GPa)
#
#
# Indices 1 2 3 4 5 6 
#
# 1 20.9331 -0.8411 11.6342 0.0000 0.8157 0.0000
# 2 -0.8411 28.7908 -6.5134 0.0000 2.0847 0.0000
# 3 11.6342 -6.5134 80.8073 0.0000 -0.8055 0.0000
# 4 0.0000 0.0000 0.0000 2.6732 0.0000 14.7002
# 5 0.8157 2.0847 -0.8055 0.0000 35.6472 0.0000
# 6 0.0000 0.0000 0.0000 14.7002 0.0000 32.1007
#
#
#
# Elastic Compliance Matrix: (Units=1/GPa)
#
#
# Indices 1 2 3 4 5 6 
#
# 1 0.051992 -0.000081 -0.007506 0.000000 -0.001355 0.000000
# 2 -0.000081 0.035522 0.002855 0.000000 -0.002011 0.000000
# 3 -0.007506 0.002855 0.013689 0.000000 0.000314 0.000000
# 4 0.000000 0.000000 0.000000 -0.246391 0.000000 0.112832
# 5 -0.001355 -0.002011 0.000314 0.000000 0.028208 0.000000
# 6 0.000000 0.000000 0.000000 0.112832 0.000000 -0.020518
#
#
# Mechanical properties :
#
#
# Convention : Reuss Voigt Hill
#
# Bulk Modulus (GPa) = 10.90036 15.45452 13.17744
# Shear Modulus (GPa) = -51.30672 22.50099 -14.40286
#
# Velocity S-wave (km/s) = -4.86442 3.22140 -2.57732
# Velocity P-wave (km/s) = 5.15004 4.57866 1.66714
#
# Compressibility (1/GPa) = 0.09174008
#
# Stress axis : x y z
#
# Youngs Moduli (GPa) = 19.23361 28.15125 73.05141
#
# Poissons Ratio (x) = 0.00228 0.54830
# Poissons Ratio (y) = 0.00156 -0.20855
# Poissons Ratio (z) = 0.14436 -0.08037
#
# Static dielectric constant tensor:
#      x y z
#    x 1.804380 0.000000 -0.034380 
#    y 0.000000 1.811640 0.000000 
#    z -0.034380 0.000000 1.803370 
# 
# From -- ./inp_files/89534.got.cif
#   From: 2010.05.17/outbox.cif.g08.bks.cpg/sg10_45_cif.got.tgz:89534.got - 2010.06.03 11:33:40.
