data_PCOD9151073
_publ_section_title
;
Structure prediction by ZEFSAII (Michael W. Deem and Ramdas Pophale) SiO2 
 PCOD9151073
Probable space group: P 2/M
;
_chemical_formula_sum "Si O2"
_cell_formula_units_Z 28
_cell_length_a 14.609692
_cell_length_b 9.063780
_cell_length_c 12.711210
_cell_angle_alpha 90.000000
_cell_angle_beta 57.540545
_cell_angle_gamma 90.000000
_cell_volume 1420.241297
_symmetry_space_group_name_H-M "P 2/M"
_symmetry_group_IT_number 10
_symmetry_cell_setting 'monoclinic'
loop_
_space_group_symop_operation_xyz
x,y,z
-x,y,-z
-x,-y,-z
x,-y,z
loop_
_atom_site_type_symbol
_atom_site_label
_atom_site_fract_x
_atom_site_fract_y
_atom_site_fract_z
Si Si1 0.736964 0.324376 0.974105
Si Si2 0.411850 0.327174 0.464421
Si Si3 0.186080 0.825224 0.649100
Si Si4 0.485106 0.327819 0.179960
Si Si5 0.724641 0.825090 0.765827
Si Si6 0.888837 0.674171 0.504915
Si Si7 0.871873 0.673060 0.098220
O O1 0.751759 0.500000 0.945677
O O2 0.610109 0.298729 0.077265
O O3 0.807372 0.284193 0.032599
O O4 0.766276 0.235340 0.851741
O O5 0.500000 0.296823 0.500000
O O6 0.379453 0.500000 0.494077
O O7 0.307133 0.226831 0.544099
O O8 0.463719 0.307986 0.317438
O O9 0.108813 0.747473 0.611041
O O10 0.161718 0.767118 0.780540
O O11 0.175885 0.000000 0.648767
O O12 0.462419 0.500000 0.167831
O O13 0.399434 0.227773 0.171739
O O14 0.793394 0.748994 0.630949
O O15 0.733290 0.000000 0.753567
O O16 0.867252 0.500000 0.507950
O O17 0.000000 0.694435 0.500000
O O18 0.846304 0.500000 0.134815
O O19 0.000000 0.685718 0.000000
#
# Coordination Sequence:
#
# PCOD9151073 Si02
#       7
#     4   4   4   4   4   4   4
#     4  10  22  41  65  93 125 168 221 265 308 366
#     4  10  20  37  64  93 124 168 219 263 305 365
#     4  12  25  41  64  97 135 167 201 258 328 385
#     4  10  20  37  62  90 124 168 215 262 307 370
#     4  12  25  40  62  95 133 167 203 258 328 385
#     4  11  25  45  70  94 121 165 220 267 310 373
#     4  10  23  44  69  94 122 166 222 267 306 369
#
# _framework density 19.714957999999999
#
# number of rings (size 3 to 8) (size 9 to 14) (size 15 to 20)
#    0.000    1.286    1.429    4.286    2.000    6.857 
#    0.000    1.429    0.000    0.000    0.000    0.000 
#    0.000    0.000    0.000    0.000    0.000    0.000 
#
# Total GULP energy -156674.639090 kJ/mol
# GULP energy per Si atom -5595.522825 kJ/mol
# Density = 1.967009 g / cm^3
# Si number density = 19.714958 Si / 1000 Ang^3
#
#
#
# Elastic Constant Matrix: (Units=GPa)
#
#
# Indices 1 2 3 4 5 6 
#
# 1 107.9581 55.1846 24.7725 0.0000 31.0138 0.0000
# 2 55.1846 89.7187 36.6203 0.0000 21.4660 0.0000
# 3 24.7725 36.6203 63.6795 0.0000 27.3790 0.0000
# 4 0.0000 0.0000 0.0000 -29.3730 0.0000 8.5246
# 5 31.0138 21.4660 27.3790 0.0000 34.7135 0.0000
# 6 0.0000 0.0000 0.0000 8.5246 0.0000 -8.7023
#
#
#
# Elastic Compliance Matrix: (Units=1/GPa)
#
#
# Indices 1 2 3 4 5 6 
#
# 1 0.016361 -0.008727 0.003962 0.000000 -0.012346 0.000000
# 2 -0.008727 0.019528 -0.009072 0.000000 0.002876 0.000000
# 3 0.003962 -0.009072 0.027976 0.000000 -0.019995 0.000000
# 4 0.000000 0.000000 0.000000 -0.047568 0.000000 -0.046597
# 5 -0.012346 0.002876 -0.019995 0.000000 0.053829 0.000000
# 6 0.000000 0.000000 0.000000 -0.046597 0.000000 -0.160559
#
#
# Mechanical properties :
#
#
# Convention : Reuss Voigt Hill
#
# Bulk Modulus (GPa) = 27.63036 54.94569 41.28803
# Shear Modulus (GPa) = -98.63044 8.97959 -44.82543
#
# Velocity S-wave (km/s) = -7.08074 2.13649 -4.77348
# Velocity P-wave (km/s) = 7.26662 5.83238 3.06489
#
# Compressibility (1/GPa) = 0.03619207
#
# Stress axis : x y z
#
# Youngs Moduli (GPa) = 61.12002 51.20747 35.74469
#
# Poissons Ratio (x) = 0.44688 -0.14161
# Poissons Ratio (y) = 0.53338 0.32427
# Poissons Ratio (z) = -0.24214 0.46455
#
# Static dielectric constant tensor:
#      x y z
#    x 1.688880 0.000000 0.006370 
#    y 0.000000 1.658230 0.000000 
#    z 0.006370 0.000000 1.671590 
# 
# From -- ./inp_files/49547.got.cif
#   From: 2010.05.17/outbox.cif.g08.bks.cpg/sg10_25_cif.got.tgz:49547.got - 2010.06.03 11:33:40.
