data_PCOD9151926
_publ_section_title
;
Structure prediction by ZEFSAII (Michael W. Deem and Ramdas Pophale) SiO2 
 PCOD9151926
Probable space group: P 2/M
;
_chemical_formula_sum "Si O2"
_cell_formula_units_Z 24
_cell_length_a 15.469898
_cell_length_b 8.114287
_cell_length_c 18.091570
_cell_angle_alpha 90.000000
_cell_angle_beta 25.969946
_cell_angle_gamma 90.000000
_cell_volume 994.463051
_symmetry_space_group_name_H-M "P 2/M"
_symmetry_group_IT_number 10
_symmetry_cell_setting 'monoclinic'
loop_
_space_group_symop_operation_xyz
x,y,z
-x,y,-z
-x,-y,-z
x,-y,z
loop_
_atom_site_type_symbol
_atom_site_label
_atom_site_fract_x
_atom_site_fract_y
_atom_site_fract_z
Si Si1 0.468300 0.180318 0.404476
Si Si2 0.309441 0.183089 0.926360
Si Si3 0.310894 0.500000 0.722735
Si Si4 0.091161 0.687440 0.626731
Si Si5 0.915374 0.500000 0.944252
Si Si6 0.733157 0.193613 0.658485
Si Si7 0.278284 0.198194 0.168535
O O1 0.580177 0.181248 0.238702
O O2 0.558602 0.335568 0.376969
O O3 0.236878 0.206095 0.565233
O O4 0.503760 0.000000 0.410007
O O5 0.494085 0.204063 0.839719
O O6 0.222286 0.000000 0.004389
O O7 0.158994 0.334294 0.038617
O O8 0.145000 0.500000 0.787524
O O9 0.196515 0.500000 0.889894
O O10 0.101833 0.500000 0.643305
O O11 0.187291 0.702485 0.470665
O O12 0.868480 0.741958 0.781737
O O13 0.801877 0.237278 0.687643
O O14 0.782342 0.000000 0.606256
O O15 0.287128 0.000000 0.156710
O O16 0.500000 0.264911 0.000000
#
# Coordination Sequence:
#
# PCOD9151926 Si02
#       7
#     4   4   2   4   2   4   4
#     4   9  16  28  44  63  92 126 162 203 240 284
#     4   8  15  26  41  63  90 123 161 199 238 283
#     4   9  16  26  38  65  93 124 160 193 241 297
#     4  11  20  31  49  72  97 129 172 211 244 292
#     4   9  16  24  40  61  95 126 154 195 241 295
#     4   9  18  32  50  71  94 127 173 211 241 291
#     4  10  21  36  51  69  98 132 165 207 256 298
#
# _framework density 24.133624000000001
#
# number of rings (size 3 to 8) (size 9 to 14) (size 15 to 20)
#    0.000    2.667    0.833    3.000    3.500    3.667 
#    0.000    3.333    0.000    0.000    0.000    0.000 
#    0.000    2.667    0.000   10.000    0.000    9.000 
#
# Total GULP energy -134306.130833 kJ/mol
# GULP energy per Si atom -5596.088785 kJ/mol
# Density = 2.407869 g / cm^3
# Si number density = 24.133624 Si / 1000 Ang^3
#
#
#
# Elastic Constant Matrix: (Units=GPa)
#
#
# Indices 1 2 3 4 5 6 
#
# 1 111.4185 49.7048 34.9898 0.0000 -18.2491 0.0000
# 2 49.7048 152.8010 56.9655 0.0000 -34.2535 0.0000
# 3 34.9898 56.9655 116.2208 0.0000 -26.6338 0.0000
# 4 0.0000 0.0000 0.0000 31.8514 0.0000 -6.0625
# 5 -18.2491 -34.2535 -26.6338 0.0000 48.7111 0.0000
# 6 0.0000 0.0000 0.0000 -6.0625 0.0000 50.1514
#
#
#
# Elastic Compliance Matrix: (Units=1/GPa)
#
#
# Indices 1 2 3 4 5 6 
#
# 1 0.010890 -0.002616 -0.001695 0.000000 0.001313 0.000000
# 2 -0.002616 0.009375 -0.002883 0.000000 0.004036 0.000000
# 3 -0.001695 -0.002883 0.011338 0.000000 0.003537 0.000000
# 4 0.000000 0.000000 0.000000 0.032135 0.000000 0.003885
# 5 0.001313 0.004036 0.003537 0.000000 0.025794 0.000000
# 6 0.000000 0.000000 0.000000 0.003885 0.000000 0.020409
#
#
# Mechanical properties :
#
#
# Convention : Reuss Voigt Hill
#
# Bulk Modulus (GPa) = 58.08846 73.75118 65.91982
# Shear Modulus (GPa) = 38.44187 42.06147 40.25167
#
# Velocity S-wave (km/s) = 3.99541 4.17928 4.08838
# Velocity P-wave (km/s) = 6.73841 7.34264 7.04701
#
# Compressibility (1/GPa) = 0.01721512
#
# Stress axis : x y z
#
# Youngs Moduli (GPa) = 91.83043 106.66861 88.19733
#
# Poissons Ratio (x) = 0.27903 0.14953
# Poissons Ratio (y) = 0.24022 0.25423
# Poissons Ratio (z) = 0.15569 0.30748
#
# Static dielectric constant tensor:
#      x y z
#    x 1.898040 0.000000 0.062680 
#    y 0.000000 1.856960 0.000000 
#    z 0.062680 0.000000 1.982340 
# 
# From -- ./inp_files/33816.got.cif
#   From: 2010.05.17/outbox.cif.g08.bks.cpg/sg10_17_cif.got.tgz:33816.got - 2010.06.03 11:33:40.
