data_PCOD9151443
_publ_section_title
;
Structure prediction by ZEFSAII (Michael W. Deem and Ramdas Pophale) SiO2 
 PCOD9151443
Probable space group: P 2/M
;
_chemical_formula_sum "Si O2"
_cell_formula_units_Z 16
_cell_length_a 9.339117
_cell_length_b 10.997255
_cell_length_c 8.033087
_cell_angle_alpha 90.000000
_cell_angle_beta 54.192851
_cell_angle_gamma 90.000000
_cell_volume 669.096138
_symmetry_space_group_name_H-M "P 2/M"
_symmetry_group_IT_number 10
_symmetry_cell_setting 'monoclinic'
loop_
_space_group_symop_operation_xyz
x,y,z
-x,y,-z
-x,-y,-z
x,-y,z
loop_
_atom_site_type_symbol
_atom_site_label
_atom_site_fract_x
_atom_site_fract_y
_atom_site_fract_z
Si Si1 0.654134 0.000000 0.029998
Si Si2 0.532650 0.500000 0.173581
Si Si3 0.854444 0.239110 0.457006
Si Si4 0.960571 0.000000 0.220753
Si Si5 0.461930 0.755543 0.722975
Si Si6 0.870689 0.500000 0.425237
O O1 0.633481 0.876746 0.151275
O O2 0.500000 0.000000 0.000000
O O3 0.848403 0.000000 0.819752
O O4 0.622098 0.626433 0.167937
O O5 0.337940 0.500000 0.389293
O O6 0.500000 0.500000 0.000000
O O7 0.659092 0.244414 0.668807
O O8 0.895118 0.365888 0.333525
O O9 0.000000 0.227721 0.500000
O O10 0.860780 0.120977 0.339944
O O11 0.000000 0.000000 0.000000
O O12 0.500000 0.755627 0.500000
O O13 0.000000 0.500000 0.500000
#
# Coordination Sequence:
#
# PCOD9151443 Si02
#       6
#     2   2   4   2   4   2
#     4  12  24  38  58  88 118 152 196 244 286 334
#     4  10  21  37  60  89 117 146 189 242 288 337
#     4  10  20  39  61  81 110 154 194 228 278 351
#     4  12  24  38  56  86 118 148 190 244 286 324
#     4  11  22  39  60  86 118 155 191 234 291 350
#     4   8  18  35  59  83 107 144 190 226 272 339
#
# _framework density 23.912855
#
# number of rings (size 3 to 8) (size 9 to 14) (size 15 to 20)
#    0.000    1.500    0.000    5.625    0.000    4.000 
#    0.000    0.625    0.000    0.000    0.000    0.000 
#    0.000    0.000    0.000    0.000    0.000    0.000 
#
# Total GULP energy -89468.321502 kJ/mol
# GULP energy per Si atom -5591.770094 kJ/mol
# Density = 2.385843 g / cm^3
# Si number density = 23.912855 Si / 1000 Ang^3
#
#
#
# Elastic Constant Matrix: (Units=GPa)
#
#
# Indices 1 2 3 4 5 6 
#
# 1 75.0598 -5.9769 -16.0670 0.0000 -6.2302 0.0000
# 2 -5.9769 307.6299 59.5145 0.0000 14.4389 0.0000
# 3 -16.0670 59.5145 29.6749 0.0000 12.9048 0.0000
# 4 0.0000 0.0000 0.0000 10.3977 0.0000 -0.2649
# 5 -6.2302 14.4389 12.9048 0.0000 37.6043 0.0000
# 6 0.0000 0.0000 0.0000 -0.2649 0.0000 -2.4584
#
#
#
# Elastic Compliance Matrix: (Units=1/GPa)
#
#
# Indices 1 2 3 4 5 6 
#
# 1 0.015994 -0.002303 0.013800 0.000000 -0.001202 0.000000
# 2 -0.002303 0.005761 -0.013721 0.000000 0.002115 0.000000
# 3 0.013800 -0.013721 0.076875 0.000000 -0.018827 0.000000
# 4 0.000000 0.000000 0.000000 0.095912 0.000000 -0.010334
# 5 -0.001202 0.002115 -0.018827 0.000000 0.032042 0.000000
# 6 0.000000 0.000000 0.000000 -0.010334 0.000000 -0.405648
#
#
# Mechanical properties :
#
#
# Convention : Reuss Voigt Hill
#
# Bulk Modulus (GPa) = 10.61756 54.14510 32.38133
# Shear Modulus (GPa) = -34.91028 34.10165 -0.40432
#
# Velocity S-wave (km/s) = -3.82500 3.78044 -0.41164
# Velocity P-wave (km/s) = 3.88044 6.46123 3.65306
#
# Compressibility (1/GPa) = 0.09418358
#
# Stress axis : x y z
#
# Youngs Moduli (GPa) = 62.52491 173.57958 13.00818
#
# Poissons Ratio (x) = 0.39970 -0.17952
# Poissons Ratio (y) = 0.14397 0.17848
# Poissons Ratio (z) = -0.86286 2.38160
#
# Static dielectric constant tensor:
#      x y z
#    x 1.657100 0.000000 -0.346360 
#    y 0.000000 1.972470 0.000000 
#    z -0.346360 0.000000 1.459700 
# 
# From -- ./inp_files/17126.got.cif
#   From: 2010.05.17/outbox.cif.g08.bks.cpg/sg10_9_cif.got.tgz:17126.got - 2010.06.03 11:33:40.
