data_PCOD9151767
_publ_section_title
;
Structure prediction by ZEFSAII (Michael W. Deem and Ramdas Pophale) SiO2 
 PCOD9151767
Probable space group: P 2/M
;
_chemical_formula_sum "Si O2"
_cell_formula_units_Z 32
_cell_length_a 9.600299
_cell_length_b 14.204497
_cell_length_c 26.335189
_cell_angle_alpha 90.000000
_cell_angle_beta 149.051367
_cell_angle_gamma 90.000000
_cell_volume 1846.876009
_symmetry_space_group_name_H-M "P 2/M"
_symmetry_group_IT_number 10
_symmetry_cell_setting 'monoclinic'
loop_
_space_group_symop_operation_xyz
x,y,z
-x,y,-z
-x,-y,-z
x,-y,z
loop_
_atom_site_type_symbol
_atom_site_label
_atom_site_fract_x
_atom_site_fract_y
_atom_site_fract_z
Si Si1 0.877221 0.388765 0.072343
Si Si2 0.762247 0.611131 0.150499
Si Si3 0.249142 0.769899 0.777617
Si Si4 0.810136 0.110008 0.579356
Si Si5 0.318590 0.109760 0.897470
Si Si6 0.282756 0.892689 0.560410
Si Si7 0.247332 0.890023 0.222374
Si Si8 0.196598 0.762127 0.108486
O O1 0.935566 0.500000 0.087787
O O2 0.890086 0.360373 0.135969
O O3 0.069845 0.329655 0.096045
O O4 0.563354 0.376663 0.957631
O O5 0.812396 0.500000 0.173526
O O6 0.849834 0.675717 0.224661
O O7 0.353559 0.834551 0.856791
O O8 0.501156 0.750087 0.819205
O O9 0.011453 0.827632 0.675703
O O10 0.500000 0.109034 0.500000
O O11 0.785700 0.150582 0.515016
O O12 0.906872 0.000000 0.609084
O O13 0.013795 0.114700 0.823049
O O14 0.390635 0.000000 0.912297
O O15 0.500000 0.148442 0.000000
O O16 0.503950 0.849574 0.666958
O O17 0.000000 0.899446 0.500000
O O18 0.383378 0.000000 0.580381
O O19 0.201356 0.838649 0.154935
O O20 0.304579 0.000000 0.229410
O O21 0.000000 0.787480 0.000000
#
# Coordination Sequence:
#
# PCOD9151767 Si02
#       8
#     4   4   4   4   4   4   4   4
#     4   9  19  37  57  77 107 147 187 224 261 314
#     4   9  19  36  59  81 105 144 188 225 264 320
#     4  12  22  32  55  82 114 142 177 228 283 334
#     4  10  21  37  56  80 107 139 185 238 282 313
#     4  10  21  35  50  69 100 147 189 217 251 313
#     4   9  17  32  52  70  93 130 177 224 263 304
#     4  10  21  36  52  71 102 146 189 220 257 315
#     4  12  23  33  49  83 120 149 174 217 277 333
#
# _framework density 17.326554999999999
#
# number of rings (size 3 to 8) (size 9 to 14) (size 15 to 20)
#    0.000    1.875    1.250    4.125    1.750    5.000 
#    0.000    0.000    0.000    0.375    0.000    0.875 
#    0.000    5.000    0.000    0.000    0.000    0.000 
#
# Total GULP energy -178549.843570 kJ/mol
# GULP energy per Si atom -5579.682612 kJ/mol
# Density = 1.728712 g / cm^3
# Si number density = 17.326555 Si / 1000 Ang^3
#
#
#
# Elastic Constant Matrix: (Units=GPa)
#
#
# Indices 1 2 3 4 5 6 
#
# 1 104.8449 39.4817 37.6476 0.0000 -14.5398 0.0000
# 2 39.4817 72.1561 38.8180 0.0000 -16.6425 0.0000
# 3 37.6476 38.8180 97.3686 0.0000 -7.2418 0.0000
# 4 0.0000 0.0000 0.0000 25.5673 0.0000 -2.5131
# 5 -14.5398 -16.6425 -7.2418 0.0000 22.2249 0.0000
# 6 0.0000 0.0000 0.0000 -2.5131 0.0000 -28.8591
#
#
#
# Elastic Compliance Matrix: (Units=1/GPa)
#
#
# Indices 1 2 3 4 5 6 
#
# 1 0.012839 -0.004558 -0.002845 0.000000 0.004059 0.000000
# 2 -0.004558 0.022471 -0.006320 0.000000 0.011786 0.000000
# 3 -0.002845 -0.006320 0.013732 0.000000 -0.002119 0.000000
# 4 0.000000 0.000000 0.000000 0.038780 0.000000 -0.003377
# 5 0.004059 0.011786 -0.002119 0.000000 0.055785 0.000000
# 6 0.000000 0.000000 0.000000 -0.003377 0.000000 -0.034357
#
#
# Mechanical properties :
#
#
# Convention : Reuss Voigt Hill
#
# Bulk Modulus (GPa) = 46.30418 56.25155 51.27787
# Shear Modulus (GPa) = 34.74758 14.34812 24.54785
#
# Velocity S-wave (km/s) = 4.48309 2.88079 3.76809
# Velocity P-wave (km/s) = 7.31982 6.60313 6.97069
#
# Compressibility (1/GPa) = 0.02159632
#
# Stress axis : x y z
#
# Youngs Moduli (GPa) = 77.88810 44.50165 72.82215
#
# Poissons Ratio (x) = 0.20285 0.20718
# Poissons Ratio (y) = 0.35504 0.46020
# Poissons Ratio (z) = 0.22159 0.28123
#
# Static dielectric constant tensor:
#      x y z
#    x 1.583030 0.000000 -0.012920 
#    y 0.000000 1.606560 0.000000 
#    z -0.012920 0.000000 1.585930 
# 
# From -- ./inp_files/29160.got.cif
#   From: 2010.05.17/outbox.cif.g08.bks.cpg/sg10_15_cif.got.tgz:29160.got - 2010.06.03 11:33:40.
