data_PCOD9151004
_publ_section_title
;
Structure prediction by ZEFSAII (Michael W. Deem and Ramdas Pophale) SiO2 
 PCOD9151004
Probable space group: P 2/M
;
_chemical_formula_sum "Si O2"
_cell_formula_units_Z 28
_cell_length_a 10.462969
_cell_length_b 7.687843
_cell_length_c 28.237903
_cell_angle_alpha 90.000000
_cell_angle_beta 35.482815
_cell_angle_gamma 90.000000
_cell_volume 1318.448732
_symmetry_space_group_name_H-M "P 2/M"
_symmetry_group_IT_number 10
_symmetry_cell_setting 'monoclinic'
loop_
_space_group_symop_operation_xyz
x,y,z
-x,y,-z
-x,-y,-z
x,-y,z
loop_
_atom_site_type_symbol
_atom_site_label
_atom_site_fract_x
_atom_site_fract_y
_atom_site_fract_z
Si Si1 0.116381 0.794831 0.345495
Si Si2 0.373045 0.211008 0.490802
Si Si3 0.983983 0.790319 0.058571
Si Si4 0.151237 0.288503 0.224754
Si Si5 0.705954 0.295401 0.307497
Si Si6 0.547530 0.291217 0.038519
Si Si7 0.424176 0.795902 0.758097
O O1 0.144204 0.774995 0.280691
O O2 0.334043 0.720106 0.304748
O O3 0.877884 0.723423 0.432192
O O4 0.105911 0.000000 0.360137
O O5 0.500000 0.269054 0.500000
O O6 0.510829 0.266596 0.403717
O O7 0.370809 0.000000 0.492327
O O8 0.768909 0.721652 0.150592
O O9 0.967855 0.000000 0.061590
O O10 0.206540 0.748664 0.019320
O O11 0.000000 0.725070 0.000000
O O12 0.149395 0.500000 0.226922
O O13 0.367273 0.229193 0.131031
O O14 0.932277 0.229712 0.262877
O O15 0.735936 0.500000 0.290413
O O16 0.647334 0.216693 0.274637
O O17 0.523564 0.500000 0.044175
O O18 0.500000 0.224192 0.000000
O O19 0.440233 0.000000 0.765629
#
# Coordination Sequence:
#
# PCOD9151004 Si02
#       7
#     4   4   4   4   4   4   4
#     4  10  21  38  61  85 111 147 188 233 281 335
#     4  10  20  37  61  88 115 146 188 234 283 337
#     4  10  21  38  59  84 114 148 190 238 284 334
#     4  10  21  36  56  83 112 147 189 234 282 333
#     4  11  23  38  59  85 117 154 189 232 283 335
#     4  10  21  37  56  80 113 149 188 233 281 336
#     4  10  22  39  58  83 116 152 189 232 284 338
#
# _framework density 21.237079000000001
#
# number of rings (size 3 to 8) (size 9 to 14) (size 15 to 20)
#    0.000    1.857    1.429    2.143    0.000    6.571 
#    0.000    2.857    0.000    0.000    0.000    0.000 
#    0.000    0.000    0.000    0.000    0.000    0.000 
#
# Total GULP energy -156497.022694 kJ/mol
# GULP energy per Si atom -5589.179382 kJ/mol
# Density = 2.118874 g / cm^3
# Si number density = 21.237079 Si / 1000 Ang^3
#
#
#
# Elastic Constant Matrix: (Units=GPa)
#
#
# Indices 1 2 3 4 5 6 
#
# 1 103.8959 -13.0547 22.2076 0.0000 -17.9745 0.0000
# 2 -13.0547 28.7978 -1.1285 0.0000 -5.8672 0.0000
# 3 22.2076 -1.1285 109.6167 0.0000 -19.5378 0.0000
# 4 0.0000 0.0000 0.0000 5.8804 0.0000 -10.6403
# 5 -17.9745 -5.8672 -19.5378 0.0000 36.4432 0.0000
# 6 0.0000 0.0000 0.0000 -10.6403 0.0000 21.8417
#
#
#
# Elastic Compliance Matrix: (Units=1/GPa)
#
#
# Indices 1 2 3 4 5 6 
#
# 1 0.011784 0.006562 -0.001211 0.000000 0.006219 0.000000
# 2 0.006562 0.039795 0.000884 0.000000 0.010117 0.000000
# 3 -0.001211 0.000884 0.010278 0.000000 0.005055 0.000000
# 4 0.000000 0.000000 0.000000 1.434868 0.000000 0.699004
# 5 0.006219 0.010117 0.005055 0.000000 0.034846 0.000000
# 6 0.000000 0.000000 0.000000 0.699004 0.000000 0.386308
#
#
# Mechanical properties :
#
#
# Convention : Reuss Voigt Hill
#
# Bulk Modulus (GPa) = 13.45425 28.70658 21.08042
# Shear Modulus (GPa) = 2.59042 28.45212 15.52127
#
# Velocity S-wave (km/s) = 1.10563 3.66421 2.70637
# Velocity P-wave (km/s) = 2.82469 5.60790 4.44001
#
# Compressibility (1/GPa) = 0.07432594
#
# Stress axis : x y z
#
# Youngs Moduli (GPa) = 84.85788 25.12853 97.29311
#
# Poissons Ratio (x) = -0.16489 0.11786
# Poissons Ratio (y) = -0.55682 -0.08596
# Poissons Ratio (z) = 0.10280 -0.02220
#
# Static dielectric constant tensor:
#      x y z
#    x 1.715610 0.000000 -0.029370 
#    y 0.000000 1.794850 0.000000 
#    z -0.029370 0.000000 1.747150 
# 
# From -- ./inp_files/37012.got.cif
#   From: 2010.05.17/outbox.cif.g08.bks.cpg/sg10_19_cif.got.tgz:37012.got - 2010.06.03 11:33:40.
