data_PCOD9151197
_publ_section_title
;
Structure prediction by ZEFSAII (Michael W. Deem and Ramdas Pophale) SiO2 
 PCOD9151197
Probable space group: P 2/M
;
_chemical_formula_sum "Si O2"
_cell_formula_units_Z 24
_cell_length_a 9.838815
_cell_length_b 14.307469
_cell_length_c 14.123728
_cell_angle_alpha 90.000000
_cell_angle_beta 137.752786
_cell_angle_gamma 90.000000
_cell_volume 1336.712377
_symmetry_space_group_name_H-M "P 2/M"
_symmetry_group_IT_number 10
_symmetry_cell_setting 'monoclinic'
loop_
_space_group_symop_operation_xyz
x,y,z
-x,y,-z
-x,-y,-z
x,-y,z
loop_
_atom_site_type_symbol
_atom_site_label
_atom_site_fract_x
_atom_site_fract_y
_atom_site_fract_z
Si Si1 0.238750 0.396721 0.144270
Si Si2 0.186264 0.777980 0.664211
Si Si3 0.058838 0.110980 0.309220
Si Si4 0.426405 0.892171 0.637256
Si Si5 0.442570 0.605877 0.860249
Si Si6 0.153497 0.799619 0.167847
O O1 0.298738 0.500000 0.213198
O O2 0.368392 0.381521 0.114959
O O3 0.251780 0.304425 0.215605
O O4 0.000000 0.401935 0.000000
O O5 0.350799 0.828213 0.683628
O O6 0.280601 0.685207 0.755791
O O7 0.000000 0.753723 0.500000
O O8 0.101494 0.850391 0.697702
O O9 0.280030 0.125252 0.471681
O O10 0.041564 0.172951 0.206391
O O11 0.034114 0.000000 0.278768
O O12 0.659667 0.870887 0.740571
O O13 0.395058 0.000000 0.646321
O O14 0.367177 0.500000 0.804856
O O15 0.500000 0.612623 0.000000
O O16 0.000000 0.807123 0.000000
#
# Coordination Sequence:
#
# PCOD9151197 Si02
#       6
#     4   4   4   4   4   4
#     4   9  19  36  57  81 111 145 181 224 275 329
#     4  10  21  37  58  84 111 146 187 234 278 321
#     4  10  22  38  57  80 112 151 189 227 271 333
#     4  10  20  38  59  79 108 149 191 227 277 336
#     4  10  21  37  60  86 112 146 187 226 277 340
#     4  11  22  35  56  86 111 145 183 233 279 325
#
# _framework density 17.954498000000001
#
# number of rings (size 3 to 8) (size 9 to 14) (size 15 to 20)
#    0.000    2.000    1.667    1.500    4.667    5.000 
#    0.000    0.000    0.000    6.000    0.000    0.000 
#    0.000    0.000    0.000    0.000    0.000    0.000 
#
# Total GULP energy -133797.357271 kJ/mol
# GULP energy per Si atom -5574.889886 kJ/mol
# Density = 1.791363 g / cm^3
# Si number density = 17.954498 Si / 1000 Ang^3
#
#
#
# Elastic Constant Matrix: (Units=GPa)
#
#
# Indices 1 2 3 4 5 6 
#
# 1 65.9493 24.4260 17.1966 0.0000 -12.6426 0.0000
# 2 24.4260 111.2892 24.8696 0.0000 -25.0307 0.0000
# 3 17.1966 24.8696 23.9482 0.0000 -9.1581 0.0000
# 4 0.0000 0.0000 0.0000 28.2887 0.0000 0.5486
# 5 -12.6426 -25.0307 -9.1581 0.0000 27.0955 0.0000
# 6 0.0000 0.0000 0.0000 0.5486 0.0000 30.9166
#
#
#
# Elastic Compliance Matrix: (Units=1/GPa)
#
#
# Indices 1 2 3 4 5 6 
#
# 1 0.019248 -0.000659 -0.011410 0.000000 0.004516 0.000000
# 2 -0.000659 0.013311 -0.010066 0.000000 0.008587 0.000000
# 3 -0.011410 -0.010066 0.062948 0.000000 0.006653 0.000000
# 4 0.000000 0.000000 0.000000 0.035362 0.000000 -0.000627
# 5 0.004516 0.008587 0.006653 0.000000 0.049195 0.000000
# 6 0.000000 0.000000 0.000000 -0.000627 0.000000 0.032356
#
#
# Mechanical properties :
#
#
# Convention : Reuss Voigt Hill
#
# Bulk Modulus (GPa) = 19.51754 37.13011 28.32383
# Shear Modulus (GPa) = 18.26351 26.23979 22.25165
#
# Velocity S-wave (km/s) = 3.19283 3.82705 3.52424
# Velocity P-wave (km/s) = 4.94837 6.34456 5.68946
#
# Compressibility (1/GPa) = 0.05123595
#
# Stress axis : x y z
#
# Youngs Moduli (GPa) = 51.95283 75.12541 15.88614
#
# Poissons Ratio (x) = 0.04952 0.18127
# Poissons Ratio (y) = 0.03425 0.15991
# Poissons Ratio (z) = 0.59280 0.75622
#
# Static dielectric constant tensor:
#      x y z
#    x 1.611590 0.000000 -0.001590 
#    y 0.000000 1.631070 0.000000 
#    z -0.001590 0.000000 1.593310 
# 
# From -- ./inp_files/29264.got.cif
#   From: 2010.05.17/outbox.cif.g08.bks.cpg/sg10_15_cif.got.tgz:29264.got - 2010.06.03 11:33:40.
