data_PCOD9151864
_publ_section_title
;
Structure prediction by ZEFSAII (Michael W. Deem and Ramdas Pophale) SiO2 
 PCOD9151864
Probable space group: P 2/M
;
_chemical_formula_sum "Si O2"
_cell_formula_units_Z 32
_cell_length_a 14.708550
_cell_length_b 9.174434
_cell_length_c 12.829369
_cell_angle_alpha 90.000000
_cell_angle_beta 79.155929
_cell_angle_gamma 90.000000
_cell_volume 1700.313836
_symmetry_space_group_name_H-M "P 2/M"
_symmetry_group_IT_number 10
_symmetry_cell_setting 'monoclinic'
loop_
_space_group_symop_operation_xyz
x,y,z
-x,y,-z
-x,-y,-z
x,-y,z
loop_
_atom_site_type_symbol
_atom_site_label
_atom_site_fract_x
_atom_site_fract_y
_atom_site_fract_z
Si Si1 0.400252 0.173265 0.477022
Si Si2 0.932639 0.172537 0.791583
Si Si3 0.868080 0.667448 0.605837
Si Si4 0.783161 0.827270 0.000015
Si Si5 0.606185 0.327378 0.960797
Si Si6 0.348759 0.664595 0.290010
Si Si7 0.885484 0.326001 0.169414
Si Si8 0.213358 0.325523 0.589922
O O1 0.500000 0.218053 0.500000
O O2 0.394211 0.221614 0.358210
O O3 0.312009 0.249501 0.550236
O O4 0.391054 0.000000 0.489776
O O5 0.921715 0.235682 0.677604
O O6 0.014694 0.255448 0.832794
O O7 0.950476 0.000000 0.785009
O O8 0.840020 0.197003 0.880163
O O9 0.902516 0.500000 0.601845
O O10 0.761288 0.667926 0.667306
O O11 0.857862 0.717503 0.487965
O O12 0.836232 0.746183 0.081380
O O13 0.781490 0.000000 0.019801
O O14 0.680777 0.762896 0.009389
O O15 0.615435 0.500000 0.983718
O O16 0.629343 0.308155 0.834275
O O17 0.500000 0.284624 0.000000
O O18 0.380362 0.500000 0.309852
O O19 0.892957 0.500000 0.154342
O O20 0.827504 0.296942 0.287709
O O21 0.225647 0.500000 0.574760
#
# Coordination Sequence:
#
# PCOD9151864 Si02
#       8
#     4   4   4   4   4   4   4   4
#     4  10  21  35  55  84 115 151 193 235 286 351
#     4  11  23  38  59  88 119 154 197 241 294 355
#     4   9  17  34  60  84 110 147 191 238 287 341
#     4  11  24  41  60  85 122 159 196 244 296 354
#     4  10  21  38  61  89 117 150 198 247 292 345
#     4   9  18  34  56  81 111 148 190 239 288 337
#     4  11  24  41  62  86 117 157 200 246 296 351
#     4   9  21  40  59  84 115 150 194 244 295 345
#
# _framework density 18.820055
#
# number of rings (size 3 to 8) (size 9 to 14) (size 15 to 20)
#    0.000    2.000    1.250    2.625    0.000    9.250 
#    0.000    6.250    0.000    0.000    0.000    0.000 
#    0.000    0.000    0.000    0.000    0.000    0.000 
#
# Total GULP energy -178707.289005 kJ/mol
# GULP energy per Si atom -5584.602781 kJ/mol
# Density = 1.877722 g / cm^3
# Si number density = 18.820055 Si / 1000 Ang^3
#
#
#
# Elastic Constant Matrix: (Units=GPa)
#
#
# Indices 1 2 3 4 5 6 
#
# 1 101.8303 57.9364 28.4813 0.0000 17.3802 0.0000
# 2 57.9364 72.7800 44.7504 0.0000 13.8796 0.0000
# 3 28.4813 44.7504 58.5523 0.0000 7.9870 0.0000
# 4 0.0000 0.0000 0.0000 97.5141 0.0000 19.1581
# 5 17.3802 13.8796 7.9870 0.0000 26.2491 0.0000
# 6 0.0000 0.0000 0.0000 19.1581 0.0000 33.3776
#
#
#
# Elastic Compliance Matrix: (Units=1/GPa)
#
#
# Indices 1 2 3 4 5 6 
#
# 1 0.019071 -0.016869 0.004300 0.000000 -0.005016 0.000000
# 2 -0.016869 0.042565 -0.023766 0.000000 -0.004106 0.000000
# 3 0.004300 -0.023766 0.033203 0.000000 -0.000384 0.000000
# 4 0.000000 0.000000 0.000000 0.011558 0.000000 -0.006634
# 5 -0.005016 -0.004106 -0.000384 0.000000 0.043706 0.000000
# 6 0.000000 0.000000 0.000000 -0.006634 0.000000 0.033768
#
#
# Mechanical properties :
#
#
# Convention : Reuss Voigt Hill
#
# Bulk Modulus (GPa) = 45.10638 55.05541 50.08090
# Shear Modulus (GPa) = 18.94438 38.22780 28.58609
#
# Velocity S-wave (km/s) = 3.17615 4.51180 3.90156
# Velocity P-wave (km/s) = 6.12126 7.51391 6.85305
#
# Compressibility (1/GPa) = 0.02216981
#
# Stress axis : x y z
#
# Youngs Moduli (GPa) = 52.43443 23.49365 30.11780
#
# Poissons Ratio (x) = 0.39632 -0.12952
# Poissons Ratio (y) = 0.88453 0.71577
# Poissons Ratio (z) = -0.22549 0.55834
#
# Static dielectric constant tensor:
#      x y z
#    x 1.636460 0.000000 -0.010560 
#    y 0.000000 1.632030 0.000000 
#    z -0.010560 0.000000 1.650230 
# 
# From -- ./inp_files/49935.got.cif
#   From: 2010.05.17/outbox.cif.g08.bks.cpg/sg10_25_cif.got.tgz:49935.got - 2010.06.03 11:33:40.
