data_PCOD9151330
_publ_section_title
;
Structure prediction by ZEFSAII (Michael W. Deem and Ramdas Pophale) SiO2 
 PCOD9151330
Probable space group: P 2/M
;
_chemical_formula_sum "Si O2"
_cell_formula_units_Z 28
_cell_length_a 10.132904
_cell_length_b 8.018981
_cell_length_c 29.493695
_cell_angle_alpha 90.000000
_cell_angle_beta 142.809228
_cell_angle_gamma 90.000000
_cell_volume 1448.630542
_symmetry_space_group_name_H-M "P 2/M"
_symmetry_group_IT_number 10
_symmetry_cell_setting 'monoclinic'
loop_
_space_group_symop_operation_xyz
x,y,z
-x,y,-z
-x,-y,-z
x,-y,z
loop_
_atom_site_type_symbol
_atom_site_label
_atom_site_fract_x
_atom_site_fract_y
_atom_site_fract_z
Si Si1 0.125421 0.306038 0.621645
Si Si2 0.642102 0.500000 0.974051
Si Si3 0.838198 0.500000 0.128328
Si Si4 0.255845 0.811496 0.058826
Si Si5 0.427637 0.303388 0.623552
Si Si6 0.846792 0.808110 0.789262
Si Si7 0.458445 0.801366 0.210854
Si Si8 0.350875 0.805158 0.500794
O O1 0.066786 0.500000 0.600646
O O2 0.225901 0.247972 0.600647
O O3 0.325261 0.286317 0.711359
O O4 0.907992 0.214293 0.578253
O O5 0.380557 0.500000 0.902607
O O6 0.712635 0.668715 0.968852
O O7 0.749506 0.500000 0.052766
O O8 0.978582 0.666880 0.174411
O O9 0.387301 0.764654 0.140418
O O10 0.321655 0.000000 0.062831
O O11 0.000000 0.817970 0.000000
O O12 0.458952 0.500000 0.642030
O O13 0.642542 0.208176 0.699167
O O14 0.391023 0.279098 0.560458
O O15 0.740446 0.765265 0.809144
O O16 0.925934 0.000000 0.811555
O O17 0.496935 0.000000 0.224924
O O18 0.500000 0.740233 0.500000
O O19 0.404555 0.000000 0.520821
#
# Coordination Sequence:
#
# PCOD9151330 Si02
#       8
#     4   2   2   4   4   4   4   4
#     4  10  21  36  59  88 116 153 197 252 305 355
#     4  11  25  40  60  86 124 163 201 243 301 362
#     4  11  24  42  58  88 121 161 208 245 286 364
#     4  10  21  39  62  92 122 155 200 252 306 362
#     4  10  20  38  63  90 118 148 203 256 297 360
#     4  10  20  38  64  90 118 157 198 248 302 346
#     4   9  19  35  60  90 118 149 195 247 302 361
#     4  11  24  40  56  82 120 161 203 246 300 363
#
# _framework density 19.328599000000001
#
# number of rings (size 3 to 8) (size 9 to 14) (size 15 to 20)
#    0.000    1.857    0.714    2.786    2.000    6.857 
#    2.571    1.429    0.000    0.000    0.000    0.000 
#    0.000    0.000    0.000    0.000    0.000    0.000 
#
# Total GULP energy -156344.194266 kJ/mol
# GULP energy per Si atom -5583.721224 kJ/mol
# Density = 1.928461 g / cm^3
# Si number density = 19.328599 Si / 1000 Ang^3
#
#
#
# Elastic Constant Matrix: (Units=GPa)
#
#
# Indices 1 2 3 4 5 6 
#
# 1 82.6023 28.0369 27.6092 0.0000 14.0908 0.0000
# 2 28.0369 64.9538 10.3973 0.0000 12.6454 0.0000
# 3 27.6092 10.3973 49.5545 0.0000 7.9227 0.0000
# 4 0.0000 0.0000 0.0000 32.9308 0.0000 -9.0751
# 5 14.0908 12.6454 7.9227 0.0000 28.7424 0.0000
# 6 0.0000 0.0000 0.0000 -9.0751 0.0000 41.7406
#
#
#
# Elastic Compliance Matrix: (Units=1/GPa)
#
#
# Indices 1 2 3 4 5 6 
#
# 1 0.017233 -0.005424 -0.007840 0.000000 -0.003901 0.000000
# 2 -0.005424 0.018836 -0.000032 0.000000 -0.005619 0.000000
# 3 -0.007840 -0.000032 0.025041 0.000000 -0.003045 0.000000
# 4 0.000000 0.000000 0.000000 0.032302 0.000000 0.007023
# 5 -0.003901 -0.005619 -0.003045 0.000000 0.040016 0.000000
# 6 0.000000 0.000000 0.000000 0.007023 0.000000 0.025484
#
#
# Mechanical properties :
#
#
# Convention : Reuss Voigt Hill
#
# Bulk Modulus (GPa) = 28.96930 36.57748 32.77339
# Shear Modulus (GPa) = 25.37947 29.42057 27.40002
#
# Velocity S-wave (km/s) = 3.62754 3.90568 3.76917
# Velocity P-wave (km/s) = 5.70664 6.26930 5.99458
#
# Compressibility (1/GPa) = 0.03451930
#
# Stress axis : x y z
#
# Youngs Moduli (GPa) = 58.02798 53.09021 39.93429
#
# Poissons Ratio (x) = 0.28797 0.31307
# Poissons Ratio (y) = 0.31475 0.00126
# Poissons Ratio (z) = 0.45492 0.00168
#
# Static dielectric constant tensor:
#      x y z
#    x 1.668350 0.000000 -0.000890 
#    y 0.000000 1.669640 0.000000 
#    z -0.000890 0.000000 1.662500 
# 
# From -- ./inp_files/92175.got.cif
#   From: 2010.05.17/outbox.cif.g08.bks.cpg/sg10_47_cif.got.tgz:92175.got - 2010.06.03 11:33:40.
