data_PCOD9151694
_publ_section_title
;
Structure prediction by ZEFSAII (Michael W. Deem and Ramdas Pophale) SiO2 
 PCOD9151694
Probable space group: P 2/M
;
_chemical_formula_sum "Si O2"
_cell_formula_units_Z 32
_cell_length_a 16.725663
_cell_length_b 7.601807
_cell_length_c 10.912819
_cell_angle_alpha 90.000000
_cell_angle_beta 93.137487
_cell_angle_gamma 90.000000
_cell_volume 1385.433453
_symmetry_space_group_name_H-M "P 2/M"
_symmetry_group_IT_number 10
_symmetry_cell_setting 'monoclinic'
loop_
_space_group_symop_operation_xyz
x,y,z
-x,y,-z
-x,-y,-z
x,-y,z
loop_
_atom_site_type_symbol
_atom_site_label
_atom_site_fract_x
_atom_site_fract_y
_atom_site_fract_z
Si Si1 0.546197 0.214972 0.126470
Si Si2 0.026917 0.299482 0.678105
Si Si3 0.124532 0.792334 0.200559
Si Si4 0.727215 0.789571 0.176763
Si Si5 0.542214 0.784452 0.629887
Si Si6 0.111836 0.210310 0.934775
Si Si7 0.816730 0.704544 0.432559
Si Si8 0.722788 0.797460 0.661621
O O1 0.638672 0.272552 0.137172
O O2 0.503892 0.267698 0.250140
O O3 0.545797 0.000000 0.124276
O O4 0.500000 0.272899 0.000000
O O5 0.015402 0.500000 0.640681
O O6 0.068532 0.293044 0.815276
O O7 0.094932 0.221764 0.594481
O O8 0.939567 0.224023 0.696214
O O9 0.210441 0.715727 0.243944
O O10 0.135722 0.000000 0.180971
O O11 0.091461 0.724393 0.068418
O O12 0.793440 0.760988 0.077823
O O13 0.764098 0.713374 0.304422
O O14 0.723118 0.000000 0.196021
O O15 0.500000 0.727282 0.500000
O O16 0.634153 0.721932 0.644091
O O17 0.542162 0.000000 0.626522
O O18 0.094558 0.000000 0.923414
O O19 0.826077 0.500000 0.467795
O O20 0.767056 0.796250 0.534495
O O21 0.711153 0.000000 0.699997
#
# Coordination Sequence:
#
# PCOD9151694 Si02
#       8
#     4   4   4   4   4   4   4   4
#     4   9  17  27  48  83 115 140 173 221 271 318
#     4  10  21  36  54  76 101 135 178 222 265 312
#     4  10  21  34  50  76 109 141 171 213 266 317
#     4   9  17  31  54  80 106 138 175 213 260 315
#     4   9  17  30  50  77 110 143 177 219 264 314
#     4   9  18  32  52  77 108 141 174 213 259 314
#     4  10  21  37  55  75 101 134 178 224 265 310
#     4  10  21  35  54  78 107 140 175 215 264 318
#
# _framework density 23.097463999999999
#
# number of rings (size 3 to 8) (size 9 to 14) (size 15 to 20)
#    0.000    2.500    0.000    1.875    1.750    6.500 
#    0.000    2.500    0.000    3.750    0.000    0.000 
#    0.000    0.000    0.000    0.000    0.000    0.000 
#
# Total GULP energy -178721.400685 kJ/mol
# GULP energy per Si atom -5585.043771 kJ/mol
# Density = 2.304489 g / cm^3
# Si number density = 23.097464 Si / 1000 Ang^3
#
#
#
# Elastic Constant Matrix: (Units=GPa)
#
#
# Indices 1 2 3 4 5 6 
#
# 1 134.5898 8.5114 39.5251 0.0000 1.1929 0.0000
# 2 8.5114 47.9426 3.2810 0.0000 0.2258 0.0000
# 3 39.5251 3.2810 120.3610 0.0000 2.7438 0.0000
# 4 0.0000 0.0000 0.0000 12.8912 0.0000 18.6420
# 5 1.1929 0.2258 2.7438 0.0000 32.6247 0.0000
# 6 0.0000 0.0000 0.0000 18.6420 0.0000 -22.6289
#
#
#
# Elastic Compliance Matrix: (Units=1/GPa)
#
#
# Indices 1 2 3 4 5 6 
#
# 1 0.008302 -0.001289 -0.002690 0.000000 -0.000068 0.000000
# 2 -0.001289 0.021098 -0.000150 0.000000 -0.000086 0.000000
# 3 -0.002690 -0.000150 0.009211 0.000000 -0.000675 0.000000
# 4 0.000000 0.000000 0.000000 0.035400 0.000000 0.029163
# 5 -0.000068 -0.000086 -0.000675 0.000000 0.030712 0.000000
# 6 0.000000 0.000000 0.000000 0.029163 0.000000 -0.020166
#
#
# Mechanical properties :
#
#
# Convention : Reuss Voigt Hill
#
# Bulk Modulus (GPa) = 32.94527 45.05871 39.00199
# Shear Modulus (GPa) = 48.57621 21.34912 34.96266
#
# Velocity S-wave (km/s) = 4.59093 3.04354 3.89485
# Velocity P-wave (km/s) = 6.51128 5.64812 6.09500
#
# Compressibility (1/GPa) = 0.03035337
#
# Stress axis : x y z
#
# Youngs Moduli (GPa) = 120.45320 47.39817 108.56545
#
# Poissons Ratio (x) = 0.06112 0.29199
# Poissons Ratio (y) = 0.15532 0.01625
# Poissons Ratio (z) = 0.32397 0.00710
#
# Static dielectric constant tensor:
#      x y z
#    x 1.861080 0.000000 0.015350 
#    y 0.000000 1.880900 0.000000 
#    z 0.015350 0.000000 1.858350 
# 
# From -- ./inp_files/49982.got.cif
#   From: 2010.05.17/outbox.cif.g08.bks.cpg/sg10_25_cif.got.tgz:49982.got - 2010.06.03 11:33:40.
