data_PCOD9151257
_publ_section_title
;
Structure prediction by ZEFSAII (Michael W. Deem and Ramdas Pophale) SiO2 
 PCOD9151257
Probable space group: P 2/M
;
_chemical_formula_sum "Si O2"
_cell_formula_units_Z 32
_cell_length_a 12.207756
_cell_length_b 8.370806
_cell_length_c 15.838578
_cell_angle_alpha 90.000000
_cell_angle_beta 90.395082
_cell_angle_gamma 90.000000
_cell_volume 1618.486123
_symmetry_space_group_name_H-M "P 2/M"
_symmetry_group_IT_number 10
_symmetry_cell_setting 'monoclinic'
loop_
_space_group_symop_operation_xyz
x,y,z
-x,y,-z
-x,-y,-z
x,-y,z
loop_
_atom_site_type_symbol
_atom_site_label
_atom_site_fract_x
_atom_site_fract_y
_atom_site_fract_z
Si Si1 0.989217 0.812319 0.151696
Si Si2 0.754541 0.692945 0.405595
Si Si3 0.652566 0.306103 0.746921
Si Si4 0.248749 0.308338 0.900804
Si Si5 0.399711 0.304754 0.748969
Si Si6 0.784877 0.693022 0.913553
Si Si7 0.006145 0.310426 0.661348
Si Si8 0.211466 0.811646 0.412808
O O1 0.874174 0.730767 0.129234
O O2 0.090163 0.747008 0.097862
O O3 0.014619 0.775515 0.249821
O O4 0.978666 0.000000 0.138190
O O5 0.751644 0.500000 0.410891
O O6 0.667213 0.744425 0.334676
O O7 0.736420 0.762554 0.497950
O O8 0.876324 0.738662 0.374792
O O9 0.656670 0.500000 0.744183
O O10 0.525919 0.255939 0.748074
O O11 0.715087 0.253572 0.832245
O O12 0.714237 0.242227 0.665121
O O13 0.260239 0.500000 0.902624
O O14 0.334635 0.248176 0.831732
O O15 0.261406 0.249726 0.996837
O O16 0.397959 0.500000 0.750092
O O17 0.783384 0.500000 0.913806
O O18 0.009538 0.500000 0.677881
O O19 0.906388 0.272751 0.598669
O O20 0.194419 0.000000 0.409668
#
# Coordination Sequence:
#
# PCOD9151257 Si02
#       8
#     4   4   4   4   4   4   4   4
#     4  12  23  35  57  88 123 158 193 236 293 354
#     4  10  21  39  63  88 116 153 193 241 294 348
#     4  10  21  39  62  86 115 156 202 246 290 341
#     4  10  20  38  61  88 120 154 197 246 292 345
#     4   9  19  38  63  88 114 150 202 252 290 336
#     4  10  21  36  60  89 119 157 197 241 293 345
#     4  11  21  38  64  89 117 152 193 238 293 353
#     4  12  25  39  58  88 123 156 192 239 292 350
#
# _framework density 19.771561999999999
#
# number of rings (size 3 to 8) (size 9 to 14) (size 15 to 20)
#    0.000    1.500    2.500    3.375    0.000    5.500 
#    0.000    6.250    0.000    0.000    0.000    2.625 
#    0.000    0.000    0.000    0.000    0.000    0.000 
#
# Total GULP energy -178875.992863 kJ/mol
# GULP energy per Si atom -5589.874777 kJ/mol
# Density = 1.972656 g / cm^3
# Si number density = 19.771562 Si / 1000 Ang^3
#
#
#
# Elastic Constant Matrix: (Units=GPa)
#
#
# Indices 1 2 3 4 5 6 
#
# 1 112.1896 3.7287 29.7349 0.0000 -3.5585 0.0000
# 2 3.7287 7.0036 7.8983 0.0000 -2.4766 0.0000
# 3 29.7349 7.8983 107.6937 0.0000 -2.7485 0.0000
# 4 0.0000 0.0000 0.0000 -25.5216 0.0000 14.7537
# 5 -3.5585 -2.4766 -2.7485 0.0000 4.9082 0.0000
# 6 0.0000 0.0000 0.0000 14.7537 0.0000 -8.4297
#
#
#
# Elastic Compliance Matrix: (Units=1/GPa)
#
#
# Indices 1 2 3 4 5 6 
#
# 1 0.009770 -0.000422 -0.002527 0.000000 0.005455 0.000000
# 2 -0.000422 0.186776 -0.011346 0.000000 0.087583 0.000000
# 3 -0.002527 -0.011346 0.010777 0.000000 -0.001523 0.000000
# 4 0.000000 0.000000 0.000000 3.329742 0.000000 5.827707
# 5 0.005455 0.087583 -0.001523 0.000000 0.251036 0.000000
# 6 0.000000 0.000000 0.000000 5.827707 0.000000 10.081011
#
#
# Mechanical properties :
#
#
# Convention : Reuss Voigt Hill
#
# Bulk Modulus (GPa) = 5.59501 34.40119 19.99810
# Shear Modulus (GPa) = 0.35824 6.55970 3.45897
#
# Velocity S-wave (km/s) = 0.42612 1.82344 1.32411
# Velocity P-wave (km/s) = 1.75445 4.67658 3.53189
#
# Compressibility (1/GPa) = 0.17873073
#
# Stress axis : x y z
#
# Youngs Moduli (GPa) = 102.34958 5.35401 92.79258
#
# Poissons Ratio (x) = 0.00226 0.23453
# Poissons Ratio (y) = 0.04323 1.05286
# Poissons Ratio (z) = 0.25869 0.06075
#
# Static dielectric constant tensor:
#      x y z
#    x 1.659390 0.000000 0.001330 
#    y 0.000000 1.668380 0.000000 
#    z 0.001330 0.000000 1.695620 
# 
# From -- ./inp_files/49835.got.cif
#   From: 2010.05.17/outbox.cif.g08.bks.cpg/sg10_25_cif.got.tgz:49835.got - 2010.06.03 11:33:40.
