data_PCOD9151390
_publ_section_title
;
Structure prediction by ZEFSAII (Michael W. Deem and Ramdas Pophale) SiO2 
 PCOD9151390
Probable space group: P 2/M
;
_chemical_formula_sum "Si O2"
_cell_formula_units_Z 30
_cell_length_a 14.682254
_cell_length_b 11.467516
_cell_length_c 8.440088
_cell_angle_alpha 90.000000
_cell_angle_beta 75.288527
_cell_angle_gamma 90.000000
_cell_volume 1374.462667
_symmetry_space_group_name_H-M "P 2/M"
_symmetry_group_IT_number 10
_symmetry_cell_setting 'monoclinic'
loop_
_space_group_symop_operation_xyz
x,y,z
-x,y,-z
-x,-y,-z
x,-y,z
loop_
_atom_site_type_symbol
_atom_site_label
_atom_site_fract_x
_atom_site_fract_y
_atom_site_fract_z
Si Si1 0.918961 0.800903 0.637698
Si Si2 0.500000 0.707032 0.000000
Si Si3 0.804368 0.627772 0.474241
Si Si4 0.249867 0.873423 0.106392
Si Si5 0.315268 0.631682 0.937710
Si Si6 0.584785 0.132449 0.705292
Si Si7 0.033362 0.636020 0.815825
Si Si8 0.392952 0.321348 0.552842
O O1 0.844906 0.730371 0.562284
O O2 0.855509 0.875253 0.781202
O O3 0.000000 0.862477 0.500000
O O4 0.976462 0.704354 0.708986
O O5 0.406023 0.634306 0.013880
O O6 0.513168 0.789460 0.840381
O O7 0.835840 0.500000 0.518603
O O8 0.856275 0.644287 0.280493
O O9 0.692104 0.627572 0.514703
O O10 0.322710 0.867926 0.222647
O O11 0.269989 0.000000 0.016902
O O12 0.259968 0.749843 0.010817
O O13 0.272287 0.500000 0.964628
O O14 0.355171 0.655291 0.744795
O O15 0.600633 0.192334 0.528213
O O16 0.552406 0.000000 0.703945
O O17 0.008789 0.500000 0.820971
O O18 0.000000 0.681430 0.000000
O O19 0.500000 0.366914 0.500000
#
# Coordination Sequence:
#
# PCOD9151390 Si02
#       8
#     4   2   4   4   4   4   4   4
#     4  10  20  38  65  94 124 163 213 265 326 399
#     4  10  20  44  60  92 121 162 217 282 327 386
#     4  10  21  37  57  87 130 172 210 262 326 391
#     4  10  23  44  67  94 130 173 219 270 329 398
#     4  11  25  41  63  93 127 171 221 275 336 390
#     4  10  21  41  66  90 125 172 221 271 328 391
#     4   9  19  35  60  93 127 164 210 265 325 393
#     4  12  24  42  59  95 133 174 224 276 331 388
#
# _framework density 21.826712000000001
#
# number of rings (size 3 to 8) (size 9 to 14) (size 15 to 20)
#    0.000    1.733    2.667    1.200    1.867    5.333 
#    0.000    0.000    0.000    0.400    0.000    0.000 
#    0.000    0.000    0.000    0.000    0.000    0.000 
#
# Total GULP energy -167248.530489 kJ/mol
# GULP energy per Si atom -5574.951016 kJ/mol
# Density = 2.177703 g / cm^3
# Si number density = 21.826712 Si / 1000 Ang^3
#
#
#
# Elastic Constant Matrix: (Units=GPa)
#
#
# Indices 1 2 3 4 5 6 
#
# 1 89.1869 21.6174 10.5516 0.0000 -18.2826 0.0000
# 2 21.6174 156.5740 50.3561 0.0000 -7.9320 0.0000
# 3 10.5516 50.3561 64.0432 0.0000 -8.5748 0.0000
# 4 0.0000 0.0000 0.0000 21.7067 0.0000 0.4791
# 5 -18.2826 -7.9320 -8.5748 0.0000 29.0937 0.0000
# 6 0.0000 0.0000 0.0000 0.4791 0.0000 8.7508
#
#
#
# Elastic Compliance Matrix: (Units=1/GPa)
#
#
# Indices 1 2 3 4 5 6 
#
# 1 0.013174 -0.001420 0.000003 0.000000 0.007892 0.000000
# 2 -0.001420 0.008705 -0.006676 0.000000 -0.000487 0.000000
# 3 0.000003 -0.006676 0.021467 0.000000 0.004509 0.000000
# 4 0.000000 0.000000 0.000000 0.046125 0.000000 -0.002525
# 5 0.007892 -0.000487 0.004509 0.000000 0.040527 0.000000
# 6 0.000000 0.000000 0.000000 -0.002525 0.000000 0.114414
#
#
# Mechanical properties :
#
#
# Convention : Reuss Voigt Hill
#
# Bulk Modulus (GPa) = 36.81919 52.76157 44.79038
# Shear Modulus (GPa) = 18.54244 27.06217 22.80230
#
# Velocity S-wave (km/s) = 2.91783 3.52499 3.23568
# Velocity P-wave (km/s) = 5.31574 6.38693 5.87580
#
# Compressibility (1/GPa) = 0.02715975
#
# Stress axis : x y z
#
# Youngs Moduli (GPa) = 75.90634 114.87365 46.58339
#
# Poissons Ratio (x) = 0.16311 -0.00012
# Poissons Ratio (y) = 0.10778 0.31099
# Poissons Ratio (z) = -0.00020 0.76689
#
# Static dielectric constant tensor:
#      x y z
#    x 1.827510 0.000000 -0.014720 
#    y 0.000000 1.804500 0.000000 
#    z -0.014720 0.000000 1.844010 
# 
# From -- ./inp_files/28556.got.cif
#   From: 2010.05.17/outbox.cif.g08.bks.cpg/sg10_15_cif.got.tgz:28556.got - 2010.06.03 11:33:40.
