data_PCOD9151475
_publ_section_title
;
Structure prediction by ZEFSAII (Michael W. Deem and Ramdas Pophale) SiO2 
 PCOD9151475
Probable space group: P 2/M
;
_chemical_formula_sum "Si O2"
_cell_formula_units_Z 32
_cell_length_a 10.302409
_cell_length_b 20.239675
_cell_length_c 9.506678
_cell_angle_alpha 90.000000
_cell_angle_beta 48.174714
_cell_angle_gamma 90.000000
_cell_volume 1477.179690
_symmetry_space_group_name_H-M "P 2/M"
_symmetry_group_IT_number 10
_symmetry_cell_setting 'monoclinic'
loop_
_space_group_symop_operation_xyz
x,y,z
-x,y,-z
-x,-y,-z
x,-y,z
loop_
_atom_site_type_symbol
_atom_site_label
_atom_site_fract_x
_atom_site_fract_y
_atom_site_fract_z
Si Si1 0.793096 0.850240 0.124747
Si Si2 0.359443 0.845335 0.224472
Si Si3 0.812054 0.284638 0.555592
Si Si4 0.298382 0.076556 0.534044
Si Si5 0.817689 0.571791 0.212850
Si Si6 0.299335 0.283327 0.682143
Si Si7 0.182477 0.429712 0.451267
Si Si8 0.881923 0.076428 0.784991
O O1 0.694930 0.888246 0.320485
O O2 0.746309 0.772899 0.171430
O O3 0.784467 0.890512 0.987349
O O4 0.000000 0.852030 0.000000
O O5 0.313580 0.770446 0.292112
O O6 0.396545 0.882569 0.343210
O O7 0.185874 0.881024 0.294411
O O8 0.500000 0.851032 0.000000
O O9 0.812407 0.274571 0.383793
O O10 0.737605 0.358256 0.636622
O O11 0.000000 0.279682 0.500000
O O12 0.089369 0.078462 0.654032
O O13 0.349910 0.000000 0.498311
O O14 0.731909 0.500000 0.241142
O O15 0.723684 0.641073 0.250219
O O16 0.849304 0.571361 0.357978
O O17 0.000000 0.573472 0.000000
O O18 0.500000 0.273869 0.500000
O O19 0.272505 0.500000 0.353329
O O20 0.000000 0.430177 0.500000
O O21 0.830985 0.000000 0.804867
#
# Coordination Sequence:
#
# PCOD9151475 Si02
#       8
#     4   4   4   4   4   4   4   4
#     4  10  21  37  62  88 118 157 202 252 305 373
#     4  12  25  38  57  85 121 159 203 257 310 367
#     4  10  21  40  64  87 119 165 212 251 300 366
#     4  10  20  39  63  85 114 152 200 253 307 370
#     4   9  18  35  59  90 124 161 209 256 298 358
#     4  11  23  38  60  91 130 166 201 252 313 370
#     4   8  15  31  58  88 115 149 197 249 297 347
#     4  10  22  39  62  90 115 151 204 258 311 372
#
# _framework density 21.662903
#
# number of rings (size 3 to 8) (size 9 to 14) (size 15 to 20)
#    0.000    2.000    1.250    2.250    3.500    3.750 
#    2.250    0.000    0.000    2.625    0.000    0.000 
#    0.000    0.000    0.000    0.000    0.000    0.000 
#
# Total GULP energy -178613.498338 kJ/mol
# GULP energy per Si atom -5581.671823 kJ/mol
# Density = 2.161360 g / cm^3
# Si number density = 21.662903 Si / 1000 Ang^3
#
#
#
# Elastic Constant Matrix: (Units=GPa)
#
#
# Indices 1 2 3 4 5 6 
#
# 1 35.2554 27.7588 3.9708 0.0000 -9.8573 0.0000
# 2 27.7588 202.9885 64.9007 0.0000 13.4752 0.0000
# 3 3.9708 64.9007 102.8178 0.0000 -3.3208 0.0000
# 4 0.0000 0.0000 0.0000 34.7122 0.0000 19.5889
# 5 -9.8573 13.4752 -3.3208 0.0000 15.0560 0.0000
# 6 0.0000 0.0000 0.0000 19.5889 0.0000 -37.9561
#
#
#
# Elastic Compliance Matrix: (Units=1/GPa)
#
#
# Indices 1 2 3 4 5 6 
#
# 1 0.049550 -0.012026 0.007124 0.000000 0.044776 0.000000
# 2 -0.012026 0.009777 -0.006289 0.000000 -0.018011 0.000000
# 3 0.007124 -0.006289 0.013852 0.000000 0.013348 0.000000
# 4 0.000000 0.000000 0.000000 0.022310 0.000000 0.011514
# 5 0.044776 -0.018011 0.013348 0.000000 0.114799 0.000000
# 6 0.000000 0.000000 0.000000 0.011514 0.000000 -0.020404
#
#
# Mechanical properties :
#
#
# Convention : Reuss Voigt Hill
#
# Bulk Modulus (GPa) = 19.68644 59.36915 39.52779
# Shear Modulus (GPa) = 21.81507 18.65785 20.23646
#
# Velocity S-wave (km/s) = 3.17681 2.93794 3.05971
# Velocity P-wave (km/s) = 4.75011 6.24292 5.54696
#
# Compressibility (1/GPa) = 0.05079639
#
# Stress axis : x y z
#
# Youngs Moduli (GPa) = 20.18160 102.27707 72.19352
#
# Poissons Ratio (x) = 1.22998 -0.51428
# Poissons Ratio (y) = 0.24270 0.45402
# Poissons Ratio (z) = -0.14377 0.64322
#
# Static dielectric constant tensor:
#      x y z
#    x 1.782890 0.000000 0.002560 
#    y 0.000000 1.804970 0.000000 
#    z 0.002560 0.000000 1.743240 
# 
# From -- ./inp_files/26066.got.cif
#   From: 2010.05.17/outbox.cif.g08.bks.cpg/sg10_14_cif.got.tgz:26066.got - 2010.06.03 11:33:40.
