data_PCOD9151474
_publ_section_title
;
Structure prediction by ZEFSAII (Michael W. Deem and Ramdas Pophale) SiO2 
 PCOD9151474
Probable space group: P 2/M
;
_chemical_formula_sum "Si O2"
_cell_formula_units_Z 20
_cell_length_a 9.126888
_cell_length_b 7.832950
_cell_length_c 23.567062
_cell_angle_alpha 90.000000
_cell_angle_beta 39.306866
_cell_angle_gamma 90.000000
_cell_volume 1067.289018
_symmetry_space_group_name_H-M "P 2/M"
_symmetry_group_IT_number 10
_symmetry_cell_setting 'monoclinic'
loop_
_space_group_symop_operation_xyz
x,y,z
-x,y,-z
-x,-y,-z
x,-y,z
loop_
_atom_site_type_symbol
_atom_site_label
_atom_site_fract_x
_atom_site_fract_y
_atom_site_fract_z
Si Si1 0.112492 0.300822 0.230960
Si Si2 0.254628 0.199522 0.408019
Si Si3 0.529653 0.690939 0.773446
Si Si4 0.733660 0.000000 0.096750
Si Si5 0.578405 0.293945 0.414128
Si Si6 0.617557 0.000000 0.903906
O O1 0.124175 0.500000 0.209312
O O2 0.259355 0.286680 0.245199
O O3 0.846802 0.255171 0.322472
O O4 0.227164 0.168097 0.153372
O O5 0.369681 0.288597 0.319588
O O6 0.417745 0.218423 0.413529
O O7 0.000000 0.266980 0.500000
O O8 0.229639 0.000000 0.400264
O O9 0.436004 0.500000 0.809127
O O10 0.342896 0.834420 0.844419
O O11 0.578329 0.000000 0.086299
O O12 0.000000 0.000000 0.000000
O O13 0.500000 0.236553 0.500000
O O14 0.553726 0.500000 0.419496
O O15 0.500000 0.000000 0.000000
#
# Coordination Sequence:
#
# PCOD9151474 Si02
#       6
#     4   4   4   2   4   2
#     4   9  20  38  60  85 113 147 190 235 279 337
#     4  11  23  36  54  85 120 154 195 236 280 338
#     4  10  20  39  63  84 114 154 191 235 288 335
#     4  10  22  40  59  86 119 144 189 240 282 348
#     4  10  21  37  56  83 116 152 193 234 281 335
#     4  10  22  38  59  84 111 150 185 228 292 338
#
# _framework density 18.739066999999999
#
# number of rings (size 3 to 8) (size 9 to 14) (size 15 to 20)
#    0.000    2.000    1.000    1.800    1.400    6.000 
#    0.000    0.000    0.000    0.000    0.000    0.000 
#    0.000    0.000    0.000    0.000    0.000    0.000 
#
# Total GULP energy -111722.977506 kJ/mol
# GULP energy per Si atom -5586.148875 kJ/mol
# Density = 1.869642 g / cm^3
# Si number density = 18.739067 Si / 1000 Ang^3
#
#
#
# Elastic Constant Matrix: (Units=GPa)
#
#
# Indices 1 2 3 4 5 6 
#
# 1 53.9075 45.6110 63.2864 0.0000 -5.1723 0.0000
# 2 45.6110 100.2354 82.0117 0.0000 -7.1832 0.0000
# 3 63.2864 82.0117 170.3518 0.0000 -3.9377 0.0000
# 4 0.0000 0.0000 0.0000 17.6627 0.0000 5.6199
# 5 -5.1723 -7.1832 -3.9377 0.0000 41.6101 0.0000
# 6 0.0000 0.0000 0.0000 5.6199 0.0000 13.7480
#
#
#
# Elastic Compliance Matrix: (Units=1/GPa)
#
#
# Indices 1 2 3 4 5 6 
#
# 1 0.037761 -0.009221 -0.009538 0.000000 0.002199 0.000000
# 2 -0.009221 0.018896 -0.005635 0.000000 0.001583 0.000000
# 3 -0.009538 -0.005635 0.012103 0.000000 -0.001013 0.000000
# 4 0.000000 0.000000 0.000000 0.065081 0.000000 -0.026604
# 5 0.002199 0.001583 -0.001013 0.000000 0.024483 0.000000
# 6 0.000000 0.000000 0.000000 -0.026604 0.000000 0.083613
#
#
# Mechanical properties :
#
#
# Convention : Reuss Voigt Hill
#
# Bulk Modulus (GPa) = 50.07023 78.47923 64.27473
# Shear Modulus (GPa) = 16.81329 23.50986 20.16158
#
# Velocity S-wave (km/s) = 2.99863 3.54586 3.28367
# Velocity P-wave (km/s) = 6.22630 7.66388 6.98219
#
# Compressibility (1/GPa) = 0.01997195
#
# Stress axis : x y z
#
# Youngs Moduli (GPa) = 26.48238 52.92043 82.62325
#
# Poissons Ratio (x) = 0.48798 0.78809
# Poissons Ratio (y) = 0.24419 0.46558
# Poissons Ratio (z) = 0.25260 0.29820
#
# Static dielectric constant tensor:
#      x y z
#    x 1.620300 0.000000 -0.002820 
#    y 0.000000 1.668700 0.000000 
#    z -0.002820 0.000000 1.598530 
# 
# From -- ./inp_files/31725.got.cif
#   From: 2010.05.17/outbox.cif.g08.bks.cpg/sg10_16_cif.got.tgz:31725.got - 2010.06.03 11:33:40.
