data_PCOD9151528
_publ_section_title
;
Structure prediction by ZEFSAII (Michael W. Deem and Ramdas Pophale) SiO2 
 PCOD9151528
Probable space group: P 2/M
;
_chemical_formula_sum "Si O2"
_cell_formula_units_Z 28
_cell_length_a 5.263826
_cell_length_b 33.091954
_cell_length_c 7.696960
_cell_angle_alpha 90.000000
_cell_angle_beta 63.831342
_cell_angle_gamma 90.000000
_cell_volume 1203.309934
_symmetry_space_group_name_H-M "P 2/M"
_symmetry_group_IT_number 10
_symmetry_cell_setting 'monoclinic'
loop_
_space_group_symop_operation_xyz
x,y,z
-x,y,-z
-x,-y,-z
x,-y,z
loop_
_atom_site_type_symbol
_atom_site_label
_atom_site_fract_x
_atom_site_fract_y
_atom_site_fract_z
Si Si1 0.252878 0.686209 0.216468
Si Si2 0.000000 0.733203 0.000000
Si Si3 0.167410 0.546373 0.764136
Si Si4 0.000000 0.747254 0.500000
Si Si5 0.238956 0.796205 0.715201
Si Si6 0.331889 0.405958 0.234534
Si Si7 0.165721 0.120158 0.621276
Si Si8 0.167694 0.954876 0.130550
O O1 0.004351 0.702810 0.164095
O O2 0.249786 0.640625 0.283684
O O3 0.251715 0.715831 0.381308
O O4 0.500000 0.690169 0.000000
O O5 0.755372 0.766662 0.120910
O O6 0.228825 0.500000 0.701267
O O7 0.446250 0.573144 0.704800
O O8 0.946617 0.567466 0.703953
O O9 0.000000 0.545744 0.000000
O O10 0.997781 0.775673 0.334026
O O11 0.500000 0.795212 0.500000
O O12 0.169434 0.843243 0.759851
O O13 0.500000 0.406176 0.000000
O O14 0.500000 0.109958 0.500000
O O15 0.000000 0.136249 0.500000
O O16 0.987341 0.080669 0.721506
O O17 0.151057 0.000000 0.216034
O O18 0.500000 0.946078 0.000000
O O19 0.000000 0.956616 0.000000
#
# Coordination Sequence:
#
# PCOD9151528 Si02
#       8
#     4   2   4   2   4   4   4   4
#     4  10  21  34  57  81 114 149 198 241 305 355
#     4  10  22  36  58  84 108 162 202 244 316 368
#     4   9  16  28  46  74 108 146 183 232 291 349
#     4  10  20  40  56  82 116 156 196 254 304 366
#     4  10  21  39  58  84 123 155 210 257 312 365
#     4   9  18  28  48  74 110 143 186 238 284 350
#     4  11  23  40  64  92 127 167 212 266 319 376
#     4  10  22  41  64  95 132 170 213 264 320 382
#
# _framework density 23.26915
#
# number of rings (size 3 to 8) (size 9 to 14) (size 15 to 20)
#    0.000    2.143    0.714    2.143    6.000    2.286 
#    0.000    0.714    0.000    0.000    0.000    3.000 
#    0.000    0.000    0.000    0.000    0.000    0.000 
#
# Total GULP energy -156091.299795 kJ/mol
# GULP energy per Si atom -5574.689278 kJ/mol
# Density = 2.321619 g / cm^3
# Si number density = 23.269150 Si / 1000 Ang^3
#
#
#
# Elastic Constant Matrix: (Units=GPa)
#
#
# Indices 1 2 3 4 5 6 
#
# 1 119.5477 57.5094 32.5728 0.0000 -24.8414 0.0000
# 2 57.5094 212.3865 57.9764 0.0000 -24.5062 0.0000
# 3 32.5728 57.9764 90.2326 0.0000 -11.2029 0.0000
# 4 0.0000 0.0000 0.0000 -14.6002 0.0000 -14.2107
# 5 -24.8414 -24.5062 -11.2029 0.0000 27.7299 0.0000
# 6 0.0000 0.0000 0.0000 -14.2107 0.0000 26.9335
#
#
#
# Elastic Compliance Matrix: (Units=1/GPa)
#
#
# Indices 1 2 3 4 5 6 
#
# 1 0.011343 -0.001587 -0.002092 0.000000 0.007913 0.000000
# 2 -0.001587 0.006329 -0.003133 0.000000 0.002905 0.000000
# 3 -0.002092 -0.003133 0.013975 0.000000 0.001003 0.000000
# 4 0.000000 0.000000 0.000000 -0.045253 0.000000 -0.023876
# 5 0.007913 0.002905 0.001003 0.000000 0.046124 0.000000
# 6 0.000000 0.000000 0.000000 -0.023876 0.000000 0.024531
#
#
# Mechanical properties :
#
#
# Convention : Reuss Voigt Hill
#
# Bulk Modulus (GPa) = 55.48677 79.80933 67.64805
# Shear Modulus (GPa) = 65.20598 26.28652 45.74625
#
# Velocity S-wave (km/s) = 5.29937 3.36471 4.43873
# Velocity P-wave (km/s) = 7.83210 7.03333 7.44344
#
# Compressibility (1/GPa) = 0.01802232
#
# Stress axis : x y z
#
# Youngs Moduli (GPa) = 88.16155 158.01510 71.55604
#
# Poissons Ratio (x) = 0.25079 0.14972
# Poissons Ratio (y) = 0.13992 0.22415
# Poissons Ratio (z) = 0.18447 0.49499
#
# Static dielectric constant tensor:
#      x y z
#    x 5.048970 0.000000 6.143770 
#    y 0.000000 1.856000 0.000000 
#    z 6.143770 0.000000 14.191210 
# 
# From -- ./inp_files/15889.got.cif
#   From: 2010.05.17/outbox.cif.g08.bks.cpg/sg10_8_cif.got.tgz:15889.got - 2010.06.03 11:33:40.
