data_PCOD9151867
_publ_section_title
;
Structure prediction by ZEFSAII (Michael W. Deem and Ramdas Pophale) SiO2 
 PCOD9151867
Probable space group: P 2/M
;
_chemical_formula_sum "Si O2"
_cell_formula_units_Z 28
_cell_length_a 14.439376
_cell_length_b 7.978596
_cell_length_c 19.552569
_cell_angle_alpha 90.000000
_cell_angle_beta 144.598667
_cell_angle_gamma 90.000000
_cell_volume 1304.915405
_symmetry_space_group_name_H-M "P 2/M"
_symmetry_group_IT_number 10
_symmetry_cell_setting 'monoclinic'
loop_
_space_group_symop_operation_xyz
x,y,z
-x,y,-z
-x,-y,-z
x,-y,z
loop_
_atom_site_type_symbol
_atom_site_label
_atom_site_fract_x
_atom_site_fract_y
_atom_site_fract_z
Si Si1 0.878791 0.801059 0.483516
Si Si2 0.742712 0.803829 0.952070
Si Si3 0.346606 0.299891 0.950641
Si Si4 0.000571 0.202808 0.299313
Si Si5 0.453529 0.695827 0.688836
Si Si6 0.910107 0.796884 0.798129
Si Si7 0.443140 0.700341 0.392340
O O1 0.692322 0.774389 0.357135
O O2 0.000000 0.730828 0.500000
O O3 0.915868 0.733936 0.581780
O O4 0.907476 0.000000 0.504026
O O5 0.672981 0.781902 0.986664
O O6 0.622593 0.718151 0.827629
O O7 0.747353 0.000000 0.937654
O O8 0.925950 0.741262 0.066462
O O9 0.358793 0.500000 0.967993
O O10 0.500000 0.242860 0.000000
O O11 0.183512 0.258371 0.812803
O O12 0.077757 0.259380 0.274038
O O13 0.004927 0.000000 0.300617
O O14 0.418336 0.500000 0.662952
O O15 0.466285 0.768971 0.619732
O O16 0.745014 0.733687 0.729032
O O17 0.909713 0.000000 0.799033
O O18 0.500000 0.768990 0.500000
O O19 0.468288 0.500000 0.408399
#
# Coordination Sequence:
#
# PCOD9151867 Si02
#       7
#     4   4   4   4   4   4   4
#     4  10  22  39  59  85 115 154 200 242 291 351
#     4  10  22  40  60  84 118 157 197 242 295 354
#     4  10  21  35  55  85 116 149 193 242 291 345
#     4   9  19  36  56  82 115 151 194 239 289 348
#     4  11  24  40  59  87 121 155 196 247 299 353
#     4   9  19  36  59  86 113 149 196 244 292 343
#     4  10  22  39  60  87 119 156 196 238 293 355
#
# _framework density 21.457329999999999
#
# number of rings (size 3 to 8) (size 9 to 14) (size 15 to 20)
#    0.000    2.143    0.000    3.000    2.000    6.857 
#    0.000    2.857    0.000    0.000    0.000    0.000 
#    0.000    0.000    0.000    0.000    0.000    0.000 
#
# Total GULP energy -156409.456005 kJ/mol
# GULP energy per Si atom -5586.052000 kJ/mol
# Density = 2.140849 g / cm^3
# Si number density = 21.457330 Si / 1000 Ang^3
#
#
#
# Elastic Constant Matrix: (Units=GPa)
#
#
# Indices 1 2 3 4 5 6 
#
# 1 88.6190 -1.1599 43.2090 0.0000 23.8208 0.0000
# 2 -1.1599 13.9559 -8.2747 0.0000 -4.8691 0.0000
# 3 43.2090 -8.2747 81.9568 0.0000 -2.4594 0.0000
# 4 0.0000 0.0000 0.0000 27.5228 0.0000 5.2485
# 5 23.8208 -4.8691 -2.4594 0.0000 29.0223 0.0000
# 6 0.0000 0.0000 0.0000 5.2485 0.0000 18.0015
#
#
#
# Elastic Compliance Matrix: (Units=1/GPa)
#
#
# Indices 1 2 3 4 5 6 
#
# 1 0.025469 -0.015935 -0.015784 0.000000 -0.024915 0.000000
# 2 -0.015935 0.091830 0.018575 0.000000 0.030059 0.000000
# 3 -0.015784 0.018575 0.022939 0.000000 0.018015 0.000000
# 4 0.000000 0.000000 0.000000 0.038473 0.000000 -0.011217
# 5 -0.024915 0.030059 0.018015 0.000000 0.061476 0.000000
# 6 0.000000 0.000000 0.000000 -0.011217 0.000000 0.058821
#
#
# Mechanical properties :
#
#
# Convention : Reuss Voigt Hill
#
# Bulk Modulus (GPa) = 8.77578 28.00896 18.39237
# Shear Modulus (GPa) = 13.76351 24.95982 19.36166
#
# Velocity S-wave (km/s) = 2.53541 3.41432 3.00715
# Velocity P-wave (km/s) = 3.55947 5.35024 4.54395
#
# Compressibility (1/GPa) = 0.11395005
#
# Stress axis : x y z
#
# Youngs Moduli (GPa) = 39.26348 10.88967 43.59353
#
# Poissons Ratio (x) = 0.17352 0.68809
# Poissons Ratio (y) = 0.62565 -0.80973
# Poissons Ratio (z) = 0.61974 -0.20227
#
# Static dielectric constant tensor:
#      x y z
#    x 1.792610 0.000000 -0.011790 
#    y 0.000000 1.754190 0.000000 
#    z -0.011790 0.000000 1.775340 
# 
# From -- ./inp_files/84958.got.cif
#   From: 2010.05.17/outbox.cif.g08.bks.cpg/sg10_43_cif.got.tgz:84958.got - 2010.06.03 11:33:40.
