data_PCOD9151715
_publ_section_title
;
Structure prediction by ZEFSAII (Michael W. Deem and Ramdas Pophale) SiO2 
 PCOD9151715
Probable space group: P 2/M
;
_chemical_formula_sum "Si O2"
_cell_formula_units_Z 24
_cell_length_a 27.253805
_cell_length_b 7.568783
_cell_length_c 7.674559
_cell_angle_alpha 90.000000
_cell_angle_beta 35.031291
_cell_angle_gamma 90.000000
_cell_volume 908.733341
_symmetry_space_group_name_H-M "P 2/M"
_symmetry_group_IT_number 10
_symmetry_cell_setting 'monoclinic'
loop_
_space_group_symop_operation_xyz
x,y,z
-x,y,-z
-x,-y,-z
x,-y,z
loop_
_atom_site_type_symbol
_atom_site_label
_atom_site_fract_x
_atom_site_fract_y
_atom_site_fract_z
Si Si1 0.950846 0.199671 0.961667
Si Si2 0.119434 0.784556 0.307218
Si Si3 0.617294 0.198641 0.658656
Si Si4 0.787930 0.695532 0.312852
Si Si5 0.427496 0.784656 0.849347
Si Si6 0.297872 0.783850 0.942841
O O1 0.025845 0.282821 0.627589
O O2 0.934271 0.000000 0.946052
O O3 0.856667 0.276614 0.263262
O O4 0.000000 0.189383 0.000000
O O5 0.115921 0.000000 0.324785
O O6 0.147303 0.722306 0.036775
O O7 0.200674 0.730483 0.188919
O O8 0.707997 0.185127 0.498919
O O9 0.644944 0.276718 0.391152
O O10 0.588074 0.000000 0.703598
O O11 0.561565 0.276519 0.981355
O O12 0.752356 0.500000 0.417171
O O13 0.500000 0.732288 0.500000
O O14 0.340533 0.730157 0.001089
O O15 0.429399 0.000000 0.852964
O O16 0.299666 0.000000 0.934192
#
# Coordination Sequence:
#
# PCOD9151715 Si02
#       6
#     4   4   4   4   4   4
#     4  10  21  34  53  79 105 137 177 218 262 314
#     4   9  18  34  54  75 100 136 179 218 258 312
#     4   9  18  33  54  75 103 141 177 218 264 315
#     4  11  22  35  52  74 104 140 178 221 265 309
#     4   9  17  28  49  82 111 133 164 215 274 323
#     4   8  15  28  47  74 105 135 170 210 257 313
#
# _framework density 26.410387
#
# number of rings (size 3 to 8) (size 9 to 14) (size 15 to 20)
#    0.000    2.667    0.000    3.000    2.333    3.667 
#    0.000    3.333    0.000    0.500    0.000    4.667 
#    0.000    0.000    0.000    0.000    0.000    0.000 
#
# Total GULP energy -133990.215748 kJ/mol
# GULP energy per Si atom -5582.925656 kJ/mol
# Density = 2.635028 g / cm^3
# Si number density = 26.410387 Si / 1000 Ang^3
#
#
#
# Elastic Constant Matrix: (Units=GPa)
#
#
# Indices 1 2 3 4 5 6 
#
# 1 113.8460 -7.2268 2.1372 0.0000 15.7301 0.0000
# 2 -7.2268 80.6348 1.8854 0.0000 -8.6642 0.0000
# 3 2.1372 1.8854 87.6579 0.0000 14.1728 0.0000
# 4 0.0000 0.0000 0.0000 -27.4787 0.0000 20.5196
# 5 15.7301 -8.6642 14.1728 0.0000 65.7573 0.0000
# 6 0.0000 0.0000 0.0000 20.5196 0.0000 -59.9195
#
#
#
# Elastic Compliance Matrix: (Units=1/GPa)
#
#
# Indices 1 2 3 4 5 6 
#
# 1 0.009113 0.000586 0.000109 0.000000 -0.002126 0.000000
# 2 0.000586 0.012644 -0.000552 0.000000 0.001645 0.000000
# 3 0.000109 -0.000552 0.011846 0.000000 -0.002652 0.000000
# 4 0.000000 0.000000 0.000000 -0.048896 0.000000 -0.016744
# 5 -0.002126 0.001645 -0.002652 0.000000 0.016504 0.000000
# 6 0.000000 0.000000 0.000000 -0.016744 0.000000 -0.022423
#
#
# Mechanical properties :
#
#
# Convention : Reuss Voigt Hill
#
# Bulk Modulus (GPa) = 29.50941 30.63670 30.07306
# Shear Modulus (GPa) = -490.12969 14.69468 -237.71750
#
# Velocity S-wave (km/s) = -13.63763 2.36137 -9.49760
# Velocity P-wave (km/s) = 15.38774 4.36580 10.43365
#
# Compressibility (1/GPa) = 0.03388750
#
# Stress axis : x y z
#
# Youngs Moduli (GPa) = 109.73687 79.09054 84.41674
#
# Poissons Ratio (x) = -0.04632 -0.00920
# Poissons Ratio (y) = -0.06427 0.04661
# Poissons Ratio (z) = -0.01196 0.04367
#
# Static dielectric constant tensor:
#      x y z
#    x 2.233420 0.000000 -0.033200 
#    y 0.000000 2.088860 0.000000 
#    z -0.033200 0.000000 2.170770 
# 
# From -- ./inp_files/33516.got.cif
#   From: 2010.05.17/outbox.cif.g08.bks.cpg/sg10_17_cif.got.tgz:33516.got - 2010.06.03 11:33:40.
