data_PCOD9151999
_publ_section_title
;
Structure prediction by ZEFSAII (Michael W. Deem and Ramdas Pophale) SiO2 
 PCOD9151999
Probable space group: P 2/M
;
_chemical_formula_sum "Si O2"
_cell_formula_units_Z 32
_cell_length_a 26.334667
_cell_length_b 7.927844
_cell_length_c 20.558508
_cell_angle_alpha 90.000000
_cell_angle_beta 158.182793
_cell_angle_gamma 90.000000
_cell_volume 1595.161852
_symmetry_space_group_name_H-M "P 2/M"
_symmetry_group_IT_number 10
_symmetry_cell_setting 'monoclinic'
loop_
_space_group_symop_operation_xyz
x,y,z
-x,y,-z
-x,-y,-z
x,-y,z
loop_
_atom_site_type_symbol
_atom_site_label
_atom_site_fract_x
_atom_site_fract_y
_atom_site_fract_z
Si Si1 0.099874 0.303514 0.375656
Si Si2 0.843088 0.205035 0.806094
Si Si3 0.918961 0.706299 0.501371
Si Si4 0.206719 0.197647 0.001270
Si Si5 0.594382 0.797607 0.875637
Si Si6 0.794151 0.296945 0.219892
Si Si7 0.291513 0.800588 0.487473
Si Si8 0.651892 0.700396 0.698834
O O1 0.136834 0.500000 0.420280
O O2 0.117601 0.234442 0.470064
O O3 0.191368 0.220692 0.429248
O O4 0.939607 0.285828 0.169020
O O5 0.777143 0.267232 0.660060
O O6 0.752560 0.263703 0.758808
O O7 0.843443 0.000000 0.806420
O O8 0.000000 0.260361 0.000000
O O9 0.920408 0.500000 0.504755
O O10 0.819674 0.758583 0.324461
O O11 0.072090 0.759047 0.662250
O O12 0.299799 0.266303 0.053207
O O13 0.289301 0.216994 0.166207
O O14 0.179399 0.000000 0.957086
O O15 0.442121 0.730727 0.682161
O O16 0.590284 0.000000 0.863932
O O17 0.658660 0.758969 0.022083
O O18 0.796565 0.500000 0.223037
O O19 0.308657 0.000000 0.496592
O O20 0.500000 0.761361 0.500000
O O21 0.644819 0.500000 0.702000
#
# Coordination Sequence:
#
# PCOD9151999 Si02
#       8
#     4   4   4   4   4   4   4   4
#     4  11  21  36  58  86 114 143 184 233 279 327
#     4  10  21  39  62  83 106 146 194 232 276 337
#     4   8  16  31  54  83 112 143 181 229 281 327
#     4  11  22  37  59  84 111 146 186 227 277 335
#     4  10  21  36  54  81 115 150 188 229 276 330
#     4   9  16  32  57  81 109 146 185 229 278 328
#     4  10  22  39  56  79 116 153 185 227 279 337
#     4  11  24  39  57  85 116 143 180 233 284 329
#
# _framework density 20.060661
#
# number of rings (size 3 to 8) (size 9 to 14) (size 15 to 20)
#    0.000    2.000    1.250    3.375    0.000    4.750 
#    0.000    3.125    0.000    3.750    0.000    0.000 
#    0.000    0.000    0.000    0.000    0.000    0.000 
#
# Total GULP energy -178728.067048 kJ/mol
# GULP energy per Si atom -5585.252095 kJ/mol
# Density = 2.001500 g / cm^3
# Si number density = 20.060661 Si / 1000 Ang^3
#
#
#
# Elastic Constant Matrix: (Units=GPa)
#
#
# Indices 1 2 3 4 5 6 
#
# 1 63.7776 -10.6178 47.7473 0.0000 -16.3313 0.0000
# 2 -10.6178 17.3225 -3.0889 0.0000 -0.5254 0.0000
# 3 47.7473 -3.0889 148.2260 0.0000 -10.0925 0.0000
# 4 0.0000 0.0000 0.0000 18.2273 0.0000 -11.8535
# 5 -16.3313 -0.5254 -10.0925 0.0000 36.9918 0.0000
# 6 0.0000 0.0000 0.0000 -11.8535 0.0000 -0.4772
#
#
#
# Elastic Compliance Matrix: (Units=1/GPa)
#
#
# Indices 1 2 3 4 5 6 
#
# 1 0.026306 0.015085 -0.007493 0.000000 0.009784 0.000000
# 2 0.015085 0.066644 -0.003008 0.000000 0.006785 0.000000
# 3 -0.007493 -0.003008 0.009037 0.000000 -0.000885 0.000000
# 4 0.000000 0.000000 0.000000 0.003199 0.000000 -0.079445
# 5 0.009784 0.006785 -0.000885 0.000000 0.031207 0.000000
# 6 0.000000 0.000000 0.000000 -0.079445 0.000000 -0.122164
#
#
# Mechanical properties :
#
#
# Convention : Reuss Voigt Hill
#
# Bulk Modulus (GPa) = 8.99661 33.04527 21.02094
# Shear Modulus (GPa) = 118.72583 23.96741 71.34662
#
# Velocity S-wave (km/s) = 7.70142 3.46026 5.97015
# Velocity P-wave (km/s) = 9.14204 5.69851 7.61741
#
# Compressibility (1/GPa) = 0.11115301
#
# Stress axis : x y z
#
# Youngs Moduli (GPa) = 38.01423 15.00516 110.65287
#
# Poissons Ratio (x) = -0.22635 0.82916
# Poissons Ratio (y) = -0.57343 0.33288
# Poissons Ratio (z) = 0.28485 0.04514
#
# Static dielectric constant tensor:
#      x y z
#    x 1.680310 0.000000 -0.018290 
#    y 0.000000 1.722500 0.000000 
#    z -0.018290 0.000000 1.698970 
# 
# From -- ./inp_files/87001.got.cif
#   From: 2010.05.17/outbox.cif.g08.bks.cpg/sg10_44_cif.got.tgz:87001.got - 2010.06.03 11:33:40.
