data_PCOD9151545
_publ_section_title
;
Structure prediction by ZEFSAII (Michael W. Deem and Ramdas Pophale) SiO2 
 PCOD9151545
Probable space group: P 2/M
;
_chemical_formula_sum "Si O2"
_cell_formula_units_Z 28
_cell_length_a 28.037698
_cell_length_b 7.885601
_cell_length_c 9.645636
_cell_angle_alpha 90.000000
_cell_angle_beta 38.440621
_cell_angle_gamma 90.000000
_cell_volume 1325.840104
_symmetry_space_group_name_H-M "P 2/M"
_symmetry_group_IT_number 10
_symmetry_cell_setting 'monoclinic'
loop_
_space_group_symop_operation_xyz
x,y,z
-x,y,-z
-x,-y,-z
x,-y,z
loop_
_atom_site_type_symbol
_atom_site_label
_atom_site_fract_x
_atom_site_fract_y
_atom_site_fract_z
Si Si1 0.440812 0.303104 0.261462
Si Si2 0.721006 0.295997 0.486473
Si Si3 0.456245 0.805132 0.730223
Si Si4 0.286626 0.697961 0.185271
Si Si5 0.849403 0.799689 0.688838
Si Si6 0.989178 0.792380 0.183637
Si Si7 0.864321 0.795102 0.969392
O O1 0.431165 0.500000 0.328386
O O2 0.359153 0.235154 0.396318
O O3 0.482352 0.202445 0.287166
O O4 0.500000 0.303199 0.000000
O O5 0.713509 0.500000 0.515180
O O6 0.731344 0.230566 0.620133
O O7 0.790867 0.254480 0.227301
O O8 0.500000 0.727078 0.500000
O O9 0.436145 0.000000 0.743288
O O10 0.377106 0.717808 0.952773
O O11 0.267250 0.500000 0.229215
O O12 0.234765 0.777544 0.183620
O O13 0.911191 0.733664 0.436257
O O14 0.864909 0.000000 0.664832
O O15 0.858838 0.730589 0.823442
O O16 0.988466 0.000000 0.180796
O O17 0.000000 0.735243 0.000000
O O18 0.059879 0.739690 0.120413
O O19 0.866652 0.000000 0.958888
#
# Coordination Sequence:
#
# PCOD9151545 Si02
#       7
#     4   4   4   4   4   4   4
#     4  10  20  40  63  84 113 153 198 241 289 343
#     4  10  22  39  59  84 115 151 195 243 287 341
#     4  11  25  41  59  87 120 150 191 244 294 343
#     4  11  23  41  61  83 114 155 198 237 289 348
#     4  10  21  37  58  87 122 152 190 241 288 339
#     4   9  17  33  59  87 116 154 195 233 283 344
#     4  10  21  36  58  88 120 154 190 235 291 345
#
# _framework density 21.118686
#
# number of rings (size 3 to 8) (size 9 to 14) (size 15 to 20)
#    0.000    1.857    1.429    2.143    2.000    6.571 
#    0.000    0.714    0.000    4.286    0.000    0.000 
#    0.000    0.000    0.000    0.000    0.000    0.000 
#
# Total GULP energy -156403.764619 kJ/mol
# GULP energy per Si atom -5585.848736 kJ/mol
# Density = 2.107062 g / cm^3
# Si number density = 21.118686 Si / 1000 Ang^3
#
#
#
# Elastic Constant Matrix: (Units=GPa)
#
#
# Indices 1 2 3 4 5 6 
#
# 1 151.0940 3.0599 48.9725 0.0000 19.2964 0.0000
# 2 3.0599 13.9966 9.8851 0.0000 2.1577 0.0000
# 3 48.9725 9.8851 85.5198 0.0000 29.4026 0.0000
# 4 0.0000 0.0000 0.0000 40.4664 0.0000 -47.5277
# 5 19.2964 2.1577 29.4026 0.0000 37.3824 0.0000
# 6 0.0000 0.0000 0.0000 -47.5277 0.0000 55.2776
#
#
#
# Elastic Compliance Matrix: (Units=1/GPa)
#
#
# Indices 1 2 3 4 5 6 
#
# 1 0.008174 0.001590 -0.004636 0.000000 -0.000665 0.000000
# 2 0.001590 0.078449 -0.011156 0.000000 0.003426 0.000000
# 3 -0.004636 -0.011156 0.020002 0.000000 -0.012696 0.000000
# 4 0.000000 0.000000 0.000000 -2.513204 0.000000 -2.160852
# 5 -0.000665 0.003426 -0.012696 0.000000 0.036881 0.000000
# 6 0.000000 0.000000 0.000000 -2.160852 0.000000 -1.839810
#
#
# Mechanical properties :
#
#
# Convention : Reuss Voigt Hill
#
# Bulk Modulus (GPa) = 12.78435 41.60502 27.19469
# Shear Modulus (GPa) = -1.20336 39.20480 19.00072
#
# Velocity S-wave (km/s) = -0.75568 4.31327 3.00277
# Velocity P-wave (km/s) = 2.30333 6.67451 4.99272
#
# Compressibility (1/GPa) = 0.07822062
#
# Stress axis : x y z
#
# Youngs Moduli (GPa) = 122.34435 12.74713 49.99436
#
# Poissons Ratio (x) = -0.02026 0.23176
# Poissons Ratio (y) = -0.19448 0.55773
# Poissons Ratio (z) = 0.56717 0.14221
#
# Static dielectric constant tensor:
#      x y z
#    x 1.652250 0.000000 0.008970 
#    y 0.000000 1.779240 0.000000 
#    z 0.008970 0.000000 1.732510 
# 
# From -- ./inp_files/37000.got.cif
#   From: 2010.05.17/outbox.cif.g08.bks.cpg/sg10_19_cif.got.tgz:37000.got - 2010.06.03 11:33:40.
