data_PCOD9151815
_publ_section_title
;
Structure prediction by ZEFSAII (Michael W. Deem and Ramdas Pophale) SiO2 
 PCOD9151815
Probable space group: P 2/M
;
_chemical_formula_sum "Si O2"
_cell_formula_units_Z 28
_cell_length_a 16.468357
_cell_length_b 8.764350
_cell_length_c 13.014598
_cell_angle_alpha 90.000000
_cell_angle_beta 55.515682
_cell_angle_gamma 90.000000
_cell_volume 1548.374927
_symmetry_space_group_name_H-M "P 2/M"
_symmetry_group_IT_number 10
_symmetry_cell_setting 'monoclinic'
loop_
_space_group_symop_operation_xyz
x,y,z
-x,y,-z
-x,-y,-z
x,-y,z
loop_
_atom_site_type_symbol
_atom_site_label
_atom_site_fract_x
_atom_site_fract_y
_atom_site_fract_z
Si Si1 0.989654 0.317460 0.326700
Si Si2 0.210168 0.817424 0.450035
Si Si3 0.211303 0.682842 0.235009
Si Si4 0.949594 0.183024 0.928590
Si Si5 0.591815 0.184515 0.295729
Si Si6 0.737868 0.682851 0.028540
Si Si7 0.632080 0.185200 0.495516
O O1 0.983191 0.500000 0.329043
O O2 0.897899 0.250182 0.453165
O O3 0.095924 0.277772 0.299080
O O4 0.991873 0.252022 0.209801
O O5 0.246664 0.763858 0.312471
O O6 0.282756 0.762772 0.488906
O O7 0.205448 0.000000 0.456771
O O8 0.217339 0.500000 0.243736
O O9 0.265713 0.724562 0.089853
O O10 0.947978 0.000000 0.921048
O O11 0.838840 0.246183 0.000093
O O12 0.000000 0.224271 0.000000
O O13 0.648060 0.257584 0.160488
O O14 0.640185 0.231795 0.370461
O O15 0.476750 0.227550 0.386538
O O16 0.597542 0.000000 0.284532
O O17 0.745175 0.500000 0.028541
O O18 0.634126 0.000000 0.493240
#
# Coordination Sequence:
#
# PCOD9151815 Si02
#       7
#     4   4   4   4   4   4   4
#     4  10  21  36  53  75 108 147 180 215 266 319
#     4  11  21  33  54  82 109 136 181 230 267 312
#     4   9  20  38  53  71 106 147 181 215 263 321
#     4  10  21  35  52  77 108 141 180 220 257 311
#     4   9  17  36  61  78 103 142 178 213 268 327
#     4  10  21  36  55  79 108 140 176 220 269 319
#     4   8  18  35  55  81 108 136 173 222 270 317
#
# _framework density 18.083476000000001
#
# number of rings (size 3 to 8) (size 9 to 14) (size 15 to 20)
#    0.000    2.429    0.000    3.857    2.000    6.286 
#    0.000    4.286    0.000    4.286    0.000    0.000 
#    0.000    0.000    0.000    0.000    0.000    0.000 
#
# Total GULP energy -156254.222256 kJ/mol
# GULP energy per Si atom -5580.507938 kJ/mol
# Density = 1.804232 g / cm^3
# Si number density = 18.083476 Si / 1000 Ang^3
#
#
#
# Elastic Constant Matrix: (Units=GPa)
#
#
# Indices 1 2 3 4 5 6 
#
# 1 43.3949 17.3113 38.1296 0.0000 14.3400 0.0000
# 2 17.3113 28.6917 23.7336 0.0000 5.0765 0.0000
# 3 38.1296 23.7336 120.7856 0.0000 2.2411 0.0000
# 4 0.0000 0.0000 0.0000 41.8914 0.0000 31.7295
# 5 14.3400 5.0765 2.2411 0.0000 19.5670 0.0000
# 6 0.0000 0.0000 0.0000 31.7295 0.0000 35.3795
#
#
#
# Elastic Compliance Matrix: (Units=1/GPa)
#
#
# Indices 1 2 3 4 5 6 
#
# 1 0.050124 -0.014390 -0.012410 0.000000 -0.031579 0.000000
# 2 -0.014390 0.047747 -0.004815 0.000000 -0.001290 0.000000
# 3 -0.012410 -0.004815 0.012978 0.000000 0.008857 0.000000
# 4 0.000000 0.000000 0.000000 0.074431 0.000000 -0.066752
# 5 -0.031579 -0.001290 0.008857 0.000000 0.073570 0.000000
# 6 0.000000 0.000000 0.000000 -0.066752 0.000000 0.088130
#
#
# Mechanical properties :
#
#
# Convention : Reuss Voigt Hill
#
# Bulk Modulus (GPa) = 20.99979 39.02456 30.01218
# Shear Modulus (GPa) = 11.73477 26.94743 19.34110
#
# Velocity S-wave (km/s) = 2.55016 3.86446 3.27394
# Velocity P-wave (km/s) = 4.50655 6.44509 5.56094
#
# Compressibility (1/GPa) = 0.04761952
#
# Stress axis : x y z
#
# Youngs Moduli (GPa) = 19.95042 20.94363 77.05071
#
# Poissons Ratio (x) = 0.30138 0.95618
# Poissons Ratio (y) = 0.28709 0.37103
# Poissons Ratio (z) = 0.24758 0.10085
#
# Static dielectric constant tensor:
#      x y z
#    x 1.613450 0.000000 0.012020 
#    y 0.000000 1.606190 0.000000 
#    z 0.012020 0.000000 1.620630 
# 
# From -- ./inp_files/49634.got.cif
#   From: 2010.05.17/outbox.cif.g08.bks.cpg/sg10_25_cif.got.tgz:49634.got - 2010.06.03 11:33:40.
