data_PCOD9151916
_publ_section_title
;
Structure prediction by ZEFSAII (Michael W. Deem and Ramdas Pophale) SiO2 
 PCOD9151916
Probable space group: P 2/M
;
_chemical_formula_sum "Si O2"
_cell_formula_units_Z 26
_cell_length_a 10.161241
_cell_length_b 16.231674
_cell_length_c 9.044103
_cell_angle_alpha 90.000000
_cell_angle_beta 60.273107
_cell_angle_gamma 90.000000
_cell_volume 1295.372909
_symmetry_space_group_name_H-M "P 2/M"
_symmetry_group_IT_number 10
_symmetry_cell_setting 'monoclinic'
loop_
_space_group_symop_operation_xyz
x,y,z
-x,y,-z
-x,-y,-z
x,-y,z
loop_
_atom_site_type_symbol
_atom_site_label
_atom_site_fract_x
_atom_site_fract_y
_atom_site_fract_z
Si Si1 0.629256 0.500000 0.114955
Si Si2 0.238451 0.902469 0.382961
Si Si3 0.307769 0.332703 0.747902
Si Si4 0.011067 0.815290 0.685018
Si Si5 0.205620 0.665506 0.475030
Si Si6 0.000000 0.246601 0.000000
Si Si7 0.736603 0.500000 0.724398
Si Si8 0.458521 0.772234 0.195179
O O1 0.661783 0.418627 0.189896
O O2 0.446674 0.500000 0.195444
O O3 0.732136 0.500000 0.907080
O O4 0.163918 0.868608 0.576080
O O5 0.403243 0.863951 0.265509
O O6 0.121668 0.860661 0.330718
O O7 0.233776 0.000000 0.376104
O O8 0.303375 0.343373 0.572784
O O9 0.419028 0.265340 0.760216
O O10 0.141479 0.302614 0.882640
O O11 0.062645 0.722896 0.603100
O O12 0.963425 0.807908 0.878974
O O13 0.190272 0.578992 0.398873
O O14 0.308294 0.718373 0.306958
O O15 0.500000 0.765257 0.000000
#
# Coordination Sequence:
#
# PCOD9151916 Si02
#       8
#     2   4   4   4   4   2   2   4
#     4  11  23  34  58  85 121 156 197 246 284 328
#     4  10  21  39  63  88 117 150 189 237 292 354
#     4  11  22  38  59  85 115 161 196 242 288 342
#     4   9  19  38  62  88 114 156 190 235 288 349
#     4  10  21  35  60  84 117 157 201 234 288 339
#     4  10  22  39  61  86 118 152 200 236 287 341
#     4  11  21  37  54  92 120 155 200 243 283 331
#     4  11  21  35  59  86 115 150 194 241 289 343
#
# _framework density 20.071441
#
# number of rings (size 3 to 8) (size 9 to 14) (size 15 to 20)
#    0.000    1.692    1.538    3.692    0.000    3.692 
#    0.000    2.308    0.000   32.308    0.000    0.000 
#    0.000    0.000    0.000    0.000    0.000    0.000 
#
# Total GULP energy -145023.326442 kJ/mol
# GULP energy per Si atom -5577.820248 kJ/mol
# Density = 2.002576 g / cm^3
# Si number density = 20.071441 Si / 1000 Ang^3
#
#
#
# Elastic Constant Matrix: (Units=GPa)
#
#
# Indices 1 2 3 4 5 6 
#
# 1 45.9173 32.8063 11.9652 0.0000 -0.3682 0.0000
# 2 32.8063 155.3379 48.3852 0.0000 6.8051 0.0000
# 3 11.9652 48.3852 130.3928 0.0000 10.2503 0.0000
# 4 0.0000 0.0000 0.0000 8.9426 0.0000 -2.2574
# 5 -0.3682 6.8051 10.2503 0.0000 25.5227 0.0000
# 6 0.0000 0.0000 0.0000 -2.2574 0.0000 -7.3278
#
#
#
# Elastic Compliance Matrix: (Units=1/GPa)
#
#
# Indices 1 2 3 4 5 6 
#
# 1 0.025766 -0.005364 -0.000532 0.000000 0.002016 0.000000
# 2 -0.005364 0.008415 -0.002528 0.000000 -0.001306 0.000000
# 3 -0.000532 -0.002528 0.008884 0.000000 -0.002902 0.000000
# 4 0.000000 0.000000 0.000000 0.103756 0.000000 -0.031963
# 5 0.002016 -0.001306 -0.002902 0.000000 0.040723 0.000000
# 6 0.000000 0.000000 0.000000 -0.031963 0.000000 -0.126620
#
#
# Mechanical properties :
#
#
# Convention : Reuss Voigt Hill
#
# Bulk Modulus (GPa) = 38.14390 57.55125 47.84758
# Shear Modulus (GPa) = 57.79643 21.32693 39.56168
#
# Velocity S-wave (km/s) = 5.37195 3.26322 4.44446
# Velocity P-wave (km/s) = 7.58436 6.55237 7.08717
#
# Compressibility (1/GPa) = 0.02621651
#
# Stress axis : x y z
#
# Youngs Moduli (GPa) = 38.81151 118.83602 112.56130
#
# Poissons Ratio (x) = 0.63743 0.05992
# Poissons Ratio (y) = 0.20818 0.28452
# Poissons Ratio (z) = 0.02066 0.30038
#
# Static dielectric constant tensor:
#      x y z
#    x 1.771570 0.000000 0.015900 
#    y 0.000000 1.715220 0.000000 
#    z 0.015900 0.000000 1.750270 
# 
# From -- ./inp_files/24853.got.cif
#   From: 2010.05.17/outbox.cif.g08.bks.cpg/sg10_13_cif.got.tgz:24853.got - 2010.06.03 11:33:40.
