data_PCOD9151259
_publ_section_title
;
Structure prediction by ZEFSAII (Michael W. Deem and Ramdas Pophale) SiO2 
 PCOD9151259
Probable space group: P 2/M
;
_chemical_formula_sum "Si O2"
_cell_formula_units_Z 20
_cell_length_a 12.291063
_cell_length_b 10.940540
_cell_length_c 10.197273
_cell_angle_alpha 90.000000
_cell_angle_beta 138.054247
_cell_angle_gamma 90.000000
_cell_volume 916.570852
_symmetry_space_group_name_H-M "P 2/M"
_symmetry_group_IT_number 10
_symmetry_cell_setting 'monoclinic'
loop_
_space_group_symop_operation_xyz
x,y,z
-x,y,-z
-x,-y,-z
x,-y,z
loop_
_atom_site_type_symbol
_atom_site_label
_atom_site_fract_x
_atom_site_fract_y
_atom_site_fract_z
Si Si1 0.098815 0.365122 0.863143
Si Si2 0.361254 0.865352 0.653422
Si Si3 0.599597 0.299180 0.706889
Si Si4 0.836583 0.863899 0.267855
Si Si5 0.863390 0.814171 0.779460
O O1 0.066956 0.500000 0.777425
O O2 0.144140 0.252320 0.808364
O O3 0.944290 0.315023 0.806730
O O4 0.257487 0.372516 0.096669
O O5 0.478587 0.761173 0.703022
O O6 0.305513 0.845713 0.752437
O O7 0.201017 0.867630 0.415259
O O8 0.437490 0.000000 0.711949
O O9 0.500000 0.360981 0.500000
O O10 0.701531 0.195097 0.721140
O O11 0.000000 0.868307 0.500000
O O12 0.817185 0.000000 0.188438
O O13 0.000000 0.867353 0.000000
#
# Coordination Sequence:
#
# PCOD9151259 Si02
#       5
#     4   4   4   4   4
#     4  11  23  40  65  94 124 163 214 259 305 368
#     4  10  20  38  61  88 125 167 207 253 314 374
#     4   9  21  39  59  88 126 161 203 253 311 369
#     4  10  21  40  65  91 125 164 208 258 312 370
#     4   9  19  36  58  88 122 157 204 255 308 366
#
# _framework density 21.820461999999999
#
# number of rings (size 3 to 8) (size 9 to 14) (size 15 to 20)
#    0.000    2.200    2.000    0.000    0.000   10.000 
#    0.000   13.000    0.000    0.000    0.000    0.000 
#    0.000    0.000    0.000    0.000    0.000    0.000 
#
# Total GULP energy -111434.674969 kJ/mol
# GULP energy per Si atom -5571.733748 kJ/mol
# Density = 2.177080 g / cm^3
# Si number density = 21.820462 Si / 1000 Ang^3
#
#
#
# Elastic Constant Matrix: (Units=GPa)
#
#
# Indices 1 2 3 4 5 6 
#
# 1 106.3781 53.6956 0.0021 0.0000 4.8771 0.0000
# 2 53.6956 142.6843 11.3370 0.0000 -5.4513 0.0000
# 3 0.0021 11.3370 74.8398 0.0000 11.8431 0.0000
# 4 0.0000 0.0000 0.0000 -1.4620 0.0000 -10.1765
# 5 4.8771 -5.4513 11.8431 0.0000 27.7622 0.0000
# 6 0.0000 0.0000 0.0000 -10.1765 0.0000 -35.7504
#
#
#
# Elastic Compliance Matrix: (Units=1/GPa)
#
#
# Indices 1 2 3 4 5 6 
#
# 1 0.011956 -0.004738 0.001284 0.000000 -0.003578 0.000000
# 2 -0.004738 0.009075 -0.001918 0.000000 0.003432 0.000000
# 3 0.001284 -0.001918 0.014743 0.000000 -0.006891 0.000000
# 4 0.000000 0.000000 0.000000 0.696949 0.000000 -0.198389
# 5 -0.003578 0.003432 -0.006891 0.000000 0.040262 0.000000
# 6 0.000000 0.000000 0.000000 -0.198389 0.000000 0.028501
#
#
# Mechanical properties :
#
#
# Convention : Reuss Voigt Hill
#
# Bulk Modulus (GPa) = 39.95264 50.44127 45.19695
# Shear Modulus (GPa) = 6.09330 15.36781 10.73056
#
# Velocity S-wave (km/s) = 1.67288 2.65671 2.21999
# Velocity P-wave (km/s) = 4.69903 5.70767 5.22773
#
# Compressibility (1/GPa) = 0.02502964
#
# Stress axis : x y z
#
# Youngs Moduli (GPa) = 83.63972 110.19239 67.82951
#
# Poissons Ratio (x) = 0.52210 -0.08707
# Poissons Ratio (y) = 0.39629 0.13008
# Poissons Ratio (z) = -0.10736 0.21132
#
# Static dielectric constant tensor:
#      x y z
#    x 1.805890 0.000000 -0.016230 
#    y 0.000000 1.804360 0.000000 
#    z -0.016230 0.000000 1.847710 
# 
# From -- ./inp_files/23575.got.cif
#   From: 2010.05.17/outbox.cif.g08.bks.cpg/sg10_12_cif.got.tgz:23575.got - 2010.06.03 11:33:40.
