data_PCOD9151738
_publ_section_title
;
Structure prediction by ZEFSAII (Michael W. Deem and Ramdas Pophale) SiO2 
 PCOD9151738
Probable space group: P 2/M
;
_chemical_formula_sum "Si O2"
_cell_formula_units_Z 18
_cell_length_a 19.986846
_cell_length_b 9.186001
_cell_length_c 8.924625
_cell_angle_alpha 90.000000
_cell_angle_beta 153.259764
_cell_angle_gamma 90.000000
_cell_volume 737.261195
_symmetry_space_group_name_H-M "P 2/M"
_symmetry_group_IT_number 10
_symmetry_cell_setting 'monoclinic'
loop_
_space_group_symop_operation_xyz
x,y,z
-x,y,-z
-x,-y,-z
x,-y,z
loop_
_atom_site_type_symbol
_atom_site_label
_atom_site_fract_x
_atom_site_fract_y
_atom_site_fract_z
Si Si1 0.724907 0.000000 0.749104
Si Si2 0.246263 0.750000 0.992529
Si Si3 0.300722 0.000000 0.659228
Si Si4 0.275094 0.500000 0.849485
Si Si5 0.917753 0.000000 0.522959
Si Si6 0.500000 0.250000 0.000000
Si Si7 0.917754 0.500000 0.148051
Si Si8 0.699283 0.500000 0.456342
O O1 0.669153 0.141449 0.726382
O O2 0.905364 0.000000 0.125973
O O3 0.703429 0.000000 0.529115
O O4 0.330846 0.641450 0.049777
O O5 0.148539 0.641849 0.901544
O O6 0.148537 0.858150 0.692614
O O7 0.147030 0.000000 0.438611
O O8 0.394454 0.143892 0.884128
O O9 0.296573 0.500000 0.715411
O O10 0.094637 0.500000 0.504524
O O11 0.394449 0.356109 0.693681
O O12 0.852977 0.500000 0.850498
#
# Coordination Sequence:
#
# PCOD9151738 Si02
#       8
#     2   4   2   2   2   2   2   2
#     4  11  20  36  60  92 119 148 183 233 290 347
#     4  10  21  34  56  89 130 153 170 218 303 362
#     4  11  23  40  64  82 111 151 204 242 274 335
#     4  11  20  36  60  92 119 148 183 233 290 347
#     4  11  20  36  60  92 119 148 183 233 290 347
#     4  10  24  42  58  80 112 158 196 242 292 318
#     4  11  20  36  60  92 119 148 183 233 290 347
#     4  11  23  40  64  82 111 151 204 242 274 335
#
# _framework density 24.414684999999999
#
# number of rings (size 3 to 8) (size 9 to 14) (size 15 to 20)
#    0.000    1.333    0.000    8.667    0.000    0.000 
#    0.000    6.667    0.000   93.333    0.000    0.000 
#    0.000    0.000    0.000    0.000    0.000    0.000 
#
# Total GULP energy -100729.191958 kJ/mol
# GULP energy per Si atom -5596.066220 kJ/mol
# Density = 2.435912 g / cm^3
# Si number density = 24.414685 Si / 1000 Ang^3
#
#
#
# Elastic Constant Matrix: (Units=GPa)
#
#
# Indices 1 2 3 4 5 6 
#
# 1 133.1774 45.7897 36.9973 0.0000 -39.7483 0.0000
# 2 45.7897 186.0667 25.3771 0.0000 -18.4836 0.0000
# 3 36.9973 25.3771 58.5720 0.0000 -27.8134 0.0000
# 4 0.0000 0.0000 0.0000 12.4662 0.0000 -11.0052
# 5 -39.7483 -18.4836 -27.8134 0.0000 36.9463 0.0000
# 6 0.0000 0.0000 0.0000 -11.0052 0.0000 24.6221
#
#
#
# Elastic Compliance Matrix: (Units=1/GPa)
#
#
# Indices 1 2 3 4 5 6 
#
# 1 0.011651 -0.001596 -0.001704 0.000000 0.010453 0.000000
# 2 -0.001596 0.005988 -0.001524 0.000000 0.000131 0.000000
# 3 -0.001704 -0.001524 0.027356 0.000000 0.017998 0.000000
# 4 0.000000 0.000000 0.000000 0.132499 0.000000 0.059222
# 5 0.010453 0.000131 0.017998 0.000000 0.051927 0.000000
# 6 0.000000 0.000000 0.000000 0.059222 0.000000 0.067084
#
#
# Mechanical properties :
#
#
# Convention : Reuss Voigt Hill
#
# Bulk Modulus (GPa) = 28.29095 66.01605 47.15350
# Shear Modulus (GPa) = 15.72644 32.78371 24.25507
#
# Velocity S-wave (km/s) = 2.54074 3.66838 3.15534
# Velocity P-wave (km/s) = 4.49666 6.71125 5.71231
#
# Compressibility (1/GPa) = 0.03534699
#
# Stress axis : x y z
#
# Youngs Moduli (GPa) = 85.83052 166.99685 36.55478
#
# Poissons Ratio (x) = 0.26660 0.06229
# Poissons Ratio (y) = 0.13702 0.05570
# Poissons Ratio (z) = 0.14625 0.25447
#
# Static dielectric constant tensor:
#      x y z
#    x 1.939570 0.000000 -0.018160 
#    y 0.000000 1.958570 0.000000 
#    z -0.018160 0.000000 1.919520 
# 
# From -- ./inp_files/34167.got.cif
#   From: 2010.05.17/outbox.cif.g08.bks.cpg/sg10_18_cif.got.tgz:34167.got - 2010.06.03 11:33:40.
