data_PCOD9151676
_publ_section_title
;
Structure prediction by ZEFSAII (Michael W. Deem and Ramdas Pophale) SiO2 
 PCOD9151676
Probable space group: P 2/M
;
_chemical_formula_sum "Si O2"
_cell_formula_units_Z 24
_cell_length_a 20.155510
_cell_length_b 10.400308
_cell_length_c 6.786384
_cell_angle_alpha 90.000000
_cell_angle_beta 132.547295
_cell_angle_gamma 90.000000
_cell_volume 1048.046469
_symmetry_space_group_name_H-M "P 2/M"
_symmetry_group_IT_number 10
_symmetry_cell_setting 'monoclinic'
loop_
_space_group_symop_operation_xyz
x,y,z
-x,y,-z
-x,-y,-z
x,-y,z
loop_
_atom_site_type_symbol
_atom_site_label
_atom_site_fract_x
_atom_site_fract_y
_atom_site_fract_z
Si Si1 0.732574 0.642517 0.888038
Si Si2 0.594470 0.646099 0.079760
Si Si3 0.395191 0.853030 0.236350
Si Si4 0.787407 0.638863 0.466351
Si Si5 0.081727 0.855341 0.368812
Si Si6 0.920108 0.741361 0.222971
O O1 0.696423 0.500000 0.769970
O O2 0.663582 0.761745 0.737850
O O3 0.759525 0.637329 0.176845
O O4 0.829949 0.668641 0.984989
O O5 0.591434 0.500000 0.982729
O O6 0.691304 0.648345 0.383635
O O7 0.500000 0.656831 0.000000
O O8 0.602614 0.769802 0.958039
O O9 0.500000 0.859800 0.500000
O O10 0.360724 0.000000 0.151695
O O11 0.829763 0.500000 0.592418
O O12 0.853428 0.757203 0.609661
O O13 0.105440 0.841268 0.652867
O O14 0.977532 0.811280 0.170232
O O15 0.093121 0.000000 0.328150
O O16 0.000000 0.662098 0.500000
#
# Coordination Sequence:
#
# PCOD9151676 Si02
#       6
#     4   4   4   4   4   4
#     4   9  16  26  41  60  81 115 154 187 226 270
#     4   9  18  32  49  69  91 117 154 198 239 278
#     4  10  21  34  47  66  94 127 160 194 233 276
#     4   8  14  23  35  54  80 109 137 174 221 264
#     4   8  13  20  31  48  74 109 142 169 205 261
#     4   7  14  21  31  54  81 109 139 179 217 268
#
# _framework density 22.899750000000001
#
# number of rings (size 3 to 8) (size 9 to 14) (size 15 to 20)
#    1.000    2.333    0.000    2.500    0.000    9.333 
#    0.000    0.000    0.000    0.000    0.000    0.000 
#    0.000    1.333    0.000   12.667    0.000    4.833 
#
# Total GULP energy -133603.200378 kJ/mol
# GULP energy per Si atom -5566.800016 kJ/mol
# Density = 2.284763 g / cm^3
# Si number density = 22.899750 Si / 1000 Ang^3
#
#
#
# Elastic Constant Matrix: (Units=GPa)
#
#
# Indices 1 2 3 4 5 6 
#
# 1 110.3551 78.1555 27.7861 0.0000 37.3297 0.0000
# 2 78.1555 234.6904 70.2055 0.0000 39.7423 0.0000
# 3 27.7861 70.2055 78.5261 0.0000 29.0984 0.0000
# 4 0.0000 0.0000 0.0000 22.8284 0.0000 8.2357
# 5 37.3297 39.7423 29.0984 0.0000 47.3771 0.0000
# 6 0.0000 0.0000 0.0000 8.2357 0.0000 19.5217
#
#
#
# Elastic Compliance Matrix: (Units=1/GPa)
#
#
# Indices 1 2 3 4 5 6 
#
# 1 0.014414 -0.003731 0.001663 0.000000 -0.009248 0.000000
# 2 -0.003731 0.006962 -0.004958 0.000000 0.000145 0.000000
# 3 0.001663 -0.004958 0.020097 0.000000 -0.009495 0.000000
# 4 0.000000 0.000000 0.000000 0.051669 0.000000 -0.021798
# 5 -0.009248 0.000145 -0.009495 0.000000 0.034104 0.000000
# 6 0.000000 0.000000 0.000000 -0.021798 0.000000 0.060421
#
#
# Mechanical properties :
#
#
# Convention : Reuss Voigt Hill
#
# Bulk Modulus (GPa) = 36.46932 86.20730 61.33831
# Shear Modulus (GPa) = 23.71238 34.44041 29.07640
#
# Velocity S-wave (km/s) = 3.22139 3.88231 3.56719
# Velocity P-wave (km/s) = 5.45863 7.60419 6.61892
#
# Compressibility (1/GPa) = 0.02742031
#
# Stress axis : x y z
#
# Youngs Moduli (GPa) = 69.37664 143.63560 49.75874
#
# Poissons Ratio (x) = 0.53596 -0.08273
# Poissons Ratio (y) = 0.25887 0.24669
# Poissons Ratio (z) = -0.11535 0.71211
#
# Static dielectric constant tensor:
#      x y z
#    x 2.022720 0.000000 -0.083390 
#    y 0.000000 1.792320 0.000000 
#    z -0.083390 0.000000 1.960690 
# 
# From -- ./inp_files/57319.got.cif
#   From: 2010.05.17/outbox.cif.g08.bks.cpg/sg10_29_cif.got.tgz:57319.got - 2010.06.03 11:33:40.
