data_PCOD9151211
_publ_section_title
;
Structure prediction by ZEFSAII (Michael W. Deem and Ramdas Pophale) SiO2 
 PCOD9151211
Probable space group: P 2/M
;
_chemical_formula_sum "Si O2"
_cell_formula_units_Z 22
_cell_length_a 12.047830
_cell_length_b 11.488390
_cell_length_c 8.906270
_cell_angle_alpha 90.000000
_cell_angle_beta 63.831659
_cell_angle_gamma 90.000000
_cell_volume 1106.367410
_symmetry_space_group_name_H-M "P 2/M"
_symmetry_group_IT_number 10
_symmetry_cell_setting 'monoclinic'
loop_
_space_group_symop_operation_xyz
x,y,z
-x,y,-z
-x,-y,-z
x,-y,z
loop_
_atom_site_type_symbol
_atom_site_label
_atom_site_fract_x
_atom_site_fract_y
_atom_site_fract_z
Si Si1 0.046982 0.500000 0.741160
Si Si2 0.855670 0.744713 0.600292
Si Si3 0.182837 0.500000 0.343413
Si Si4 0.683033 0.140049 0.492798
Si Si5 0.188848 0.137282 0.069025
Si Si6 0.426600 0.859916 0.765650
Si Si7 0.000000 0.701352 0.000000
O O1 0.137785 0.500000 0.545130
O O2 0.055233 0.386520 0.841418
O O3 0.914963 0.500000 0.735956
O O4 0.771868 0.632615 0.692970
O O5 0.806121 0.800366 0.477564
O O6 0.844734 0.837487 0.739460
O O7 0.000000 0.709143 0.500000
O O8 0.641346 0.171761 0.350053
O O9 0.568626 0.177817 0.668734
O O10 0.696146 0.000000 0.490292
O O11 0.174209 0.000000 0.042472
O O12 0.331999 0.171238 0.952837
O O13 0.101481 0.216610 0.017644
O O14 0.435202 0.000000 0.760670
#
# Coordination Sequence:
#
# PCOD9151211 Si02
#       7
#     2   4   2   4   4   4   2
#     4  10  20  38  60  72 106 156 201 223 275 329
#     4  12  23  37  57  82 117 152 188 236 283 331
#     4  11  20  40  54  78 106 151 198 236 265 339
#     4   9  19  37  60  83 111 149 190 230 280 341
#     4  11  23  35  54  88 122 149 180 228 289 340
#     4   8  18  37  58  81 111 152 192 224 271 342
#     4  11  21  36  56  86 113 149 184 240 278 333
#
# _framework density 19.884896000000001
#
# number of rings (size 3 to 8) (size 9 to 14) (size 15 to 20)
#    0.000    1.818    3.636    1.909    5.091    2.182 
#    0.000    2.727    0.000    6.545    0.000    0.000 
#    0.000    0.000    0.000    0.000    0.000    0.000 
#
# Total GULP energy -122576.511356 kJ/mol
# GULP energy per Si atom -5571.659607 kJ/mol
# Density = 1.983964 g / cm^3
# Si number density = 19.884896 Si / 1000 Ang^3
#
#
#
# Elastic Constant Matrix: (Units=GPa)
#
#
# Indices 1 2 3 4 5 6 
#
# 1 49.2038 22.0559 4.2785 0.0000 3.2603 0.0000
# 2 22.0559 89.3710 11.8061 0.0000 4.1220 0.0000
# 3 4.2785 11.8061 54.2023 0.0000 -1.1745 0.0000
# 4 0.0000 0.0000 0.0000 25.9852 0.0000 9.5743
# 5 3.2603 4.1220 -1.1745 0.0000 23.1288 0.0000
# 6 0.0000 0.0000 0.0000 9.5743 0.0000 4.7452
#
#
#
# Elastic Compliance Matrix: (Units=1/GPa)
#
#
# Indices 1 2 3 4 5 6 
#
# 1 0.022990 -0.005479 -0.000671 0.000000 -0.002298 0.000000
# 2 -0.005479 0.012938 -0.002421 0.000000 -0.001656 0.000000
# 3 -0.000671 -0.002421 0.019062 0.000000 0.001494 0.000000
# 4 0.000000 0.000000 0.000000 0.149988 0.000000 -0.302630
# 5 -0.002298 -0.001656 0.001494 0.000000 0.043931 0.000000
# 6 0.000000 0.000000 0.000000 -0.302630 0.000000 0.821358
#
#
# Mechanical properties :
#
#
# Convention : Reuss Voigt Hill
#
# Bulk Modulus (GPa) = 26.42226 29.89537 28.15881
# Shear Modulus (GPa) = 4.54535 21.08094 12.81315
#
# Velocity S-wave (km/s) = 1.51354 3.25952 2.54119
# Velocity P-wave (km/s) = 4.04609 5.40674 4.77513
#
# Compressibility (1/GPa) = 0.03784688
#
# Stress axis : x y z
#
# Youngs Moduli (GPa) = 43.49657 77.29301 52.45989
#
# Poissons Ratio (x) = 0.42350 0.03521
# Poissons Ratio (y) = 0.23832 0.12703
# Poissons Ratio (z) = 0.02919 0.18716
#
# Static dielectric constant tensor:
#      x y z
#    x 1.697690 0.000000 -0.025340 
#    y 0.000000 1.698300 0.000000 
#    z -0.025340 0.000000 1.743440 
# 
# From -- ./inp_files/23973.got.cif
#   From: 2010.05.17/outbox.cif.g08.bks.cpg/sg10_12_cif.got.tgz:23973.got - 2010.06.03 11:33:40.
