data_PCOD9151711
_publ_section_title
;
Structure prediction by ZEFSAII (Michael W. Deem and Ramdas Pophale) SiO2 
 PCOD9151711
Probable space group: P 2/M
;
_chemical_formula_sum "Si O2"
_cell_formula_units_Z 24
_cell_length_a 18.756322
_cell_length_b 7.912894
_cell_length_c 25.836649
_cell_angle_alpha 90.000000
_cell_angle_beta 20.410037
_cell_angle_gamma 90.000000
_cell_volume 1337.261330
_symmetry_space_group_name_H-M "P 2/M"
_symmetry_group_IT_number 10
_symmetry_cell_setting 'monoclinic'
loop_
_space_group_symop_operation_xyz
x,y,z
-x,y,-z
-x,-y,-z
x,-y,z
loop_
_atom_site_type_symbol
_atom_site_label
_atom_site_fract_x
_atom_site_fract_y
_atom_site_fract_z
Si Si1 0.372721 0.300281 0.877043
Si Si2 0.800486 0.000000 0.834810
Si Si3 0.986634 0.197883 0.950937
Si Si4 0.328605 0.000000 0.189588
Si Si5 0.273380 0.701702 0.661955
Si Si6 0.241850 0.302902 0.325895
Si Si7 0.917859 0.702345 0.827253
O O1 0.358600 0.500000 0.877067
O O2 0.609655 0.257604 0.726506
O O3 0.258904 0.267453 0.009359
O O4 0.234772 0.220293 0.925897
O O5 0.812237 0.000000 0.765241
O O6 0.889217 0.828844 0.799404
O O7 0.562416 0.000000 0.012490
O O8 0.156757 0.264557 0.795100
O O9 0.027062 0.000000 0.927485
O O10 0.000000 0.271200 0.000000
O O11 0.290992 0.832237 0.248496
O O12 0.500000 0.773354 0.500000
O O13 0.286622 0.500000 0.649001
O O14 0.123451 0.753172 0.717670
O O15 0.291162 0.500000 0.279165
O O16 0.000000 0.293962 0.500000
O O17 0.918414 0.500000 0.814987
#
# Coordination Sequence:
#
# PCOD9151711 Si02
#       7
#     4   2   4   2   4   4   4
#     4   9  18  33  56  80 101 139 185 221 266 318
#     4  11  22  34  55  82 108 145 180 217 281 327
#     4  10  21  34  52  82 114 143 177 222 274 326
#     4  11  23  36  54  82 111 142 177 225 280 325
#     4   9  19  35  56  80 105 141 185 226 271 321
#     4  10  21  38  59  82 108 143 187 229 272 324
#     4   9  18  34  55  80 109 142 185 227 261 320
#
# _framework density 17.947126999999998
#
# number of rings (size 3 to 8) (size 9 to 14) (size 15 to 20)
#    0.000    2.333    1.667    1.750    5.833    2.333 
#    0.000    3.333    0.000    6.000    0.000    0.000 
#    0.000    0.000    0.000    0.000    0.000    0.000 
#
# Total GULP energy -133693.046023 kJ/mol
# GULP energy per Si atom -5570.543584 kJ/mol
# Density = 1.790628 g / cm^3
# Si number density = 17.947127 Si / 1000 Ang^3
#
#
#
# Elastic Constant Matrix: (Units=GPa)
#
#
# Indices 1 2 3 4 5 6 
#
# 1 123.9048 36.2809 38.3862 0.0000 -15.2002 0.0000
# 2 36.2809 44.2711 14.2888 0.0000 -4.0887 0.0000
# 3 38.3862 14.2888 97.9461 0.0000 -26.1931 0.0000
# 4 0.0000 0.0000 0.0000 -15.2569 0.0000 -29.6798
# 5 -15.2002 -4.0887 -26.1931 0.0000 19.1565 0.0000
# 6 0.0000 0.0000 0.0000 -29.6798 0.0000 18.2624
#
#
#
# Elastic Compliance Matrix: (Units=1/GPa)
#
#
# Indices 1 2 3 4 5 6 
#
# 1 0.011807 -0.008557 -0.002147 0.000000 0.004606 0.000000
# 2 -0.008557 0.029910 -0.001763 0.000000 -0.002817 0.000000
# 3 -0.002147 -0.001763 0.016950 0.000000 0.021096 0.000000
# 4 0.000000 0.000000 0.000000 -0.015750 0.000000 -0.025597
# 5 0.004606 -0.002817 0.021096 0.000000 0.084101 0.000000
# 6 0.000000 0.000000 0.000000 -0.025597 0.000000 0.013158
#
#
# Mechanical properties :
#
#
# Convention : Reuss Voigt Hill
#
# Bulk Modulus (GPa) = 29.64543 49.33709 39.49126
# Shear Modulus (GPa) = 28.35215 16.24348 22.29781
#
# Velocity S-wave (km/s) = 3.97893 3.01171 3.52862
# Velocity P-wave (km/s) = 6.13704 6.29633 6.21719
#
# Compressibility (1/GPa) = 0.03373201
#
# Stress axis : x y z
#
# Youngs Moduli (GPa) = 84.69815 33.43383 58.99734
#
# Poissons Ratio (x) = 0.28611 0.12666
# Poissons Ratio (y) = 0.72479 0.10400
# Poissons Ratio (z) = 0.18184 0.05894
#
# Static dielectric constant tensor:
#      x y z
#    x 1.629290 0.000000 -0.028320 
#    y 0.000000 1.619490 0.000000 
#    z -0.028320 0.000000 1.648320 
# 
# From -- ./inp_files/75904.got.cif
#   From: 2010.05.17/outbox.cif.g08.bks.cpg/sg10_38_cif.got.tgz:75904.got - 2010.06.03 11:33:40.
