data_PCOD9151503
_publ_section_title
;
Structure prediction by ZEFSAII (Michael W. Deem and Ramdas Pophale) SiO2 
 PCOD9151503
Probable space group: P 2/M
;
_chemical_formula_sum "Si O2"
_cell_formula_units_Z 28
_cell_length_a 15.895270
_cell_length_b 8.490065
_cell_length_c 12.103032
_cell_angle_alpha 90.000000
_cell_angle_beta 120.283302
_cell_angle_gamma 90.000000
_cell_volume 1410.447250
_symmetry_space_group_name_H-M "P 2/M"
_symmetry_group_IT_number 10
_symmetry_cell_setting 'monoclinic'
loop_
_space_group_symop_operation_xyz
x,y,z
-x,y,-z
-x,-y,-z
x,-y,z
loop_
_atom_site_type_symbol
_atom_site_label
_atom_site_fract_x
_atom_site_fract_y
_atom_site_fract_z
Si Si1 0.347103 0.312650 0.633842
Si Si2 0.614939 0.188686 0.580590
Si Si3 0.997341 0.685891 0.331624
Si Si4 0.925494 0.692089 0.044208
Si Si5 0.472502 0.810894 0.107200
Si Si6 0.150346 0.183784 0.594184
Si Si7 0.702236 0.689287 0.868699
O O1 0.339949 0.500000 0.632931
O O2 0.340481 0.255915 0.502820
O O3 0.448252 0.257726 0.755191
O O4 0.259788 0.236429 0.645462
O O5 0.500000 0.227846 0.500000
O O6 0.661217 0.256583 0.722779
O O7 0.624533 0.000000 0.587843
O O8 0.021142 0.500000 0.348538
O O9 0.968540 0.736994 0.190793
O O10 0.904554 0.717056 0.348397
O O11 0.086951 0.780497 0.442779
O O12 0.923592 0.500000 0.039754
O O13 0.814029 0.743399 0.955291
O O14 0.000000 0.746655 0.000000
O O15 0.367490 0.755000 0.081051
O O16 0.476443 0.000000 0.115073
O O17 0.500000 0.762566 0.000000
O O18 0.144733 0.000000 0.617868
O O19 0.699448 0.500000 0.871733
#
# Coordination Sequence:
#
# PCOD9151503 Si02
#       7
#     4   4   4   4   4   4   4
#     4  12  25  41  66  95 123 161 212 262 310 376
#     4  11  23  41  64  90 127 164 201 253 315 375
#     4  10  20  39  65  92 123 164 214 261 311 373
#     4   9  21  40  62  92 127 163 208 263 313 364
#     4  11  25  44  64  92 131 171 208 257 321 383
#     4  11  23  40  62  91 128 164 204 261 322 376
#     4  11  23  40  66  96 125 167 217 262 312 373
#
# _framework density 19.851856999999999
#
# number of rings (size 3 to 8) (size 9 to 14) (size 15 to 20)
#    0.000    1.286    1.429    5.143    4.000    1.714 
#    0.000    2.143    0.000    3.429    0.000    0.000 
#    0.000    0.000    0.000    0.000    0.000    0.000 
#
# Total GULP energy -156581.819614 kJ/mol
# GULP energy per Si atom -5592.207843 kJ/mol
# Density = 1.980667 g / cm^3
# Si number density = 19.851857 Si / 1000 Ang^3
#
#
#
# Elastic Constant Matrix: (Units=GPa)
#
#
# Indices 1 2 3 4 5 6 
#
# 1 100.9022 -6.1787 43.2988 0.0000 7.6914 0.0000
# 2 -6.1787 30.5795 -3.5505 0.0000 -7.1306 0.0000
# 3 43.2988 -3.5505 91.8793 0.0000 -25.4623 0.0000
# 4 0.0000 0.0000 0.0000 32.3292 0.0000 1.7467
# 5 7.6914 -7.1306 -25.4623 0.0000 23.2856 0.0000
# 6 0.0000 0.0000 0.0000 1.7467 0.0000 19.6305
#
#
#
# Elastic Compliance Matrix: (Units=1/GPa)
#
#
# Indices 1 2 3 4 5 6 
#
# 1 0.018009 -0.003645 -0.015188 0.000000 -0.023673 0.000000
# 2 -0.003645 0.038638 0.009790 0.000000 0.023741 0.000000
# 3 -0.015188 0.009790 0.029615 0.000000 0.040398 0.000000
# 4 0.000000 0.000000 0.000000 0.031081 0.000000 -0.002766
# 5 -0.023673 0.023741 0.040398 0.000000 0.102209 0.000000
# 6 0.000000 0.000000 0.000000 -0.002766 0.000000 0.051187
#
#
# Mechanical properties :
#
#
# Convention : Reuss Voigt Hill
#
# Bulk Modulus (GPa) = 14.66786 32.27780 23.47283
# Shear Modulus (GPa) = 16.04872 27.70181 21.87526
#
# Velocity S-wave (km/s) = 2.84636 3.73959 3.32313
# Velocity P-wave (km/s) = 4.26698 5.91107 5.15499
#
# Compressibility (1/GPa) = 0.06817625
#
# Stress axis : x y z
#
# Youngs Moduli (GPa) = 55.52651 25.88137 33.76646
#
# Poissons Ratio (x) = 0.09433 0.51285
# Poissons Ratio (y) = 0.20237 -0.33057
# Poissons Ratio (z) = 0.84335 -0.25337
#
# Static dielectric constant tensor:
#      x y z
#    x 1.689830 0.000000 -0.004870 
#    y 0.000000 1.670280 0.000000 
#    z -0.004870 0.000000 1.678280 
# 
# From -- ./inp_files/50096.got.cif
#   From: 2010.05.17/outbox.cif.g08.bks.cpg/sg10_26_cif.got.tgz:50096.got - 2010.06.03 11:33:40.
