data_PCOD9151332
_publ_section_title
;
Structure prediction by ZEFSAII (Michael W. Deem and Ramdas Pophale) SiO2 
 PCOD9151332
Probable space group: P 2/M
;
_chemical_formula_sum "Si O2"
_cell_formula_units_Z 24
_cell_length_a 16.516363
_cell_length_b 12.377222
_cell_length_c 11.564569
_cell_angle_alpha 90.000000
_cell_angle_beta 22.491215
_cell_angle_gamma 90.000000
_cell_volume 904.369520
_symmetry_space_group_name_H-M "P 2/M"
_symmetry_group_IT_number 10
_symmetry_cell_setting 'monoclinic'
loop_
_space_group_symop_operation_xyz
x,y,z
-x,y,-z
-x,-y,-z
x,-y,z
loop_
_atom_site_type_symbol
_atom_site_label
_atom_site_fract_x
_atom_site_fract_y
_atom_site_fract_z
Si Si1 0.898525 0.115295 0.453983
Si Si2 0.875982 0.385915 0.954351
Si Si3 0.487763 0.377815 0.764387
Si Si4 0.750947 0.833020 0.192359
Si Si5 0.612958 0.880590 0.605879
Si Si6 0.174242 0.342255 0.362877
O O1 0.726596 0.118076 0.578877
O O2 0.843298 0.212830 0.610159
O O3 0.892406 0.000000 0.520166
O O4 0.118576 0.128828 0.092339
O O5 0.865970 0.500000 0.026600
O O6 0.094378 0.374678 0.595136
O O7 0.692758 0.380544 0.098239
O O8 0.831314 0.289288 0.098061
O O9 0.591636 0.500000 0.614462
O O10 0.547132 0.247851 0.679594
O O11 0.389399 0.379673 0.023164
O O12 0.500000 0.840087 0.500000
O O13 0.771042 0.888360 0.288466
O O14 0.494224 0.000000 0.757580
O O15 0.000000 0.380830 0.500000
#
# Coordination Sequence:
#
# PCOD9151332 Si02
#       6
#     4   4   4   4   4   4
#     4  10  23  41  60  83 122 165 196 241 309 365
#     4   9  18  35  60  89 122 157 197 250 308 356
#     4  10  20  38  63  90 121 160 203 247 296 357
#     4  11  21  38  60  93 115 152 208 253 291 350
#     4  11  24  41  59  87 127 166 198 241 304 363
#     4   9  19  37  60  91 117 151 203 252 298 354
#
# _framework density 26.537825999999999
#
# number of rings (size 3 to 8) (size 9 to 14) (size 15 to 20)
#    0.000    2.000    1.667    1.500    0.000    7.333 
#    0.000    6.667    0.000    5.000    0.000    0.000 
#    0.000    0.000    0.000    0.000    0.000    0.000 
#
# Total GULP energy -133803.329848 kJ/mol
# GULP energy per Si atom -5575.138744 kJ/mol
# Density = 2.647742 g / cm^3
# Si number density = 26.537826 Si / 1000 Ang^3
#
#
#
# Elastic Constant Matrix: (Units=GPa)
#
#
# Indices 1 2 3 4 5 6 
#
# 1 54.7731 21.0350 3.0170 0.0000 11.3976 0.0000
# 2 21.0350 304.7284 46.7783 0.0000 2.9942 0.0000
# 3 3.0170 46.7783 72.7723 0.0000 11.9058 0.0000
# 4 0.0000 0.0000 0.0000 1.3486 0.0000 -13.2531
# 5 11.3976 2.9942 11.9058 0.0000 30.7639 0.0000
# 6 0.0000 0.0000 0.0000 -13.2531 0.0000 5.0820
#
#
#
# Elastic Compliance Matrix: (Units=1/GPa)
#
#
# Indices 1 2 3 4 5 6 
#
# 1 0.020436 -0.001556 0.001459 0.000000 -0.007985 0.000000
# 2 -0.001556 0.003769 -0.002555 0.000000 0.001198 0.000000
# 3 0.001459 -0.002555 0.016410 0.000000 -0.006643 0.000000
# 4 0.000000 0.000000 0.000000 -0.030108 0.000000 -0.078517
# 5 -0.007985 0.001198 -0.006643 0.000000 0.037918 0.000000
# 6 0.000000 0.000000 0.000000 -0.078517 0.000000 -0.007990
#
#
# Mechanical properties :
#
#
# Convention : Reuss Voigt Hill
#
# Bulk Modulus (GPa) = 28.31863 63.77047 46.04455
# Shear Modulus (GPa) = 86.94315 31.53514 59.23915
#
# Velocity S-wave (km/s) = 5.73002 3.45093 4.72980
# Velocity P-wave (km/s) = 7.38049 6.32145 6.87140
#
# Compressibility (1/GPa) = 0.03531244
#
# Stress axis : x y z
#
# Youngs Moduli (GPa) = 48.93354 265.29430 60.93913
#
# Poissons Ratio (x) = 0.41286 -0.08894
# Poissons Ratio (y) = 0.07615 0.15567
# Poissons Ratio (z) = -0.07141 0.67770
#
# Static dielectric constant tensor:
#      x y z
#    x 2.049850 0.000000 -0.080280 
#    y 0.000000 2.310930 0.000000 
#    z -0.080280 0.000000 2.106460 
# 
# From -- ./inp_files/71790.got.cif
#   From: 2010.05.17/outbox.cif.g08.bks.cpg/sg10_36_cif.got.tgz:71790.got - 2010.06.03 11:33:40.
