data_PCOD9151927
_publ_section_title
;
Structure prediction by ZEFSAII (Michael W. Deem and Ramdas Pophale) SiO2 
 PCOD9151927
Probable space group: P 2/M
;
_chemical_formula_sum "Si O2"
_cell_formula_units_Z 32
_cell_length_a 25.529488
_cell_length_b 7.375375
_cell_length_c 17.970782
_cell_angle_alpha 90.000000
_cell_angle_beta 155.930866
_cell_angle_gamma 90.000000
_cell_volume 1380.007870
_symmetry_space_group_name_H-M "P 2/M"
_symmetry_group_IT_number 10
_symmetry_cell_setting 'monoclinic'
loop_
_space_group_symop_operation_xyz
x,y,z
-x,y,-z
-x,-y,-z
x,-y,z
loop_
_atom_site_type_symbol
_atom_site_label
_atom_site_fract_x
_atom_site_fract_y
_atom_site_fract_z
Si Si1 0.795343 0.282070 0.755809
Si Si2 0.484415 0.281096 0.819567
Si Si3 0.495125 0.785194 0.577195
Si Si4 0.210742 0.280214 0.512238
Si Si5 0.972709 0.721243 0.847009
Si Si6 0.859068 0.779360 0.293997
Si Si7 0.331897 0.291534 0.820275
Si Si8 0.677201 0.792889 0.937578
O O1 0.798082 0.500000 0.757906
O O2 0.647149 0.232662 0.572866
O O3 0.870724 0.224119 0.779016
O O4 0.886489 0.221399 0.942701
O O5 0.497511 0.500000 0.834167
O O6 0.334663 0.238950 0.621757
O O7 0.568787 0.206116 0.862073
O O8 0.540357 0.219024 0.972562
O O9 0.500000 0.710971 0.500000
O O10 0.605723 0.708465 0.774498
O O11 0.519724 0.000000 0.604419
O O12 0.200128 0.500000 0.503617
O O13 0.083281 0.217023 0.304789
O O14 0.254775 0.212014 0.650321
O O15 0.973851 0.500000 0.847707
O O16 0.765156 0.713457 0.236521
O O17 0.000000 0.722031 0.500000
O O18 0.854743 0.000000 0.287882
O O19 0.801944 0.714773 0.140956
O O20 0.359779 0.500000 0.835706
O O21 0.710252 0.000000 0.961670
#
# Coordination Sequence:
#
# PCOD9151927 Si02
#       8
#     4   4   4   4   4   4   4   4
#     4   9  17  32  53  73  95 125 164 203 238 282
#     4   9  16  27  47  72  96 123 156 191 225 270
#     4  10  21  36  51  70  98 129 159 199 251 293
#     4   9  15  25  43  69 100 129 153 180 228 284
#     4   8  15  28  48  73  99 129 160 194 239 289
#     4   9  18  34  52  67  87 121 160 194 229 274
#     4   9  17  28  44  69  98 123 151 190 231 272
#     4   9  18  33  51  69  90 121 159 193 232 281
#
# _framework density 23.188272999999999
#
# number of rings (size 3 to 8) (size 9 to 14) (size 15 to 20)
#    0.000    3.000    0.000    1.875    0.000    3.500 
#    2.250    1.875    0.000    4.500    0.000    0.000 
#    0.000    0.000    0.000    0.000    0.000    0.000 
#
# Total GULP energy -178496.038641 kJ/mol
# GULP energy per Si atom -5578.001208 kJ/mol
# Density = 2.313550 g / cm^3
# Si number density = 23.188273 Si / 1000 Ang^3
#
#
#
# Elastic Constant Matrix: (Units=GPa)
#
#
# Indices 1 2 3 4 5 6 
#
# 1 35.0268 -0.4655 39.4407 0.0000 -25.3555 0.0000
# 2 -0.4655 84.4825 9.2388 0.0000 -5.7900 0.0000
# 3 39.4407 9.2388 204.9209 0.0000 -42.3897 0.0000
# 4 0.0000 0.0000 0.0000 -8.4175 0.0000 11.5284
# 5 -25.3555 -5.7900 -42.3897 0.0000 41.4544 0.0000
# 6 0.0000 0.0000 0.0000 11.5284 0.0000 8.9772
#
#
#
# Elastic Compliance Matrix: (Units=1/GPa)
#
#
# Indices 1 2 3 4 5 6 
#
# 1 0.055040 0.002821 -0.004661 0.000000 0.029293 0.000000
# 2 0.002821 0.012105 -0.000485 0.000000 0.002921 0.000000
# 3 -0.004661 -0.000485 0.006589 0.000000 0.003819 0.000000
# 4 0.000000 0.000000 0.000000 -0.043062 0.000000 0.055300
# 5 0.029293 0.002921 0.003819 0.000000 0.046353 0.000000
# 6 0.000000 0.000000 0.000000 0.055300 0.000000 0.040377
#
#
# Mechanical properties :
#
#
# Convention : Reuss Voigt Hill
#
# Bulk Modulus (GPa) = 14.47498 46.76201 30.61849
# Shear Modulus (GPa) = 34.46346 26.81724 30.64035
#
# Velocity S-wave (km/s) = 3.85937 3.40442 3.63901
# Velocity P-wave (km/s) = 5.11034 5.97189 5.55783
#
# Compressibility (1/GPa) = 0.06908471
#
# Stress axis : x y z
#
# Youngs Moduli (GPa) = 18.16844 82.60734 151.77123
#
# Poissons Ratio (x) = -0.23301 0.70743
# Poissons Ratio (y) = -0.05125 0.07353
# Poissons Ratio (z) = 0.08469 0.04002
#
# Static dielectric constant tensor:
#      x y z
#    x 1.847460 0.000000 -0.046490 
#    y 0.000000 1.886850 0.000000 
#    z -0.046490 0.000000 1.932240 
# 
# From -- ./inp_files/80562.got.cif
#   From: 2010.05.17/outbox.cif.g08.bks.cpg/sg10_41_cif.got.tgz:80562.got - 2010.06.03 11:33:40.
