data_PCOD9151741
_publ_section_title
;
Structure prediction by ZEFSAII (Michael W. Deem and Ramdas Pophale) SiO2 
 PCOD9151741
Probable space group: P 2/M
;
_chemical_formula_sum "Si O2"
_cell_formula_units_Z 24
_cell_length_a 21.881205
_cell_length_b 7.606042
_cell_length_c 10.371017
_cell_angle_alpha 90.000000
_cell_angle_beta 132.562274
_cell_angle_gamma 90.000000
_cell_volume 1271.303310
_symmetry_space_group_name_H-M "P 2/M"
_symmetry_group_IT_number 10
_symmetry_cell_setting 'monoclinic'
loop_
_space_group_symop_operation_xyz
x,y,z
-x,y,-z
-x,-y,-z
x,-y,z
loop_
_atom_site_type_symbol
_atom_site_label
_atom_site_fract_x
_atom_site_fract_y
_atom_site_fract_z
Si Si1 0.770324 0.296704 0.906104
Si Si2 0.666389 0.212381 0.513448
Si Si3 0.499781 0.792335 0.145295
Si Si4 0.685870 0.711504 0.051049
Si Si5 0.894094 0.000000 0.989266
Si Si6 0.087238 0.000000 0.293587
Si Si7 0.211553 0.293263 0.549671
O O1 0.796873 0.500000 0.956768
O O2 0.700037 0.285599 0.695567
O O3 0.731659 0.233550 0.985963
O O4 0.844129 0.170165 0.966583
O O5 0.575201 0.275214 0.340184
O O6 0.729259 0.266048 0.489453
O O7 0.667740 0.000000 0.526056
O O8 0.516874 0.000000 0.156807
O O9 0.500000 0.717242 0.000000
O O10 0.409041 0.770846 0.074891
O O11 0.684184 0.500000 0.048680
O O12 0.736406 0.765455 0.250517
O O13 0.988796 0.000000 0.171112
O O14 0.895357 0.000000 0.835422
O O15 0.132022 0.829140 0.416208
O O16 0.191333 0.500000 0.532556
#
# Coordination Sequence:
#
# PCOD9151741 Si02
#       7
#     4   4   4   4   2   2   4
#     4  11  23  42  63  88 124 164 201 242 305 366
#     4  11  20  37  60  88 124 162 206 250 292 355
#     4  10  21  34  57  89 122 161 207 253 294 340
#     4  10  24  39  58  89 124 163 206 249 293 356
#     4  11  24  43  65  94 123 154 190 257 307 361
#     4  11  24  41  67  96 122 145 202 253 300 374
#     4  11  21  38  63  91 121 159 199 247 302 353
#
# _framework density 18.878266
#
# number of rings (size 3 to 8) (size 9 to 14) (size 15 to 20)
#    0.000    1.333    5.000    0.500    2.333    3.000 
#    0.000    6.667    0.000    3.000    0.000    0.000 
#    0.000    0.000    0.000    0.000    0.000    0.000 
#
# Total GULP energy -134104.192684 kJ/mol
# GULP energy per Si atom -5587.674695 kJ/mol
# Density = 1.883530 g / cm^3
# Si number density = 18.878266 Si / 1000 Ang^3
#
#
#
# Elastic Constant Matrix: (Units=GPa)
#
#
# Indices 1 2 3 4 5 6 
#
# 1 74.2962 17.2117 36.3979 0.0000 10.6434 0.0000
# 2 17.2117 81.5603 17.3496 0.0000 14.8187 0.0000
# 3 36.3979 17.3496 106.0955 0.0000 16.2562 0.0000
# 4 0.0000 0.0000 0.0000 61.1737 0.0000 -21.6263
# 5 10.6434 14.8187 16.2562 0.0000 43.0555 0.0000
# 6 0.0000 0.0000 0.0000 -21.6263 0.0000 -5.3188
#
#
#
# Elastic Compliance Matrix: (Units=1/GPa)
#
#
# Indices 1 2 3 4 5 6 
#
# 1 0.016691 -0.002166 -0.005152 0.000000 -0.001435 0.000000
# 2 -0.002166 0.013600 -0.000898 0.000000 -0.003807 0.000000
# 3 -0.005152 -0.000898 0.011779 0.000000 -0.002865 0.000000
# 4 0.000000 0.000000 0.000000 0.006707 0.000000 -0.027269
# 5 -0.001435 -0.003807 -0.002865 0.000000 0.025972 0.000000
# 6 0.000000 0.000000 0.000000 -0.027269 0.000000 -0.077136
#
#
# Mechanical properties :
#
#
# Convention : Reuss Voigt Hill
#
# Bulk Modulus (GPa) = 39.00271 44.87448 41.93860
# Shear Modulus (GPa) = 221.32701 32.51494 126.92098
#
# Velocity S-wave (km/s) = 10.83945 4.15462 8.20836
# Velocity P-wave (km/s) = 13.31777 6.84372 10.58772
#
# Compressibility (1/GPa) = 0.02563924
#
# Stress axis : x y z
#
# Youngs Moduli (GPa) = 59.91271 73.52679 84.89889
#
# Poissons Ratio (x) = 0.15923 0.43740
# Poissons Ratio (y) = 0.12974 0.07623
# Poissons Ratio (z) = 0.30867 0.06602
#
# Static dielectric constant tensor:
#      x y z
#    x 1.613230 0.000000 -0.007390 
#    y 0.000000 1.671150 0.000000 
#    z -0.007390 0.000000 1.654260 
# 
# From -- ./inp_files/33987.got.cif
#   From: 2010.05.17/outbox.cif.g08.bks.cpg/sg10_17_cif.got.tgz:33987.got - 2010.06.03 11:33:40.
