data_PCOD9151080
_publ_section_title
;
Structure prediction by ZEFSAII (Michael W. Deem and Ramdas Pophale) SiO2 
 PCOD9151080
Probable space group: P 2/M
;
_chemical_formula_sum "Si O2"
_cell_formula_units_Z 22
_cell_length_a 15.532170
_cell_length_b 12.300784
_cell_length_c 12.602563
_cell_angle_alpha 90.000000
_cell_angle_beta 152.114181
_cell_angle_gamma 90.000000
_cell_volume 1126.163501
_symmetry_space_group_name_H-M "P 2/M"
_symmetry_group_IT_number 10
_symmetry_cell_setting 'monoclinic'
loop_
_space_group_symop_operation_xyz
x,y,z
-x,y,-z
-x,-y,-z
x,-y,z
loop_
_atom_site_type_symbol
_atom_site_label
_atom_site_fract_x
_atom_site_fract_y
_atom_site_fract_z
Si Si1 0.298638 0.500000 0.650872
Si Si2 0.171460 0.276512 0.407648
Si Si3 0.673739 0.123533 0.745845
Si Si4 0.261455 0.500000 0.857842
Si Si5 0.000000 0.251491 0.000000
Si Si6 0.467652 0.125785 0.169551
Si Si7 0.124423 0.261712 0.740528
O O1 0.230971 0.390488 0.522932
O O2 0.230098 0.500000 0.697344
O O3 0.519486 0.500000 0.888925
O O4 0.115055 0.301564 0.223877
O O5 0.341396 0.191791 0.607195
O O6 0.001269 0.233592 0.294350
O O7 0.500000 0.178129 0.500000
O O8 0.626778 0.121881 0.817607
O O9 0.687814 0.000000 0.721128
O O10 0.855600 0.181323 0.908351
O O11 0.180995 0.388170 0.814852
O O12 0.496163 0.000000 0.165703
O O13 0.313118 0.192116 0.935062
O O14 0.000000 0.249285 0.500000
#
# Coordination Sequence:
#
# PCOD9151080 Si02
#       7
#     2   4   4   2   2   4   4
#     4  11  23  43  72  98 129 174 220 277 335 392
#     4  12  25  42  68 100 136 171 223 273 332 393
#     4  10  20  37  62  91 127 174 227 269 307 375
#     4  11  22  43  77  99 121 170 238 278 318 385
#     4  12  23  37  66 100 132 170 219 269 332 394
#     4  11  25  43  64  98 141 179 216 270 333 392
#     4  12  24  43  71  99 128 173 225 279 326 389
#
# _framework density 19.535350999999999
#
# number of rings (size 3 to 8) (size 9 to 14) (size 15 to 20)
#    0.000    0.727    7.273    1.091    0.000    2.909 
#    0.000    0.909    0.000    2.182    0.000    0.000 
#    0.000    0.000    0.000    0.000    0.000    0.000 
#
# Total GULP energy -122744.723881 kJ/mol
# GULP energy per Si atom -5579.305631 kJ/mol
# Density = 1.949089 g / cm^3
# Si number density = 19.535351 Si / 1000 Ang^3
#
#
#
# Elastic Constant Matrix: (Units=GPa)
#
#
# Indices 1 2 3 4 5 6 
#
# 1 78.8272 20.4227 24.2371 0.0000 13.8870 0.0000
# 2 20.4227 104.5396 52.9664 0.0000 14.4005 0.0000
# 3 24.2371 52.9664 108.0073 0.0000 5.9344 0.0000
# 4 0.0000 0.0000 0.0000 36.0708 0.0000 -0.0304
# 5 13.8870 14.4005 5.9344 0.0000 35.6711 0.0000
# 6 0.0000 0.0000 0.0000 -0.0304 0.0000 16.6016
#
#
#
# Elastic Compliance Matrix: (Units=1/GPa)
#
#
# Indices 1 2 3 4 5 6 
#
# 1 0.014564 -0.000867 -0.002574 0.000000 -0.004892 0.000000
# 2 -0.000867 0.013415 -0.006162 0.000000 -0.004053 0.000000
# 3 -0.002574 -0.006162 0.012783 0.000000 0.001363 0.000000
# 4 0.000000 0.000000 0.000000 0.027723 0.000000 0.000051
# 5 -0.004892 -0.004053 0.001363 0.000000 0.031348 0.000000
# 6 0.000000 0.000000 0.000000 0.000051 0.000000 0.060235
#
#
# Mechanical properties :
#
#
# Convention : Reuss Voigt Hill
#
# Bulk Modulus (GPa) = 46.38973 54.06963 50.22968
# Shear Modulus (GPa) = 26.81548 30.58523 28.70036
#
# Velocity S-wave (km/s) = 3.70897 3.96110 3.83711
# Velocity P-wave (km/s) = 6.49154 6.97556 6.73789
#
# Compressibility (1/GPa) = 0.02155649
#
# Stress axis : x y z
#
# Youngs Moduli (GPa) = 68.66319 74.54169 78.22894
#
# Poissons Ratio (x) = 0.06464 0.20137
# Poissons Ratio (y) = 0.05954 0.48201
# Poissons Ratio (z) = 0.17675 0.45929
#
# Static dielectric constant tensor:
#      x y z
#    x 1.678120 0.000000 -0.008390 
#    y 0.000000 1.662510 0.000000 
#    z -0.008390 0.000000 1.767550 
# 
# From -- ./inp_files/51157.got.cif
#   From: 2010.05.17/outbox.cif.g08.bks.cpg/sg10_26_cif.got.tgz:51157.got - 2010.06.03 11:33:40.
