data_PCOD9151707
_publ_section_title
;
Structure prediction by ZEFSAII (Michael W. Deem and Ramdas Pophale) SiO2 
 PCOD9151707
Probable space group: P 2/M
;
_chemical_formula_sum "Si O2"
_cell_formula_units_Z 32
_cell_length_a 10.975494
_cell_length_b 7.446296
_cell_length_c 19.076585
_cell_angle_alpha 90.000000
_cell_angle_beta 119.558279
_cell_angle_gamma 90.000000
_cell_volume 1356.161950
_symmetry_space_group_name_H-M "P 2/M"
_symmetry_group_IT_number 10
_symmetry_cell_setting 'monoclinic'
loop_
_space_group_symop_operation_xyz
x,y,z
-x,y,-z
-x,-y,-z
x,-y,z
loop_
_atom_site_type_symbol
_atom_site_label
_atom_site_fract_x
_atom_site_fract_y
_atom_site_fract_z
Si Si1 0.328252 0.791870 0.389562
Si Si2 0.578521 0.217167 0.373918
Si Si3 0.895524 0.285964 0.320043
Si Si4 0.418277 0.710351 0.778119
Si Si5 0.932118 0.717431 0.767427
Si Si6 0.918866 0.280608 0.047391
Si Si7 0.158933 0.784440 0.476433
Si Si8 0.594162 0.280362 0.959941
O O1 0.476534 0.718067 0.406846
O O2 0.224094 0.780369 0.293864
O O3 0.240889 0.716283 0.429846
O O4 0.351246 0.000000 0.414552
O O5 0.521906 0.274640 0.282795
O O6 0.737800 0.280039 0.432853
O O7 0.576248 0.000000 0.374420
O O8 0.885919 0.500000 0.311918
O O9 0.738497 0.211655 0.273484
O O10 0.974945 0.220590 0.272555
O O11 0.996716 0.254101 0.415380
O O12 0.402490 0.500000 0.790435
O O13 0.515391 0.782374 0.867207
O O14 0.930933 0.500000 0.766548
O O15 0.997699 0.775696 0.859309
O O16 0.917955 0.500000 0.046663
O O17 0.756452 0.223151 0.006333
O O18 0.000000 0.223919 0.000000
O O19 0.163289 0.000000 0.480546
O O20 0.597923 0.500000 0.961647
O O21 0.500000 0.226667 0.000000
#
# Coordination Sequence:
#
# PCOD9151707 Si02
#       8
#     4   4   4   4   4   4   4   4
#     4   9  18  33  53  74  99 132 169 208 251 301
#     4  10  21  35  51  73 103 134 167 210 255 299
#     4   9  18  33  50  73 102 131 164 207 255 298
#     4  10  21  34  52  76 103 134 169 208 252 302
#     4   9  17  30  51  75 101 130 163 206 254 302
#     4   9  17  27  44  73 103 128 161 209 254 293
#     4   9  18  34  55  75  95 130 175 210 246 301
#     4   9  17  31  51  73 100 136 174 208 248 304
#
# _framework density 23.596004000000001
#
# number of rings (size 3 to 8) (size 9 to 14) (size 15 to 20)
#    0.000    2.750    0.000    1.125    1.750    6.500 
#    0.000    2.500    0.000    5.250    0.000    0.000 
#    0.000    0.000    0.000    0.000    0.000    0.000 
#
# Total GULP energy -178693.401219 kJ/mol
# GULP energy per Si atom -5584.168788 kJ/mol
# Density = 2.354230 g / cm^3
# Si number density = 23.596004 Si / 1000 Ang^3
#
#
#
# Elastic Constant Matrix: (Units=GPa)
#
#
# Indices 1 2 3 4 5 6 
#
# 1 104.4125 -6.8561 34.2399 0.0000 17.4240 0.0000
# 2 -6.8561 72.5716 -4.0728 0.0000 4.4500 0.0000
# 3 34.2399 -4.0728 162.5913 0.0000 7.4134 0.0000
# 4 0.0000 0.0000 0.0000 -8.3263 0.0000 -3.0568
# 5 17.4240 4.4500 7.4134 0.0000 36.6843 0.0000
# 6 0.0000 0.0000 0.0000 -3.0568 0.0000 3.6705
#
#
#
# Elastic Compliance Matrix: (Units=1/GPa)
#
#
# Indices 1 2 3 4 5 6 
#
# 1 0.011188 0.001249 -0.002095 0.000000 -0.005042 0.000000
# 2 0.001249 0.014052 0.000196 0.000000 -0.002337 0.000000
# 3 -0.002095 0.000196 0.006613 0.000000 -0.000365 0.000000
# 4 0.000000 0.000000 0.000000 -0.091979 0.000000 -0.076601
# 5 -0.005042 -0.002337 -0.000365 0.000000 0.030012 0.000000
# 6 0.000000 0.000000 0.000000 -0.076601 0.000000 0.208648
#
#
# Mechanical properties :
#
#
# Convention : Reuss Voigt Hill
#
# Bulk Modulus (GPa) = 32.73196 42.91083 37.82140
# Shear Modulus (GPa) = 26.31331 27.49000 26.90165
#
# Velocity S-wave (km/s) = 3.34302 3.41695 3.38019
# Velocity P-wave (km/s) = 5.36684 5.81314 5.59444
#
# Compressibility (1/GPa) = 0.03055118
#
# Stress axis : x y z
#
# Youngs Moduli (GPa) = 89.38371 71.16561 151.21524
#
# Poissons Ratio (x) = -0.08885 0.31677
# Poissons Ratio (y) = -0.11160 -0.02958
# Poissons Ratio (z) = 0.18724 -0.01392
#
# Static dielectric constant tensor:
#      x y z
#    x 1.898590 0.000000 0.004780 
#    y 0.000000 1.894580 0.000000 
#    z 0.004780 0.000000 1.871690 
# 
# From -- ./inp_files/83619.got.cif
#   From: 2010.05.17/outbox.cif.g08.bks.cpg/sg10_42_cif.got.tgz:83619.got - 2010.06.03 11:33:40.
