data_PCOD9151068
_publ_section_title
;
Structure prediction by ZEFSAII (Michael W. Deem and Ramdas Pophale) SiO2 
 PCOD9151068
Probable space group: P 2/M
;
_chemical_formula_sum "Si O2"
_cell_formula_units_Z 20
_cell_length_a 17.197725
_cell_length_b 8.762390
_cell_length_c 10.566246
_cell_angle_alpha 90.000000
_cell_angle_beta 37.497964
_cell_angle_gamma 90.000000
_cell_volume 969.262279
_symmetry_space_group_name_H-M "P 2/M"
_symmetry_group_IT_number 10
_symmetry_cell_setting 'monoclinic'
loop_
_space_group_symop_operation_xyz
x,y,z
-x,y,-z
-x,-y,-z
x,-y,z
loop_
_atom_site_type_symbol
_atom_site_label
_atom_site_fract_x
_atom_site_fract_y
_atom_site_fract_z
Si Si1 0.579084 0.816599 0.028017
Si Si2 0.051664 0.325926 0.764143
Si Si3 0.139735 0.320685 0.368126
Si Si4 0.829828 0.825818 0.150136
Si Si5 0.570436 0.328469 0.542730
O O1 0.511685 0.736960 0.235192
O O2 0.574046 0.000000 0.047491
O O3 0.500000 0.777576 0.000000
O O4 0.727696 0.763425 0.834029
O O5 0.064958 0.500000 0.790487
O O6 0.122230 0.312703 0.541517
O O7 0.108997 0.211562 0.792292
O O8 0.902092 0.281542 0.955677
O O9 0.150301 0.500000 0.315882
O O10 0.000000 0.264415 0.500000
O O11 0.685582 0.782658 0.360595
O O12 0.846842 0.000000 0.091599
O O13 0.500000 0.340300 0.500000
O O14 0.616054 0.500000 0.518538
#
# Coordination Sequence:
#
# PCOD9151068 Si02
#       5
#     4   4   4   4   4
#     4  11  25  44  67  97 132 170 214 265 322 388
#     4  10  20  37  62  89 122 163 209 252 301 369
#     4  10  23  41  63  92 126 165 211 261 310 371
#     4  11  22  37  60  90 125 159 202 256 312 372
#     4  11  25  43  65  91 124 166 213 263 316 377
#
# _framework density 20.634250000000002
#
# number of rings (size 3 to 8) (size 9 to 14) (size 15 to 20)
#    0.000    1.400    0.000    6.000    2.800    8.400 
#    0.000    0.000    0.000    0.000    0.000    0.000 
#    0.000    0.000    0.000    0.000    0.000    0.000 
#
# Total GULP energy -111611.169866 kJ/mol
# GULP energy per Si atom -5580.558493 kJ/mol
# Density = 2.058729 g / cm^3
# Si number density = 20.634250 Si / 1000 Ang^3
#
#
#
# Elastic Constant Matrix: (Units=GPa)
#
#
# Indices 1 2 3 4 5 6 
#
# 1 51.4346 17.0906 13.4894 0.0000 -9.7418 0.0000
# 2 17.0906 77.2924 23.1624 0.0000 -3.7489 0.0000
# 3 13.4894 23.1624 95.9446 0.0000 -7.0105 0.0000
# 4 0.0000 0.0000 0.0000 -5.0222 0.0000 -30.7203
# 5 -9.7418 -3.7489 -7.0105 0.0000 33.6268 0.0000
# 6 0.0000 0.0000 0.0000 -30.7203 0.0000 7.8333
#
#
#
# Elastic Compliance Matrix: (Units=1/GPa)
#
#
# Indices 1 2 3 4 5 6 
#
# 1 0.022344 -0.004149 -0.001727 0.000000 0.005651 0.000000
# 2 -0.004149 0.014742 -0.002989 0.000000 -0.000182 0.000000
# 3 -0.001727 -0.002989 0.011501 0.000000 0.001564 0.000000
# 4 0.000000 0.000000 0.000000 -0.007968 0.000000 -0.031249
# 5 0.005651 -0.000182 0.001564 0.000000 0.031681 0.000000
# 6 0.000000 0.000000 0.000000 -0.031249 0.000000 0.005109
#
#
# Mechanical properties :
#
#
# Convention : Reuss Voigt Hill
#
# Bulk Modulus (GPa) = 32.40682 36.90627 34.65655
# Shear Modulus (GPa) = 47.42724 18.68287 33.05505
#
# Velocity S-wave (km/s) = 4.79944 3.01230 4.00678
# Velocity P-wave (km/s) = 6.81559 5.47936 6.18367
#
# Compressibility (1/GPa) = 0.03085770
#
# Stress axis : x y z
#
# Youngs Moduli (GPa) = 44.75486 67.83260 86.94637
#
# Poissons Ratio (x) = 0.28144 0.15015
# Poissons Ratio (y) = 0.18569 0.25987
# Poissons Ratio (z) = 0.07729 0.20274
#
# Static dielectric constant tensor:
#      x y z
#    x 1.687060 0.000000 -0.019280 
#    y 0.000000 1.720710 0.000000 
#    z -0.019280 0.000000 1.758580 
# 
# From -- ./inp_files/52993.got.cif
#   From: 2010.05.17/outbox.cif.g08.bks.cpg/sg10_27_cif.got.tgz:52993.got - 2010.06.03 11:33:40.
