data_PCOD9151075
_publ_section_title
;
Structure prediction by ZEFSAII (Michael W. Deem and Ramdas Pophale) SiO2 
 PCOD9151075
Probable space group: P 2/M
;
_chemical_formula_sum "Si O2"
_cell_formula_units_Z 28
_cell_length_a 25.049497
_cell_length_b 8.003750
_cell_length_c 9.653075
_cell_angle_alpha 90.000000
_cell_angle_beta 139.043954
_cell_angle_gamma 90.000000
_cell_volume 1268.579128
_symmetry_space_group_name_H-M "P 2/M"
_symmetry_group_IT_number 10
_symmetry_cell_setting 'monoclinic'
loop_
_space_group_symop_operation_xyz
x,y,z
-x,y,-z
-x,-y,-z
x,-y,z
loop_
_atom_site_type_symbol
_atom_site_label
_atom_site_fract_x
_atom_site_fract_y
_atom_site_fract_z
Si Si1 0.990183 0.305206 0.325620
Si Si2 0.845209 0.702642 0.845310
Si Si3 0.688749 0.305161 0.186550
Si Si4 0.581809 0.194761 0.735374
Si Si5 0.583036 0.296279 0.228033
Si Si6 0.138976 0.190196 0.444551
Si Si7 0.322364 0.297730 0.329388
O O1 0.967936 0.500000 0.302052
O O2 0.073502 0.294307 0.402529
O O3 0.000000 0.232415 0.500000
O O4 0.919051 0.235849 0.087248
O O5 0.846271 0.500000 0.840052
O O6 0.854017 0.761613 0.704008
O O7 0.761197 0.749065 0.758018
O O8 0.710080 0.500000 0.237709
O O9 0.656403 0.246400 0.271672
O O10 0.771362 0.210980 0.313947
O O11 0.613327 0.284524 0.934609
O O12 0.500000 0.261317 0.500000
O O13 0.656399 0.217322 0.774526
O O14 0.568610 0.000000 0.740523
O O15 0.580719 0.500000 0.221291
O O16 0.604253 0.246583 0.424104
O O17 0.500000 0.232944 0.000000
O O18 0.111925 0.000000 0.400552
O O19 0.322438 0.500000 0.313592
#
# Coordination Sequence:
#
# PCOD9151075 Si02
#       7
#     4   4   4   4   4   4   4
#     4  10  23  42  67  96 125 162 211 261 309 364
#     4  10  21  41  66  93 123 162 212 264 310 365
#     4  11  22  40  66  91 121 163 213 263 308 363
#     4  11  25  42  58  87 132 173 208 254 318 381
#     4   9  17  32  58  90 118 146 196 261 309 353
#     4  12  25  41  63  94 131 167 203 249 317 384
#     4  10  20  37  62  91 120 158 212 261 308 364
#
# _framework density 22.071939
#
# number of rings (size 3 to 8) (size 9 to 14) (size 15 to 20)
#    0.000    1.571    1.429    3.429    2.000    5.429 
#    0.000    0.000    0.000    3.000    0.000    0.000 
#    0.000    0.000    0.000    0.000    0.000    0.000 
#
# Total GULP energy -156454.399382 kJ/mol
# GULP energy per Si atom -5587.657121 kJ/mol
# Density = 2.202170 g / cm^3
# Si number density = 22.071939 Si / 1000 Ang^3
#
#
#
# Elastic Constant Matrix: (Units=GPa)
#
#
# Indices 1 2 3 4 5 6 
#
# 1 73.4994 -7.6143 18.5767 0.0000 -5.4655 0.0000
# 2 -7.6143 22.6720 1.6784 0.0000 -1.3962 0.0000
# 3 18.5767 1.6784 102.4721 0.0000 2.2968 0.0000
# 4 0.0000 0.0000 0.0000 15.0933 0.0000 11.6923
# 5 -5.4655 -1.3962 2.2968 0.0000 37.1177 0.0000
# 6 0.0000 0.0000 0.0000 11.6923 0.0000 76.6082
#
#
#
# Elastic Compliance Matrix: (Units=1/GPa)
#
#
# Indices 1 2 3 4 5 6 
#
# 1 0.015092 0.005442 -0.002883 0.000000 0.002605 0.000000
# 2 0.005442 0.046232 -0.001803 0.000000 0.002652 0.000000
# 3 -0.002883 -0.001803 0.010336 0.000000 -0.001132 0.000000
# 4 0.000000 0.000000 0.000000 0.075138 0.000000 -0.011468
# 5 0.002605 0.002652 -0.001132 0.000000 0.027495 0.000000
# 6 0.000000 0.000000 0.000000 -0.011468 0.000000 0.014804
#
#
# Mechanical properties :
#
#
# Convention : Reuss Voigt Hill
#
# Bulk Modulus (GPa) = 13.66648 24.88055 19.27352
# Shear Modulus (GPa) = 23.58753 38.16404 30.87578
#
# Velocity S-wave (km/s) = 3.27259 4.16273 3.74421
# Velocity P-wave (km/s) = 4.52604 5.86526 5.23862
#
# Compressibility (1/GPa) = 0.07317171
#
# Stress axis : x y z
#
# Youngs Moduli (GPa) = 66.26069 21.63005 96.74548
#
# Poissons Ratio (x) = -0.11772 0.27896
# Poissons Ratio (y) = -0.36062 0.17446
# Poissons Ratio (z) = 0.19106 0.03901
#
# Static dielectric constant tensor:
#      x y z
#    x 1.780250 0.000000 0.016090 
#    y 0.000000 1.801860 0.000000 
#    z 0.016090 0.000000 1.816350 
# 
# From -- ./inp_files/37243.got.cif
#   From: 2010.05.17/outbox.cif.g08.bks.cpg/sg10_19_cif.got.tgz:37243.got - 2010.06.03 11:33:40.
