data_PCOD9151659
_publ_section_title
;
Structure prediction by ZEFSAII (Michael W. Deem and Ramdas Pophale) SiO2 
 PCOD9151659
Probable space group: P 2/M
;
_chemical_formula_sum "Si O2"
_cell_formula_units_Z 24
_cell_length_a 9.473520
_cell_length_b 18.727172
_cell_length_c 9.862589
_cell_angle_alpha 90.000000
_cell_angle_beta 133.110892
_cell_angle_gamma 90.000000
_cell_volume 1277.369757
_symmetry_space_group_name_H-M "P 2/M"
_symmetry_group_IT_number 10
_symmetry_cell_setting 'monoclinic'
loop_
_space_group_symop_operation_xyz
x,y,z
-x,y,-z
-x,-y,-z
x,-y,z
loop_
_atom_site_type_symbol
_atom_site_label
_atom_site_fract_x
_atom_site_fract_y
_atom_site_fract_z
Si Si1 0.413240 0.080163 0.230902
Si Si2 0.332941 0.667368 0.001299
Si Si3 0.189798 0.081731 0.374630
Si Si4 0.114530 0.812087 0.931421
Si Si5 0.436863 0.584373 0.614095
Si Si6 0.986610 0.420842 0.652261
O O1 0.300324 0.080469 0.301600
O O2 0.637914 0.095507 0.406218
O O3 0.395762 0.000000 0.164723
O O4 0.299750 0.137006 0.069950
O O5 0.203660 0.736693 0.948574
O O6 0.177883 0.613415 0.835833
O O7 0.500000 0.681869 0.000000
O O8 0.432282 0.630804 0.198284
O O9 0.031997 0.144087 0.262098
O O10 0.114741 0.000000 0.344852
O O11 0.000000 0.804993 0.000000
O O12 0.500000 0.584527 0.500000
O O13 0.432664 0.500000 0.657569
O O14 0.219939 0.615917 0.464011
O O15 0.968528 0.500000 0.701412
O O16 0.000000 0.425973 0.500000
#
# Coordination Sequence:
#
# PCOD9151659 Si02
#       6
#     4   4   4   4   4   4
#     4   8  14  28  51  78 107 140 186 241 289 333
#     4  12  25  40  58  86 124 164 196 233 294 359
#     4   8  14  28  51  78 106 142 189 240 287 334
#     4  10  21  33  50  82 115 150 188 237 290 342
#     4  10  23  42  65  92 117 147 195 253 299 339
#     4  10  21  40  66  89 111 150 202 246 287 343
#
# _framework density 18.788609999999998
#
# number of rings (size 3 to 8) (size 9 to 14) (size 15 to 20)
#    0.000    2.333    1.667    2.000    2.333    4.000 
#    3.000    2.500    0.000    2.000    0.000    2.333 
#    0.000    0.000    0.000    0.000    0.000    0.000 
#
# Total GULP energy -133683.322603 kJ/mol
# GULP energy per Si atom -5570.138442 kJ/mol
# Density = 1.874585 g / cm^3
# Si number density = 18.788610 Si / 1000 Ang^3
#
#
#
# Elastic Constant Matrix: (Units=GPa)
#
#
# Indices 1 2 3 4 5 6 
#
# 1 59.9743 30.7143 40.5605 0.0000 18.9968 0.0000
# 2 30.7143 94.7493 57.1528 0.0000 21.3347 0.0000
# 3 40.5605 57.1528 96.2443 0.0000 26.4734 0.0000
# 4 0.0000 0.0000 0.0000 -179.5922 0.0000 -132.2867
# 5 18.9968 21.3347 26.4734 0.0000 25.8749 0.0000
# 6 0.0000 0.0000 0.0000 -132.2867 0.0000 -104.4205
#
#
#
# Elastic Compliance Matrix: (Units=1/GPa)
#
#
# Indices 1 2 3 4 5 6 
#
# 1 0.025466 -0.001836 -0.006841 0.000000 -0.010184 0.000000
# 2 -0.001836 0.017048 -0.008147 0.000000 -0.004374 0.000000
# 3 -0.006841 -0.008147 0.020710 0.000000 -0.009449 0.000000
# 4 0.000000 0.000000 0.000000 -0.083315 0.000000 0.105549
# 5 -0.010184 -0.004374 -0.009449 0.000000 0.059398 0.000000
# 6 0.000000 0.000000 0.000000 0.105549 0.000000 -0.143293
#
#
# Mechanical properties :
#
#
# Convention : Reuss Voigt Hill
#
# Bulk Modulus (GPa) = 33.80957 56.42480 45.11719
# Shear Modulus (GPa) = -82.67618 -43.45819 -63.06719
#
# Velocity S-wave (km/s) = -6.64070 -4.81459 -5.79996
# Velocity P-wave (km/s) = 6.38473 0.90026 4.55934
#
# Compressibility (1/GPa) = 0.02957742
#
# Stress axis : x y z
#
# Youngs Moduli (GPa) = 39.26771 58.65640 48.28470
#
# Poissons Ratio (x) = 0.10767 0.33031
# Poissons Ratio (y) = 0.07208 0.39339
# Poissons Ratio (z) = 0.26863 0.47789
#
# Static dielectric constant tensor:
#      x y z
#    x -1.828610 0.000000 0.858540 
#    y 0.000000 1.675560 0.000000 
#    z 0.858540 0.000000 1.426800 
# 
# From -- ./inp_files/20268.got.cif
#   From: 2010.05.17/outbox.cif.g08.bks.cpg/sg10_11_cif.got.tgz:20268.got - 2010.06.03 11:33:40.
