data_PCOD9151620
_publ_section_title
;
Structure prediction by ZEFSAII (Michael W. Deem and Ramdas Pophale) SiO2 
 PCOD9151620
Probable space group: P 2/M
;
_chemical_formula_sum "Si O2"
_cell_formula_units_Z 16
_cell_length_a 12.366879
_cell_length_b 7.676225
_cell_length_c 9.561370
_cell_angle_alpha 90.000000
_cell_angle_beta 120.264853
_cell_angle_gamma 90.000000
_cell_volume 783.958920
_symmetry_space_group_name_H-M "P 2/M"
_symmetry_group_IT_number 10
_symmetry_cell_setting 'monoclinic'
loop_
_space_group_symop_operation_xyz
x,y,z
-x,y,-z
-x,-y,-z
x,-y,z
loop_
_atom_site_type_symbol
_atom_site_label
_atom_site_fract_x
_atom_site_fract_y
_atom_site_fract_z
Si Si1 0.871217 0.000000 0.501346
Si Si2 0.235900 0.701831 0.981362
Si Si3 0.551695 0.296777 0.678609
Si Si4 0.964842 0.000000 0.137677
Si Si5 0.654078 0.198080 0.234821
O O1 0.785619 0.836008 0.400936
O O2 0.000000 0.000000 0.500000
O O3 0.911951 0.000000 0.687380
O O4 0.200297 0.500000 0.981321
O O5 0.318994 0.711228 0.894242
O O6 0.119989 0.830897 0.885183
O O7 0.321831 0.769938 0.165666
O O8 0.500000 0.217847 0.500000
O O9 0.577988 0.500000 0.668055
O O10 0.443883 0.283300 0.725058
O O11 0.000000 0.000000 0.000000
O O12 0.610186 0.000000 0.177007
#
# Coordination Sequence:
#
# PCOD9151620 Si02
#       5
#     2   4   4   2   4
#     4  10  20  43  60  91 121 158 209 256 292 370
#     4  11  23  42  66  92 123 164 207 250 311 369
#     4  10  23  40  59  93 129 157 203 259 310 371
#     4  12  26  43  66  89 129 162 205 262 302 356
#     4  10  21  37  67  88 124 158 206 254 303 360
#
# _framework density 20.409230999999998
#
# number of rings (size 3 to 8) (size 9 to 14) (size 15 to 20)
#    0.750    0.750    3.750    1.500    5.250    4.000 
#    0.000    3.750    0.000    0.000    0.000    0.000 
#    0.000    0.000    0.000    0.000    0.000    0.000 
#
# Total GULP energy -89264.899552 kJ/mol
# GULP energy per Si atom -5579.056222 kJ/mol
# Density = 2.036278 g / cm^3
# Si number density = 20.409231 Si / 1000 Ang^3
#
#
#
# Elastic Constant Matrix: (Units=GPa)
#
#
# Indices 1 2 3 4 5 6 
#
# 1 29.3966 -10.2625 18.5530 0.0000 -8.9848 0.0000
# 2 -10.2625 65.8299 24.8416 0.0000 0.3254 0.0000
# 3 18.5530 24.8416 157.6925 0.0000 12.7423 0.0000
# 4 0.0000 0.0000 0.0000 21.4139 0.0000 -0.8667
# 5 -8.9848 0.3254 12.7423 0.0000 37.9964 0.0000
# 6 0.0000 0.0000 0.0000 -0.8667 0.0000 23.3113
#
#
#
# Elastic Compliance Matrix: (Units=1/GPa)
#
#
# Indices 1 2 3 4 5 6 
#
# 1 0.047121 0.010410 -0.008302 0.000000 0.013837 0.000000
# 2 0.010410 0.018471 -0.004441 0.000000 0.003793 0.000000
# 3 -0.008302 -0.004441 0.008401 0.000000 -0.004742 0.000000
# 4 0.000000 0.000000 0.000000 0.046769 0.000000 0.001739
# 5 0.013837 0.003793 -0.004742 0.000000 0.031148 0.000000
# 6 0.000000 0.000000 0.000000 0.001739 0.000000 0.042962
#
#
# Mechanical properties :
#
#
# Convention : Reuss Voigt Hill
#
# Bulk Modulus (GPa) = 14.42437 35.46478 24.94457
# Shear Modulus (GPa) = 22.45711 31.19677 26.82694
#
# Velocity S-wave (km/s) = 3.32074 3.91392 3.62947
# Velocity P-wave (km/s) = 4.66754 6.15139 5.46011
#
# Compressibility (1/GPa) = 0.06932714
#
# Stress axis : x y z
#
# Youngs Moduli (GPa) = 21.22205 54.13988 119.03320
#
# Poissons Ratio (x) = -0.56361 0.98821
# Poissons Ratio (y) = -0.22093 0.52863
# Poissons Ratio (z) = 0.17619 0.24043
#
# Static dielectric constant tensor:
#      x y z
#    x 1.699990 0.000000 0.008200 
#    y 0.000000 1.731530 0.000000 
#    z 0.008200 0.000000 1.782550 
# 
# From -- ./inp_files/22483.got.cif
#   From: 2010.05.17/outbox.cif.g08.bks.cpg/sg10_12_cif.got.tgz:22483.got - 2010.06.03 11:33:40.
