data_PCOD9151171
_publ_section_title
;
Structure prediction by ZEFSAII (Michael W. Deem and Ramdas Pophale) SiO2 
 PCOD9151171
Probable space group: P 2/M
;
_chemical_formula_sum "Si O2"
_cell_formula_units_Z 28
_cell_length_a 7.310427
_cell_length_b 13.780627
_cell_length_c 15.002580
_cell_angle_alpha 90.000000
_cell_angle_beta 87.148509
_cell_angle_gamma 90.000000
_cell_volume 1509.522573
_symmetry_space_group_name_H-M "P 2/M"
_symmetry_group_IT_number 10
_symmetry_cell_setting 'monoclinic'
loop_
_space_group_symop_operation_xyz
x,y,z
-x,y,-z
-x,-y,-z
x,-y,z
loop_
_atom_site_type_symbol
_atom_site_label
_atom_site_fract_x
_atom_site_fract_y
_atom_site_fract_z
Si Si1 0.169615 0.889136 0.116777
Si Si2 0.267280 0.111279 0.918618
Si Si3 0.179452 0.274285 0.460017
Si Si4 0.335737 0.227179 0.747441
Si Si5 0.094784 0.744898 0.269825
Si Si6 0.333402 0.892172 0.573980
Si Si7 0.383982 0.612846 0.322735
O O1 0.190201 0.813728 0.195690
O O2 0.951125 0.888670 0.099384
O O3 0.215298 0.000000 0.140344
O O4 0.274763 0.863444 0.023001
O O5 0.358796 0.181909 0.845025
O O6 0.330442 0.000000 0.906397
O O7 0.222697 0.196016 0.533299
O O8 0.337538 0.346521 0.423241
O O9 0.000000 0.329303 0.500000
O O10 0.865554 0.217991 0.631025
O O11 0.380490 0.145073 0.671921
O O12 0.458938 0.319782 0.722179
O O13 0.121157 0.255373 0.742072
O O14 0.197632 0.641401 0.273211
O O15 0.500000 0.898893 0.500000
O O16 0.248638 0.000000 0.581295
O O17 0.423057 0.500000 0.320445
#
# Coordination Sequence:
#
# PCOD9151171 Si02
#       7
#     4   4   4   4   4   4   4
#     4   8  14  29  53  83 114 148 179 209 260 315
#     4   8  15  28  52  85 116 143 180 217 251 315
#     4  10  20  38  53  78 110 138 181 225 260 317
#     4  11  19  36  57  80 109 144 180 215 271 317
#     4   9  20  35  57  78 110 141 176 223 262 320
#     4  11  20  32  51  76 112 147 174 206 254 318
#     4  10  23  40  57  77 105 136 180 237 278 317
#
# _framework density 18.548912000000001
#
# number of rings (size 3 to 8) (size 9 to 14) (size 15 to 20)
#    0.857    1.571    2.857    1.286    0.000    2.286 
#    0.000    3.571    0.000    3.429    0.000    4.000 
#    0.000    0.000    0.000    0.000    0.000    0.000 
#
# Total GULP energy -155875.404206 kJ/mol
# GULP energy per Si atom -5566.978722 kJ/mol
# Density = 1.850669 g / cm^3
# Si number density = 18.548912 Si / 1000 Ang^3
#
#
#
# Elastic Constant Matrix: (Units=GPa)
#
#
# Indices 1 2 3 4 5 6 
#
# 1 44.2540 18.2744 20.7285 0.0000 -21.2969 0.0000
# 2 18.2744 115.5476 65.5336 0.0000 -18.7579 0.0000
# 3 20.7285 65.5336 126.5653 0.0000 -15.4621 0.0000
# 4 0.0000 0.0000 0.0000 15.5130 0.0000 11.3217
# 5 -21.2969 -18.7579 -15.4621 0.0000 27.1346 0.0000
# 6 0.0000 0.0000 0.0000 11.3217 0.0000 4.1017
#
#
#
# Elastic Compliance Matrix: (Units=1/GPa)
#
#
# Indices 1 2 3 4 5 6 
#
# 1 0.037162 0.000217 -0.002813 0.000000 0.027714 0.000000
# 2 0.000217 0.012982 -0.006062 0.000000 0.005690 0.000000
# 3 -0.002813 -0.006062 0.011521 0.000000 0.000166 0.000000
# 4 0.000000 0.000000 0.000000 -0.063541 0.000000 0.175390
# 5 0.027714 0.005690 0.000166 0.000000 0.062634 0.000000
# 6 0.000000 0.000000 0.000000 0.175390 0.000000 -0.240319
#
#
# Mechanical properties :
#
#
# Convention : Reuss Voigt Hill
#
# Bulk Modulus (GPa) = 22.54838 55.04887 38.79863
# Shear Modulus (GPa) = -33.90712 21.47188 -6.21762
#
# Velocity S-wave (km/s) = -4.28013 3.40602 -1.83284
# Velocity P-wave (km/s) = 3.49907 6.72384 4.05996
#
# Compressibility (1/GPa) = 0.04434908
#
# Stress axis : x y z
#
# Youngs Moduli (GPa) = 26.90913 77.02856 86.79733
#
# Poissons Ratio (x) = -0.01673 0.24416
# Poissons Ratio (y) = -0.00584 0.52620
# Poissons Ratio (z) = 0.07569 0.46698
#
# Static dielectric constant tensor:
#      x y z
#    x 1.754750 0.000000 -0.007810 
#    y 0.000000 1.604800 0.000000 
#    z -0.007810 0.000000 1.651830 
# 
# From -- ./inp_files/60920.got.cif
#   From: 2010.05.17/outbox.cif.g08.bks.cpg/sg10_31_cif.got.tgz:60920.got - 2010.06.03 11:33:40.
