data_PCOD9151624
_publ_section_title
;
Structure prediction by ZEFSAII (Michael W. Deem and Ramdas Pophale) SiO2 
 PCOD9151624
Probable space group: P 2/M
;
_chemical_formula_sum "Si O2"
_cell_formula_units_Z 17
_cell_length_a 7.661546
_cell_length_b 17.593734
_cell_length_c 5.986364
_cell_angle_alpha 90.000000
_cell_angle_beta 68.837438
_cell_angle_gamma 90.000000
_cell_volume 752.513489
_symmetry_space_group_name_H-M "P 2/M"
_symmetry_group_IT_number 10
_symmetry_cell_setting 'monoclinic'
loop_
_space_group_symop_operation_xyz
x,y,z
-x,y,-z
-x,-y,-z
x,-y,z
loop_
_atom_site_type_symbol
_atom_site_label
_atom_site_fract_x
_atom_site_fract_y
_atom_site_fract_z
Si Si1 0.204803 0.725727 0.799869
Si Si2 0.296111 0.416255 0.476212
Si Si3 0.000000 0.000000 0.000000
Si Si4 0.500000 0.658700 0.000000
Si Si5 0.590381 0.000000 0.711138
Si Si6 0.165359 0.873416 0.575711
O O1 0.189861 0.652539 0.644538
O O2 0.370901 0.707751 0.895759
O O3 0.260639 0.802218 0.645873
O O4 0.000000 0.738787 0.000000
O O5 0.500000 0.419123 0.500000
O O6 0.210117 0.500000 0.534259
O O7 0.351619 0.393202 0.200942
O O8 0.910933 0.066689 0.206232
O O9 0.500000 0.000000 0.500000
O O10 0.709925 0.076503 0.647481
O O11 0.500000 0.000000 0.000000
O O12 0.000000 0.841473 0.500000
#
# Coordination Sequence:
#
# PCOD9151624 Si02
#       6
#     4   4   1   2   2   4
#     4  11  25  44  70 106 139 188 241 297 367 435
#     4   9  20  41  68 101 141 188 236 295 367 437
#     4  10  20  44  72  96 124 192 236 276 366 438
#     4  10  23  44  70  97 148 182 244 295 366 436
#     4  11  28  49  76 114 149 189 247 311 379 444
#     4  11  26  46  74  97 143 190 240 294 368 446
#
# _framework density 22.590958000000001
#
# number of rings (size 3 to 8) (size 9 to 14) (size 15 to 20)
#    0.000    1.647    1.176    1.765    9.882    4.235 
#    4.235    1.176    0.000    0.000    0.000    0.000 
#    0.000    0.000    0.000    0.000    0.000    0.000 
#
# Total GULP energy -94725.165664 kJ/mol
# GULP energy per Si atom -5572.068568 kJ/mol
# Density = 2.253954 g / cm^3
# Si number density = 22.590958 Si / 1000 Ang^3
#
#
#
# Elastic Constant Matrix: (Units=GPa)
#
#
# Indices 1 2 3 4 5 6 
#
# 1 51.3503 26.2737 17.5522 0.0000 8.8234 0.0000
# 2 26.2737 185.3151 63.6366 0.0000 9.2698 0.0000
# 3 17.5522 63.6366 148.2883 0.0000 -7.5474 0.0000
# 4 0.0000 0.0000 0.0000 77.0301 0.0000 2.0252
# 5 8.8234 9.2698 -7.5474 0.0000 32.2785 0.0000
# 6 0.0000 0.0000 0.0000 2.0252 0.0000 10.7783
#
#
#
# Elastic Compliance Matrix: (Units=1/GPa)
#
#
# Indices 1 2 3 4 5 6 
#
# 1 0.022293 -0.002174 -0.002008 0.000000 -0.005939 0.000000
# 2 -0.002174 0.006744 -0.002738 0.000000 -0.001982 0.000000
# 3 -0.002008 -0.002738 0.008323 0.000000 0.003281 0.000000
# 4 0.000000 0.000000 0.000000 0.013046 0.000000 -0.002451
# 5 -0.005939 -0.001982 0.003281 0.000000 0.033940 0.000000
# 6 0.000000 0.000000 0.000000 -0.002451 0.000000 0.093240
#
#
# Mechanical properties :
#
#
# Convention : Reuss Voigt Hill
#
# Bulk Modulus (GPa) = 42.51565 66.65318 54.58441
# Shear Modulus (GPa) = 25.09207 42.51680 33.80443
#
# Velocity S-wave (km/s) = 3.33635 4.34294 3.87249
# Velocity P-wave (km/s) = 5.80537 7.39707 6.64902
#
# Compressibility (1/GPa) = 0.02352075
#
# Stress axis : x y z
#
# Youngs Moduli (GPa) = 44.85647 148.28682 120.14747
#
# Poissons Ratio (x) = 0.32239 0.24126
# Poissons Ratio (y) = 0.09752 0.32891
# Poissons Ratio (z) = 0.09007 0.40594
#
# Static dielectric constant tensor:
#      x y z
#    x 1.888110 0.000000 0.028440 
#    y 0.000000 1.791240 0.000000 
#    z 0.028440 0.000000 1.888640 
# 
# From -- ./inp_files/3989.got.cif
#   From: 2010.05.17/outbox.cif.g08.bks.cpg/sg10_2_cif.got.tgz:3989.got - 2010.06.03 11:33:40.
