data_PCOD9151669
_publ_section_title
;
Structure prediction by ZEFSAII (Michael W. Deem and Ramdas Pophale) SiO2 
 PCOD9151669
Probable space group: P 2/M
;
_chemical_formula_sum "Si O2"
_cell_formula_units_Z 20
_cell_length_a 5.676862
_cell_length_b 22.070570
_cell_length_c 7.906662
_cell_angle_alpha 90.000000
_cell_angle_beta 61.906560
_cell_angle_gamma 90.000000
_cell_volume 873.921967
_symmetry_space_group_name_H-M "P 2/M"
_symmetry_group_IT_number 10
_symmetry_cell_setting 'monoclinic'
loop_
_space_group_symop_operation_xyz
x,y,z
-x,y,-z
-x,-y,-z
x,-y,z
loop_
_atom_site_type_symbol
_atom_site_label
_atom_site_fract_x
_atom_site_fract_y
_atom_site_fract_z
Si Si1 0.241326 0.753787 0.209418
Si Si2 0.470746 0.132524 0.306611
Si Si3 0.680619 0.000000 0.613061
Si Si4 0.829651 0.383842 0.714911
Si Si5 0.321458 0.428322 0.728496
Si Si6 0.000000 0.185410 0.000000
O O1 0.287601 0.810525 0.316529
O O2 0.200469 0.688153 0.298844
O O3 0.007278 0.772309 0.161598
O O4 0.500000 0.749384 0.000000
O O5 0.500000 0.133407 0.500000
O O6 0.380381 0.065354 0.285722
O O7 0.742755 0.144643 0.113212
O O8 0.500000 0.000000 0.500000
O O9 0.000000 0.000000 0.500000
O O10 0.528946 0.409081 0.804773
O O11 0.000000 0.410683 0.500000
O O12 0.032092 0.397356 0.800837
O O13 0.500000 0.414151 0.500000
O O14 0.276141 0.500000 0.752672
#
# Coordination Sequence:
#
# PCOD9151669 Si02
#       6
#     4   4   2   4   4   2
#     4  10  24  41  60  92 128 170 215 270 327 387
#     4  10  24  42  71  95 134 175 220 279 329 398
#     4  10  24  43  69 105 132 173 225 273 339 392
#     4  10  21  33  61  90 116 161 211 258 324 384
#     4   9  18  34  55  88 124 155 202 264 319 383
#     4  10  24  43  62  98 131 180 222 268 344 382
#
# _framework density 22.885338000000001
#
# number of rings (size 3 to 8) (size 9 to 14) (size 15 to 20)
#    0.000    2.200    0.000    0.600   14.000    3.600 
#    0.000    4.500    0.000    3.600    0.000    0.000 
#    0.000    0.000    0.000    0.000    0.000    0.000 
#
# Total GULP energy -111613.489543 kJ/mol
# GULP energy per Si atom -5580.674477 kJ/mol
# Density = 2.283325 g / cm^3
# Si number density = 22.885338 Si / 1000 Ang^3
#
#
#
# Elastic Constant Matrix: (Units=GPa)
#
#
# Indices 1 2 3 4 5 6 
#
# 1 155.5058 46.1116 13.2431 0.0000 -7.6380 0.0000
# 2 46.1116 105.9831 -5.8447 0.0000 -0.1903 0.0000
# 3 13.2431 -5.8447 57.8229 0.0000 6.9304 0.0000
# 4 0.0000 0.0000 0.0000 42.6703 0.0000 4.5059
# 5 -7.6380 -0.1903 6.9304 0.0000 34.6837 0.0000
# 6 0.0000 0.0000 0.0000 4.5059 0.0000 24.0495
#
#
#
# Elastic Compliance Matrix: (Units=1/GPa)
#
#
# Indices 1 2 3 4 5 6 
#
# 1 0.007784 -0.003515 -0.002399 0.000000 0.002174 0.000000
# 2 -0.003515 0.011076 0.002059 0.000000 -0.001125 0.000000
# 3 -0.002399 0.002059 0.018558 0.000000 -0.004225 0.000000
# 4 0.000000 0.000000 0.000000 0.023909 0.000000 -0.004479
# 5 0.002174 -0.001125 -0.004225 0.000000 0.030149 0.000000
# 6 0.000000 0.000000 0.000000 -0.004479 0.000000 0.042420
#
#
# Mechanical properties :
#
#
# Convention : Reuss Voigt Hill
#
# Bulk Modulus (GPa) = 33.65874 47.37021 40.51448
# Shear Modulus (GPa) = 33.00158 38.00082 35.50120
#
# Velocity S-wave (km/s) = 3.80154 4.07933 3.94288
# Velocity P-wave (km/s) = 5.83167 6.55223 6.20243
#
# Compressibility (1/GPa) = 0.02970997
#
# Stress axis : x y z
#
# Youngs Moduli (GPa) = 128.46863 90.28230 53.88474
#
# Poissons Ratio (x) = 0.31735 0.12925
# Poissons Ratio (y) = 0.45158 -0.11097
# Poissons Ratio (z) = 0.30815 -0.18593
#
# Static dielectric constant tensor:
#      x y z
#    x 1.968880 0.000000 0.038490 
#    y 0.000000 1.830560 0.000000 
#    z 0.038490 0.000000 1.902730 
# 
# From -- ./inp_files/15179.got.cif
#   From: 2010.05.17/outbox.cif.g08.bks.cpg/sg10_8_cif.got.tgz:15179.got - 2010.06.03 11:33:40.
