data_PCOD9151523
_publ_section_title
;
Structure prediction by ZEFSAII (Michael W. Deem and Ramdas Pophale) SiO2 
 PCOD9151523
Probable space group: P 2/M
;
_chemical_formula_sum "Si O2"
_cell_formula_units_Z 32
_cell_length_a 15.339953
_cell_length_b 22.528209
_cell_length_c 9.814345
_cell_angle_alpha 90.000000
_cell_angle_beta 151.726486
_cell_angle_gamma 90.000000
_cell_volume 1606.564296
_symmetry_space_group_name_H-M "P 2/M"
_symmetry_group_IT_number 10
_symmetry_cell_setting 'monoclinic'
loop_
_space_group_symop_operation_xyz
x,y,z
-x,y,-z
-x,-y,-z
x,-y,z
loop_
_atom_site_type_symbol
_atom_site_label
_atom_site_fract_x
_atom_site_fract_y
_atom_site_fract_z
Si Si1 0.654426 0.929696 0.829857
Si Si2 0.425147 0.136789 0.744930
Si Si3 0.191907 0.654726 0.835382
Si Si4 0.720712 0.567100 0.808571
Si Si5 0.718410 0.566599 0.275632
Si Si6 0.820865 0.368854 0.684383
Si Si7 0.959367 0.931727 0.782802
Si Si8 0.519669 0.273378 0.192113
O O1 0.500000 0.922460 0.500000
O O2 0.567504 0.895727 0.838794
O O3 0.665997 0.000000 0.877036
O O4 0.856550 0.912292 0.047750
O O5 0.222951 0.107917 0.475259
O O6 0.419758 0.206224 0.699198
O O7 0.500000 0.133310 0.000000
O O8 0.260470 0.601567 0.833686
O O9 0.000000 0.671544 0.500000
O O10 0.204835 0.622435 0.999083
O O11 0.329283 0.709466 0.003467
O O12 0.500000 0.570239 0.500000
O O13 0.772860 0.500000 0.925067
O O14 0.777830 0.579024 0.732052
O O15 0.787563 0.500000 0.360155
O O16 0.823233 0.600400 0.540363
O O17 0.500000 0.565460 0.000000
O O18 0.665056 0.319621 0.452716
O O19 0.000000 0.340311 0.000000
O O20 0.918795 0.000000 0.684378
O O21 0.000000 0.933297 0.000000
O O22 0.500000 0.282333 0.000000
#
# Coordination Sequence:
#
# PCOD9151523 Si02
#       8
#     4   4   4   4   4   4   4   4
#     4  10  20  40  70 103 140 178 218 268 329 394
#     4  11  25  43  66  96 137 180 226 285 327 375
#     4  12  23  41  65  87 118 161 207 259 318 386
#     4  11  23  39  60  92 128 150 187 264 338 384
#     4  11  21  39  67  87 114 163 206 247 313 398
#     4  12  23  40  63  87 120 159 203 260 319 377
#     4  10  20  39  70 104 139 179 220 264 328 397
#     4  11  24  49  63  84 125 173 220 259 308 380
#
# _framework density 19.918279999999999
#
# number of rings (size 3 to 8) (size 9 to 14) (size 15 to 20)
#    0.000    1.000    5.000    1.875    0.000    7.000 
#    6.750    1.250    0.000    0.000    0.000    0.000 
#    0.000    0.000    0.000    0.000    0.000    0.000 
#
# Total GULP energy -178576.000951 kJ/mol
# GULP energy per Si atom -5580.500030 kJ/mol
# Density = 1.987295 g / cm^3
# Si number density = 19.918280 Si / 1000 Ang^3
#
#
#
# Elastic Constant Matrix: (Units=GPa)
#
#
# Indices 1 2 3 4 5 6 
#
# 1 83.9049 32.4818 6.8185 0.0000 14.6030 0.0000
# 2 32.4818 99.5430 38.0584 0.0000 17.5487 0.0000
# 3 6.8185 38.0584 76.3869 0.0000 24.9243 0.0000
# 4 0.0000 0.0000 0.0000 107.4677 0.0000 -67.7955
# 5 14.6030 17.5487 24.9243 0.0000 42.7491 0.0000
# 6 0.0000 0.0000 0.0000 -67.7955 0.0000 -1.3052
#
#
#
# Elastic Compliance Matrix: (Units=1/GPa)
#
#
# Indices 1 2 3 4 5 6 
#
# 1 0.014375 -0.004907 0.002602 0.000000 -0.004413 0.000000
# 2 -0.004907 0.014203 -0.006524 0.000000 -0.000350 0.000000
# 3 0.002602 -0.006524 0.019173 0.000000 -0.009389 0.000000
# 4 0.000000 0.000000 0.000000 0.000276 0.000000 -0.014313
# 5 -0.004413 -0.000350 -0.009389 0.000000 0.030518 0.000000
# 6 0.000000 0.000000 0.000000 -0.014313 0.000000 -0.022689
#
#
# Mechanical properties :
#
#
# Convention : Reuss Voigt Hill
#
# Bulk Modulus (GPa) = 33.23199 46.06135 39.64667
# Shear Modulus (GPa) = 59.84771 41.94740 50.89756
#
# Velocity S-wave (km/s) = 5.48743 4.59407 5.06050
# Velocity P-wave (km/s) = 7.54119 7.16352 7.35478
#
# Compressibility (1/GPa) = 0.03009149
#
# Stress axis : x y z
#
# Youngs Moduli (GPa) = 69.56717 70.40568 52.15616
#
# Poissons Ratio (x) = 0.34550 -0.13570
# Poissons Ratio (y) = 0.34139 0.34028
# Poissons Ratio (z) = -0.18099 0.45934
#
# Static dielectric constant tensor:
#      x y z
#    x 1.704710 0.000000 0.050040 
#    y 0.000000 1.676360 0.000000 
#    z 0.050040 0.000000 1.746280 
# 
# From -- ./inp_files/30630.got.cif
#   From: 2010.05.17/outbox.cif.g08.bks.cpg/sg10_16_cif.got.tgz:30630.got - 2010.06.03 11:33:40.
