data_PCOD9151049
_publ_section_title
;
Structure prediction by ZEFSAII (Michael W. Deem and Ramdas Pophale) SiO2 
 PCOD9151049
Probable space group: P 2/M
;
_chemical_formula_sum "Si O2"
_cell_formula_units_Z 28
_cell_length_a 7.954742
_cell_length_b 9.066286
_cell_length_c 28.544297
_cell_angle_alpha 90.000000
_cell_angle_beta 44.904334
_cell_angle_gamma 90.000000
_cell_volume 1453.227205
_symmetry_space_group_name_H-M "P 2/M"
_symmetry_group_IT_number 10
_symmetry_cell_setting 'monoclinic'
loop_
_space_group_symop_operation_xyz
x,y,z
-x,y,-z
-x,-y,-z
x,-y,z
loop_
_atom_site_type_symbol
_atom_site_label
_atom_site_fract_x
_atom_site_fract_y
_atom_site_fract_z
Si Si1 0.724929 0.167490 0.068433
Si Si2 0.697015 0.174377 0.420849
Si Si3 0.600415 0.323131 0.340933
Si Si4 0.470590 0.836755 0.789387
Si Si5 0.198432 0.324878 0.342706
Si Si6 0.946632 0.166551 0.204604
Si Si7 0.389748 0.328158 0.070658
O O1 0.656302 0.188295 0.136093
O O2 0.596242 0.297159 0.066663
O O3 0.640776 0.000000 0.072150
O O4 0.000000 0.171370 0.000000
O O5 0.500000 0.193542 0.500000
O O6 0.605920 0.251704 0.391145
O O7 0.946151 0.243336 0.389451
O O8 0.728861 0.000000 0.405756
O O9 0.607235 0.500000 0.342706
O O10 0.371196 0.284045 0.352943
O O11 0.836199 0.263251 0.267985
O O12 0.658006 0.719991 0.732781
O O13 0.262095 0.840732 0.792405
O O14 0.584926 0.000000 0.768273
O O15 0.162463 0.500000 0.351600
O O16 0.167843 0.239395 0.134796
O O17 0.002660 0.000000 0.209430
O O18 0.328409 0.500000 0.077792
O O19 0.500000 0.273592 0.000000
#
# Coordination Sequence:
#
# PCOD9151049 Si02
#       7
#     4   4   4   4   4   4   4
#     4  10  21  37  57  81 110 148 196 248 300 357
#     4  11  25  43  65  94 128 167 211 259 310 370
#     4  10  22  41  65  94 128 165 207 255 312 374
#     4   9  19  36  59  86 115 149 194 247 300 360
#     4  10  22  40  64  93 126 165 206 255 313 374
#     4  10  20  37  62  87 114 152 196 247 301 358
#     4  11  24  38  53  78 114 155 197 245 301 361
#
# _framework density 19.267461000000001
#
# number of rings (size 3 to 8) (size 9 to 14) (size 15 to 20)
#    0.000    1.857    0.000    3.000    2.000    7.143 
#    0.000    2.857    0.000    0.000    0.000    0.000 
#    0.000    0.000    0.000    0.000    0.000    0.000 
#
# Total GULP energy -156255.203187 kJ/mol
# GULP energy per Si atom -5580.542971 kJ/mol
# Density = 1.922361 g / cm^3
# Si number density = 19.267461 Si / 1000 Ang^3
#
#
#
# Elastic Constant Matrix: (Units=GPa)
#
#
# Indices 1 2 3 4 5 6 
#
# 1 73.4878 54.7545 60.8293 0.0000 0.9154 0.0000
# 2 54.7545 92.8263 68.5087 0.0000 -0.8193 0.0000
# 3 60.8293 68.5087 129.8719 0.0000 3.5565 0.0000
# 4 0.0000 0.0000 0.0000 -61.1722 0.0000 -13.8857
# 5 0.9154 -0.8193 3.5565 0.0000 38.6873 0.0000
# 6 0.0000 0.0000 0.0000 -13.8857 0.0000 28.5593
#
#
#
# Elastic Compliance Matrix: (Units=1/GPa)
#
#
# Indices 1 2 3 4 5 6 
#
# 1 0.027831 -0.011140 -0.007153 0.000000 -0.000237 0.000000
# 2 -0.011140 0.022158 -0.006507 0.000000 0.001331 0.000000
# 3 -0.007153 -0.006507 0.014519 0.000000 -0.001303 0.000000
# 4 0.000000 0.000000 0.000000 -0.014722 0.000000 -0.007158
# 5 -0.000237 0.001331 -0.001303 0.000000 0.026002 0.000000
# 6 0.000000 0.000000 0.000000 -0.007158 0.000000 0.031535
#
#
# Mechanical properties :
#
#
# Convention : Reuss Voigt Hill
#
# Bulk Modulus (GPa) = 67.07782 73.81903 70.44842
# Shear Modulus (GPa) = 30.88486 8.68776 19.78631
#
# Velocity S-wave (km/s) = 4.00803 2.12575 3.20805
# Velocity P-wave (km/s) = 7.50392 6.66491 7.09682
#
# Compressibility (1/GPa) = 0.01490806
#
# Stress axis : x y z
#
# Youngs Moduli (GPa) = 35.93065 45.13016 68.87709
#
# Poissons Ratio (x) = 0.50273 0.49267
# Poissons Ratio (y) = 0.40026 0.44822
# Poissons Ratio (z) = 0.25701 0.29368
#
# Static dielectric constant tensor:
#      x y z
#    x 1.683310 0.000000 0.040160 
#    y 0.000000 1.674110 0.000000 
#    z 0.040160 0.000000 1.757570 
# 
# From -- ./inp_files/90335.got.cif
#   From: 2010.05.17/outbox.cif.g08.bks.cpg/sg10_46_cif.got.tgz:90335.got - 2010.06.03 11:33:40.
