data_PCOD9151485
_publ_section_title
;
Structure prediction by ZEFSAII (Michael W. Deem and Ramdas Pophale) SiO2 
 PCOD9151485
Probable space group: P 2/M
;
_chemical_formula_sum "Si O2"
_cell_formula_units_Z 32
_cell_length_a 12.595842
_cell_length_b 8.882458
_cell_length_c 14.748563
_cell_angle_alpha 90.000000
_cell_angle_beta 91.047781
_cell_angle_gamma 90.000000
_cell_volume 1649.823372
_symmetry_space_group_name_H-M "P 2/M"
_symmetry_group_IT_number 10
_symmetry_cell_setting 'monoclinic'
loop_
_space_group_symop_operation_xyz
x,y,z
-x,y,-z
-x,-y,-z
x,-y,z
loop_
_atom_site_type_symbol
_atom_site_label
_atom_site_fract_x
_atom_site_fract_y
_atom_site_fract_z
Si Si1 0.328083 0.822788 0.010799
Si Si2 0.880406 0.674697 0.964053
Si Si3 0.377392 0.678800 0.207628
Si Si4 0.223183 0.824999 0.351515
Si Si5 0.169182 0.318927 0.728919
Si Si6 0.879519 0.182588 0.467470
Si Si7 0.957468 0.174542 0.792565
Si Si8 0.610872 0.679659 0.170952
O O1 0.205944 0.777053 0.988805
O O2 0.350818 0.749568 0.108938
O O3 0.341623 0.000000 0.017578
O O4 0.392974 0.757923 0.927256
O O5 0.850178 0.500000 0.973170
O O6 0.888650 0.727749 0.860833
O O7 0.000000 0.693791 0.000000
O O8 0.362502 0.500000 0.200511
O O9 0.305398 0.740290 0.288032
O O10 0.502533 0.711331 0.223020
O O11 0.201574 0.772788 0.453341
O O12 0.107265 0.820490 0.302027
O O13 0.255437 0.000000 0.353946
O O14 0.159317 0.500000 0.732268
O O15 0.153127 0.259611 0.626709
O O16 0.073000 0.244858 0.783405
O O17 0.283189 0.276587 0.772835
O O18 0.000000 0.221479 0.500000
O O19 0.876638 0.000000 0.457449
O O20 0.962037 0.000000 0.822272
O O21 0.616166 0.500000 0.155273
#
# Coordination Sequence:
#
# PCOD9151485 Si02
#       8
#     4   4   4   4   4   4   4   4
#     4  12  24  38  60  90 120 155 202 252 298 352
#     4  11  23  37  54  81 119 160 199 241 292 353
#     4  11  23  41  65  87 117 161 206 250 299 352
#     4  10  21  38  61  89 120 152 192 245 298 353
#     4  11  23  39  61  90 123 156 200 250 297 358
#     4  10  20  39  63  88 122 159 194 239 300 362
#     4  11  21  36  58  85 120 157 193 239 298 354
#     4  10  24  44  61  84 120 162 203 250 302 350
#
# _framework density 19.396014000000001
#
# number of rings (size 3 to 8) (size 9 to 14) (size 15 to 20)
#    0.000    1.250    2.500    3.750    0.000    8.750 
#    0.000    0.625    0.000    3.750    0.000    0.000 
#    0.000    0.000    0.000    0.000    0.000    0.000 
#
# Total GULP energy -178825.560065 kJ/mol
# GULP energy per Si atom -5588.298752 kJ/mol
# Density = 1.935187 g / cm^3
# Si number density = 19.396014 Si / 1000 Ang^3
#
#
#
# Elastic Constant Matrix: (Units=GPa)
#
#
# Indices 1 2 3 4 5 6 
#
# 1 120.3897 39.5185 35.0315 0.0000 -17.8377 0.0000
# 2 39.5185 39.7843 16.4750 0.0000 -8.1465 0.0000
# 3 35.0315 16.4750 76.8713 0.0000 -15.3396 0.0000
# 4 0.0000 0.0000 0.0000 -16.1776 0.0000 -70.9437
# 5 -17.8377 -8.1465 -15.3396 0.0000 28.6693 0.0000
# 6 0.0000 0.0000 0.0000 -70.9437 0.0000 -51.3967
#
#
#
# Elastic Compliance Matrix: (Units=1/GPa)
#
#
# Indices 1 2 3 4 5 6 
#
# 1 0.013434 -0.011389 -0.002977 0.000000 0.003530 0.000000
# 2 -0.011389 0.037958 -0.002471 0.000000 0.002378 0.000000
# 3 -0.002977 -0.002471 0.016105 0.000000 0.006063 0.000000
# 4 0.000000 0.000000 0.000000 0.012233 0.000000 -0.016885
# 5 0.003530 0.002378 0.006063 0.000000 0.040996 0.000000
# 6 0.000000 0.000000 0.000000 -0.016885 0.000000 0.003850
#
#
# Mechanical properties :
#
#
# Convention : Reuss Voigt Hill
#
# Bulk Modulus (GPa) = 29.56451 46.56615 38.06533
# Shear Modulus (GPa) = 29.49442 1.95369 15.72405
#
# Velocity S-wave (km/s) = 3.90377 1.00471 2.85034
# Velocity P-wave (km/s) = 5.96615 5.04045 5.52273
#
# Compressibility (1/GPa) = 0.03382433
#
# Stress axis : x y z
#
# Youngs Moduli (GPa) = 74.43826 26.34474 62.09373
#
# Poissons Ratio (x) = 0.30003 0.18485
# Poissons Ratio (y) = 0.84776 0.15341
# Poissons Ratio (z) = 0.22160 0.06509
#
# Static dielectric constant tensor:
#      x y z
#    x 1.713600 0.000000 0.004470 
#    y 0.000000 1.652210 0.000000 
#    z 0.004470 0.000000 1.693720 
# 
# From -- ./inp_files/63791.got.cif
#   From: 2010.05.17/outbox.cif.g08.bks.cpg/sg10_32_cif.got.tgz:63791.got - 2010.06.03 11:33:40.
