data_PCOD9151881
_publ_section_title
;
Structure prediction by ZEFSAII (Michael W. Deem and Ramdas Pophale) SiO2 
 PCOD9151881
Probable space group: P 2/M
;
_chemical_formula_sum "Si O2"
_cell_formula_units_Z 20
_cell_length_a 9.110625
_cell_length_b 13.025152
_cell_length_c 17.792537
_cell_angle_alpha 90.000000
_cell_angle_beta 151.777864
_cell_angle_gamma 90.000000
_cell_volume 998.458681
_symmetry_space_group_name_H-M "P 2/M"
_symmetry_group_IT_number 10
_symmetry_cell_setting 'monoclinic'
loop_
_space_group_symop_operation_xyz
x,y,z
-x,y,-z
-x,-y,-z
x,-y,z
loop_
_atom_site_type_symbol
_atom_site_label
_atom_site_fract_x
_atom_site_fract_y
_atom_site_fract_z
Si Si1 0.233972 0.884998 0.437059
Si Si2 0.873011 0.615379 0.673372
Si Si3 0.089357 0.730214 0.620910
Si Si4 0.315263 0.880977 0.094962
Si Si5 0.835387 0.197731 0.133050
O O1 0.500000 0.850320 0.500000
O O2 0.174373 0.816058 0.481403
O O3 0.936524 0.873374 0.248697
O O4 0.301134 0.000000 0.489473
O O5 0.500000 0.612815 0.500000
O O6 0.979755 0.500000 0.738458
O O7 0.033515 0.655474 0.667661
O O8 0.951864 0.701671 0.770671
O O9 0.414847 0.794779 0.768918
O O10 0.000000 0.683442 0.500000
O O11 0.425401 0.000000 0.155831
O O12 0.194292 0.865997 0.955383
O O13 0.000000 0.865363 0.000000
O O14 0.500000 0.240899 0.000000
#
# Coordination Sequence:
#
# PCOD9151881 Si02
#       5
#     4   4   4   4   4
#     4  10  21  35  56  85 117 161 208 246 290 351
#     4  10  23  44  69  91 113 152 203 254 312 368
#     4  11  23  39  60  86 123 160 198 250 296 357
#     4  11  25  39  56  88 128 170 200 233 291 352
#     4  11  20  38  62  87 116 157 197 256 297 350
#
# _framework density 20.030875000000002
#
# number of rings (size 3 to 8) (size 9 to 14) (size 15 to 20)
#    0.000    1.400    4.000    3.600    5.600    3.200 
#    0.000    0.000    0.000    1.200    0.000    0.000 
#    0.000    0.000    0.000    0.000    0.000    0.000 
#
# Total GULP energy -111400.643796 kJ/mol
# GULP energy per Si atom -5570.032190 kJ/mol
# Density = 1.998528 g / cm^3
# Si number density = 20.030875 Si / 1000 Ang^3
#
#
#
# Elastic Constant Matrix: (Units=GPa)
#
#
# Indices 1 2 3 4 5 6 
#
# 1 58.0072 0.3023 11.7226 0.0000 4.1975 0.0000
# 2 0.3023 83.9237 -0.2353 0.0000 17.2860 0.0000
# 3 11.7226 -0.2353 49.1504 0.0000 9.7515 0.0000
# 4 0.0000 0.0000 0.0000 2.7371 0.0000 -10.4756
# 5 4.1975 17.2860 9.7515 0.0000 34.5082 0.0000
# 6 0.0000 0.0000 0.0000 -10.4756 0.0000 3.7888
#
#
#
# Elastic Compliance Matrix: (Units=1/GPa)
#
#
# Indices 1 2 3 4 5 6 
#
# 1 0.018149 0.000155 -0.004105 0.000000 -0.001125 0.000000
# 2 0.000155 0.013388 0.001442 0.000000 -0.007133 0.000000
# 3 -0.004105 0.001442 0.022646 0.000000 -0.006622 0.000000
# 4 0.000000 0.000000 0.000000 -0.038129 0.000000 -0.105423
# 5 -0.001125 -0.007133 -0.006622 0.000000 0.034560 0.000000
# 6 0.000000 0.000000 0.000000 -0.105423 0.000000 -0.027546
#
#
# Mechanical properties :
#
#
# Convention : Reuss Voigt Hill
#
# Bulk Modulus (GPa) = 20.33832 23.85116 22.09474
# Shear Modulus (GPa) = 112.42740 20.15959 66.29350
#
# Velocity S-wave (km/s) = 7.49993 3.17586 5.75912
# Velocity P-wave (km/s) = 9.22898 5.03797 7.43489
#
# Compressibility (1/GPa) = 0.04916827
#
# Stress axis : x y z
#
# Youngs Moduli (GPa) = 55.09835 74.69220 44.15885
#
# Poissons Ratio (x) = -0.01157 0.18126
# Poissons Ratio (y) = -0.00854 -0.06369
# Poissons Ratio (z) = 0.22616 -0.10773
#
# Static dielectric constant tensor:
#      x y z
#    x 1.754590 0.000000 0.040940 
#    y 0.000000 1.717290 0.000000 
#    z 0.040940 0.000000 1.846520 
# 
# From -- ./inp_files/18535.got.cif
#   From: 2010.05.17/outbox.cif.g08.bks.cpg/sg10_10_cif.got.tgz:18535.got - 2010.06.03 11:33:40.
