data_PCOD9151103
_publ_section_title
;
Structure prediction by ZEFSAII (Michael W. Deem and Ramdas Pophale) SiO2 
 PCOD9151103
Probable space group: P 2/M
;
_chemical_formula_sum "Si O2"
_cell_formula_units_Z 28
_cell_length_a 14.462643
_cell_length_b 12.822543
_cell_length_c 8.551029
_cell_angle_alpha 90.000000
_cell_angle_beta 117.055153
_cell_angle_gamma 90.000000
_cell_volume 1412.237800
_symmetry_space_group_name_H-M "P 2/M"
_symmetry_group_IT_number 10
_symmetry_cell_setting 'monoclinic'
loop_
_space_group_symop_operation_xyz
x,y,z
-x,y,-z
-x,-y,-z
x,-y,z
loop_
_atom_site_type_symbol
_atom_site_label
_atom_site_fract_x
_atom_site_fract_y
_atom_site_fract_z
Si Si1 0.719026 0.326267 0.841896
Si Si2 0.990587 0.876557 0.807200
Si Si3 0.879635 0.500000 0.946287
Si Si4 0.782319 0.885981 0.462003
Si Si5 0.499525 0.382798 0.185564
Si Si6 0.841467 0.265236 0.235905
Si Si7 0.400455 0.793269 0.517381
Si Si8 0.891224 0.500000 0.327535
O O1 0.809826 0.401180 0.847210
O O2 0.618005 0.383141 0.837653
O O3 0.674851 0.257496 0.669257
O O4 0.768999 0.268175 0.027614
O O5 0.871467 0.869135 0.660312
O O6 0.054906 0.793394 0.750858
O O7 0.022343 0.000000 0.808763
O O8 0.000000 0.853541 0.000000
O O9 0.887464 0.500000 0.138230
O O10 0.000000 0.500000 0.000000
O O11 0.795557 0.803934 0.336409
O O12 0.668527 0.875857 0.445781
O O13 0.800912 0.000000 0.409111
O O14 0.543309 0.500000 0.239643
O O15 0.560335 0.296983 0.333515
O O16 0.500000 0.359757 0.000000
O O17 0.848194 0.381940 0.316405
O O18 0.500000 0.833965 0.500000
O O19 0.000000 0.500000 0.500000
#
# Coordination Sequence:
#
# PCOD9151103 Si02
#       8
#     4   4   2   4   4   4   4   2
#     4  10  21  37  58  85 124 156 203 249 297 366
#     4  10  21  38  63  91 121 163 212 257 301 360
#     4  10  22  36  52  80 120 165 197 231 286 349
#     4  11  23  41  63  88 120 160 208 258 310 366
#     4  10  20  37  63  89 120 157 203 254 301 358
#     4  11  22  38  61  89 126 162 203 249 306 369
#     4  10  23  39  62  90 117 156 202 257 311 362
#     4  10  22  36  52  80 120 159 194 237 290 355
#
# _framework density 19.826688000000001
#
# number of rings (size 3 to 8) (size 9 to 14) (size 15 to 20)
#    0.000    1.714    0.714    3.429    1.000    8.000 
#    1.286    0.714    0.000    9.000    0.000    0.000 
#    0.000    0.000    0.000    0.000    0.000    0.000 
#
# Total GULP energy -156105.411159 kJ/mol
# GULP energy per Si atom -5575.193256 kJ/mol
# Density = 1.978156 g / cm^3
# Si number density = 19.826688 Si / 1000 Ang^3
#
#
#
# Elastic Constant Matrix: (Units=GPa)
#
#
# Indices 1 2 3 4 5 6 
#
# 1 88.2236 49.2612 18.3614 0.0000 4.3042 0.0000
# 2 49.2612 101.7682 39.7559 0.0000 -3.9053 0.0000
# 3 18.3614 39.7559 67.0291 0.0000 15.4938 0.0000
# 4 0.0000 0.0000 0.0000 -0.6427 0.0000 5.4705
# 5 4.3042 -3.9053 15.4938 0.0000 29.6078 0.0000
# 6 0.0000 0.0000 0.0000 5.4705 0.0000 29.1866
#
#
#
# Elastic Compliance Matrix: (Units=1/GPa)
#
#
# Indices 1 2 3 4 5 6 
#
# 1 0.015975 -0.008568 0.001711 0.000000 -0.004348 0.000000
# 2 -0.008568 0.018562 -0.010825 0.000000 0.009359 0.000000
# 3 0.001711 -0.010825 0.024184 0.000000 -0.014332 0.000000
# 4 0.000000 0.000000 0.000000 -0.599511 0.000000 0.112368
# 5 -0.004348 0.009359 -0.014332 0.000000 0.043141 0.000000
# 6 0.000000 0.000000 0.000000 0.112368 0.000000 0.013201
#
#
# Mechanical properties :
#
#
# Convention : Reuss Voigt Hill
#
# Bulk Modulus (GPa) = 42.81719 52.41975 47.61847
# Shear Modulus (GPa) = -11.33020 21.60652 5.13816
#
# Velocity S-wave (km/s) = -2.39312 3.30475 1.61157
# Velocity P-wave (km/s) = 3.74254 6.40767 5.24713
#
# Compressibility (1/GPa) = 0.02335511
#
# Stress axis : x y z
#
# Youngs Moduli (GPa) = 62.59822 53.87458 41.34986
#
# Poissons Ratio (x) = 0.46159 -0.07073
# Poissons Ratio (y) = 0.53633 0.44763
# Poissons Ratio (z) = -0.10708 0.58322
#
# Static dielectric constant tensor:
#      x y z
#    x 1.714450 0.000000 0.008430 
#    y 0.000000 2.917190 0.000000 
#    z 0.008430 0.000000 1.653880 
# 
# From -- ./inp_files/28723.got.cif
#   From: 2010.05.17/outbox.cif.g08.bks.cpg/sg10_15_cif.got.tgz:28723.got - 2010.06.03 11:33:40.
