data_PCOD9151995
_publ_section_title
;
Structure prediction by ZEFSAII (Michael W. Deem and Ramdas Pophale) SiO2 
 PCOD9151995
Probable space group: P 2/M
;
_chemical_formula_sum "Si O2"
_cell_formula_units_Z 26
_cell_length_a 31.840015
_cell_length_b 8.156109
_cell_length_c 5.278716
_cell_angle_alpha 90.000000
_cell_angle_beta 120.229698
_cell_angle_gamma 90.000000
_cell_volume 1184.418930
_symmetry_space_group_name_H-M "P 2/M"
_symmetry_group_IT_number 10
_symmetry_cell_setting 'monoclinic'
loop_
_space_group_symop_operation_xyz
x,y,z
-x,y,-z
-x,-y,-z
x,-y,z
loop_
_atom_site_type_symbol
_atom_site_label
_atom_site_fract_x
_atom_site_fract_y
_atom_site_fract_z
Si Si1 0.442322 0.322226 0.777881
Si Si2 0.306275 0.803235 0.204995
Si Si3 0.533407 0.000000 0.355166
Si Si4 0.028272 0.198181 0.836012
Si Si5 0.635092 0.198744 0.107660
Si Si6 0.860125 0.301853 0.850146
Si Si7 0.804797 0.302421 0.182257
O O1 0.426488 0.500000 0.633223
O O2 0.415085 0.281129 0.956608
O O3 0.435178 0.164686 0.575875
O O4 0.500000 0.331333 0.000000
O O5 0.338610 0.743634 0.066737
O O6 0.251282 0.744140 0.013356
O O7 0.306045 0.000000 0.187913
O O8 0.329801 0.761059 0.546451
O O9 0.500000 0.000000 0.500000
O O10 0.500000 0.000000 0.000000
O O11 0.000000 0.255758 0.500000
O O12 0.027294 0.000000 0.833498
O O13 0.084026 0.251579 0.002440
O O14 0.000000 0.256167 0.000000
O O15 0.628134 0.000000 0.079950
O O16 0.858206 0.500000 0.845674
O O17 0.829074 0.242223 0.515577
O O18 0.835568 0.242161 0.034930
O O19 0.807598 0.500000 0.192448
#
# Coordination Sequence:
#
# PCOD9151995 Si02
#       7
#     4   4   2   4   4   4   4
#     4  10  22  41  65  94 124 161 207 249 300 369
#     4  10  22  38  60  86 115 151 194 240 292 354
#     4  10  22  40  62  86 120 158 192 244 298 340
#     4  10  21  36  54  80 113 147 186 233 283 335
#     4  10  21  39  59  85 118 153 192 240 296 352
#     4  10  21  36  56  82 111 149 191 233 283 341
#     4  10  21  37  56  81 113 145 187 238 287 339
#
# _framework density 21.951692999999999
#
# number of rings (size 3 to 8) (size 9 to 14) (size 15 to 20)
#    0.000    2.000    0.769    1.846    0.000    5.846 
#    0.000    3.077    0.000    0.000    0.000    0.000 
#    0.000    0.000    0.000    0.000    0.000    0.000 
#
# Total GULP energy -145441.669888 kJ/mol
# GULP energy per Si atom -5593.910380 kJ/mol
# Density = 2.190173 g / cm^3
# Si number density = 21.951693 Si / 1000 Ang^3
#
#
#
# Elastic Constant Matrix: (Units=GPa)
#
#
# Indices 1 2 3 4 5 6 
#
# 1 136.2990 15.0723 34.5869 0.0000 -2.7713 0.0000
# 2 15.0723 65.2149 9.0398 0.0000 -13.5250 0.0000
# 3 34.5869 9.0398 106.2733 0.0000 -3.5613 0.0000
# 4 0.0000 0.0000 0.0000 13.2696 0.0000 20.2720
# 5 -2.7713 -13.5250 -3.5613 0.0000 46.9883 0.0000
# 6 0.0000 0.0000 0.0000 20.2720 0.0000 42.3645
#
#
#
# Elastic Compliance Matrix: (Units=1/GPa)
#
#
# Indices 1 2 3 4 5 6 
#
# 1 0.008147 -0.001567 -0.002524 0.000000 -0.000162 0.000000
# 2 -0.001567 0.016771 -0.000760 0.000000 0.004677 0.000000
# 3 -0.002524 -0.000760 0.010310 0.000000 0.000414 0.000000
# 4 0.000000 0.000000 0.000000 0.280183 0.000000 -0.134071
# 5 -0.000162 0.004677 0.000414 0.000000 0.022650 0.000000
# 6 0.000000 0.000000 0.000000 -0.134071 0.000000 0.087760
#
#
# Mechanical properties :
#
#
# Convention : Reuss Voigt Hill
#
# Bulk Modulus (GPa) = 39.17349 47.24279 43.20814
# Shear Modulus (GPa) = 11.26049 37.13036 24.19543
#
# Velocity S-wave (km/s) = 2.26733 4.11720 3.32356
# Velocity P-wave (km/s) = 4.97378 6.64603 5.86976
#
# Compressibility (1/GPa) = 0.02552747
#
# Stress axis : x y z
#
# Youngs Moduli (GPa) = 122.74206 59.62530 96.99748
#
# Poissons Ratio (x) = 0.09341 0.24479
# Poissons Ratio (y) = 0.19230 0.07372
# Poissons Ratio (z) = 0.30976 0.04531
#
# Static dielectric constant tensor:
#      x y z
#    x 1.753890 0.000000 -0.014080 
#    y 0.000000 1.828640 0.000000 
#    z -0.014080 0.000000 1.868860 
# 
# From -- ./inp_files/13576.got.cif
#   From: 2010.05.17/outbox.cif.g08.bks.cpg/sg10_7_cif.got.tgz:13576.got - 2010.06.03 11:33:40.
