data_PCOD9151566
_publ_section_title
;
Structure prediction by ZEFSAII (Michael W. Deem and Ramdas Pophale) SiO2 
 PCOD9151566
Probable space group: P 2/M
;
_chemical_formula_sum "Si O2"
_cell_formula_units_Z 20
_cell_length_a 18.851404
_cell_length_b 9.180723
_cell_length_c 12.471634
_cell_angle_alpha 90.000000
_cell_angle_beta 150.769450
_cell_angle_gamma 90.000000
_cell_volume 1054.029893
_symmetry_space_group_name_H-M "P 2/M"
_symmetry_group_IT_number 10
_symmetry_cell_setting 'monoclinic'
loop_
_space_group_symop_operation_xyz
x,y,z
-x,y,-z
-x,-y,-z
x,-y,z
loop_
_atom_site_type_symbol
_atom_site_label
_atom_site_fract_x
_atom_site_fract_y
_atom_site_fract_z
Si Si1 0.148484 0.670582 0.390313
Si Si2 0.359105 0.328471 0.465708
Si Si3 0.651499 0.827643 0.917890
Si Si4 0.345473 0.325649 0.850909
Si Si5 0.847456 0.171768 0.976833
O O1 0.105342 0.500000 0.333980
O O2 0.271737 0.686614 0.462347
O O3 0.220577 0.706403 0.599600
O O4 0.009251 0.766731 0.180740
O O5 0.380624 0.500000 0.473542
O O6 0.511930 0.248053 0.679795
O O7 0.259808 0.256613 0.244073
O O8 0.787270 0.806155 0.017756
O O9 0.624907 0.000000 0.892674
O O10 0.673591 0.757189 0.063137
O O11 0.347390 0.500000 0.873190
O O12 0.500000 0.288468 0.000000
O O13 0.842752 0.000000 0.946484
#
# Coordination Sequence:
#
# PCOD9151566 Si02
#       5
#     4   4   4   4   4
#     4  10  22  40  63  90 119 154 198 249 299 351
#     4  11  22  40  65  90 118 156 204 250 294 351
#     4  11  24  40  60  89 124 160 198 243 297 355
#     4  10  20  40  65  89 118 152 199 251 295 349
#     4  11  25  41  57  87 128 161 196 244 297 355
#
# _framework density 18.974793999999999
#
# number of rings (size 3 to 8) (size 9 to 14) (size 15 to 20)
#    0.000    1.400    2.000    3.000    0.000   11.600 
#    0.000    4.000    0.000    0.000    0.000    0.000 
#    0.000    0.000    0.000    0.000    0.000    0.000 
#
# Total GULP energy -111842.940291 kJ/mol
# GULP energy per Si atom -5592.147015 kJ/mol
# Density = 1.893161 g / cm^3
# Si number density = 18.974794 Si / 1000 Ang^3
#
#
#
# Elastic Constant Matrix: (Units=GPa)
#
#
# Indices 1 2 3 4 5 6 
#
# 1 -30.2738 13.0019 31.5186 0.0000 14.1288 0.0000
# 2 13.0019 48.4796 17.2708 0.0000 -1.9785 0.0000
# 3 31.5186 17.2708 14.1789 0.0000 -19.3449 0.0000
# 4 0.0000 0.0000 0.0000 22.6323 0.0000 -1.0667
# 5 14.1288 -1.9785 -19.3449 0.0000 23.4149 0.0000
# 6 0.0000 0.0000 0.0000 -1.0667 0.0000 36.9976
#
#
#
# Elastic Compliance Matrix: (Units=1/GPa)
#
#
# Indices 1 2 3 4 5 6 
#
# 1 0.005745 -0.012143 0.032305 0.000000 0.022197 0.000000
# 2 -0.012143 0.031106 -0.021132 0.000000 -0.007503 0.000000
# 3 0.032305 -0.021132 0.035965 0.000000 0.008435 0.000000
# 4 0.000000 0.000000 0.000000 0.044245 0.000000 0.001276
# 5 0.022197 -0.007503 0.008435 0.000000 0.035649 0.000000
# 6 0.000000 0.000000 0.000000 0.001276 0.000000 0.027066
#
#
# Mechanical properties :
#
#
# Convention : Reuss Voigt Hill
#
# Bulk Modulus (GPa) = 14.10946 17.32971 15.71959
# Shear Modulus (GPa) = 24.34965 14.64855 19.49910
#
# Velocity S-wave (km/s) = 3.58615 2.78150 3.20915
# Velocity P-wave (km/s) = 4.95977 4.41232 4.69403
#
# Compressibility (1/GPa) = 0.07087442
#
# Stress axis : x y z
#
# Youngs Moduli (GPa) = 174.06317 32.14806 27.80479
#
# Poissons Ratio (x) = 0.39039 -0.89822
# Poissons Ratio (y) = 2.11372 0.58757
# Poissons Ratio (z) = -5.62306 0.67936
#
# Static dielectric constant tensor:
#      x y z
#    x 1.648870 0.000000 -0.007810 
#    y 0.000000 1.632040 0.000000 
#    z -0.007810 0.000000 1.619730 
# 
# From -- ./inp_files/22142.got.cif
#   From: 2010.05.17/outbox.cif.g08.bks.cpg/sg10_12_cif.got.tgz:22142.got - 2010.06.03 11:33:40.
