data_PCOD9151666
_publ_section_title
;
Structure prediction by ZEFSAII (Michael W. Deem and Ramdas Pophale) SiO2 
 PCOD9151666
Probable space group: P 2/M
;
_chemical_formula_sum "Si O2"
_cell_formula_units_Z 32
_cell_length_a 14.523297
_cell_length_b 15.128090
_cell_length_c 12.044741
_cell_angle_alpha 90.000000
_cell_angle_beta 142.947320
_cell_angle_gamma 90.000000
_cell_volume 1594.553890
_symmetry_space_group_name_H-M "P 2/M"
_symmetry_group_IT_number 10
_symmetry_cell_setting 'monoclinic'
loop_
_space_group_symop_operation_xyz
x,y,z
-x,y,-z
-x,-y,-z
x,-y,z
loop_
_atom_site_type_symbol
_atom_site_label
_atom_site_fract_x
_atom_site_fract_y
_atom_site_fract_z
Si Si1 0.699044 0.898280 0.028449
Si Si2 0.339589 0.347657 0.836171
Si Si3 0.382379 0.199530 0.687591
Si Si4 0.357577 0.644651 0.506033
Si Si5 0.838299 0.280555 0.124270
Si Si6 0.296137 0.398861 0.194929
Si Si7 0.106705 0.595215 0.441877
Si Si8 0.151848 0.101034 0.593352
O O1 0.530172 0.862525 0.838529
O O2 0.720762 0.000000 0.013103
O O3 0.816647 0.824837 0.093921
O O4 0.727603 0.898259 0.189019
O O5 0.378943 0.269979 0.785843
O O6 0.284075 0.309475 0.899455
O O7 0.197776 0.397476 0.644759
O O8 0.500000 0.397913 0.000000
O O9 0.378250 0.255644 0.571064
O O10 0.228417 0.145624 0.562279
O O11 0.526492 0.603150 0.672838
O O12 0.298805 0.633636 0.324549
O O13 0.237297 0.600818 0.473521
O O14 0.997169 0.321422 0.318756
O O15 0.796179 0.332502 0.971888
O O16 0.240273 0.500000 0.134913
O O17 0.026437 0.500000 0.356735
O O18 0.000000 0.143944 0.500000
O O19 0.112985 0.000000 0.528076
#
# Coordination Sequence:
#
# PCOD9151666 Si02
#       8
#     4   4   4   4   4   4   4   4
#     4  11  22  37  59  89 124 164 208 254 308 374
#     4  11  21  37  60  88 125 167 203 248 299 377
#     4  11  19  37  60  87 125 163 201 254 312 374
#     4  10  22  39  64  90 119 157 206 260 313 367
#     4  12  23  39  60  90 125 165 208 255 318 373
#     4  11  22  41  67  89 120 158 213 270 311 372
#     4  11  25  40  60  90 128 166 203 253 314 379
#     4  10  21  33  56  93 127 162 205 253 311 380
#
# _framework density 20.068308999999999
#
# number of rings (size 3 to 8) (size 9 to 14) (size 15 to 20)
#    0.000    1.125    3.750    3.750    3.500    3.250 
#    0.000    1.250    0.000    2.250    0.000    0.875 
#    0.000    0.000    0.000    0.000    0.000    0.000 
#
# Total GULP energy -178759.658140 kJ/mol
# GULP energy per Si atom -5586.239317 kJ/mol
# Density = 2.002263 g / cm^3
# Si number density = 20.068309 Si / 1000 Ang^3
#
#
#
# Elastic Constant Matrix: (Units=GPa)
#
#
# Indices 1 2 3 4 5 6 
#
# 1 43.4711 24.4404 5.2142 0.0000 -0.7316 0.0000
# 2 24.4404 149.5950 40.2576 0.0000 -1.6763 0.0000
# 3 5.2142 40.2576 66.6956 0.0000 -0.2978 0.0000
# 4 0.0000 0.0000 0.0000 15.9814 0.0000 6.0911
# 5 -0.7316 -1.6763 -0.2978 0.0000 30.3826 0.0000
# 6 0.0000 0.0000 0.0000 6.0911 0.0000 19.9648
#
#
#
# Elastic Compliance Matrix: (Units=1/GPa)
#
#
# Indices 1 2 3 4 5 6 
#
# 1 0.025356 -0.004305 0.000618 0.000000 0.000379 0.000000
# 2 -0.004305 0.008717 -0.004923 0.000000 0.000329 0.000000
# 3 0.000618 -0.004923 0.017917 0.000000 -0.000081 0.000000
# 4 0.000000 0.000000 0.000000 0.070806 0.000000 -0.021602
# 5 0.000379 0.000329 -0.000081 0.000000 0.032940 0.000000
# 6 0.000000 0.000000 0.000000 -0.021602 0.000000 0.056679
#
#
# Mechanical properties :
#
#
# Convention : Reuss Voigt Hill
#
# Bulk Modulus (GPa) = 28.76144 44.39844 36.57994
# Shear Modulus (GPa) = 20.72758 25.92242 23.32500
#
# Velocity S-wave (km/s) = 3.21729 3.59793 3.41292
# Velocity P-wave (km/s) = 5.30699 6.27948 5.81360
#
# Compressibility (1/GPa) = 0.03476878
#
# Stress axis : x y z
#
# Youngs Moduli (GPa) = 39.43809 114.72365 55.81415
#
# Poissons Ratio (x) = 0.49384 -0.03447
# Poissons Ratio (y) = 0.16976 0.27479
# Poissons Ratio (z) = -0.02436 0.56483
#
# Static dielectric constant tensor:
#      x y z
#    x 1.699860 0.000000 0.040830 
#    y 0.000000 1.766480 0.000000 
#    z 0.040830 0.000000 1.749530 
# 
# From -- ./inp_files/51661.got.cif
#   From: 2010.05.17/outbox.cif.g08.bks.cpg/sg10_26_cif.got.tgz:51661.got - 2010.06.03 11:33:40.
