data_PCOD9151454
_publ_section_title
;
Structure prediction by ZEFSAII (Michael W. Deem and Ramdas Pophale) SiO2 
 PCOD9151454
Probable space group: P 2/M
;
_chemical_formula_sum "Si O2"
_cell_formula_units_Z 32
_cell_length_a 20.667450
_cell_length_b 13.457946
_cell_length_c 9.456096
_cell_angle_alpha 90.000000
_cell_angle_beta 36.829454
_cell_angle_gamma 90.000000
_cell_volume 1576.593588
_symmetry_space_group_name_H-M "P 2/M"
_symmetry_group_IT_number 10
_symmetry_cell_setting 'monoclinic'
loop_
_space_group_symop_operation_xyz
x,y,z
-x,y,-z
-x,-y,-z
x,-y,z
loop_
_atom_site_type_symbol
_atom_site_label
_atom_site_fract_x
_atom_site_fract_y
_atom_site_fract_z
Si Si1 0.240748 0.613650 0.624865
Si Si2 0.841083 0.113686 0.874500
Si Si3 0.697231 0.385210 0.005698
Si Si4 0.391244 0.620991 0.119246
Si Si5 0.909086 0.705516 0.553672
Si Si6 0.598734 0.321365 0.438053
Si Si7 0.944276 0.233153 0.951481
Si Si8 0.394301 0.105226 0.587921
O O1 0.200631 0.500000 0.686494
O O2 0.287627 0.649737 0.392554
O O3 0.350877 0.611508 0.528201
O O4 0.149727 0.687420 0.843965
O O5 0.872438 0.189883 0.693202
O O6 0.893309 0.153389 0.930720
O O7 0.875345 0.000000 0.785176
O O8 0.712830 0.110231 0.128674
O O9 0.677048 0.500000 0.074552
O O10 0.612469 0.348020 0.037385
O O11 0.810162 0.369025 0.732776
O O12 0.694726 0.325077 0.153514
O O13 0.391201 0.500000 0.118174
O O14 0.500000 0.656903 0.000000
O O15 0.000000 0.665393 0.500000
O O16 0.961744 0.718702 0.309178
O O17 0.500000 0.346070 0.500000
O O18 0.594099 0.210642 0.508411
O O19 0.000000 0.197220 0.000000
O O20 0.500000 0.102638 0.500000
O O21 0.388620 0.000000 0.517102
#
# Coordination Sequence:
#
# PCOD9151454 Si02
#       8
#     4   4   4   4   4   4   4   4
#     4  11  22  37  54  78 111 148 187 220 268 322
#     4  10  20  39  62  82 109 141 175 220 274 330
#     4  11  21  34  51  76 108 141 181 221 265 313
#     4   9  19  35  53  73 103 144 182 215 258 319
#     4  10  21  37  54  77 105 139 183 223 266 320
#     4  11  20  32  54  85 113 136 173 225 275 319
#     4  11  23  38  56  80 110 139 186 234 269 312
#     4   9  17  32  57  85 111 138 170 212 268 335
#
# _framework density 20.296925000000002
#
# number of rings (size 3 to 8) (size 9 to 14) (size 15 to 20)
#    0.000    1.750    2.500    2.625    0.000    5.500 
#    0.000    0.000    0.000    0.000    0.000    0.875 
#    0.000   10.000    0.000    0.000    0.000    0.000 
#
# Total GULP energy -178259.398208 kJ/mol
# GULP energy per Si atom -5570.606194 kJ/mol
# Density = 2.025073 g / cm^3
# Si number density = 20.296925 Si / 1000 Ang^3
#
#
#
# Elastic Constant Matrix: (Units=GPa)
#
#
# Indices 1 2 3 4 5 6 
#
# 1 70.3272 1.0464 15.7055 0.0000 5.8177 0.0000
# 2 1.0464 95.0422 4.1698 0.0000 3.1464 0.0000
# 3 15.7055 4.1698 65.9572 0.0000 6.1325 0.0000
# 4 0.0000 0.0000 0.0000-1784.4961 0.0000 728.0513
# 5 5.8177 3.1464 6.1325 0.0000 37.9256 0.0000
# 6 0.0000 0.0000 0.0000 728.0513 0.0000 -286.1154
#
#
#
# Elastic Compliance Matrix: (Units=1/GPa)
#
#
# Indices 1 2 3 4 5 6 
#
# 1 0.015134 0.000043 -0.003442 0.000000 -0.001768 0.000000
# 2 0.000043 0.010574 -0.000606 0.000000 -0.000786 0.000000
# 3 -0.003442 -0.000606 0.016209 0.000000 -0.002043 0.000000
# 4 0.000000 0.000000 0.000000 0.014682 0.000000 0.037361
# 5 -0.001768 -0.000786 -0.002043 0.000000 0.027034 0.000000
# 6 0.000000 0.000000 0.000000 0.037361 0.000000 0.091574
#
#
# Mechanical properties :
#
#
# Convention : Reuss Voigt Hill
#
# Bulk Modulus (GPa) = 29.49213 30.35223 29.92218
# Shear Modulus (GPa) = 25.70447 -392.51019 -183.40286
#
# Velocity S-wave (km/s) = 3.56254 -13.92135 -9.51610
# Velocity P-wave (km/s) = 5.61108 15.60188 10.29404
#
# Compressibility (1/GPa) = 0.03390735
#
# Stress axis : x y z
#
# Youngs Moduli (GPa) = 66.07842 94.57372 61.69364
#
# Poissons Ratio (x) = -0.00406 0.21234
# Poissons Ratio (y) = -0.00284 0.03736
# Poissons Ratio (z) = 0.22743 0.05728
#
# Static dielectric constant tensor:
#      x y z
#    x 1.764740 0.000000 -0.052020 
#    y 0.000000 1.736980 0.000000 
#    z -0.052020 0.000000 1.778000 
# 
# From -- ./inp_files/35105.got.cif
#   From: 2010.05.17/outbox.cif.g08.bks.cpg/sg10_18_cif.got.tgz:35105.got - 2010.06.03 11:33:40.
