data_PCOD9151435
_publ_section_title
;
Structure prediction by ZEFSAII (Michael W. Deem and Ramdas Pophale) SiO2 
 PCOD9151435
Probable space group: P 2/M
;
_chemical_formula_sum "Si O2"
_cell_formula_units_Z 32
_cell_length_a 24.471629
_cell_length_b 8.742550
_cell_length_c 18.211658
_cell_angle_alpha 90.000000
_cell_angle_beta 149.367749
_cell_angle_gamma 90.000000
_cell_volume 1985.256835
_symmetry_space_group_name_H-M "P 2/M"
_symmetry_group_IT_number 10
_symmetry_cell_setting 'monoclinic'
loop_
_space_group_symop_operation_xyz
x,y,z
-x,y,-z
-x,-y,-z
x,-y,z
loop_
_atom_site_type_symbol
_atom_site_label
_atom_site_fract_x
_atom_site_fract_y
_atom_site_fract_z
Si Si1 0.681132 0.685326 0.343792
Si Si2 0.638845 0.316328 0.545282
Si Si3 0.626093 0.678487 0.123720
Si Si4 0.193487 0.818037 0.378480
Si Si5 0.983658 0.684149 0.066664
Si Si6 0.588758 0.181786 0.767112
Si Si7 0.261489 0.316166 0.181806
Si Si8 0.564554 0.685300 0.897336
O O1 0.689319 0.500000 0.353555
O O2 0.685838 0.741340 0.264574
O O3 0.767399 0.756278 0.497726
O O4 0.561706 0.721994 0.236419
O O5 0.636679 0.500000 0.535995
O O6 0.725198 0.251960 0.587754
O O7 0.522426 0.251194 0.392121
O O8 0.676222 0.277218 0.670825
O O9 0.657022 0.500000 0.154060
O O10 0.500000 0.680708 0.000000
O O11 0.628131 0.741540 0.043509
O O12 0.075121 0.762600 0.220347
O O13 0.200583 0.000000 0.384648
O O14 0.996337 0.500000 0.086238
O O15 0.863270 0.723264 0.951732
O O16 0.000000 0.725863 0.000000
O O17 0.682873 0.235669 0.822158
O O18 0.602872 0.244758 0.865717
O O19 0.580770 0.000000 0.759153
O O20 0.269145 0.500000 0.181554
O O21 0.571417 0.500000 0.902581
#
# Coordination Sequence:
#
# PCOD9151435 Si02
#       8
#     4   4   4   4   4   4   4   4
#     4   9  16  29  50  73 101 136 171 209 248 296
#     4  11  21  37  56  73  97 135 179 216 251 297
#     4   7  12  24  45  73  97 126 171 211 244 286
#     4  12  23  32  49  79 110 137 166 206 261 311
#     4  10  20  39  60  76  94 127 176 220 256 300
#     4  12  24  34  48  76 111 139 168 207 255 309
#     4  10  22  39  58  74  93 130 179 219 253 299
#     4   9  16  29  50  72 100 137 173 207 245 297
#
# _framework density 16.118822000000002
#
# number of rings (size 3 to 8) (size 9 to 14) (size 15 to 20)
#    0.000    2.000    2.500    4.500    0.000    3.250 
#    0.000    0.625    0.000    2.250    0.000    0.875 
#    0.000    7.000    0.000    0.000    0.000    0.000 
#
# Total GULP energy -178518.382035 kJ/mol
# GULP energy per Si atom -5578.699439 kJ/mol
# Density = 1.608213 g / cm^3
# Si number density = 16.118822 Si / 1000 Ang^3
#
#
#
# Elastic Constant Matrix: (Units=GPa)
#
#
# Indices 1 2 3 4 5 6 
#
# 1 123.1509 49.0350 88.4656 0.0000 -20.8820 0.0000
# 2 49.0350 41.7433 41.4933 0.0000 -10.5427 0.0000
# 3 88.4656 41.4933 101.6213 0.0000 -31.2689 0.0000
# 4 0.0000 0.0000 0.0000 -1.0363 0.0000 14.1046
# 5 -20.8820 -10.5427 -31.2689 0.0000 29.4177 0.0000
# 6 0.0000 0.0000 0.0000 14.1046 0.0000 -5.5324
#
#
#
# Elastic Compliance Matrix: (Units=1/GPa)
#
#
# Indices 1 2 3 4 5 6 
#
# 1 0.026285 -0.013062 -0.019687 0.000000 -0.006949 0.000000
# 2 -0.013062 0.047223 -0.008256 0.000000 -0.001124 0.000000
# 3 -0.019687 -0.008256 0.037357 0.000000 0.022775 0.000000
# 4 0.000000 0.000000 0.000000 0.028635 0.000000 0.073003
# 5 -0.006949 -0.001124 0.022775 0.000000 0.052866 0.000000
# 6 0.000000 0.000000 0.000000 0.073003 0.000000 0.005364
#
#
# Mechanical properties :
#
#
# Convention : Reuss Voigt Hill
#
# Bulk Modulus (GPa) = 34.65653 69.38926 52.02289
# Shear Modulus (GPa) = 17.27958 10.40456 13.84207
#
# Velocity S-wave (km/s) = 3.27771 2.54341 2.93363
# Velocity P-wave (km/s) = 5.98931 7.19495 6.61964
#
# Compressibility (1/GPa) = 0.02885459
#
# Stress axis : x y z
#
# Youngs Moduli (GPa) = 38.04477 21.17610 26.76843
#
# Poissons Ratio (x) = 0.27661 0.52698
# Poissons Ratio (y) = 0.49696 0.22101
# Poissons Ratio (z) = 0.74897 0.17484
#
# Static dielectric constant tensor:
#      x y z
#    x 1.534800 0.000000 -0.028680 
#    y 0.000000 1.531760 0.000000 
#    z -0.028680 0.000000 1.535390 
# 
# From -- ./inp_files/79988.got.cif
#   From: 2010.05.17/outbox.cif.g08.bks.cpg/sg10_40_cif.got.tgz:79988.got - 2010.06.03 11:33:40.
