data_PCOD9151462
_publ_section_title
;
Structure prediction by ZEFSAII (Michael W. Deem and Ramdas Pophale) SiO2 
 PCOD9151462
Probable space group: P 2/M
;
_chemical_formula_sum "Si O2"
_cell_formula_units_Z 20
_cell_length_a 9.275055
_cell_length_b 14.328324
_cell_length_c 7.553531
_cell_angle_alpha 90.000000
_cell_angle_beta 85.977736
_cell_angle_gamma 90.000000
_cell_volume 1001.361429
_symmetry_space_group_name_H-M "P 2/M"
_symmetry_group_IT_number 10
_symmetry_cell_setting 'monoclinic'
loop_
_space_group_symop_operation_xyz
x,y,z
-x,y,-z
-x,-y,-z
x,-y,z
loop_
_atom_site_type_symbol
_atom_site_label
_atom_site_fract_x
_atom_site_fract_y
_atom_site_fract_z
Si Si1 0.575216 0.897588 0.211413
Si Si2 0.728367 0.896523 0.582943
Si Si3 0.160798 0.700170 0.518555
Si Si4 0.631101 0.610617 0.775923
Si Si5 0.677852 0.297631 0.132411
O O1 0.652306 0.896772 0.396561
O O2 0.405598 0.885857 0.270200
O O3 0.640636 0.810772 0.103153
O O4 0.602704 0.000000 0.132163
O O5 0.826861 0.805156 0.565075
O O6 0.794121 0.000000 0.604904
O O7 0.277991 0.640380 0.401590
O O8 0.205452 0.698349 0.721065
O O9 0.000000 0.664997 0.500000
O O10 0.615970 0.500000 0.790850
O O11 0.472341 0.656977 0.785120
O O12 0.708362 0.650685 0.946087
#
# Coordination Sequence:
#
# PCOD9151462 Si02
#       5
#     4   4   4   4   4
#     4   8  13  26  54  86 114 144 182 232 280 326
#     4   8  14  28  52  83 116 150 186 223 272 333
#     4  11  23  38  59  87 119 155 189 228 283 344
#     4  11  24  41  62  85 109 145 196 246 291 337
#     4  10  20  39  62  86 117 147 188 239 287 333
#
# _framework density 19.972808000000001
#
# number of rings (size 3 to 8) (size 9 to 14) (size 15 to 20)
#    0.000    2.400    2.000    3.000    0.000    4.000 
#    0.000    4.000    0.000    0.000    0.000    7.000 
#    0.000    0.000    0.000    0.000    0.000    0.000 
#
# Total GULP energy -111622.222815 kJ/mol
# GULP energy per Si atom -5581.111141 kJ/mol
# Density = 1.992735 g / cm^3
# Si number density = 19.972808 Si / 1000 Ang^3
#
#
#
# Elastic Constant Matrix: (Units=GPa)
#
#
# Indices 1 2 3 4 5 6 
#
# 1 35.0970 -4.4708 17.8423 0.0000 19.2355 0.0000
# 2 -4.4708 119.7701 11.4581 0.0000 6.7731 0.0000
# 3 17.8423 11.4581 55.9464 0.0000 23.4193 0.0000
# 4 0.0000 0.0000 0.0000 17.6915 0.0000 11.3083
# 5 19.2355 6.7731 23.4193 0.0000 21.8344 0.0000
# 6 0.0000 0.0000 0.0000 11.3083 0.0000 2.6368
#
#
#
# Elastic Compliance Matrix: (Units=1/GPa)
#
#
# Indices 1 2 3 4 5 6 
#
# 1 0.058704 0.005042 0.004626 0.000000 -0.058242 0.000000
# 2 0.005042 0.008973 -0.000764 0.000000 -0.006406 0.000000
# 3 0.004626 -0.000764 0.032961 0.000000 -0.039192 0.000000
# 4 0.000000 0.000000 0.000000 -0.032462 0.000000 0.139216
# 5 -0.058242 -0.006406 -0.039192 0.000000 0.141133 0.000000
# 6 0.000000 0.000000 0.000000 0.139216 0.000000 -0.217800
#
#
# Mechanical properties :
#
#
# Convention : Reuss Voigt Hill
#
# Bulk Modulus (GPa) = 8.44268 28.94142 18.69205
# Shear Modulus (GPa) = 379.27278 20.83148 200.05213
#
# Velocity S-wave (km/s) = 13.79517 3.23304 10.01897
# Velocity P-wave (km/s) = 16.06171 5.33466 11.96740
#
# Compressibility (1/GPa) = 0.11844586
#
# Stress axis : x y z
#
# Youngs Moduli (GPa) = 17.03472 111.44647 30.33846
#
# Poissons Ratio (x) = -0.56195 -0.14034
# Poissons Ratio (y) = -0.08590 0.02319
# Poissons Ratio (z) = -0.07880 0.08518
#
# Static dielectric constant tensor:
#      x y z
#    x 1.676220 0.000000 0.019570 
#    y 0.000000 1.736270 0.000000 
#    z 0.019570 0.000000 1.719580 
# 
# From -- ./inp_files/18509.got.cif
#   From: 2010.05.17/outbox.cif.g08.bks.cpg/sg10_10_cif.got.tgz:18509.got - 2010.06.03 11:33:40.
