data_PCOD9151893
_publ_section_title
;
Structure prediction by ZEFSAII (Michael W. Deem and Ramdas Pophale) SiO2 
 PCOD9151893
Probable space group: P 2/M
;
_chemical_formula_sum "Si O2"
_cell_formula_units_Z 25
_cell_length_a 18.055843
_cell_length_b 12.105851
_cell_length_c 12.857988
_cell_angle_alpha 90.000000
_cell_angle_beta 153.989498
_cell_angle_gamma 90.000000
_cell_volume 1232.512254
_symmetry_space_group_name_H-M "P 2/M"
_symmetry_group_IT_number 10
_symmetry_cell_setting 'monoclinic'
loop_
_space_group_symop_operation_xyz
x,y,z
-x,y,-z
-x,-y,-z
x,-y,z
loop_
_atom_site_type_symbol
_atom_site_label
_atom_site_fract_x
_atom_site_fract_y
_atom_site_fract_z
Si Si1 0.790270 0.867630 0.034119
Si Si2 0.475432 0.284150 0.580577
Si Si3 0.313949 0.817527 0.868583
Si Si4 0.804732 0.880485 0.723376
Si Si5 0.556966 0.626955 0.233596
Si Si6 0.154559 0.204014 0.447984
Si Si7 0.500000 0.000000 0.000000
O O1 0.784869 0.846496 0.151710
O O2 0.951813 0.802924 0.192140
O O3 0.800502 0.000000 0.026799
O O4 0.620235 0.809139 0.779149
O O5 0.500000 0.339634 0.500000
O O6 0.300343 0.217828 0.360622
O O7 0.472597 0.359152 0.679601
O O8 0.204787 0.835006 0.626949
O O9 0.463063 0.904407 0.040789
O O10 0.405429 0.699176 0.992114
O O11 0.791999 0.869963 0.582682
O O12 0.739836 0.000000 0.675821
O O13 0.000000 0.872897 0.000000
O O14 0.552894 0.500000 0.198013
O O15 0.736791 0.684290 0.432771
#
# Coordination Sequence:
#
# PCOD9151893 Si02
#       7
#     4   4   4   4   4   4   1
#     4  11  23  35  56  90 132 166 198 245 304 370
#     4  10  22  39  60  88 120 155 205 254 308 368
#     4  11  23  36  60  91 123 164 200 249 302 361
#     4  10  21  35  57  86 123 166 203 247 301 362
#     4  10  23  44  65  87 116 160 212 258 304 356
#     4  11  22  36  56  86 118 161 206 248 297 356
#     4  12  20  36  60  92 132 156 202 250 300 370
#
# _framework density 20.283774000000001
#
# number of rings (size 3 to 8) (size 9 to 14) (size 15 to 20)
#    0.000    1.440    2.400    2.400    2.240    4.800 
#    0.000    3.200    0.000   21.120    0.000    0.000 
#    0.000    0.000    0.000    0.000    0.000    0.000 
#
# Total GULP energy -139283.420390 kJ/mol
# GULP energy per Si atom -5571.336816 kJ/mol
# Density = 2.023761 g / cm^3
# Si number density = 20.283774 Si / 1000 Ang^3
#
#
#
# Elastic Constant Matrix: (Units=GPa)
#
#
# Indices 1 2 3 4 5 6 
#
# 1 106.1613 -3.5876 7.5196 0.0000 -9.7755 0.0000
# 2 -3.5876 91.9334 17.6155 0.0000 8.3809 0.0000
# 3 7.5196 17.6155 74.3974 0.0000 -4.0890 0.0000
# 4 0.0000 0.0000 0.0000 12.5961 0.0000 3.9800
# 5 -9.7755 8.3809 -4.0890 0.0000 44.0493 0.0000
# 6 0.0000 0.0000 0.0000 3.9800 0.0000 4.5085
#
#
#
# Elastic Compliance Matrix: (Units=1/GPa)
#
#
# Indices 1 2 3 4 5 6 
#
# 1 0.009683 0.000381 -0.000960 0.000000 0.001987 0.000000
# 2 0.000381 0.011674 -0.002935 0.000000 -0.002409 0.000000
# 3 -0.000960 -0.002935 0.014325 0.000000 0.001675 0.000000
# 4 0.000000 0.000000 0.000000 0.110101 0.000000 -0.097195
# 5 0.001987 -0.002409 0.001675 0.000000 0.023757 0.000000
# 6 0.000000 0.000000 0.000000 -0.097195 0.000000 0.307607
#
#
# Mechanical properties :
#
#
# Convention : Reuss Voigt Hill
#
# Bulk Modulus (GPa) = 34.89805 35.06524 34.98165
# Shear Modulus (GPa) = 10.12704 28.96041 19.54373
#
# Velocity S-wave (km/s) = 2.23686 3.78267 3.10742
# Velocity P-wave (km/s) = 4.89016 6.03349 5.49166
#
# Compressibility (1/GPa) = 0.02865490
#
# Stress axis : x y z
#
# Youngs Moduli (GPa) = 103.26872 85.65811 69.80633
#
# Poissons Ratio (x) = -0.03260 0.06699
# Poissons Ratio (y) = -0.03930 0.20489
# Poissons Ratio (z) = 0.09910 0.25141
#
# Static dielectric constant tensor:
#      x y z
#    x 1.780330 0.000000 -0.004030 
#    y 0.000000 1.673730 0.000000 
#    z -0.004030 0.000000 1.776740 
# 
# From -- ./inp_files/53726.got.cif
#   From: 2010.05.17/outbox.cif.g08.bks.cpg/sg10_27_cif.got.tgz:53726.got - 2010.06.03 11:33:40.
