data_PCOD9151241
_publ_section_title
;
Structure prediction by ZEFSAII (Michael W. Deem and Ramdas Pophale) SiO2 
 PCOD9151241
Probable space group: P 2/M
;
_chemical_formula_sum "Si O2"
_cell_formula_units_Z 18
_cell_length_a 8.621625
_cell_length_b 21.122146
_cell_length_c 7.385949
_cell_angle_alpha 90.000000
_cell_angle_beta 36.220880
_cell_angle_gamma 90.000000
_cell_volume 794.780580
_symmetry_space_group_name_H-M "P 2/M"
_symmetry_group_IT_number 10
_symmetry_cell_setting 'monoclinic'
loop_
_space_group_symop_operation_xyz
x,y,z
-x,y,-z
-x,-y,-z
x,-y,z
loop_
_atom_site_type_symbol
_atom_site_label
_atom_site_fract_x
_atom_site_fract_y
_atom_site_fract_z
Si Si1 0.116854 0.287546 0.089426
Si Si2 0.374702 0.637428 0.318468
Si Si3 0.959547 0.854119 0.818469
Si Si4 0.730438 0.500000 0.636167
Si Si5 0.538953 0.071540 0.683058
O O1 0.898605 0.325891 0.407124
O O2 0.133540 0.216022 0.146827
O O3 0.000000 0.282780 0.000000
O O4 0.392370 0.323554 0.807390
O O5 0.308275 0.565195 0.436776
O O6 0.500000 0.634289 0.000000
O O7 0.236048 0.878052 0.483479
O O8 0.736981 0.904736 0.982227
O O9 0.000000 0.854037 0.000000
O O10 0.000000 0.500000 0.500000
O O11 0.500000 0.500000 0.000000
O O12 0.500000 0.071378 0.500000
O O13 0.606547 0.000000 0.672241
#
# Coordination Sequence:
#
# PCOD9151241 Si02
#       5
#     4   4   4   2   4
#     4  11  22  37  56  83 119 152 181 223 285 340
#     4  11  22  39  61  84 109 145 191 232 271 328
#     4   9  17  28  43  66 102 142 172 211 273 329
#     4  10  20  38  61  84 109 144 185 230 281 326
#     4   9  15  24  40  64  96 136 179 218 260 316
#
# _framework density 22.647762
#
# number of rings (size 3 to 8) (size 9 to 14) (size 15 to 20)
#    0.000    2.000    0.000    6.000    0.000    6.222 
#    0.000    3.333    0.000    0.000    0.000    0.000 
#    0.000   62.222    0.000    0.000    0.000    0.000 
#
# Total GULP energy -100525.804811 kJ/mol
# GULP energy per Si atom -5584.766934 kJ/mol
# Density = 2.259621 g / cm^3
# Si number density = 22.647762 Si / 1000 Ang^3
#
#
#
# Elastic Constant Matrix: (Units=GPa)
#
#
# Indices 1 2 3 4 5 6 
#
# 1 39.1514 21.0163 16.5418 0.0000 -10.0415 0.0000
# 2 21.0163 172.9039 33.8951 0.0000 -27.6812 0.0000
# 3 16.5418 33.8951 109.3330 0.0000 -30.3240 0.0000
# 4 0.0000 0.0000 0.0000 35.6518 0.0000 -15.8627
# 5 -10.0415 -27.6812 -30.3240 0.0000 43.3950 0.0000
# 6 0.0000 0.0000 0.0000 -15.8627 0.0000 10.1582
#
#
#
# Elastic Compliance Matrix: (Units=1/GPa)
#
#
# Indices 1 2 3 4 5 6 
#
# 1 0.028830 -0.002459 -0.002709 0.000000 0.003209 0.000000
# 2 -0.002459 0.006752 -0.000849 0.000000 0.003145 0.000000
# 3 -0.002709 -0.000849 0.011778 0.000000 0.007062 0.000000
# 4 0.000000 0.000000 0.000000 0.091903 0.000000 0.143513
# 5 0.003209 0.003145 0.007062 0.000000 0.030728 0.000000
# 6 0.000000 0.000000 0.000000 0.143513 0.000000 0.322548
#
#
# Mechanical properties :
#
#
# Convention : Reuss Voigt Hill
#
# Bulk Modulus (GPa) = 28.30865 51.58831 39.94848
# Shear Modulus (GPa) = 9.68336 34.50334 22.09335
#
# Velocity S-wave (km/s) = 2.07000 3.90741 3.12672
# Velocity P-wave (km/s) = 4.27082 6.57154 5.54189
#
# Compressibility (1/GPa) = 0.03532489
#
# Stress axis : x y z
#
# Youngs Moduli (GPa) = 34.68629 148.09506 84.90296
#
# Poissons Ratio (x) = 0.36422 0.23004
# Poissons Ratio (y) = 0.08531 0.07208
# Poissons Ratio (z) = 0.09398 0.12573
#
# Static dielectric constant tensor:
#      x y z
#    x 1.961690 0.000000 0.037850 
#    y 0.000000 1.870900 0.000000 
#    z 0.037850 0.000000 1.781050 
# 
# From -- ./inp_files/14773.got.cif
#   From: 2010.05.17/outbox.cif.g08.bks.cpg/sg10_8_cif.got.tgz:14773.got - 2010.06.03 11:33:40.
