data_PCOD9151236
_publ_section_title
;
Structure prediction by ZEFSAII (Michael W. Deem and Ramdas Pophale) SiO2 
 PCOD9151236
Probable space group: P 2/M
;
_chemical_formula_sum "Si O2"
_cell_formula_units_Z 19
_cell_length_a 8.578628
_cell_length_b 23.288961
_cell_length_c 5.056123
_cell_angle_alpha 90.000000
_cell_angle_beta 57.512173
_cell_angle_gamma 90.000000
_cell_volume 852.066597
_symmetry_space_group_name_H-M "P 2/M"
_symmetry_group_IT_number 10
_symmetry_cell_setting 'monoclinic'
loop_
_space_group_symop_operation_xyz
x,y,z
-x,y,-z
-x,-y,-z
x,-y,z
loop_
_atom_site_type_symbol
_atom_site_label
_atom_site_fract_x
_atom_site_fract_y
_atom_site_fract_z
Si Si1 0.138340 0.500000 0.628234
Si Si2 0.291338 0.305696 0.090071
Si Si3 0.277166 0.821205 0.207455
Si Si4 0.000000 0.000000 0.000000
Si Si5 0.275488 0.105981 0.711747
Si Si6 0.196976 0.624023 0.675994
O O1 0.254289 0.558789 0.551415
O O2 0.000000 0.500000 0.500000
O O3 0.000000 0.500000 0.000000
O O4 0.210865 0.241273 0.172719
O O5 0.192691 0.343356 0.403353
O O6 0.500000 0.301735 0.000000
O O7 0.299274 0.337193 0.800774
O O8 0.230467 0.844059 0.540341
O O9 0.500000 0.818340 0.000000
O O10 0.226328 0.869610 0.044099
O O11 0.847150 0.949830 0.221157
O O12 0.500000 0.095396 0.500000
O O13 0.000000 0.619447 0.000000
#
# Coordination Sequence:
#
# PCOD9151236 Si02
#       6
#     2   4   4   1   4   4
#     4  10  20  38  61  82 125 174 213 254 315 392
#     4  11  22  40  64  91 126 163 209 263 326 385
#     4   9  20  41  64  85 120 167 201 240 313 384
#     4  12  26  42  64 100 124 162 210 268 304 364
#     4  10  22  42  64  89 124 167 208 253 315 379
#     4  11  22  39  60  92 120 166 215 263 313 379
#
# _framework density 22.298725000000001
#
# number of rings (size 3 to 8) (size 9 to 14) (size 15 to 20)
#    0.000    1.684    0.000    5.368    0.000    5.895 
#   11.368    6.316    0.000    0.000    0.000    0.000 
#    0.000    0.000    0.000    0.000    0.000    0.000 
#
# Total GULP energy -105787.266220 kJ/mol
# GULP energy per Si atom -5567.750854 kJ/mol
# Density = 2.224797 g / cm^3
# Si number density = 22.298725 Si / 1000 Ang^3
#
#
#
# Elastic Constant Matrix: (Units=GPa)
#
#
# Indices 1 2 3 4 5 6 
#
# 1 69.8391 39.1463 24.4675 0.0000 8.4043 0.0000
# 2 39.1463 172.8544 10.2767 0.0000 4.3951 0.0000
# 3 24.4675 10.2767 71.7466 0.0000 11.5214 0.0000
# 4 0.0000 0.0000 0.0000 -16.2610 0.0000 -68.0673
# 5 8.4043 4.3951 11.5214 0.0000 43.5553 0.0000
# 6 0.0000 0.0000 0.0000 -68.0673 0.0000 -7.2154
#
#
#
# Elastic Compliance Matrix: (Units=1/GPa)
#
#
# Indices 1 2 3 4 5 6 
#
# 1 0.018616 -0.003844 -0.005518 0.000000 -0.001745 0.000000
# 2 -0.003844 0.006635 0.000364 0.000000 -0.000024 0.000000
# 3 -0.005518 0.000364 0.016295 0.000000 -0.003282 0.000000
# 4 0.000000 0.000000 0.000000 0.001598 0.000000 -0.015073
# 5 -0.001745 -0.000024 -0.003282 0.000000 0.024167 0.000000
# 6 0.000000 0.000000 0.000000 -0.015073 0.000000 0.003601
#
#
# Mechanical properties :
#
#
# Convention : Reuss Voigt Hill
#
# Bulk Modulus (GPa) = 42.46087 51.35790 46.90938
# Shear Modulus (GPa) = 51.67675 20.05242 35.86459
#
# Velocity S-wave (km/s) = 4.81924 3.00203 4.01480
# Velocity P-wave (km/s) = 7.07460 5.92435 6.52487
#
# Compressibility (1/GPa) = 0.02355110
#
# Stress axis : x y z
#
# Youngs Moduli (GPa) = 53.71690 150.72448 61.37006
#
# Poissons Ratio (x) = 0.57932 0.33863
# Poissons Ratio (y) = 0.20646 -0.02236
# Poissons Ratio (z) = 0.29640 -0.05491
#
# Static dielectric constant tensor:
#      x y z
#    x 1.875030 0.000000 -0.069050 
#    y 0.000000 1.849280 0.000000 
#    z -0.069050 0.000000 1.783910 
# 
# From -- ./inp_files/4663.got.cif
#   From: 2010.05.17/outbox.cif.g08.bks.cpg/sg10_3_cif.got.tgz:4663.got - 2010.06.03 11:33:40.
