data_PCOD9151761
_publ_section_title
;
Structure prediction by ZEFSAII (Michael W. Deem and Ramdas Pophale) SiO2 
 PCOD9151761
Probable space group: P 2/M
;
_chemical_formula_sum "Si O2"
_cell_formula_units_Z 32
_cell_length_a 16.270188
_cell_length_b 10.332398
_cell_length_c 21.418934
_cell_angle_alpha 90.000000
_cell_angle_beta 154.949506
_cell_angle_gamma 90.000000
_cell_volume 1524.613113
_symmetry_space_group_name_H-M "P 2/M"
_symmetry_group_IT_number 10
_symmetry_cell_setting 'monoclinic'
loop_
_space_group_symop_operation_xyz
x,y,z
-x,y,-z
-x,-y,-z
x,-y,z
loop_
_atom_site_type_symbol
_atom_site_label
_atom_site_fract_x
_atom_site_fract_y
_atom_site_fract_z
Si Si1 0.732217 0.649605 0.165473
Si Si2 0.734322 0.851627 0.546253
Si Si3 0.729979 0.648930 0.648888
Si Si4 0.074256 0.647904 0.966566
Si Si5 0.978741 0.149966 0.585860
Si Si6 0.402748 0.853174 0.749979
Si Si7 0.348083 0.854332 0.207809
Si Si8 0.317828 0.647402 0.006188
O O1 0.770438 0.500000 0.209383
O O2 0.845829 0.750225 0.286690
O O3 0.500000 0.667346 0.000000
O O4 0.793558 0.669034 0.135216
O O5 0.787424 0.750390 0.635616
O O6 0.861452 0.841200 0.570888
O O7 0.510761 0.828902 0.371868
O O8 0.752173 0.000000 0.580843
O O9 0.500000 0.657857 0.500000
O O10 0.776100 0.500000 0.662474
O O11 0.852080 0.674550 0.795692
O O12 0.097715 0.500000 0.004417
O O13 0.183003 0.748296 0.085386
O O14 0.181810 0.656558 0.973063
O O15 0.817395 0.177742 0.421858
O O16 0.040093 0.000000 0.620823
O O17 0.527218 0.854057 0.771075
O O18 0.509571 0.749254 0.866088
O O19 0.410142 0.000000 0.779953
O O20 0.270906 0.000000 0.163196
O O21 0.394624 0.500000 0.056479
#
# Coordination Sequence:
#
# PCOD9151761 Si02
#       8
#     4   4   4   4   4   4   4   4
#     4  10  21  35  49  69 100 135 168 202 241 286
#     4   9  18  33  53  76  99 124 159 202 245 291
#     4  10  21  35  49  69 100 135 168 202 241 286
#     4   9  17  30  49  72  95 121 158 201 241 285
#     4   9  18  33  53  76  99 124 159 202 245 291
#     4   8  15  29  49  73  98 121 151 196 245 290
#     4   8  15  29  49  73  98 121 151 196 245 290
#     4   9  17  30  49  72  95 121 158 201 241 285
#
# _framework density 20.988931999999998
#
# number of rings (size 3 to 8) (size 9 to 14) (size 15 to 20)
#    0.000    3.000    0.000    2.250    0.000    4.000 
#    0.000    6.250    0.000    7.500    0.000    0.000 
#    0.000    0.000    0.000    0.000    0.000    0.000 
#
# Total GULP energy -178685.500610 kJ/mol
# GULP energy per Si atom -5583.921894 kJ/mol
# Density = 2.094116 g / cm^3
# Si number density = 20.988932 Si / 1000 Ang^3
#
#
#
# Elastic Constant Matrix: (Units=GPa)
#
#
# Indices 1 2 3 4 5 6 
#
# 1 55.6439 15.5050 8.1763 0.0000 5.3278 0.0000
# 2 15.5050 121.5239 106.7876 0.0000 -6.9148 0.0000
# 3 8.1763 106.7876 131.9003 0.0000 6.1873 0.0000
# 4 0.0000 0.0000 0.0000 45.5808 0.0000 6.2767
# 5 5.3278 -6.9148 6.1873 0.0000 25.6319 0.0000
# 6 0.0000 0.0000 0.0000 6.2767 0.0000 16.4968
#
#
#
# Elastic Compliance Matrix: (Units=1/GPa)
#
#
# Indices 1 2 3 4 5 6 
#
# 1 0.020038 -0.007627 0.005284 0.000000 -0.007498 0.000000
# 2 -0.007627 0.036850 -0.030245 0.000000 0.018827 0.000000
# 3 0.005284 -0.030245 0.032543 0.000000 -0.017113 0.000000
# 4 0.000000 0.000000 0.000000 0.023152 0.000000 -0.008809
# 5 -0.007498 0.018827 -0.017113 0.000000 0.049782 0.000000
# 6 0.000000 0.000000 0.000000 -0.008809 0.000000 0.063969
#
#
# Mechanical properties :
#
#
# Convention : Reuss Voigt Hill
#
# Bulk Modulus (GPa) = 41.22515 63.33398 52.27957
# Shear Modulus (GPa) = 16.68916 29.44853 23.06885
#
# Velocity S-wave (km/s) = 2.82288 3.74980 3.31886
# Velocity P-wave (km/s) = 5.50535 6.99917 6.29672
#
# Compressibility (1/GPa) = 0.02425704
#
# Stress axis : x y z
#
# Youngs Moduli (GPa) = 49.90509 27.13673 30.72846
#
# Poissons Ratio (x) = 0.20697 -0.16238
# Poissons Ratio (y) = 0.38061 0.92938
# Poissons Ratio (z) = -0.26371 0.82075
#
# Static dielectric constant tensor:
#      x y z
#    x 1.813900 0.000000 0.041380 
#    y 0.000000 1.716070 0.000000 
#    z 0.041380 0.000000 1.730700 
# 
# From -- ./inp_files/86941.got.cif
#   From: 2010.05.17/outbox.cif.g08.bks.cpg/sg10_44_cif.got.tgz:86941.got - 2010.06.03 11:33:40.
