data_PCOD9151012
_publ_section_title
;
Structure prediction by ZEFSAII (Michael W. Deem and Ramdas Pophale) SiO2 
 PCOD9151012
Probable space group: P 2/M
;
_chemical_formula_sum "Si O2"
_cell_formula_units_Z 21
_cell_length_a 6.546223
_cell_length_b 14.301016
_cell_length_c 10.894621
_cell_angle_alpha 90.000000
_cell_angle_beta 82.678057
_cell_angle_gamma 90.000000
_cell_volume 1011.611908
_symmetry_space_group_name_H-M "P 2/M"
_symmetry_group_IT_number 10
_symmetry_cell_setting 'monoclinic'
loop_
_space_group_symop_operation_xyz
x,y,z
-x,y,-z
-x,-y,-z
x,-y,z
loop_
_atom_site_type_symbol
_atom_site_label
_atom_site_fract_x
_atom_site_fract_y
_atom_site_fract_z
Si Si1 0.637319 0.175861 0.628325
Si Si2 0.304048 0.891354 0.104169
Si Si3 0.000000 0.247316 0.000000
Si Si4 0.336567 0.394195 0.902335
Si Si5 0.500000 0.000000 0.500000
Si Si6 0.000000 0.696366 0.500000
Si Si7 0.366621 0.351954 0.623620
O O1 0.628885 0.138111 0.766314
O O2 0.643771 0.083501 0.546266
O O3 0.437624 0.242925 0.626879
O O4 0.832713 0.240895 0.584348
O O5 0.238428 0.000000 0.105145
O O6 0.500000 0.880969 0.000000
O O7 0.124908 0.821173 0.078945
O O8 0.838129 0.315811 0.077320
O O9 0.260598 0.500000 0.930612
O O10 0.413740 0.390863 0.755145
O O11 0.500000 0.374924 0.000000
O O12 0.867146 0.641520 0.407421
O O13 0.500000 0.391358 0.500000
#
# Coordination Sequence:
#
# PCOD9151012 Si02
#       7
#     4   4   2   4   1   2   4
#     4  11  21  39  57  88 123 164 207 253 294 357
#     4  11  24  40  62  91 130 171 209 251 302 367
#     4  12  22  42  64  96 126 162 206 260 314 376
#     4  11  25  45  70  95 122 162 211 267 327 386
#     4  12  20  38  54  86 122 160 216 254 286 352
#     4  10  20  37  61  88 122 168 198 246 316 362
#     4  10  21  40  63  92 126 162 204 253 317 373
#
# _framework density 20.758949000000001
#
# number of rings (size 3 to 8) (size 9 to 14) (size 15 to 20)
#    0.000    1.143    3.810    4.571    0.000    2.286 
#    0.000    0.476    0.000    0.000    0.000    0.000 
#    0.000    0.000    0.000    0.000    0.000    0.000 
#
# Total GULP energy -116918.045020 kJ/mol
# GULP energy per Si atom -5567.525953 kJ/mol
# Density = 2.071170 g / cm^3
# Si number density = 20.758949 Si / 1000 Ang^3
#
#
#
# Elastic Constant Matrix: (Units=GPa)
#
#
# Indices 1 2 3 4 5 6 
#
# 1 87.3206 32.0745 40.3765 0.0000 20.5406 0.0000
# 2 32.0745 116.3140 24.2528 0.0000 15.3149 0.0000
# 3 40.3765 24.2528 115.5708 0.0000 -0.1579 0.0000
# 4 0.0000 0.0000 0.0000 -27.0234 0.0000 45.1977
# 5 20.5406 15.3149 -0.1579 0.0000 21.1751 0.0000
# 6 0.0000 0.0000 0.0000 45.1977 0.0000 -35.1037
#
#
#
# Elastic Compliance Matrix: (Units=1/GPa)
#
#
# Indices 1 2 3 4 5 6 
#
# 1 0.019073 -0.001653 -0.006340 0.000000 -0.017353 0.000000
# 2 -0.001653 0.010133 -0.001557 0.000000 -0.005737 0.000000
# 3 -0.006340 -0.001557 0.011205 0.000000 0.007360 0.000000
# 4 0.000000 0.000000 0.000000 0.032081 0.000000 0.041306
# 5 -0.017353 -0.005737 0.007360 0.000000 0.068263 0.000000
# 6 0.000000 0.000000 0.000000 0.041306 0.000000 0.024697
#
#
# Mechanical properties :
#
#
# Convention : Reuss Voigt Hill
#
# Bulk Modulus (GPa) = 46.92424 56.95699 51.94061
# Shear Modulus (GPa) = 26.08851 6.64305 16.36578
#
# Velocity S-wave (km/s) = 3.54889 1.79082 2.81084
# Velocity P-wave (km/s) = 6.28063 5.63675 5.96738
#
# Compressibility (1/GPa) = 0.02131095
#
# Stress axis : x y z
#
# Youngs Moduli (GPa) = 52.43050 98.68539 89.24913
#
# Poissons Ratio (x) = 0.16308 0.56587
# Poissons Ratio (y) = 0.08664 0.13896
# Poissons Ratio (z) = 0.33243 0.15365
#
# Static dielectric constant tensor:
#      x y z
#    x 1.754480 0.000000 0.030680 
#    y 0.000000 1.717300 0.000000 
#    z 0.030680 0.000000 1.813300 
# 
# From -- ./inp_files/39084.got.cif
#   From: 2010.05.17/outbox.cif.g08.bks.cpg/sg10_20_cif.got.tgz:39084.got - 2010.06.03 11:33:40.
