data_PCOD9151124
_publ_section_title
;
Structure prediction by ZEFSAII (Michael W. Deem and Ramdas Pophale) SiO2 
 PCOD9151124
Probable space group: P 2/M
;
_chemical_formula_sum "Si O2"
_cell_formula_units_Z 28
_cell_length_a 11.345250
_cell_length_b 15.770062
_cell_length_c 8.510450
_cell_angle_alpha 90.000000
_cell_angle_beta 58.119562
_cell_angle_gamma 90.000000
_cell_volume 1292.961110
_symmetry_space_group_name_H-M "P 2/M"
_symmetry_group_IT_number 10
_symmetry_cell_setting 'monoclinic'
loop_
_space_group_symop_operation_xyz
x,y,z
-x,y,-z
-x,-y,-z
x,-y,z
loop_
_atom_site_type_symbol
_atom_site_label
_atom_site_fract_x
_atom_site_fract_y
_atom_site_fract_z
Si Si1 0.590308 0.182441 0.158239
Si Si2 0.428207 0.000000 0.718615
Si Si3 0.231755 0.403350 0.090238
Si Si4 0.312299 0.242864 0.221012
Si Si5 0.872304 0.000000 0.207071
Si Si6 0.652627 0.328346 0.318561
Si Si7 0.956319 0.681520 0.209191
Si Si8 0.912592 0.152344 0.416727
O O1 0.538599 0.087561 0.218980
O O2 0.463615 0.240878 0.191192
O O3 0.649553 0.228290 0.270614
O O4 0.691098 0.188650 0.938519
O O5 0.500000 0.000000 0.500000
O O6 0.264856 0.000000 0.800823
O O7 0.264014 0.500000 0.104161
O O8 0.273214 0.337101 0.196108
O O9 0.066017 0.389902 0.182791
O O10 0.309636 0.376243 0.872308
O O11 0.219731 0.195255 0.411161
O O12 0.877640 0.082313 0.313756
O O13 0.000000 0.000000 0.000000
O O14 0.500000 0.348656 0.500000
O O15 0.791937 0.340971 0.325454
O O16 0.986018 0.765849 0.288078
O O17 0.000000 0.701430 0.000000
O O18 0.000000 0.115633 0.500000
#
# Coordination Sequence:
#
# PCOD9151124 Si02
#       8
#     4   2   4   4   2   4   4   4
#     4  10  22  39  64  93 130 176 216 267 323 392
#     4  12  24  41  66  95 128 171 232 266 310 385
#     4  10  22  42  66  94 126 170 222 278 334 398
#     4  10  22  41  64  93 129 170 218 267 340 387
#     4  12  29  42  64 101 141 177 217 276 328 375
#     4  10  20  37  63  93 132 172 220 266 331 393
#     4  10  21  39  66  93 130 175 219 270 330 392
#     4  12  23  40  65  94 132 176 223 266 320 388
#
# _framework density 21.655715000000001
#
# number of rings (size 3 to 8) (size 9 to 14) (size 15 to 20)
#    0.000    1.429    1.429    3.643    2.000    4.571 
#    0.000    7.143    0.000    3.429    0.000    0.000 
#    0.000    0.000    0.000    0.000    0.000    0.000 
#
# Total GULP energy -156416.506451 kJ/mol
# GULP energy per Si atom -5586.303802 kJ/mol
# Density = 2.160643 g / cm^3
# Si number density = 21.655715 Si / 1000 Ang^3
#
#
#
# Elastic Constant Matrix: (Units=GPa)
#
#
# Indices 1 2 3 4 5 6 
#
# 1 106.8662 22.4039 35.5347 0.0000 -17.6882 0.0000
# 2 22.4039 138.5701 45.5727 0.0000 1.1390 0.0000
# 3 35.5347 45.5727 107.0461 0.0000 -20.5993 0.0000
# 4 0.0000 0.0000 0.0000 21.1874 0.0000 3.1911
# 5 -17.6882 1.1390 -20.5993 0.0000 33.8489 0.0000
# 6 0.0000 0.0000 0.0000 3.1911 0.0000 14.1403
#
#
#
# Elastic Compliance Matrix: (Units=1/GPa)
#
#
# Indices 1 2 3 4 5 6 
#
# 1 0.011097 -0.001041 -0.002399 0.000000 0.004374 0.000000
# 2 -0.001041 0.008727 -0.003999 0.000000 -0.003272 0.000000
# 3 -0.002399 -0.003999 0.013167 0.000000 0.006894 0.000000
# 4 0.000000 0.000000 0.000000 0.048858 0.000000 -0.011026
# 5 0.004374 -0.003272 0.006894 0.000000 0.036135 0.000000
# 6 0.000000 0.000000 0.000000 -0.011026 0.000000 0.073208
#
#
# Mechanical properties :
#
#
# Convention : Reuss Voigt Hill
#
# Bulk Modulus (GPa) = 55.20845 62.16724 58.68784
# Shear Modulus (GPa) = 23.57271 30.43340 27.00306
#
# Velocity S-wave (km/s) = 3.30285 3.75284 3.53501
# Velocity P-wave (km/s) = 6.33200 6.89549 6.61974
#
# Compressibility (1/GPa) = 0.01811317
#
# Stress axis : x y z
#
# Youngs Moduli (GPa) = 90.11075 114.58569 75.94526
#
# Poissons Ratio (x) = 0.11931 0.18218
# Poissons Ratio (y) = 0.09383 0.30373
# Poissons Ratio (z) = 0.21616 0.45826
#
# Static dielectric constant tensor:
#      x y z
#    x 1.864210 0.000000 -0.029320 
#    y 0.000000 1.744520 0.000000 
#    z -0.029320 0.000000 1.853140 
# 
# From -- ./inp_files/25251.got.cif
#   From: 2010.05.17/outbox.cif.g08.bks.cpg/sg10_13_cif.got.tgz:25251.got - 2010.06.03 11:33:40.
