data_PCOD9151137
_publ_section_title
;
Structure prediction by ZEFSAII (Michael W. Deem and Ramdas Pophale) SiO2 
 PCOD9151137
Probable space group: P 2/M
;
_chemical_formula_sum "Si O2"
_cell_formula_units_Z 32
_cell_length_a 13.292268
_cell_length_b 7.917418
_cell_length_c 31.207152
_cell_angle_alpha 90.000000
_cell_angle_beta 152.272788
_cell_angle_gamma 90.000000
_cell_volume 1528.040448
_symmetry_space_group_name_H-M "P 2/M"
_symmetry_group_IT_number 10
_symmetry_cell_setting 'monoclinic'
loop_
_space_group_symop_operation_xyz
x,y,z
-x,y,-z
-x,-y,-z
x,-y,z
loop_
_atom_site_type_symbol
_atom_site_label
_atom_site_fract_x
_atom_site_fract_y
_atom_site_fract_z
Si Si1 0.427619 0.695189 0.088250
Si Si2 0.011760 0.705204 0.605448
Si Si3 0.282767 0.706503 0.942834
Si Si4 0.575444 0.293019 0.392234
Si Si5 0.131117 0.295922 0.267809
Si Si6 0.903715 0.195695 0.265955
Si Si7 0.232455 0.194994 0.100835
Si Si8 0.583090 0.699547 0.297691
O O1 0.369337 0.500000 0.073942
O O2 0.681936 0.703875 0.173758
O O3 0.378360 0.791583 0.113304
O O4 0.299098 0.760341 0.998421
O O5 0.019273 0.500000 0.609714
O O6 0.793226 0.756383 0.498905
O O7 0.021076 0.766751 0.657608
O O8 0.220518 0.766936 0.657410
O O9 0.284752 0.500000 0.944068
O O10 0.068711 0.761825 0.837345
O O11 0.500000 0.760455 0.000000
O O12 0.571671 0.500000 0.390267
O O13 0.359552 0.237165 0.335328
O O14 0.576703 0.232907 0.343514
O O15 0.130882 0.500000 0.266719
O O16 0.079481 0.241514 0.296580
O O17 0.848333 0.000000 0.241035
O O18 0.360768 0.277700 0.188153
O O19 0.199163 0.000000 0.099960
O O20 0.000000 0.269093 0.000000
O O21 0.624170 0.500000 0.317266
#
# Coordination Sequence:
#
# PCOD9151137 Si02
#       8
#     4   4   4   4   4   4   4   4
#     4  11  21  37  62  88 114 152 200 249 294 344
#     4  10  20  38  63  90 117 151 197 251 307 355
#     4   9  17  31  55  84 112 143 185 237 288 339
#     4   9  20  37  62  92 118 149 197 257 307 350
#     4  10  20  38  60  85 119 156 198 246 299 355
#     4  12  24  38  58  86 122 159 199 245 295 358
#     4  11  25  41  56  84 128 166 193 231 289 351
#     4  10  20  37  64  92 119 153 200 251 296 352
#
# _framework density 20.941855
#
# number of rings (size 3 to 8) (size 9 to 14) (size 15 to 20)
#    0.000    1.750    2.500    2.250    1.750    3.000 
#    0.000    6.250    0.000    1.500    0.000    0.000 
#    0.000    0.000    0.000    0.000    0.000    0.000 
#
# Total GULP energy -178831.773540 kJ/mol
# GULP energy per Si atom -5588.492923 kJ/mol
# Density = 2.089419 g / cm^3
# Si number density = 20.941855 Si / 1000 Ang^3
#
#
#
# Elastic Constant Matrix: (Units=GPa)
#
#
# Indices 1 2 3 4 5 6 
#
# 1 144.7162 3.1958 80.1805 0.0000 -16.0953 0.0000
# 2 3.1958 25.5394 0.3495 0.0000 1.1551 0.0000
# 3 80.1805 0.3495 136.4638 0.0000 1.2129 0.0000
# 4 0.0000 0.0000 0.0000 24.2130 0.0000 -36.0711
# 5 -16.0953 1.1551 1.2129 0.0000 30.0681 0.0000
# 6 0.0000 0.0000 0.0000 -36.0711 0.0000 84.5840
#
#
#
# Elastic Compliance Matrix: (Units=1/GPa)
#
#
# Indices 1 2 3 4 5 6 
#
# 1 0.011404 -0.001626 -0.006754 0.000000 0.006439 0.000000
# 2 -0.001626 0.039456 0.000876 0.000000 -0.002421 0.000000
# 3 -0.006754 0.000876 0.011330 0.000000 -0.004106 0.000000
# 4 0.000000 0.000000 0.000000 0.113245 0.000000 0.048294
# 5 0.006439 -0.002421 -0.004106 0.000000 0.036963 0.000000
# 6 0.000000 0.000000 0.000000 0.048294 0.000000 0.032418
#
#
# Mechanical properties :
#
#
# Convention : Reuss Voigt Hill
#
# Bulk Modulus (GPa) = 21.19401 52.68566 36.93984
# Shear Modulus (GPa) = 18.14541 42.63928 30.39235
#
# Velocity S-wave (km/s) = 2.94677 4.51719 3.81369
# Velocity P-wave (km/s) = 4.66051 7.24012 6.08850
#
# Compressibility (1/GPa) = 0.04718315
#
# Stress axis : x y z
#
# Youngs Moduli (GPa) = 87.68830 25.34457 88.25856
#
# Poissons Ratio (x) = 0.04121 0.59606
# Poissons Ratio (y) = 0.14257 -0.07729
# Poissons Ratio (z) = 0.59221 -0.02220
#
# Static dielectric constant tensor:
#      x y z
#    x 1.731110 0.000000 0.010920 
#    y 0.000000 1.746300 0.000000 
#    z 0.010920 0.000000 1.726520 
# 
# From -- ./inp_files/95047.got.cif
#   From: 2010.05.17/outbox.cif.g08.bks.cpg/sg10_48_cif.got.tgz:95047.got - 2010.06.03 11:33:40.
