data_PCOD9151506
_publ_section_title
;
Structure prediction by ZEFSAII (Michael W. Deem and Ramdas Pophale) SiO2 
 PCOD9151506
Probable space group: P 2/M
;
_chemical_formula_sum "Si O2"
_cell_formula_units_Z 28
_cell_length_a 14.705030
_cell_length_b 8.713573
_cell_length_c 22.112970
_cell_angle_alpha 90.000000
_cell_angle_beta 149.267625
_cell_angle_gamma 90.000000
_cell_volume 1447.953295
_symmetry_space_group_name_H-M "P 2/M"
_symmetry_group_IT_number 10
_symmetry_cell_setting 'monoclinic'
loop_
_space_group_symop_operation_xyz
x,y,z
-x,y,-z
-x,-y,-z
x,-y,z
loop_
_atom_site_type_symbol
_atom_site_label
_atom_site_fract_x
_atom_site_fract_y
_atom_site_fract_z
Si Si1 0.233152 0.816315 0.766601
Si Si2 0.437197 0.681357 0.118385
Si Si3 0.545972 0.682141 0.618450
Si Si4 0.094231 0.319473 0.488392
Si Si5 0.763761 0.817352 0.632296
Si Si6 0.182931 0.816835 0.874510
Si Si7 0.510934 0.817764 0.287156
O O1 0.381545 0.738509 0.809961
O O2 0.261959 0.780299 0.853629
O O3 0.040303 0.757132 0.635809
O O4 0.241570 0.000000 0.764061
O O5 0.446790 0.500000 0.133241
O O6 0.421522 0.763885 0.173853
O O7 0.280317 0.726939 0.983136
O O8 0.564678 0.500000 0.624383
O O9 0.677173 0.763706 0.645926
O O10 0.348379 0.731436 0.483480
O O11 0.572568 0.739535 0.701502
O O12 0.118875 0.500000 0.489351
O O13 0.283979 0.237555 0.598523
O O14 0.000000 0.306076 0.500000
O O15 0.972724 0.784797 0.751366
O O16 0.738607 0.000000 0.610107
O O17 0.206730 0.000000 0.898075
O O18 0.504098 0.000000 0.289182
#
# Coordination Sequence:
#
# PCOD9151506 Si02
#       7
#     4   4   4   4   4   4   4
#     4  11  22  38  61  87 118 160 204 243 291 351
#     4  12  25  40  58  84 119 158 200 248 298 350
#     4  11  22  38  63  94 126 155 191 243 302 355
#     4  11  22  36  57  87 122 153 191 243 296 348
#     4  10  20  39  65  93 123 155 198 244 293 354
#     4  10  23  41  61  86 116 155 202 247 290 346
#     4  12  24  40  62  86 118 160 202 243 296 357
#
# _framework density 19.337641000000001
#
# number of rings (size 3 to 8) (size 9 to 14) (size 15 to 20)
#    0.000    1.000    1.429    7.286    0.000    5.714 
#    0.000    0.714    0.000    4.286    0.000    0.000 
#    0.000    0.000    0.000    0.000    0.000    0.000 
#
# Total GULP energy -156700.692544 kJ/mol
# GULP energy per Si atom -5596.453305 kJ/mol
# Density = 1.929363 g / cm^3
# Si number density = 19.337641 Si / 1000 Ang^3
#
#
#
# Elastic Constant Matrix: (Units=GPa)
#
#
# Indices 1 2 3 4 5 6 
#
# 1 56.8019 6.0375 12.9690 0.0000 -19.7336 0.0000
# 2 6.0375 55.1017 9.0769 0.0000 0.6501 0.0000
# 3 12.9690 9.0769 54.3274 0.0000 -17.4054 0.0000
# 4 0.0000 0.0000 0.0000 45.2168 0.0000 -137.9094
# 5 -19.7336 0.6501 -17.4054 0.0000 23.3227 0.0000
# 6 0.0000 0.0000 0.0000 -137.9094 0.0000-3513.6472
#
#
#
# Elastic Compliance Matrix: (Units=1/GPa)
#
#
# Indices 1 2 3 4 5 6 
#
# 1 0.025572 -0.003383 0.001870 0.000000 0.023127 0.000000
# 2 -0.003383 0.019361 -0.004622 0.000000 -0.006851 0.000000
# 3 0.001870 -0.004622 0.025340 0.000000 0.020622 0.000000
# 4 0.000000 0.000000 0.000000 0.019751 0.000000 -0.000775
# 5 0.023127 -0.006851 0.020622 0.000000 0.078025 0.000000
# 6 0.000000 0.000000 0.000000 -0.000775 0.000000 -0.000254
#
#
# Mechanical properties :
#
#
# Convention : Reuss Voigt Hill
#
# Bulk Modulus (GPa) = 17.24068 24.71084 20.97576
# Shear Modulus (GPa) = 25.07534 -679.81168 -327.36817
#
# Velocity S-wave (km/s) = 3.60489 -18.76996 -13.02529
# Velocity P-wave (km/s) = 5.12464 21.37621 14.67448
#
# Compressibility (1/GPa) = 0.05800236
#
# Stress axis : x y z
#
# Youngs Moduli (GPa) = 39.10516 51.64969 39.46401
#
# Poissons Ratio (x) = 0.17472 -0.07380
# Poissons Ratio (y) = 0.13229 0.18242
# Poissons Ratio (z) = -0.07312 0.23874
#
# Static dielectric constant tensor:
#      x y z
#    x 1.672240 0.000000 -0.005040 
#    y 0.000000 1.641880 0.000000 
#    z -0.005040 0.000000 1.662260 
# 
# From -- ./inp_files/84993.got.cif
#   From: 2010.05.17/outbox.cif.g08.bks.cpg/sg10_43_cif.got.tgz:84993.got - 2010.06.03 11:33:40.
