data_PCOD9151101
_publ_section_title
;
Structure prediction by ZEFSAII (Michael W. Deem and Ramdas Pophale) SiO2 
 PCOD9151101
Probable space group: P 2/M
;
_chemical_formula_sum "Si O2"
_cell_formula_units_Z 28
_cell_length_a 28.017892
_cell_length_b 8.641299
_cell_length_c 9.838828
_cell_angle_alpha 90.000000
_cell_angle_beta 38.768423
_cell_angle_gamma 90.000000
_cell_volume 1491.602255
_symmetry_space_group_name_H-M "P 2/M"
_symmetry_group_IT_number 10
_symmetry_cell_setting 'monoclinic'
loop_
_space_group_symop_operation_xyz
x,y,z
-x,y,-z
-x,-y,-z
x,-y,z
loop_
_atom_site_type_symbol
_atom_site_label
_atom_site_fract_x
_atom_site_fract_y
_atom_site_fract_z
Si Si1 0.139334 0.315406 0.843688
Si Si2 0.541513 0.322300 0.762457
Si Si3 0.306315 0.184566 0.467650
Si Si4 0.007934 0.813503 0.324402
Si Si5 0.555182 0.182219 0.257011
Si Si6 0.701498 0.683528 0.816277
Si Si7 0.133732 0.185665 0.555647
O O1 0.144904 0.500000 0.822923
O O2 0.222318 0.244750 0.691603
O O3 0.116743 0.250675 0.744353
O O4 0.078435 0.264225 0.090790
O O5 0.540770 0.500000 0.715062
O O6 0.626952 0.261665 0.593247
O O7 0.492823 0.215866 0.771582
O O8 0.500000 0.319825 0.000000
O O9 0.317389 0.236347 0.286268
O O10 0.309920 0.000000 0.469152
O O11 0.000000 0.768098 0.500000
O O12 0.932413 0.776845 0.404427
O O13 0.018135 0.000000 0.297435
O O14 0.500000 0.235046 0.500000
O O15 0.570271 0.000000 0.239028
O O16 0.635213 0.269675 0.066848
O O17 0.702897 0.500000 0.792783
O O18 0.785245 0.743715 0.668465
O O19 0.140737 0.000000 0.550354
#
# Coordination Sequence:
#
# PCOD9151101 Si02
#       7
#     4   4   4   4   4   4   4
#     4  11  22  37  60  89 121 153 192 242 291 346
#     4  11  22  37  61  90 120 154 194 244 298 348
#     4  11  21  36  61  89 118 153 197 246 291 342
#     4  10  22  41  62  86 118 156 194 237 289 349
#     4  11  24  41  60  85 117 158 204 243 288 350
#     4  11  21  36  59  87 119 153 193 244 299 348
#     4  10  20  37  63  89 114 151 196 242 289 346
#
# _framework density 18.771761000000001
#
# number of rings (size 3 to 8) (size 9 to 14) (size 15 to 20)
#    0.000    1.286    1.429    7.286    0.000    4.857 
#    2.571    0.000    0.000    0.000    0.000    0.000 
#    0.000    0.000    0.000    0.000    0.000    0.000 
#
# Total GULP energy -156511.110969 kJ/mol
# GULP energy per Si atom -5589.682535 kJ/mol
# Density = 1.872904 g / cm^3
# Si number density = 18.771761 Si / 1000 Ang^3
#
#
#
# Elastic Constant Matrix: (Units=GPa)
#
#
# Indices 1 2 3 4 5 6 
#
# 1 62.9081 13.3458 47.7895 0.0000 -13.1665 0.0000
# 2 13.3458 58.4754 36.8325 0.0000 -5.8168 0.0000
# 3 47.7895 36.8325 141.2271 0.0000 -10.4955 0.0000
# 4 0.0000 0.0000 0.0000 78.7659 0.0000 -143.0086
# 5 -13.1665 -5.8168 -10.4955 0.0000 20.9348 0.0000
# 6 0.0000 0.0000 0.0000 -143.0086 0.0000 125.0790
#
#
#
# Elastic Compliance Matrix: (Units=1/GPa)
#
#
# Indices 1 2 3 4 5 6 
#
# 1 0.023729 0.000288 -0.007260 0.000000 0.011364 0.000000
# 2 0.000288 0.020665 -0.005242 0.000000 0.003295 0.000000
# 3 -0.007260 -0.005242 0.010862 0.000000 -0.000577 0.000000
# 4 0.000000 0.000000 0.000000 -0.011800 0.000000 -0.013492
# 5 0.011364 0.003295 -0.000577 0.000000 0.055541 0.000000
# 6 0.000000 0.000000 0.000000 -0.013492 0.000000 -0.007431
#
#
# Mechanical properties :
#
#
# Convention : Reuss Voigt Hill
#
# Bulk Modulus (GPa) = 32.43903 50.94959 41.69431
# Shear Modulus (GPa) = 39.59788 55.93210 47.76499
#
# Velocity S-wave (km/s) = 4.59785 5.46448 5.04979
# Velocity P-wave (km/s) = 6.74575 8.18625 7.50066
#
# Compressibility (1/GPa) = 0.03082706
#
# Stress axis : x y z
#
# Youngs Moduli (GPa) = 42.14277 48.39064 92.06596
#
# Poissons Ratio (x) = -0.01393 0.66841
# Poissons Ratio (y) = -0.01213 0.48262
# Poissons Ratio (z) = 0.30596 0.25367
#
# Static dielectric constant tensor:
#      x y z
#    x 1.631020 0.000000 -0.002140 
#    y 0.000000 1.627200 0.000000 
#    z -0.002140 0.000000 1.654950 
# 
# From -- ./inp_files/37115.got.cif
#   From: 2010.05.17/outbox.cif.g08.bks.cpg/sg10_19_cif.got.tgz:37115.got - 2010.06.03 11:33:40.
