data_PCOD9151630
_publ_section_title
;
Structure prediction by ZEFSAII (Michael W. Deem and Ramdas Pophale) SiO2 
 PCOD9151630
Probable space group: P 2/M
;
_chemical_formula_sum "Si O2"
_cell_formula_units_Z 32
_cell_length_a 13.375447
_cell_length_b 25.373652
_cell_length_c 5.274865
_cell_angle_alpha 90.000000
_cell_angle_beta 98.705624
_cell_angle_gamma 90.000000
_cell_volume 1769.579570
_symmetry_space_group_name_H-M "P 2/M"
_symmetry_group_IT_number 10
_symmetry_cell_setting 'monoclinic'
loop_
_space_group_symop_operation_xyz
x,y,z
-x,y,-z
-x,-y,-z
x,-y,z
loop_
_atom_site_type_symbol
_atom_site_label
_atom_site_fract_x
_atom_site_fract_y
_atom_site_fract_z
Si Si1 0.740464 0.763060 0.368372
Si Si2 0.430256 0.556439 0.722970
Si Si3 0.571635 0.325490 0.276285
Si Si4 0.381493 0.860927 0.449215
Si Si5 0.213549 0.849821 0.009691
Si Si6 0.068452 0.213052 0.273472
Si Si7 0.757427 0.059990 0.361359
Si Si8 0.950855 0.061663 0.729808
O O1 0.665403 0.714556 0.298249
O O2 0.669144 0.808791 0.454689
O O3 0.783311 0.794228 0.139922
O O4 0.836652 0.751576 0.588086
O O5 0.500000 0.555506 0.500000
O O6 0.372552 0.500000 0.702374
O O7 0.383775 0.614763 0.701498
O O8 0.500000 0.556090 0.000000
O O9 0.500000 0.317842 0.500000
O O10 0.500000 0.319681 0.000000
O O11 0.500000 0.856464 0.500000
O O12 0.344964 0.912480 0.586860
O O13 0.325488 0.861816 0.158252
O O14 0.132242 0.838056 0.200299
O O15 0.194524 0.898999 0.818960
O O16 0.000000 0.205660 0.500000
O O17 0.000000 0.228518 0.000000
O O18 0.831590 0.059324 0.633169
O O19 0.749046 0.000000 0.265085
O O20 0.000000 0.086244 0.500000
O O21 0.984431 0.000000 0.741599
O O22 0.000000 0.083327 0.000000
#
# Coordination Sequence:
#
# PCOD9151630 Si02
#       8
#     4   4   4   4   4   4   4   4
#     4  10  22  37  58  87 114 148 191 235 279 340
#     4   8  14  27  44  70 113 162 205 238 277 325
#     4  10  21  31  53  87 121 163 201 242 282 325
#     4  10  23  40  58  83 112 148 182 227 281 328
#     4  10  23  42  61  88 107 148 180 225 283 339
#     4  11  22  42  65  85 113 147 179 226 286 354
#     4  10  23  42  61  86 111 140 182 224 270 339
#     4   9  19  37  59  83 108 133 159 201 260 316
#
# _framework density 18.083393000000001
#
# number of rings (size 3 to 8) (size 9 to 14) (size 15 to 20)
#    0.000    2.250    1.250    0.375    7.000    2.250 
#    6.750    0.625    0.000    0.750    0.000    0.000 
#    0.000    1.000    0.000    0.750    0.000    0.250 
#
# Total GULP energy -178206.183405 kJ/mol
# GULP energy per Si atom -5568.943231 kJ/mol
# Density = 1.804223 g / cm^3
# Si number density = 18.083393 Si / 1000 Ang^3
#
#
#
# Elastic Constant Matrix: (Units=GPa)
#
#
# Indices 1 2 3 4 5 6 
#
# 1 111.8505 33.3737 53.2558 0.0000 14.8260 0.0000
# 2 33.3737 138.0308 30.6303 0.0000 7.9330 0.0000
# 3 53.2558 30.6303 127.6201 0.0000 0.7262 0.0000
# 4 0.0000 0.0000 0.0000 15.4166 0.0000 4.3448
# 5 14.8260 7.9330 0.7262 0.0000 28.9665 0.0000
# 6 0.0000 0.0000 0.0000 4.3448 0.0000 9.6376
#
#
#
# Elastic Compliance Matrix: (Units=1/GPa)
#
#
# Indices 1 2 3 4 5 6 
#
# 1 0.012473 -0.001620 -0.004783 0.000000 -0.005820 0.000000
# 2 -0.001620 0.007986 -0.001233 0.000000 -0.001327 0.000000
# 3 -0.004783 -0.001233 0.010113 0.000000 0.002532 0.000000
# 4 0.000000 0.000000 0.000000 0.074306 0.000000 -0.033499
# 5 -0.005820 -0.001327 0.002532 0.000000 0.037802 0.000000
# 6 0.000000 0.000000 0.000000 -0.033499 0.000000 0.118862
#
#
# Mechanical properties :
#
#
# Convention : Reuss Voigt Hill
#
# Bulk Modulus (GPa) = 65.35881 68.00234 66.68057
# Shear Modulus (GPa) = 17.73587 28.15357 22.94472
#
# Velocity S-wave (km/s) = 3.13514 3.95001 3.56593
# Velocity P-wave (km/s) = 7.02332 7.64787 7.34224
#
# Compressibility (1/GPa) = 0.01530016
#
# Stress axis : x y z
#
# Youngs Moduli (GPa) = 80.17547 125.21334 98.87990
#
# Poissons Ratio (x) = 0.20282 0.47294
# Poissons Ratio (y) = 0.12987 0.12195
# Poissons Ratio (z) = 0.38347 0.15443
#
# Static dielectric constant tensor:
#      x y z
#    x 1.643850 0.000000 -0.046600 
#    y 0.000000 1.674590 0.000000 
#    z -0.046600 0.000000 1.725340 
# 
# From -- ./inp_files/8104.got.cif
#   From: 2010.05.17/outbox.cif.g08.bks.cpg/sg10_5_cif.got.tgz:8104.got - 2010.06.03 11:33:40.
