data_PCOD9151457
_publ_section_title
;
Structure prediction by ZEFSAII (Michael W. Deem and Ramdas Pophale) SiO2 
 PCOD9151457
Probable space group: P 2/M
;
_chemical_formula_sum "Si O2"
_cell_formula_units_Z 32
_cell_length_a 13.619011
_cell_length_b 9.306659
_cell_length_c 21.667108
_cell_angle_alpha 90.000000
_cell_angle_beta 145.905948
_cell_angle_gamma 90.000000
_cell_volume 1539.419642
_symmetry_space_group_name_H-M "P 2/M"
_symmetry_group_IT_number 10
_symmetry_cell_setting 'monoclinic'
loop_
_space_group_symop_operation_xyz
x,y,z
-x,y,-z
-x,-y,-z
x,-y,z
loop_
_atom_site_type_symbol
_atom_site_label
_atom_site_fract_x
_atom_site_fract_y
_atom_site_fract_z
Si Si1 0.980070 0.830800 0.148397
Si Si2 0.082749 0.166362 0.338793
Si Si3 0.199267 0.335286 0.613542
Si Si4 0.750961 0.661885 0.212733
Si Si5 0.749889 0.328329 0.790219
Si Si6 0.541858 0.834579 0.779314
Si Si7 0.524836 0.170336 0.439893
Si Si8 0.412901 0.835149 0.048933
O O1 0.092864 0.821807 0.269744
O O2 0.070426 0.738054 0.142574
O O3 0.970188 0.000000 0.125314
O O4 0.784324 0.782269 0.064531
O O5 0.270329 0.200351 0.465614
O O6 0.924925 0.262656 0.279360
O O7 0.041028 0.000000 0.330678
O O8 0.212514 0.500000 0.596554
O O9 0.232063 0.340545 0.704016
O O10 0.352390 0.235582 0.666580
O O11 0.000000 0.284476 0.500000
O O12 0.739749 0.500000 0.183836
O O13 0.574089 0.747229 0.105937
O O14 0.754798 0.500000 0.795002
O O15 0.690828 0.259142 0.824109
O O16 0.600933 0.269065 0.665795
O O17 0.566089 0.833478 0.865637
O O18 0.549267 0.000000 0.762247
O O19 0.500000 0.193222 0.500000
O O20 0.489902 0.000000 0.410017
O O21 0.423359 0.000000 0.033347
#
# Coordination Sequence:
#
# PCOD9151457 Si02
#       8
#     4   4   4   4   4   4   4   4
#     4  10  21  41  64  85 111 150 198 245 289 337
#     4  10  21  37  60  86 115 150 192 238 284 339
#     4   9  19  36  55  79 112 150 190 234 287 341
#     4  10  21  36  56  83 120 155 186 233 288 345
#     4  12  25  38  57  87 121 156 190 233 290 353
#     4  10  21  38  59  85 114 148 193 241 286 338
#     4  10  20  39  62  84 114 153 194 240 287 334
#     4   9  20  40  65  86 110 148 197 247 289 335
#
# _framework density 20.787054999999999
#
# number of rings (size 3 to 8) (size 9 to 14) (size 15 to 20)
#    0.000    2.000    1.250    1.875    1.750    4.000 
#    0.000    5.000    0.000    0.000    0.000    0.000 
#    0.000    0.000    0.000    0.000    0.000    0.000 
#
# Total GULP energy -178839.613898 kJ/mol
# GULP energy per Si atom -5588.737934 kJ/mol
# Density = 2.073974 g / cm^3
# Si number density = 20.787055 Si / 1000 Ang^3
#
#
#
# Elastic Constant Matrix: (Units=GPa)
#
#
# Indices 1 2 3 4 5 6 
#
# 1 69.1241 46.0760 -2.4323 0.0000 23.0262 0.0000
# 2 46.0760 102.3755 17.1427 0.0000 31.9723 0.0000
# 3 -2.4323 17.1427 62.9941 0.0000 20.2954 0.0000
# 4 0.0000 0.0000 0.0000 -13.8033 0.0000 -18.1015
# 5 23.0262 31.9723 20.2954 0.0000 37.9963 0.0000
# 6 0.0000 0.0000 0.0000 -18.1015 0.0000 5.2876
#
#
#
# Elastic Compliance Matrix: (Units=1/GPa)
#
#
# Indices 1 2 3 4 5 6 
#
# 1 0.024067 -0.008520 0.006809 0.000000 -0.011052 0.000000
# 2 -0.008520 0.016266 -0.002427 0.000000 -0.007228 0.000000
# 3 0.006809 -0.002427 0.021100 0.000000 -0.013355 0.000000
# 4 0.000000 0.000000 0.000000 -0.013197 0.000000 -0.045180
# 5 -0.011052 -0.007228 -0.013355 0.000000 0.046231 0.000000
# 6 0.000000 0.000000 0.000000 -0.045180 0.000000 0.034452
#
#
# Mechanical properties :
#
#
# Convention : Reuss Voigt Hill
#
# Bulk Modulus (GPa) = 18.81215 39.56296 29.18756
# Shear Modulus (GPa) = 32.27544 17.47659 24.87602
#
# Velocity S-wave (km/s) = 3.94467 2.90270 3.46310
# Velocity P-wave (km/s) = 5.46048 5.50528 5.48292
#
# Compressibility (1/GPa) = 0.05315712
#
# Stress axis : x y z
#
# Youngs Moduli (GPa) = 41.54982 61.47647 47.39236
#
# Poissons Ratio (x) = 0.52381 -0.32269
# Poissons Ratio (y) = 0.35402 0.11502
# Poissons Ratio (z) = -0.28291 0.14920
#
# Static dielectric constant tensor:
#      x y z
#    x 1.758660 0.000000 -0.013010 
#    y 0.000000 1.706010 0.000000 
#    z -0.013010 0.000000 1.752590 
# 
# From -- ./inp_files/66631.got.cif
#   From: 2010.05.17/outbox.cif.g08.bks.cpg/sg10_34_cif.got.tgz:66631.got - 2010.06.03 11:33:40.
