data_PCOD9151967
_publ_section_title
;
Structure prediction by ZEFSAII (Michael W. Deem and Ramdas Pophale) SiO2 
 PCOD9151967
Probable space group: P 2/M
;
_chemical_formula_sum "Si O2"
_cell_formula_units_Z 32
_cell_length_a 12.526445
_cell_length_b 19.804934
_cell_length_c 7.095046
_cell_angle_alpha 90.000000
_cell_angle_beta 130.148130
_cell_angle_gamma 90.000000
_cell_volume 1345.444521
_symmetry_space_group_name_H-M "P 2/M"
_symmetry_group_IT_number 10
_symmetry_cell_setting 'monoclinic'
loop_
_space_group_symop_operation_xyz
x,y,z
-x,y,-z
-x,-y,-z
x,-y,z
loop_
_atom_site_type_symbol
_atom_site_label
_atom_site_fract_x
_atom_site_fract_y
_atom_site_fract_z
Si Si1 0.381724 0.578712 0.699385
Si Si2 0.282889 0.721625 0.501593
Si Si3 0.031486 0.709425 0.764634
Si Si4 0.117912 0.080099 0.861191
Si Si5 0.809053 0.921580 0.615659
Si Si6 0.270684 0.794563 0.892152
Si Si7 0.444057 0.156612 0.619409
Si Si8 0.952253 0.429295 0.657956
O O1 0.404966 0.500000 0.652052
O O2 0.370342 0.651471 0.577759
O O3 0.214861 0.579776 0.554923
O O4 0.500000 0.585702 0.000000
O O5 0.113238 0.725847 0.290711
O O6 0.291093 0.749164 0.727841
O O7 0.354814 0.778287 0.458293
O O8 0.044811 0.631648 0.840387
O O9 0.000000 0.711237 0.500000
O O10 0.172417 0.751769 0.924498
O O11 0.191339 0.132919 0.807780
O O12 0.956762 0.102148 0.702458
O O13 0.124998 0.000000 0.817583
O O14 0.179750 0.085875 0.143556
O O15 0.666255 0.887207 0.392905
O O16 0.802791 0.000000 0.566339
O O17 0.424837 0.814564 0.125566
O O18 0.500000 0.118119 0.500000
O O19 0.978790 0.500000 0.783428
O O20 0.000000 0.433692 0.500000
#
# Coordination Sequence:
#
# PCOD9151967 Si02
#       8
#     4   4   4   4   4   4   4   4
#     4   9  16  28  48  74 102 139 179 215 263 318
#     4  10  21  36  53  77 113 145 175 224 272 314
#     4   8  16  30  49  71 100 138 171 207 261 314
#     4   9  18  35  59  81 104 138 179 219 260 314
#     4   9  19  37  58  80 106 139 180 221 259 311
#     4  11  20  34  54  80 110 140 174 219 272 319
#     4  12  23  35  52  81 109 143 179 219 269 322
#     4   8  13  22  39  66  98 128 164 209 253 303
#
# _framework density 23.783961999999999
#
# number of rings (size 3 to 8) (size 9 to 14) (size 15 to 20)
#    0.000    2.500    1.250    3.375    0.000    0.750 
#    0.000    0.625    0.000    6.750    0.000    0.000 
#    0.000    4.000    0.000    0.000    0.000    0.000 
#
# Total GULP energy -178142.862970 kJ/mol
# GULP energy per Si atom -5566.964468 kJ/mol
# Density = 2.372983 g / cm^3
# Si number density = 23.783962 Si / 1000 Ang^3
#
#
#
# Elastic Constant Matrix: (Units=GPa)
#
#
# Indices 1 2 3 4 5 6 
#
# 1 102.2222 42.5190 36.7348 0.0000 17.8868 0.0000
# 2 42.5190 83.0639 36.4438 0.0000 29.1760 0.0000
# 3 36.7348 36.4438 94.7948 0.0000 21.0748 0.0000
# 4 0.0000 0.0000 0.0000 25.2819 0.0000 8.8437
# 5 17.8868 29.1760 21.0748 0.0000 34.9898 0.0000
# 6 0.0000 0.0000 0.0000 8.8437 0.0000 2.3615
#
#
#
# Elastic Compliance Matrix: (Units=1/GPa)
#
#
# Indices 1 2 3 4 5 6 
#
# 1 0.013113 -0.005216 -0.002948 0.000000 -0.000579 0.000000
# 2 -0.005216 0.020457 -0.003053 0.000000 -0.012553 0.000000
# 3 -0.002948 -0.003053 0.013814 0.000000 -0.004268 0.000000
# 4 0.000000 0.000000 0.000000 -0.127603 0.000000 0.477858
# 5 -0.000579 -0.012553 -0.004268 0.000000 0.041914 0.000000
# 6 0.000000 0.000000 0.000000 0.477858 0.000000 -1.366072
#
#
# Mechanical properties :
#
#
# Convention : Reuss Voigt Hill
#
# Bulk Modulus (GPa) = 40.07717 56.83067 48.45392
# Shear Modulus (GPa) = -3.64000 23.48553 9.92277
#
# Velocity S-wave (km/s) = -1.23845 3.14578 2.04477
# Velocity P-wave (km/s) = 3.85254 6.09434 5.09819
#
# Compressibility (1/GPa) = 0.02495186
#
# Stress axis : x y z
#
# Youngs Moduli (GPa) = 76.26301 48.88205 72.39113
#
# Poissons Ratio (x) = 0.25495 0.21338
# Poissons Ratio (y) = 0.39775 0.22100
# Poissons Ratio (z) = 0.22479 0.14923
#
# Static dielectric constant tensor:
#      x y z
#    x 1.755200 0.000000 0.035880 
#    y 0.000000 2.014040 0.000000 
#    z 0.035880 0.000000 1.908630 
# 
# From -- ./inp_files/26096.got.cif
#   From: 2010.05.17/outbox.cif.g08.bks.cpg/sg10_14_cif.got.tgz:26096.got - 2010.06.03 11:33:40.
