data_PCOD9151975
_publ_section_title
;
Structure prediction by ZEFSAII (Michael W. Deem and Ramdas Pophale) SiO2 
 PCOD9151975
Probable space group: P 2/M
;
_chemical_formula_sum "Si O2"
_cell_formula_units_Z 32
_cell_length_a 9.326155
_cell_length_b 13.819680
_cell_length_c 14.147703
_cell_angle_alpha 90.000000
_cell_angle_beta 63.142500
_cell_angle_gamma 90.000000
_cell_volume 1626.732331
_symmetry_space_group_name_H-M "P 2/M"
_symmetry_group_IT_number 10
_symmetry_cell_setting 'monoclinic'
loop_
_space_group_symop_operation_xyz
x,y,z
-x,y,-z
-x,-y,-z
x,-y,z
loop_
_atom_site_type_symbol
_atom_site_label
_atom_site_fract_x
_atom_site_fract_y
_atom_site_fract_z
Si Si1 0.171976 0.882138 0.983735
Si Si2 0.343775 0.112112 0.752564
Si Si3 0.345011 0.113393 0.113598
Si Si4 0.340298 0.390138 0.408989
Si Si5 0.337080 0.888010 0.448742
Si Si6 0.862936 0.201100 0.325872
Si Si7 0.795062 0.787437 0.674015
Si Si8 0.287631 0.607995 0.650750
O O1 0.304405 0.848064 0.867993
O O2 0.176387 0.000000 0.978898
O O3 0.205984 0.857325 0.081370
O O4 0.000000 0.848825 0.000000
O O5 0.494260 0.149036 0.645895
O O6 0.179848 0.122110 0.740973
O O7 0.385555 0.000000 0.753192
O O8 0.331452 0.181960 0.207466
O O9 0.328841 0.000000 0.147169
O O10 0.500000 0.118960 0.000000
O O11 0.305411 0.500000 0.385700
O O12 0.254401 0.309705 0.368979
O O13 0.533673 0.379207 0.359829
O O14 0.290633 0.387008 0.534713
O O15 0.268925 0.825751 0.554560
O O16 0.212566 0.872592 0.400985
O O17 0.351350 0.000000 0.472963
O O18 0.821074 0.302415 0.288736
O O19 0.032370 0.210531 0.327153
O O20 0.232600 0.500000 0.692496
#
# Coordination Sequence:
#
# PCOD9151975 Si02
#       8
#     4   4   4   4   4   4   4   4
#     4   9  17  32  53  75  99 131 180 238 280 306
#     4  10  21  36  54  75 105 150 195 230 267 319
#     4  10  21  37  56  78 107 147 191 232 274 323
#     4   9  19  37  60  82 107 143 185 227 272 326
#     4  11  23  36  49  71 111 157 191 216 255 325
#     4  12  23  33  52  83 115 148 181 223 276 327
#     4  12  23  35  54  83 115 145 179 226 282 334
#     4   9  19  37  59  80 106 144 187 227 265 318
#
# _framework density 19.671337000000001
#
# number of rings (size 3 to 8) (size 9 to 14) (size 15 to 20)
#    0.000    1.750    1.250    4.500    1.750    7.000 
#    0.000    1.250    0.000    0.375    0.000    0.875 
#    0.000    5.000    0.000    0.000    0.000    0.000 
#
# Total GULP energy -178458.086214 kJ/mol
# GULP energy per Si atom -5576.815194 kJ/mol
# Density = 1.962656 g / cm^3
# Si number density = 19.671337 Si / 1000 Ang^3
#
#
#
# Elastic Constant Matrix: (Units=GPa)
#
#
# Indices 1 2 3 4 5 6 
#
# 1 79.4140 14.3690 11.8337 0.0000 4.3488 0.0000
# 2 14.3690 87.0651 16.8165 0.0000 0.2747 0.0000
# 3 11.8337 16.8165 69.5514 0.0000 6.3684 0.0000
# 4 0.0000 0.0000 0.0000 13.7255 0.0000 8.6930
# 5 4.3488 0.2747 6.3684 0.0000 27.0943 0.0000
# 6 0.0000 0.0000 0.0000 8.6930 0.0000 24.8012
#
#
#
# Elastic Compliance Matrix: (Units=1/GPa)
#
#
# Indices 1 2 3 4 5 6 
#
# 1 0.013270 -0.001866 -0.001649 0.000000 -0.001723 0.000000
# 2 -0.001866 0.012320 -0.002736 0.000000 0.000818 0.000000
# 3 -0.001649 -0.002736 0.015630 0.000000 -0.003381 0.000000
# 4 0.000000 0.000000 0.000000 0.093645 0.000000 -0.032823
# 5 -0.001723 0.000818 -0.003381 0.000000 0.037971 0.000000
# 6 0.000000 0.000000 0.000000 -0.032823 0.000000 0.051825
#
#
# Mechanical properties :
#
#
# Convention : Reuss Voigt Hill
#
# Bulk Modulus (GPa) = 34.82248 35.78543 35.30396
# Shear Modulus (GPa) = 20.26462 25.99162 23.12812
#
# Velocity S-wave (km/s) = 3.21309 3.63890 3.43261
# Velocity P-wave (km/s) = 5.61301 5.99055 5.80485
#
# Compressibility (1/GPa) = 0.02871708
#
# Stress axis : x y z
#
# Youngs Moduli (GPa) = 75.35821 81.17194 63.98142
#
# Poissons Ratio (x) = 0.15148 0.10549
# Poissons Ratio (y) = 0.14063 0.17506
# Poissons Ratio (z) = 0.12425 0.22209
#
# Static dielectric constant tensor:
#      x y z
#    x 1.784710 0.000000 -0.016420 
#    y 0.000000 1.693450 0.000000 
#    z -0.016420 0.000000 1.740030 
# 
# From -- ./inp_files/61831.got.cif
#   From: 2010.05.17/outbox.cif.g08.bks.cpg/sg10_31_cif.got.tgz:61831.got - 2010.06.03 11:33:40.
