data_PCOD9151933
_publ_section_title
;
Structure prediction by ZEFSAII (Michael W. Deem and Ramdas Pophale) SiO2 
 PCOD9151933
Probable space group: P 2/M
;
_chemical_formula_sum "Si O2"
_cell_formula_units_Z 28
_cell_length_a 30.847127
_cell_length_b 7.772481
_cell_length_c 9.649198
_cell_angle_alpha 90.000000
_cell_angle_beta 142.131545
_cell_angle_gamma 90.000000
_cell_volume 1420.130778
_symmetry_space_group_name_H-M "P 2/M"
_symmetry_group_IT_number 10
_symmetry_cell_setting 'monoclinic'
loop_
_space_group_symop_operation_xyz
x,y,z
-x,y,-z
-x,-y,-z
x,-y,z
loop_
_atom_site_type_symbol
_atom_site_label
_atom_site_fract_x
_atom_site_fract_y
_atom_site_fract_z
Si Si1 0.721103 0.800599 0.475654
Si Si2 0.877163 0.304963 0.868864
Si Si3 0.280686 0.199910 0.865712
Si Si4 0.566937 0.789286 0.079949
Si Si5 0.873199 0.209543 0.536046
Si Si6 0.006017 0.198066 0.362936
Si Si7 0.566411 0.211100 0.757634
O O1 0.794857 0.715164 0.700919
O O2 0.717869 0.797417 0.299091
O O3 0.644530 0.731396 0.327537
O O4 0.726344 0.000000 0.530908
O O5 0.899185 0.500000 0.944165
O O6 0.883803 0.259872 0.723002
O O7 0.930862 0.198127 0.096942
O O8 0.204083 0.273547 0.708524
O O9 0.279992 0.000000 0.908073
O O10 0.356628 0.272665 0.100620
O O11 0.569068 0.000000 0.088310
O O12 0.500000 0.733193 0.000000
O O13 0.558183 0.738932 0.897445
O O14 0.935598 0.272089 0.594527
O O15 0.871440 0.000000 0.532604
O O16 0.000000 0.278551 0.500000
O O17 0.029027 0.000000 0.442297
O O18 0.500000 0.267005 0.500000
O O19 0.568328 0.000000 0.759941
#
# Coordination Sequence:
#
# PCOD9151933 Si02
#       7
#     4   4   4   4   4   4   4
#     4   8  14  27  46  65  90 122 153 190 236 280
#     4  11  21  32  50  74  96 121 160 203 238 278
#     4   7  11  21  38  59  83 114 147 178 219 266
#     4   8  13  22  38  61  86 113 147 187 231 274
#     4   9  17  32  53  72  92 121 158 199 238 279
#     4  10  21  36  52  71  97 127 156 188 236 296
#     4   8  12  18  30  52  84 114 137 169 216 265
#
# _framework density 19.716494999999998
#
# number of rings (size 3 to 8) (size 9 to 14) (size 15 to 20)
#    0.000    3.286    0.000    4.286    0.000    2.571 
#    0.000    1.429    0.000    7.286    0.000    0.000 
#    0.000   46.286    0.000    0.000    0.000    0.000 
#
# Total GULP energy -155905.203871 kJ/mol
# GULP energy per Si atom -5568.042995 kJ/mol
# Density = 1.967162 g / cm^3
# Si number density = 19.716495 Si / 1000 Ang^3
#
#
#
# Elastic Constant Matrix: (Units=GPa)
#
#
# Indices 1 2 3 4 5 6 
#
# 1 119.3384 2.0044 64.2439 0.0000 28.8543 0.0000
# 2 2.0044 31.8924 -7.0606 0.0000 0.1528 0.0000
# 3 64.2439 -7.0606 119.4139 0.0000 26.1451 0.0000
# 4 0.0000 0.0000 0.0000 1530.5629 0.0000 -487.1689
# 5 28.8543 0.1528 26.1451 0.0000 26.1298 0.0000
# 6 0.0000 0.0000 0.0000 -487.1689 0.0000 150.5431
#
#
#
# Elastic Compliance Matrix: (Units=1/GPa)
#
#
# Indices 1 2 3 4 5 6 
#
# 1 0.013626 -0.001988 -0.005322 0.000000 -0.009709 0.000000
# 2 -0.001988 0.032205 0.003245 0.000000 -0.001240 0.000000
# 3 -0.005322 0.003245 0.012993 0.000000 -0.007143 0.000000
# 4 0.000000 0.000000 0.000000 -0.021762 0.000000 -0.070422
# 5 -0.009709 -0.001240 -0.007143 0.000000 0.056146 0.000000
# 6 0.000000 0.000000 0.000000 -0.070422 0.000000 -0.221249
#
#
# Mechanical properties :
#
#
# Convention : Reuss Voigt Hill
#
# Bulk Modulus (GPa) = 19.72635 43.22446 31.47541
# Shear Modulus (GPa) = -48.53798 355.54429 153.50315
#
# Velocity S-wave (km/s) = -4.96703 13.44321 8.83313
# Velocity P-wave (km/s) = 4.78210 16.21513 10.95586
#
# Compressibility (1/GPa) = 0.05069361
#
# Stress axis : x y z
#
# Youngs Moduli (GPa) = 73.39096 31.05129 76.96273
#
# Poissons Ratio (x) = 0.06173 0.40961
# Poissons Ratio (y) = 0.14591 -0.24977
# Poissons Ratio (z) = 0.39060 -0.10077
#
# Static dielectric constant tensor:
#      x y z
#    x 1.711420 0.000000 0.042350 
#    y 0.000000 1.712330 0.000000 
#    z 0.042350 0.000000 1.687280 
# 
# From -- ./inp_files/38030.got.cif
#   From: 2010.05.17/outbox.cif.g08.bks.cpg/sg10_20_cif.got.tgz:38030.got - 2010.06.03 11:33:40.
