data_PCOD9151877
_publ_section_title
;
Structure prediction by ZEFSAII (Michael W. Deem and Ramdas Pophale) SiO2 
 PCOD9151877
Probable space group: P 2/M
;
_chemical_formula_sum "Si O2"
_cell_formula_units_Z 28
_cell_length_a 21.186777
_cell_length_b 7.581622
_cell_length_c 15.509788
_cell_angle_alpha 90.000000
_cell_angle_beta 151.843389
_cell_angle_gamma 90.000000
_cell_volume 1175.621265
_symmetry_space_group_name_H-M "P 2/M"
_symmetry_group_IT_number 10
_symmetry_cell_setting 'monoclinic'
loop_
_space_group_symop_operation_xyz
x,y,z
-x,y,-z
-x,-y,-z
x,-y,z
loop_
_atom_site_type_symbol
_atom_site_label
_atom_site_fract_x
_atom_site_fract_y
_atom_site_fract_z
Si Si1 0.894570 0.787776 0.796285
Si Si2 0.117660 0.204097 0.945688
Si Si3 0.173889 0.286735 0.637515
Si Si4 0.412741 0.707475 0.617251
Si Si5 0.399020 0.791664 0.310522
Si Si6 0.591601 0.715500 0.192208
Si Si7 0.865922 0.712055 0.228674
O O1 0.739298 0.730573 0.602204
O O2 0.883117 0.000000 0.788355
O O3 0.000000 0.735574 0.000000
O O4 0.976231 0.725295 0.808801
O O5 0.251774 0.286973 0.145590
O O6 0.110899 0.000000 0.963660
O O7 0.152125 0.210273 0.886513
O O8 0.184287 0.500000 0.653012
O O9 0.263312 0.226368 0.666816
O O10 0.213546 0.227391 0.781938
O O11 0.020290 0.247467 0.435715
O O12 0.437634 0.500000 0.651396
O O13 0.527112 0.779671 0.692046
O O14 0.427863 0.777755 0.733523
O O15 0.500000 0.711173 0.500000
O O16 0.383788 0.000000 0.310961
O O17 0.584469 0.500000 0.186882
O O18 0.500000 0.767367 0.000000
O O19 0.849738 0.500000 0.201567
#
# Coordination Sequence:
#
# PCOD9151877 Si02
#       7
#     4   4   4   4   4   4   4
#     4  10  21  40  64  85 111 155 202 237 288 366
#     4  10  21  35  56  84 109 140 191 241 281 335
#     4   8  15  29  48  72 103 143 186 220 262 333
#     4  11  23  37  60  94 124 151 192 251 305 341
#     4  10  22  42  63  81 112 159 201 235 284 358
#     4   9  18  31  49  76 114 154 191 228 278 350
#     4   9  17  30  52  77 103 138 180 229 281 332
#
# _framework density 23.817193
#
# number of rings (size 3 to 8) (size 9 to 14) (size 15 to 20)
#    0.000    2.429    0.000    3.000    2.000    5.143 
#    0.000    2.857    0.000    3.429    0.000    0.000 
#    0.000    0.000    0.000    0.000    0.000    0.000 
#
# Total GULP energy -156130.070777 kJ/mol
# GULP energy per Si atom -5576.073956 kJ/mol
# Density = 2.376298 g / cm^3
# Si number density = 23.817193 Si / 1000 Ang^3
#
#
#
# Elastic Constant Matrix: (Units=GPa)
#
#
# Indices 1 2 3 4 5 6 
#
# 1 68.0253 -15.2900 -5.6751 0.0000 -4.9070 0.0000
# 2 -15.2900 49.6040 -3.1864 0.0000 0.5365 0.0000
# 3 -5.6751 -3.1864 47.1739 0.0000 2.0278 0.0000
# 4 0.0000 0.0000 0.0000 1.6123 0.0000 -4.4843
# 5 -4.9070 0.5365 2.0278 0.0000 36.1333 0.0000
# 6 0.0000 0.0000 0.0000 -4.4843 0.0000 11.4845
#
#
#
# Elastic Compliance Matrix: (Units=1/GPa)
#
#
# Indices 1 2 3 4 5 6 
#
# 1 0.016176 0.005106 0.002205 0.000000 0.001997 0.000000
# 2 0.005106 0.021865 0.002080 0.000000 0.000252 0.000000
# 3 0.002205 0.002080 0.021645 0.000000 -0.000946 0.000000
# 4 0.000000 0.000000 0.000000 -7.213974 0.000000 -2.816785
# 5 0.001997 0.000252 -0.000946 0.000000 0.027996 0.000000
# 6 0.000000 0.000000 0.000000 -2.816785 0.000000 -1.012774
#
#
# Mechanical properties :
#
#
# Convention : Reuss Voigt Hill
#
# Bulk Modulus (GPa) = 12.74396 12.94445 12.84420
# Shear Modulus (GPa) = -0.61488 22.44301 10.91407
#
# Velocity S-wave (km/s) = -0.50865 3.07303 2.14298
# Velocity P-wave (km/s) = 2.23995 4.24712 3.39525
#
# Compressibility (1/GPa) = 0.07846857
#
# Stress axis : x y z
#
# Youngs Moduli (GPa) = 61.81931 45.73621 46.20083
#
# Poissons Ratio (x) = -0.23354 -0.10188
# Poissons Ratio (y) = -0.31566 -0.09611
# Poissons Ratio (z) = -0.13632 -0.09515
#
# Static dielectric constant tensor:
#      x y z
#    x 1.947370 0.000000 -0.038910 
#    y 0.000000 1.893230 0.000000 
#    z -0.038910 0.000000 1.918670 
# 
# From -- ./inp_files/70270.got.cif
#   From: 2010.05.17/outbox.cif.g08.bks.cpg/sg10_36_cif.got.tgz:70270.got - 2010.06.03 11:33:40.
