data_PCOD9151156
_publ_section_title
;
Structure prediction by ZEFSAII (Michael W. Deem and Ramdas Pophale) SiO2 
 PCOD9151156
Probable space group: P 2/M
;
_chemical_formula_sum "Si O2"
_cell_formula_units_Z 28
_cell_length_a 12.342771
_cell_length_b 13.940625
_cell_length_c 8.859007
_cell_angle_alpha 90.000000
_cell_angle_beta 64.885650
_cell_angle_gamma 90.000000
_cell_volume 1380.226760
_symmetry_space_group_name_H-M "P 2/M"
_symmetry_group_IT_number 10
_symmetry_cell_setting 'monoclinic'
loop_
_space_group_symop_operation_xyz
x,y,z
-x,y,-z
-x,-y,-z
x,-y,z
loop_
_atom_site_type_symbol
_atom_site_label
_atom_site_fract_x
_atom_site_fract_y
_atom_site_fract_z
Si Si1 0.779523 0.766268 0.274787
Si Si2 0.380189 0.217896 0.359356
Si Si3 0.628011 0.888300 0.159360
Si Si4 0.771311 0.889814 0.773234
Si Si5 0.835511 0.611062 0.987573
Si Si6 0.632686 0.605435 0.856178
Si Si7 0.984605 0.261396 0.683633
O O1 0.664620 0.752451 0.449766
O O2 0.741168 0.855050 0.192309
O O3 0.893562 0.778655 0.316024
O O4 0.808474 0.678078 0.146325
O O5 0.513947 0.177477 0.264506
O O6 0.292541 0.135881 0.345665
O O7 0.357097 0.308931 0.266480
O O8 0.599091 0.000000 0.202022
O O9 0.670035 0.875666 0.961839
O O10 0.881273 0.819165 0.739865
O O11 0.809975 0.000000 0.755439
O O12 0.855917 0.500000 0.015109
O O13 0.722021 0.617111 0.942880
O O14 0.940817 0.655341 0.822668
O O15 0.656101 0.500000 0.773719
O O16 0.500000 0.606765 0.000000
O O17 0.000000 0.293507 0.500000
#
# Coordination Sequence:
#
# PCOD9151156 Si02
#       7
#     4   4   4   4   4   4   4
#     4  12  25  41  65  94 137 175 216 273 336 393
#     4  12  22  41  66  96 136 174 217 277 324 395
#     4  11  25  43  67  99 133 177 226 274 336 400
#     4  11  23  42  68  97 128 174 224 274 329 394
#     4  11  24  44  69  99 136 178 224 275 337 401
#     4  10  20  37  65  96 129 172 221 270 328 390
#     4  12  24  46  67  96 131 173 225 282 329 395
#
# _framework density 20.286522000000001
#
# number of rings (size 3 to 8) (size 9 to 14) (size 15 to 20)
#    0.000    0.714    4.286    3.429    0.000    5.714 
#    0.000    1.429    0.000    4.286    0.000    0.000 
#    0.000    0.000    0.000    0.000    0.000    0.000 
#
# Total GULP energy -156517.169253 kJ/mol
# GULP energy per Si atom -5589.898902 kJ/mol
# Density = 2.024035 g / cm^3
# Si number density = 20.286522 Si / 1000 Ang^3
#
#
#
# Elastic Constant Matrix: (Units=GPa)
#
#
# Indices 1 2 3 4 5 6 
#
# 1 92.6098 27.6643 17.9743 0.0000 -1.4841 0.0000
# 2 27.6643 102.9619 55.9094 0.0000 1.3355 0.0000
# 3 17.9743 55.9094 127.0187 0.0000 5.1239 0.0000
# 4 0.0000 0.0000 0.0000 -3.8129 0.0000 -7.3589
# 5 -1.4841 1.3355 5.1239 0.0000 27.1578 0.0000
# 6 0.0000 0.0000 0.0000 -7.3589 0.0000 -17.3786
#
#
#
# Elastic Compliance Matrix: (Units=1/GPa)
#
#
# Indices 1 2 3 4 5 6 
#
# 1 0.011773 -0.002958 -0.000399 0.000000 0.000864 0.000000
# 2 -0.002958 0.013511 -0.005537 0.000000 0.000219 0.000000
# 3 -0.000399 -0.005537 0.010436 0.000000 -0.001718 0.000000
# 4 0.000000 0.000000 0.000000 -1.435103 0.000000 0.607692
# 5 0.000864 0.000219 -0.001718 0.000000 0.037183 0.000000
# 6 0.000000 0.000000 0.000000 0.607692 0.000000 -0.314869
#
#
# Mechanical properties :
#
#
# Convention : Reuss Voigt Hill
#
# Bulk Modulus (GPa) = 55.76704 58.40959 57.08831
# Shear Modulus (GPa) = -3.02425 15.92942 6.45259
#
# Velocity S-wave (km/s) = -1.22229 2.80522 1.78539
# Velocity P-wave (km/s) = 5.05543 6.27273 5.69669
#
# Compressibility (1/GPa) = 0.01793174
#
# Stress axis : x y z
#
# Youngs Moduli (GPa) = 84.94152 74.01344 95.82215
#
# Poissons Ratio (x) = 0.21891 0.03822
# Poissons Ratio (y) = 0.25124 0.53060
# Poissons Ratio (z) = 0.03388 0.40984
#
# Static dielectric constant tensor:
#      x y z
#    x 1.752410 0.000000 0.004820 
#    y 0.000000 1.722870 0.000000 
#    z 0.004820 0.000000 1.728670 
# 
# From -- ./inp_files/25160.got.cif
#   From: 2010.05.17/outbox.cif.g08.bks.cpg/sg10_13_cif.got.tgz:25160.got - 2010.06.03 11:33:40.
