data_PCOD9151009
_publ_section_title
;
Structure prediction by ZEFSAII (Michael W. Deem and Ramdas Pophale) SiO2 
 PCOD9151009
Probable space group: P 2/M
;
_chemical_formula_sum "Si O2"
_cell_formula_units_Z 30
_cell_length_a 11.033961
_cell_length_b 13.494189
_cell_length_c 18.756158
_cell_angle_alpha 90.000000
_cell_angle_beta 30.564633
_cell_angle_gamma 90.000000
_cell_volume 1420.108806
_symmetry_space_group_name_H-M "P 2/M"
_symmetry_group_IT_number 10
_symmetry_cell_setting 'monoclinic'
loop_
_space_group_symop_operation_xyz
x,y,z
-x,y,-z
-x,-y,-z
x,-y,z
loop_
_atom_site_type_symbol
_atom_site_label
_atom_site_fract_x
_atom_site_fract_y
_atom_site_fract_z
Si Si1 0.405622 0.752503 0.389894
Si Si2 0.430136 0.613285 0.118778
Si Si3 0.205183 0.614026 0.834985
Si Si4 0.128818 0.206234 0.324384
Si Si5 0.153399 0.255528 0.047087
Si Si6 0.500000 0.807622 0.500000
Si Si7 0.980068 0.889416 0.767184
Si Si8 0.567541 0.117123 0.192928
O O1 0.534015 0.660525 0.285015
O O2 0.434252 0.748032 0.461002
O O3 0.535034 0.848878 0.290931
O O4 0.127379 0.766301 0.513764
O O5 0.374539 0.500000 0.165985
O O6 0.228574 0.692252 0.239700
O O7 0.500000 0.615810 0.000000
O O8 0.657806 0.655606 0.045375
O O9 0.222643 0.500000 0.804550
O O10 0.097274 0.690031 0.832306
O O11 0.000000 0.619222 0.000000
O O12 0.330803 0.157070 0.271560
O O13 0.079020 0.130465 0.285076
O O14 0.160419 0.190101 0.114387
O O15 0.219111 0.180013 0.950694
O O16 0.261942 0.871113 0.634934
O O17 0.913688 0.000000 0.822189
O O18 0.595128 0.000000 0.171415
#
# Coordination Sequence:
#
# PCOD9151009 Si02
#       8
#     4   4   4   4   4   2   4   4
#     4  11  23  43  63  93 127 160 206 262 305 370
#     4  10  20  37  61  88 120 161 203 251 307 361
#     4  11  23  43  68  91 122 165 207 256 319 376
#     4  10  23  40  62  91 131 164 207 259 304 368
#     4  11  21  40  61  93 124 158 205 264 308 364
#     4  10  23  40  61  84 126 164 203 248 313 366
#     4  11  21  36  60  90 127 166 206 250 307 369
#     4  11  24  41  65  91 124 169 212 253 308 368
#
# _framework density 21.125142
#
# number of rings (size 3 to 8) (size 9 to 14) (size 15 to 20)
#    0.000    1.333    4.000    1.800    0.000    4.267 
#    0.000    3.000    0.000    2.400    0.000    0.000 
#    0.000    0.000    0.000    0.000    0.000    0.000 
#
# Total GULP energy -167495.748018 kJ/mol
# GULP energy per Si atom -5583.191601 kJ/mol
# Density = 2.107706 g / cm^3
# Si number density = 21.125142 Si / 1000 Ang^3
#
#
#
# Elastic Constant Matrix: (Units=GPa)
#
#
# Indices 1 2 3 4 5 6 
#
# 1 59.8654 14.1507 -0.2649 0.0000 4.6103 0.0000
# 2 14.1507 152.7492 20.9558 0.0000 1.0527 0.0000
# 3 -0.2649 20.9558 37.4563 0.0000 8.2018 0.0000
# 4 0.0000 0.0000 0.0000 18.1237 0.0000 2.1033
# 5 4.6103 1.0527 8.2018 0.0000 24.7096 0.0000
# 6 0.0000 0.0000 0.0000 2.1033 0.0000 18.5963
#
#
#
# Elastic Compliance Matrix: (Units=1/GPa)
#
#
# Indices 1 2 3 4 5 6 
#
# 1 0.017450 -0.001866 0.002009 0.000000 -0.003843 0.000000
# 2 -0.001866 0.007318 -0.004438 0.000000 0.001509 0.000000
# 3 0.002009 -0.004438 0.031527 0.000000 -0.010650 0.000000
# 4 0.000000 0.000000 0.000000 0.055910 0.000000 -0.006323
# 5 -0.003843 0.001509 -0.010650 0.000000 0.044658 0.000000
# 6 0.000000 0.000000 0.000000 -0.006323 0.000000 0.054489
#
#
# Mechanical properties :
#
#
# Convention : Reuss Voigt Hill
#
# Bulk Modulus (GPa) = 20.96202 35.52821 28.24511
# Shear Modulus (GPa) = 21.20046 26.63454 23.91750
#
# Velocity S-wave (km/s) = 3.17135 3.55462 3.36844
# Velocity P-wave (km/s) = 4.83262 5.80531 5.34115
#
# Compressibility (1/GPa) = 0.04770532
#
# Stress axis : x y z
#
# Youngs Moduli (GPa) = 57.30659 136.65021 31.71880
#
# Poissons Ratio (x) = 0.25494 -0.06371
# Poissons Ratio (y) = 0.10691 0.14077
# Poissons Ratio (z) = -0.11511 0.60644
#
# Static dielectric constant tensor:
#      x y z
#    x 1.819700 0.000000 -0.006350 
#    y 0.000000 1.701670 0.000000 
#    z -0.006350 0.000000 1.792690 
# 
# From -- ./inp_files/84024.got.cif
#   From: 2010.05.17/outbox.cif.g08.bks.cpg/sg10_43_cif.got.tgz:84024.got - 2010.06.03 11:33:40.
