data_PCOD9151441
_publ_section_title
;
Structure prediction by ZEFSAII (Michael W. Deem and Ramdas Pophale) SiO2 
 PCOD9151441
Probable space group: P 2/M
;
_chemical_formula_sum "Si O2"
_cell_formula_units_Z 32
_cell_length_a 33.534231
_cell_length_b 7.675535
_cell_length_c 12.786526
_cell_angle_alpha 90.000000
_cell_angle_beta 25.627460
_cell_angle_gamma 90.000000
_cell_volume 1423.487566
_symmetry_space_group_name_H-M "P 2/M"
_symmetry_group_IT_number 10
_symmetry_cell_setting 'monoclinic'
loop_
_space_group_symop_operation_xyz
x,y,z
-x,y,-z
-x,-y,-z
x,-y,z
loop_
_atom_site_type_symbol
_atom_site_label
_atom_site_fract_x
_atom_site_fract_y
_atom_site_fract_z
Si Si1 0.587782 0.799709 0.537742
Si Si2 0.405564 0.801457 0.070738
Si Si3 0.905192 0.285538 0.487061
Si Si4 0.609140 0.791863 0.260190
Si Si5 0.111679 0.697971 0.244180
Si Si6 0.732483 0.299794 0.774339
Si Si7 0.113848 0.712742 0.009635
Si Si8 0.692495 0.701924 0.490729
O O1 0.628207 0.728978 0.333728
O O2 0.654247 0.796317 0.479276
O O3 0.564296 0.000000 0.565065
O O4 0.492504 0.718086 0.805156
O O5 0.321414 0.797647 0.188897
O O6 0.374092 0.719462 0.253405
O O7 0.431102 0.000000 0.036224
O O8 0.903872 0.500000 0.493973
O O9 0.870942 0.223547 0.682990
O O10 0.832679 0.231958 0.571104
O O11 0.011237 0.229714 0.221445
O O12 0.500000 0.761816 0.500000
O O13 0.626016 0.000000 0.210106
O O14 0.670306 0.706256 0.026068
O O15 0.107177 0.500000 0.029931
O O16 0.137446 0.776668 0.071762
O O17 0.000000 0.688252 0.500000
O O18 0.741674 0.500000 0.717808
O O19 0.147875 0.500000 0.160189
O O20 0.202810 0.758917 0.731071
O O21 0.696712 0.500000 0.450691
#
# Coordination Sequence:
#
# PCOD9151441 Si02
#       8
#     4   4   4   4   4   4   4   4
#     4  10  22  40  61  81 108 153 196 224 270 350
#     4  11  23  43  62  75 106 157 200 227 276 352
#     4   8  15  28  48  77 114 151 182 216 272 343
#     4  10  20  39  60  81 114 157 195 221 269 349
#     4   7  10  20  40  65  98 140 175 202 246 317
#     4  11  22  34  57  91 119 143 186 243 290 321
#     4   8  15  29  48  75 114 151 179 218 277 340
#     4  11  23  36  58  90 116 139 184 247 296 323
#
# _framework density 22.480001000000001
#
# number of rings (size 3 to 8) (size 9 to 14) (size 15 to 20)
#    0.000    2.500    1.250    3.000    1.750    3.250 
#    0.000    0.625    0.000    6.750    0.000    1.750 
#    0.000    0.000    0.000    0.000    0.000    0.000 
#
# Total GULP energy -178578.306817 kJ/mol
# GULP energy per Si atom -5580.572088 kJ/mol
# Density = 2.242884 g / cm^3
# Si number density = 22.480001 Si / 1000 Ang^3
#
#
#
# Elastic Constant Matrix: (Units=GPa)
#
#
# Indices 1 2 3 4 5 6 
#
# 1 78.0579 -5.8093 14.5172 0.0000 -7.2124 0.0000
# 2 -5.8093 41.8932 2.0520 0.0000 -0.5701 0.0000
# 3 14.5172 2.0520 50.6124 0.0000 -4.9107 0.0000
# 4 0.0000 0.0000 0.0000 27.8608 0.0000 2.7310
# 5 -7.2124 -0.5701 -4.9107 0.0000 34.7555 0.0000
# 6 0.0000 0.0000 0.0000 2.7310 0.0000 22.4071
#
#
#
# Elastic Compliance Matrix: (Units=1/GPa)
#
#
# Indices 1 2 3 4 5 6 
#
# 1 0.013906 0.002149 -0.003845 0.000000 0.002378 0.000000
# 2 0.002149 0.024252 -0.001539 0.000000 0.000626 0.000000
# 3 -0.003845 -0.001539 0.021133 0.000000 0.002163 0.000000
# 4 0.000000 0.000000 0.000000 0.036327 0.000000 -0.004427
# 5 0.002378 0.000626 0.002163 0.000000 0.029582 0.000000
# 6 0.000000 0.000000 0.000000 -0.004427 0.000000 0.045168
#
#
# Mechanical properties :
#
#
# Convention : Reuss Voigt Hill
#
# Bulk Modulus (GPa) = 18.93183 21.34260 20.13721
# Shear Modulus (GPa) = 25.71425 27.65823 26.68624
#
# Velocity S-wave (km/s) = 3.38579 3.51144 3.44918
# Velocity P-wave (km/s) = 4.87080 5.09460 4.98395
#
# Compressibility (1/GPa) = 0.05282110
#
# Stress axis : x y z
#
# Youngs Moduli (GPa) = 71.91280 41.23348 47.31912
#
# Poissons Ratio (x) = -0.08861 0.18194
# Poissons Ratio (y) = -0.15454 0.07282
# Poissons Ratio (z) = 0.27651 0.06345
#
# Static dielectric constant tensor:
#      x y z
#    x 1.814150 0.000000 -0.011650 
#    y 0.000000 1.848510 0.000000 
#    z -0.011650 0.000000 1.855000 
# 
# From -- ./inp_files/58076.got.cif
#   From: 2010.05.17/outbox.cif.g08.bks.cpg/sg10_30_cif.got.tgz:58076.got - 2010.06.03 11:33:40.
