data_PCOD9151083
_publ_section_title
;
Structure prediction by ZEFSAII (Michael W. Deem and Ramdas Pophale) SiO2 
 PCOD9151083
Probable space group: P 2/M
;
_chemical_formula_sum "Si O2"
_cell_formula_units_Z 26
_cell_length_a 8.061337
_cell_length_b 13.367899
_cell_length_c 15.728773
_cell_angle_alpha 90.000000
_cell_angle_beta 40.799741
_cell_angle_gamma 90.000000
_cell_volume 1107.530328
_symmetry_space_group_name_H-M "P 2/M"
_symmetry_group_IT_number 10
_symmetry_cell_setting 'monoclinic'
loop_
_space_group_symop_operation_xyz
x,y,z
-x,y,-z
-x,-y,-z
x,-y,z
loop_
_atom_site_type_symbol
_atom_site_label
_atom_site_fract_x
_atom_site_fract_y
_atom_site_fract_z
Si Si1 0.738421 0.887968 0.655995
Si Si2 0.084504 0.772897 0.056794
Si Si3 0.130666 0.389619 0.370242
Si Si4 0.009598 0.881762 0.259936
Si Si5 0.500000 0.243055 0.500000
Si Si6 0.445076 0.303657 0.701801
Si Si7 0.480887 0.618334 0.107618
O O1 0.809812 0.871156 0.727192
O O2 0.552079 0.803908 0.692523
O O3 0.000000 0.886216 0.500000
O O4 0.631060 0.000000 0.688234
O O5 0.854593 0.699422 0.173348
O O6 0.117113 0.841487 0.127867
O O7 0.000000 0.823697 0.000000
O O8 0.321317 0.703160 0.941789
O O9 0.018424 0.500000 0.407835
O O10 0.418203 0.386646 0.295006
O O11 0.194621 0.354262 0.251496
O O12 0.000000 0.334440 0.500000
O O13 0.746328 0.824940 0.384997
O O14 0.957763 0.000000 0.271668
O O15 0.534593 0.310343 0.569783
O O16 0.524385 0.500000 0.109551
O O17 0.500000 0.624731 0.000000
#
# Coordination Sequence:
#
# PCOD9151083 Si02
#       7
#     4   4   4   4   2   4   4
#     4  10  20  37  62  92 123 168 221 268 322 383
#     4  11  24  40  61  93 128 172 214 255 318 383
#     4  10  22  39  65  96 125 161 207 261 320 372
#     4  10  22  38  60  89 128 170 216 269 318 379
#     4  10  21  34  57  92 126 168 215 258 331 382
#     4  11  22  37  61  93 130 168 204 266 315 379
#     4  10  23  44  70  95 126 170 216 262 316 386
#
# _framework density 23.475653999999999
#
# number of rings (size 3 to 8) (size 9 to 14) (size 15 to 20)
#    0.000    1.692    3.077    0.692    2.154    4.923 
#    0.000    0.385    0.000    2.308    0.000    0.000 
#    0.000    0.000    0.000    0.000    0.000    0.000 
#
# Total GULP energy -145073.047114 kJ/mol
# GULP energy per Si atom -5579.732581 kJ/mol
# Density = 2.342222 g / cm^3
# Si number density = 23.475654 Si / 1000 Ang^3
#
#
#
# Elastic Constant Matrix: (Units=GPa)
#
#
# Indices 1 2 3 4 5 6 
#
# 1 48.7519 -2.5042 8.1651 0.0000 28.5935 0.0000
# 2 -2.5042 78.8287 4.1820 0.0000 3.1852 0.0000
# 3 8.1651 4.1820 162.6552 0.0000 27.8484 0.0000
# 4 0.0000 0.0000 0.0000 18.5632 0.0000 14.8630
# 5 28.5935 3.1852 27.8484 0.0000 51.6448 0.0000
# 6 0.0000 0.0000 0.0000 14.8630 0.0000 13.7371
#
#
#
# Elastic Compliance Matrix: (Units=1/GPa)
#
#
# Indices 1 2 3 4 5 6 
#
# 1 0.030916 0.001631 0.001492 0.000000 -0.018022 0.000000
# 2 0.001631 0.012810 -0.000134 0.000000 -0.001621 0.000000
# 3 0.001492 -0.000134 0.006849 0.000000 -0.004511 0.000000
# 4 0.000000 0.000000 0.000000 0.402900 0.000000 -0.435921
# 5 -0.018022 -0.001621 -0.004511 0.000000 0.031873 0.000000
# 6 0.000000 0.000000 0.000000 -0.435921 0.000000 0.544445
#
#
# Mechanical properties :
#
#
# Convention : Reuss Voigt Hill
#
# Bulk Modulus (GPa) = 17.68243 34.43572 26.05908
# Shear Modulus (GPa) = 4.79540 35.48188 20.13864
#
# Velocity S-wave (km/s) = 1.43079 3.89193 2.93209
# Velocity P-wave (km/s) = 3.20595 5.90735 4.75262
#
# Compressibility (1/GPa) = 0.05655330
#
# Stress axis : x y z
#
# Youngs Moduli (GPa) = 32.34571 78.06307 146.01069
#
# Poissons Ratio (x) = -0.12734 -0.21780
# Poissons Ratio (y) = -0.05276 0.01952
# Poissons Ratio (z) = -0.04825 0.01044
#
# Static dielectric constant tensor:
#      x y z
#    x 1.990240 0.000000 0.099520 
#    y 0.000000 1.869170 0.000000 
#    z 0.099520 0.000000 2.171080 
# 
# From -- ./inp_files/62032.got.cif
#   From: 2010.05.17/outbox.cif.g08.bks.cpg/sg10_32_cif.got.tgz:62032.got - 2010.06.03 11:33:40.
