data_PCOD9151548
_publ_section_title
;
Structure prediction by ZEFSAII (Michael W. Deem and Ramdas Pophale) SiO2 
 PCOD9151548
Probable space group: P 2/M
;
_chemical_formula_sum "Si O2"
_cell_formula_units_Z 24
_cell_length_a 15.264448
_cell_length_b 8.473781
_cell_length_c 9.607778
_cell_angle_alpha 90.000000
_cell_angle_beta 81.219248
_cell_angle_gamma 90.000000
_cell_volume 1228.177629
_symmetry_space_group_name_H-M "P 2/M"
_symmetry_group_IT_number 10
_symmetry_cell_setting 'monoclinic'
loop_
_space_group_symop_operation_xyz
x,y,z
-x,y,-z
-x,-y,-z
x,-y,z
loop_
_atom_site_type_symbol
_atom_site_label
_atom_site_fract_x
_atom_site_fract_y
_atom_site_fract_z
Si Si1 0.557505 0.815504 0.614221
Si Si2 0.915119 0.809237 0.110232
Si Si3 0.248494 0.309222 0.030450
Si Si4 0.749059 0.688444 0.648991
Si Si5 0.914401 0.190617 0.432193
Si Si6 0.559344 0.319505 0.122875
O O1 0.500000 0.751222 0.500000
O O2 0.651093 0.733052 0.619888
O O3 0.492895 0.790617 0.759770
O O4 0.575781 0.000000 0.585353
O O5 0.917730 0.754916 0.270452
O O6 0.915556 0.000000 0.112329
O O7 0.828827 0.752707 0.049001
O O8 0.000000 0.756178 0.000000
O O9 0.246805 0.500000 0.033277
O O10 0.240327 0.254981 0.193089
O O11 0.343445 0.263148 0.943881
O O12 0.757011 0.500000 0.647506
O O13 0.825287 0.757177 0.531959
O O14 0.000000 0.245062 0.500000
O O15 0.916403 0.000000 0.429698
O O16 0.565575 0.500000 0.177551
O O17 0.500000 0.328156 0.000000
#
# Coordination Sequence:
#
# PCOD9151548 Si02
#       6
#     4   4   4   4   4   4
#     4  11  25  41  59  88 124 159 202 250 298 354
#     4  10  22  40  63  90 119 155 197 242 297 356
#     4  10  22  39  61  89 120 156 198 247 295 349
#     4  11  23  41  63  88 120 160 203 245 299 358
#     4  10  22  41  64  90 123 158 197 246 298 354
#     4  10  20  40  63  86 120 159 202 245 293 350
#
# _framework density 19.541148
#
# number of rings (size 3 to 8) (size 9 to 14) (size 15 to 20)
#    0.000    1.667    1.667    2.000    2.333    6.333 
#    0.000    0.000    0.000    0.000    0.000    0.000 
#    0.000    0.000    0.000    0.000    0.000    0.000 
#
# Total GULP energy -134059.781901 kJ/mol
# GULP energy per Si atom -5585.824246 kJ/mol
# Density = 1.949667 g / cm^3
# Si number density = 19.541148 Si / 1000 Ang^3
#
#
#
# Elastic Constant Matrix: (Units=GPa)
#
#
# Indices 1 2 3 4 5 6 
#
# 1 193.0445 13.3327 108.1460 0.0000 -3.0761 0.0000
# 2 13.3327 3.2190 15.9173 0.0000 0.8359 0.0000
# 3 108.1460 15.9173 154.4949 0.0000 3.8606 0.0000
# 4 0.0000 0.0000 0.0000 28.5032 0.0000 -1.6326
# 5 -3.0761 0.8359 3.8606 0.0000 40.0332 0.0000
# 6 0.0000 0.0000 0.0000 -1.6326 0.0000 23.4636
#
#
#
# Elastic Compliance Matrix: (Units=1/GPa)
#
#
# Indices 1 2 3 4 5 6 
#
# 1 0.008828 -0.012640 -0.004913 0.000000 0.001416 0.000000
# 2 -0.012640 0.653299 -0.058236 0.000000 -0.008997 0.000000
# 3 -0.004913 -0.058236 0.015929 0.000000 -0.000698 0.000000
# 4 0.000000 0.000000 0.000000 0.035224 0.000000 0.002451
# 5 0.001416 -0.008997 -0.000698 0.000000 0.025343 0.000000
# 6 0.000000 0.000000 0.000000 0.002451 0.000000 0.042790
#
#
# Mechanical properties :
#
#
# Convention : Reuss Voigt Hill
#
# Bulk Modulus (GPa) = 1.89941 69.50560 35.70251
# Shear Modulus (GPa) = 4.51068 32.62417 18.56742
#
# Velocity S-wave (km/s) = 1.52096 4.09040 3.08583
# Velocity P-wave (km/s) = 2.01458 7.61279 5.56835
#
# Compressibility (1/GPa) = 0.52648022
#
# Stress axis : x y z
#
# Youngs Moduli (GPa) = 113.27916 1.53069 62.77940
#
# Poissons Ratio (x) = 0.01935 0.30841
# Poissons Ratio (y) = 1.43180 3.65599
# Poissons Ratio (z) = 0.55649 0.08914
#
# Static dielectric constant tensor:
#      x y z
#    x 1.657730 0.000000 0.016760 
#    y 0.000000 1.687680 0.000000 
#    z 0.016760 0.000000 1.665870 
# 
# From -- ./inp_files/27078.got.cif
#   From: 2010.05.17/outbox.cif.g08.bks.cpg/sg10_14_cif.got.tgz:27078.got - 2010.06.03 11:33:40.
