data_PCOD9151868
_publ_section_title
;
Structure prediction by ZEFSAII (Michael W. Deem and Ramdas Pophale) SiO2 
 PCOD9151868
Probable space group: P 2/M
;
_chemical_formula_sum "Si O2"
_cell_formula_units_Z 28
_cell_length_a 5.992407
_cell_length_b 10.222536
_cell_length_c 26.106858
_cell_angle_alpha 90.000000
_cell_angle_beta 125.528917
_cell_angle_gamma 90.000000
_cell_volume 1301.499973
_symmetry_space_group_name_H-M "P 2/M"
_symmetry_group_IT_number 10
_symmetry_cell_setting 'monoclinic'
loop_
_space_group_symop_operation_xyz
x,y,z
-x,y,-z
-x,-y,-z
x,-y,z
loop_
_atom_site_type_symbol
_atom_site_label
_atom_site_fract_x
_atom_site_fract_y
_atom_site_fract_z
Si Si1 0.691671 0.345330 0.977943
Si Si2 0.731416 0.150484 0.792487
Si Si3 0.676723 0.144454 0.448286
Si Si4 0.784129 0.858765 0.347793
Si Si5 0.239766 0.351012 0.395118
Si Si6 0.955969 0.640930 0.746360
Si Si7 0.574411 0.355071 0.848900
O O1 0.732053 0.500000 0.994667
O O2 0.525036 0.333269 0.902572
O O3 0.500000 0.294527 0.000000
O O4 0.000000 0.297737 0.000000
O O5 0.894971 0.234574 0.772689
O O6 0.735692 0.236721 0.844440
O O7 0.425755 0.148262 0.727095
O O8 0.819032 0.000000 0.810270
O O9 0.505668 0.267041 0.444367
O O10 0.000000 0.161836 0.500000
O O11 0.627016 0.138260 0.380598
O O12 0.606028 0.000000 0.459485
O O13 0.983539 0.736574 0.377788
O O14 0.933194 0.000000 0.363449
O O15 0.239460 0.500000 0.413679
O O16 0.200835 0.354802 0.328221
O O17 0.880550 0.500000 0.761299
O O18 0.281571 0.638343 0.782058
O O19 0.705748 0.500000 0.861661
#
# Coordination Sequence:
#
# PCOD9151868 Si02
#       7
#     4   4   4   4   4   4   4
#     4   9  19  35  58  90 125 164 211 261 310 362
#     4  11  22  35  57  87 118 151 191 240 295 354
#     4  10  22  41  61  79 105 148 198 238 280 344
#     4  10  21  37  57  81 110 146 187 234 287 345
#     4  11  22  36  57  84 115 147 182 234 297 356
#     4  10  21  35  55  85 116 150 189 234 297 356
#     4  10  21  37  60  88 121 155 196 247 298 357
#
# _framework density 21.513636999999999
#
# number of rings (size 3 to 8) (size 9 to 14) (size 15 to 20)
#    0.000    1.857    2.857    0.857    2.000    3.143 
#    0.000    2.857    0.000    0.857    0.000    0.000 
#    0.000    0.000    0.000    0.000    0.000    0.000 
#
# Total GULP energy -156088.801079 kJ/mol
# GULP energy per Si atom -5574.600039 kJ/mol
# Density = 2.146467 g / cm^3
# Si number density = 21.513637 Si / 1000 Ang^3
#
#
#
# Elastic Constant Matrix: (Units=GPa)
#
#
# Indices 1 2 3 4 5 6 
#
# 1 64.7862 50.9075 9.7366 0.0000 -15.5666 0.0000
# 2 50.9075 192.6963 10.4583 0.0000 -9.3907 0.0000
# 3 9.7366 10.4583 60.2113 0.0000 -14.0233 0.0000
# 4 0.0000 0.0000 0.0000 -86.0106 0.0000 -43.5405
# 5 -15.5666 -9.3907 -14.0233 0.0000 42.7371 0.0000
# 6 0.0000 0.0000 0.0000 -43.5405 0.0000 19.7632
#
#
#
# Elastic Compliance Matrix: (Units=1/GPa)
#
#
# Indices 1 2 3 4 5 6 
#
# 1 0.021211 -0.005242 -0.001070 0.000000 0.006223 0.000000
# 2 -0.005242 0.006568 -0.000435 0.000000 -0.000609 0.000000
# 3 -0.001070 -0.000435 0.018129 0.000000 0.005463 0.000000
# 4 0.000000 0.000000 0.000000 -0.005496 0.000000 -0.012109
# 5 0.006223 -0.000609 0.005463 0.000000 0.027324 0.000000
# 6 0.000000 0.000000 0.000000 -0.012109 0.000000 0.023921
#
#
# Mechanical properties :
#
#
# Convention : Reuss Voigt Hill
#
# Bulk Modulus (GPa) = 30.85121 51.09984 40.97553
# Shear Modulus (GPa) = 43.11978 11.73737 27.42858
#
# Velocity S-wave (km/s) = 4.48180 2.33830 3.57450
# Velocity P-wave (km/s) = 6.41510 5.57620 6.01030
#
# Compressibility (1/GPa) = 0.03241364
#
# Stress axis : x y z
#
# Youngs Moduli (GPa) = 47.14626 152.24505 55.15957
#
# Poissons Ratio (x) = 0.79810 0.05903
# Poissons Ratio (y) = 0.24715 0.02399
# Poissons Ratio (z) = 0.05045 0.06622
#
# Static dielectric constant tensor:
#      x y z
#    x 1.818320 0.000000 0.000550 
#    y 0.000000 1.795410 0.000000 
#    z 0.000550 0.000000 1.812950 
# 
# From -- ./inp_files/94360.got.cif
#   From: 2010.05.17/outbox.cif.g08.bks.cpg/sg10_48_cif.got.tgz:94360.got - 2010.06.03 11:33:40.
