data_PCOD9151716
_publ_section_title
;
Structure prediction by ZEFSAII (Michael W. Deem and Ramdas Pophale) SiO2 
 PCOD9151716
Probable space group: P 2/M
;
_chemical_formula_sum "Si O2"
_cell_formula_units_Z 24
_cell_length_a 22.443639
_cell_length_b 7.566553
_cell_length_c 11.505315
_cell_angle_alpha 90.000000
_cell_angle_beta 32.269304
_cell_angle_gamma 90.000000
_cell_volume 1043.156146
_symmetry_space_group_name_H-M "P 2/M"
_symmetry_group_IT_number 10
_symmetry_cell_setting 'monoclinic'
loop_
_space_group_symop_operation_xyz
x,y,z
-x,y,-z
-x,-y,-z
x,-y,z
loop_
_atom_site_type_symbol
_atom_site_label
_atom_site_fract_x
_atom_site_fract_y
_atom_site_fract_z
Si Si1 0.849906 0.216987 0.990485
Si Si2 0.461933 0.712587 0.879421
Si Si3 0.728152 0.789853 0.962534
Si Si4 0.931946 0.201552 0.489704
Si Si5 0.874316 0.211532 0.202584
Si Si6 0.332729 0.289224 0.319833
O O1 0.821949 0.273590 0.166658
O O2 0.851924 0.000000 0.984609
O O3 0.766909 0.275453 0.024932
O O4 0.975983 0.277203 0.749581
O O5 0.463576 0.500000 0.877629
O O6 0.398468 0.763156 0.867090
O O7 0.383868 0.778044 0.115012
O O8 0.585607 0.774425 0.710548
O O9 0.814354 0.715487 0.722365
O O10 0.748849 0.000000 0.929004
O O11 0.000000 0.193881 0.500000
O O12 0.910840 0.000000 0.484522
O O13 0.794353 0.251306 0.441612
O O14 0.881292 0.000000 0.185517
O O15 0.000000 0.280461 0.000000
O O16 0.344084 0.500000 0.295912
#
# Coordination Sequence:
#
# PCOD9151716 Si02
#       6
#     4   4   4   4   4   4
#     4   8  15  29  45  71 110 139 161 200 256 307
#     4   9  19  36  56  75  99 132 171 219 264 298
#     4   9  16  27  51  79 100 131 171 208 253 306
#     4   7  11  21  40  66  96 129 160 191 234 292
#     4  10  21  34  53  80 108 136 169 211 253 298
#     4   9  20  39  56  71  99 139 175 209 258 311
#
# _framework density 23.007102
#
# number of rings (size 3 to 8) (size 9 to 14) (size 15 to 20)
#    0.000    3.333    0.000    3.000    2.333    1.667 
#    0.000    3.333    0.000    9.500    0.000    0.000 
#    0.000    0.000    0.000    0.000    0.000    0.000 
#
# Total GULP energy -133812.040210 kJ/mol
# GULP energy per Si atom -5575.501675 kJ/mol
# Density = 2.295474 g / cm^3
# Si number density = 23.007102 Si / 1000 Ang^3
#
#
#
# Elastic Constant Matrix: (Units=GPa)
#
#
# Indices 1 2 3 4 5 6 
#
# 1 79.2319 2.1304 12.1884 0.0000 -19.7452 0.0000
# 2 2.1304 49.4042 -4.1391 0.0000 0.7138 0.0000
# 3 12.1884 -4.1391 67.8526 0.0000 -7.7396 0.0000
# 4 0.0000 0.0000 0.0000 24.2323 0.0000 -12.9751
# 5 -19.7452 0.7138 -7.7396 0.0000 35.4164 0.0000
# 6 0.0000 0.0000 0.0000 -12.9751 0.0000 25.7504
#
#
#
# Elastic Compliance Matrix: (Units=1/GPa)
#
#
# Indices 1 2 3 4 5 6 
#
# 1 0.014902 -0.000910 -0.001828 0.000000 0.007927 0.000000
# 2 -0.000910 0.020401 0.001337 0.000000 -0.000627 0.000000
# 3 -0.001828 0.001337 0.015413 0.000000 0.002322 0.000000
# 4 0.000000 0.000000 0.000000 0.056515 0.000000 0.028477
# 5 0.007927 -0.000627 0.002322 0.000000 0.033175 0.000000
# 6 0.000000 0.000000 0.000000 0.028477 0.000000 0.053183
#
#
# Mechanical properties :
#
#
# Convention : Reuss Voigt Hill
#
# Bulk Modulus (GPa) = 20.87140 24.09426 22.48283
# Shear Modulus (GPa) = 23.54438 29.50041 26.52239
#
# Velocity S-wave (km/s) = 3.20246 3.58471 3.39896
# Velocity P-wave (km/s) = 4.77135 5.25631 5.01969
#
# Compressibility (1/GPa) = 0.04791246
#
# Stress axis : x y z
#
# Youngs Moduli (GPa) = 67.10324 49.01609 64.88187
#
# Poissons Ratio (x) = 0.04462 0.11862
# Poissons Ratio (y) = 0.06109 -0.08672
# Poissons Ratio (z) = 0.12268 -0.06551
#
# Static dielectric constant tensor:
#      x y z
#    x 1.888760 0.000000 -0.012070 
#    y 0.000000 1.885340 0.000000 
#    z -0.012070 0.000000 1.878020 
# 
# From -- ./inp_files/55628.got.cif
#   From: 2010.05.17/outbox.cif.g08.bks.cpg/sg10_28_cif.got.tgz:55628.got - 2010.06.03 11:33:40.
