data_PCOD9151885
_publ_section_title
;
Structure prediction by ZEFSAII (Michael W. Deem and Ramdas Pophale) SiO2 
 PCOD9151885
Probable space group: P 2/M
;
_chemical_formula_sum "Si O2"
_cell_formula_units_Z 29
_cell_length_a 21.663520
_cell_length_b 7.479114
_cell_length_c 19.537363
_cell_angle_alpha 90.000000
_cell_angle_beta 22.642481
_cell_angle_gamma 90.000000
_cell_volume 1218.661162
_symmetry_space_group_name_H-M "P 2/M"
_symmetry_group_IT_number 10
_symmetry_cell_setting 'monoclinic'
loop_
_space_group_symop_operation_xyz
x,y,z
-x,y,-z
-x,-y,-z
x,-y,z
loop_
_atom_site_type_symbol
_atom_site_label
_atom_site_fract_x
_atom_site_fract_y
_atom_site_fract_z
Si Si1 0.568085 0.717267 0.503714
Si Si2 0.123523 0.203232 0.520640
Si Si3 0.526983 0.212844 0.827544
Si Si4 0.034070 0.705863 0.187673
Si Si5 0.609971 0.714748 0.178113
Si Si6 0.000000 0.500000 0.500000
Si Si7 0.191349 0.783038 0.239197
Si Si8 0.061292 0.794395 0.865553
O O1 0.500000 0.773443 0.500000
O O2 0.571929 0.500000 0.500557
O O3 0.461950 0.777904 0.676534
O O4 0.747809 0.783453 0.328860
O O5 0.298716 0.286566 0.330555
O O6 0.094458 0.201182 0.632345
O O7 0.954085 0.273791 0.664140
O O8 0.130169 0.000000 0.487974
O O9 0.497475 0.244412 0.777338
O O10 0.534357 0.000000 0.830827
O O11 0.365071 0.270340 0.032204
O O12 0.031008 0.500000 0.212838
O O13 0.999093 0.710828 0.142963
O O14 0.210967 0.784343 0.017760
O O15 0.623694 0.500000 0.169511
O O16 0.860648 0.660080 0.644771
O O17 0.189500 0.000000 0.251226
O O18 0.006480 0.000000 0.919728
O O19 0.000000 0.714531 0.000000
#
# Coordination Sequence:
#
# PCOD9151885 Si02
#       8
#     4   4   4   4   4   1   4   4
#     4  10  21  38  57  79 111 154 204 260 323 385
#     4  10  21  39  64  94 130 170 213 264 321 379
#     4  10  21  38  63  92 126 170 211 261 323 377
#     4  11  22  36  59  88 120 158 206 262 324 384
#     4  10  21  35  56  87 120 155 204 262 320 383
#     4  12  26  44  78 102 136 182 222 260 314 402
#     4  10  23  45  68  99 139 176 217 270 323 380
#     4  11  24  39  54  77 112 156 207 260 320 390
#
# _framework density 23.796606000000001
#
# number of rings (size 3 to 8) (size 9 to 14) (size 15 to 20)
#    0.000    1.655    1.379    2.690    1.931    6.345 
#    0.000    1.379    0.000    3.310    0.000    0.000 
#    0.000    0.000    0.000    0.000    0.000    0.000 
#
# Total GULP energy -161817.389645 kJ/mol
# GULP energy per Si atom -5579.909988 kJ/mol
# Density = 2.374244 g / cm^3
# Si number density = 23.796606 Si / 1000 Ang^3
#
#
#
# Elastic Constant Matrix: (Units=GPa)
#
#
# Indices 1 2 3 4 5 6 
#
# 1 98.7727 0.4035 52.9256 0.0000 -14.4761 0.0000
# 2 0.4035 92.4454 15.6305 0.0000 0.5473 0.0000
# 3 52.9256 15.6305 190.4052 0.0000 -8.8582 0.0000
# 4 0.0000 0.0000 0.0000 26.0097 0.0000 11.7731
# 5 -14.4761 0.5473 -8.8582 0.0000 42.3151 0.0000
# 6 0.0000 0.0000 0.0000 11.7731 0.0000 16.3403
#
#
#
# Elastic Compliance Matrix: (Units=1/GPa)
#
#
# Indices 1 2 3 4 5 6 
#
# 1 0.012426 0.000488 -0.003329 0.000000 0.003548 0.000000
# 2 0.000488 0.010993 -0.001047 0.000000 -0.000195 0.000000
# 3 -0.003329 -0.001047 0.006272 0.000000 0.000188 0.000000
# 4 0.000000 0.000000 0.000000 0.057054 0.000000 -0.041107
# 5 0.003548 -0.000195 0.000188 0.000000 0.024888 0.000000
# 6 0.000000 0.000000 0.000000 -0.041107 0.000000 0.090816
#
#
# Mechanical properties :
#
#
# Convention : Reuss Voigt Hill
#
# Bulk Modulus (GPa) = 45.63195 57.72694 51.67944
# Shear Modulus (GPa) = 22.98531 37.77726 30.38129
#
# Velocity S-wave (km/s) = 3.11128 3.98867 3.57698
# Velocity P-wave (km/s) = 5.66782 6.74714 6.23089
#
# Compressibility (1/GPa) = 0.02191447
#
# Stress axis : x y z
#
# Youngs Moduli (GPa) = 80.47655 90.96489 159.43967
#
# Poissons Ratio (x) = -0.04436 0.53077
# Poissons Ratio (y) = -0.03924 0.16694
# Poissons Ratio (z) = 0.26790 0.09524
#
# Static dielectric constant tensor:
#      x y z
#    x 1.976130 0.000000 0.036620 
#    y 0.000000 1.842590 0.000000 
#    z 0.036620 0.000000 1.901820 
# 
# From -- ./inp_files/86497.got.cif
#   From: 2010.05.17/outbox.cif.g08.bks.cpg/sg10_44_cif.got.tgz:86497.got - 2010.06.03 11:33:40.
