data_PCOD9151237
_publ_section_title
;
Structure prediction by ZEFSAII (Michael W. Deem and Ramdas Pophale) SiO2 
 PCOD9151237
Probable space group: P 2/M
;
_chemical_formula_sum "Si O2"
_cell_formula_units_Z 28
_cell_length_a 9.705614
_cell_length_b 9.093596
_cell_length_c 27.749189
_cell_angle_alpha 90.000000
_cell_angle_beta 36.282169
_cell_angle_gamma 90.000000
_cell_volume 1449.293309
_symmetry_space_group_name_H-M "P 2/M"
_symmetry_group_IT_number 10
_symmetry_cell_setting 'monoclinic'
loop_
_space_group_symop_operation_xyz
x,y,z
-x,y,-z
-x,-y,-z
x,-y,z
loop_
_atom_site_type_symbol
_atom_site_label
_atom_site_fract_x
_atom_site_fract_y
_atom_site_fract_z
Si Si1 0.555786 0.175049 0.853660
Si Si2 0.162656 0.670721 0.566016
Si Si3 0.486569 0.172841 0.404298
Si Si4 0.704489 0.330112 0.629933
Si Si5 0.043011 0.325063 0.711270
Si Si6 0.130580 0.669130 0.015277
Si Si7 0.646745 0.675032 0.184851
O O1 0.804337 0.248193 0.793961
O O2 0.473124 0.235409 0.824541
O O3 0.571101 0.000000 0.848651
O O4 0.355442 0.229968 0.946784
O O5 0.238992 0.500000 0.542616
O O6 0.364897 0.770318 0.487351
O O7 0.938414 0.686540 0.594853
O O8 0.082522 0.702373 0.642869
O O9 0.319920 0.222022 0.407694
O O10 0.729550 0.257119 0.328401
O O11 0.522733 0.000000 0.395434
O O12 0.695580 0.500000 0.615038
O O13 0.493019 0.304699 0.726697
O O14 0.029372 0.500000 0.722427
O O15 0.200033 0.500000 0.004620
O O16 0.920778 0.712369 0.110043
O O17 0.000000 0.672855 0.000000
O O18 0.631959 0.500000 0.176574
#
# Coordination Sequence:
#
# PCOD9151237 Si02
#       7
#     4   4   4   4   4   4   4
#     4  11  20  30  50  82 117 145 176 223 282 332
#     4  10  21  39  63  84 104 140 192 237 273 323
#     4  12  26  39  53  82 118 148 180 225 286 339
#     4  10  20  38  61  83 109 146 192 232 269 322
#     4  11  22  40  62  81 106 146 193 233 272 324
#     4   8  15  28  49  76 109 144 182 225 267 317
#     4   9  17  33  55  80 108 145 190 230 266 316
#
# _framework density 19.319761
#
# number of rings (size 3 to 8) (size 9 to 14) (size 15 to 20)
#    0.000    1.857    1.429    4.714    0.000    8.286 
#    0.000    0.000    0.000    0.857    0.000    6.000 
#    0.000    0.000    0.000    0.000    0.000    0.000 
#
# Total GULP energy -156425.943443 kJ/mol
# GULP energy per Si atom -5586.640837 kJ/mol
# Density = 1.927579 g / cm^3
# Si number density = 19.319761 Si / 1000 Ang^3
#
#
#
# Elastic Constant Matrix: (Units=GPa)
#
#
# Indices 1 2 3 4 5 6 
#
# 1 41.3993 17.1605 2.3833 0.0000 -11.4000 0.0000
# 2 17.1605 75.6027 42.9915 0.0000 -15.4176 0.0000
# 3 2.3833 42.9915 100.3297 0.0000 -20.4559 0.0000
# 4 0.0000 0.0000 0.0000 -4.3515 0.0000 -10.3159
# 5 -11.4000 -15.4176 -20.4559 0.0000 20.2177 0.0000
# 6 0.0000 0.0000 0.0000 -10.3159 0.0000 6.0279
#
#
#
# Elastic Compliance Matrix: (Units=1/GPa)
#
#
# Indices 1 2 3 4 5 6 
#
# 1 0.031806 -0.006788 0.005990 0.000000 0.018818 0.000000
# 2 -0.006788 0.019823 -0.007599 0.000000 0.003601 0.000000
# 3 0.005990 -0.007599 0.015860 0.000000 0.013629 0.000000
# 4 0.000000 0.000000 0.000000 -0.045443 0.000000 -0.077769
# 5 0.018818 0.003601 0.013629 0.000000 0.076608 0.000000
# 6 0.000000 0.000000 0.000000 -0.077769 0.000000 0.032805
#
#
# Mechanical properties :
#
#
# Convention : Reuss Voigt Hill
#
# Bulk Modulus (GPa) = 19.72583 38.04471 28.88527
# Shear Modulus (GPa) = 30.27524 14.69858 22.48691
#
# Velocity S-wave (km/s) = 3.96291 2.76126 3.41535
# Velocity P-wave (km/s) = 5.58318 5.46818 5.52598
#
# Compressibility (1/GPa) = 0.05069495
#
# Stress axis : x y z
#
# Youngs Moduli (GPa) = 31.44085 50.44591 63.05233
#
# Poissons Ratio (x) = 0.34242 -0.37768
# Poissons Ratio (y) = 0.21342 0.47913
# Poissons Ratio (z) = -0.18833 0.38333
#
# Static dielectric constant tensor:
#      x y z
#    x 1.674370 0.000000 -0.005590 
#    y 0.000000 1.640620 0.000000 
#    z -0.005590 0.000000 1.703300 
# 
# From -- ./inp_files/91965.got.cif
#   From: 2010.05.17/outbox.cif.g08.bks.cpg/sg10_46_cif.got.tgz:91965.got - 2010.06.03 11:33:40.
