data_PCOD9151139
_publ_section_title
;
Structure prediction by ZEFSAII (Michael W. Deem and Ramdas Pophale) SiO2 
 PCOD9151139
Probable space group: P 2/M
;
_chemical_formula_sum "Si O2"
_cell_formula_units_Z 22
_cell_length_a 14.716743
_cell_length_b 16.097282
_cell_length_c 5.167202
_cell_angle_alpha 90.000000
_cell_angle_beta 66.652952
_cell_angle_gamma 90.000000
_cell_volume 1123.879495
_symmetry_space_group_name_H-M "P 2/M"
_symmetry_group_IT_number 10
_symmetry_cell_setting 'monoclinic'
loop_
_space_group_symop_operation_xyz
x,y,z
-x,y,-z
-x,-y,-z
x,-y,z
loop_
_atom_site_type_symbol
_atom_site_label
_atom_site_fract_x
_atom_site_fract_y
_atom_site_fract_z
Si Si1 0.431273 0.166255 0.327467
Si Si2 0.888610 0.595053 0.247129
Si Si3 0.299523 0.000000 0.448985
Si Si4 0.000000 0.313325 0.500000
Si Si5 0.135264 0.819922 0.220697
Si Si6 0.162527 0.000000 0.104393
Si Si7 0.763785 0.246107 0.368544
O O1 0.500000 0.168478 0.500000
O O2 0.350043 0.239522 0.425156
O O3 0.367163 0.081440 0.398679
O O4 0.500000 0.169168 0.000000
O O5 0.858093 0.500000 0.257638
O O6 0.807615 0.662687 0.259689
O O7 0.913618 0.625461 0.509164
O O8 0.000000 0.602394 0.000000
O O9 0.248653 0.000000 0.225111
O O10 0.214423 0.000000 0.764969
O O11 0.950714 0.246245 0.748256
O O12 0.174329 0.795942 0.463417
O O13 0.104310 0.914793 0.220698
O O14 0.220168 0.805077 0.913253
#
# Coordination Sequence:
#
# PCOD9151139 Si02
#       7
#     4   4   2   2   4   2   4
#     4  12  23  38  59  84 115 157 200 247 295 342
#     4  10  20  37  64  93 119 147 189 242 299 357
#     4  12  22  37  56  85 113 146 206 258 294 329
#     4  10  21  35  58  86 126 152 200 235 287 352
#     4  11  21  36  57  80 120 164 196 238 287 340
#     4  12  20  36  56  80 119 162 201 240 287 339
#     4  11  22  40  58  86 121 155 191 243 300 350
#
# _framework density 19.575050999999998
#
# number of rings (size 3 to 8) (size 9 to 14) (size 15 to 20)
#    0.000    0.909    5.455    3.000    0.000    0.364 
#    0.000    0.000    0.000    5.455    0.000    0.000 
#    0.000    0.000    0.000    0.000    0.000    0.000 
#
# Total GULP energy -122728.269186 kJ/mol
# GULP energy per Si atom -5578.557690 kJ/mol
# Density = 1.953050 g / cm^3
# Si number density = 19.575051 Si / 1000 Ang^3
#
#
#
# Elastic Constant Matrix: (Units=GPa)
#
#
# Indices 1 2 3 4 5 6 
#
# 1 35.6434 6.4095 11.1096 0.0000 -2.0407 0.0000
# 2 6.4095 153.6951 28.3763 0.0000 -17.6140 0.0000
# 3 11.1096 28.3763 107.0914 0.0000 -7.7852 0.0000
# 4 0.0000 0.0000 0.0000 20.2613 0.0000 -6.2918
# 5 -2.0407 -17.6140 -7.7852 0.0000 33.8117 0.0000
# 6 0.0000 0.0000 0.0000 -6.2918 0.0000 22.9104
#
#
#
# Elastic Compliance Matrix: (Units=1/GPa)
#
#
# Indices 1 2 3 4 5 6 
#
# 1 0.029082 -0.000605 -0.002799 0.000000 0.000796 0.000000
# 2 -0.000605 0.007212 -0.001605 0.000000 0.003351 0.000000
# 3 -0.002799 -0.001605 0.010150 0.000000 0.001332 0.000000
# 4 0.000000 0.000000 0.000000 0.053957 0.000000 0.014818
# 5 0.000796 0.003351 0.001332 0.000000 0.031676 0.000000
# 6 0.000000 0.000000 0.000000 0.014818 0.000000 0.047718
#
#
# Mechanical properties :
#
#
# Convention : Reuss Voigt Hill
#
# Bulk Modulus (GPa) = 27.45155 43.13563 35.29359
# Shear Modulus (GPa) = 24.75809 32.09898 28.42854
#
# Velocity S-wave (km/s) = 3.56023 4.05383 3.81502
# Velocity P-wave (km/s) = 5.56368 6.63289 6.12167
#
# Compressibility (1/GPa) = 0.03642782
#
# Stress axis : x y z
#
# Youngs Moduli (GPa) = 34.38505 138.65962 98.52030
#
# Poissons Ratio (x) = 0.08387 0.27574
# Poissons Ratio (y) = 0.02080 0.15809
# Poissons Ratio (z) = 0.09624 0.22249
#
# Static dielectric constant tensor:
#      x y z
#    x 1.724730 0.000000 0.034980 
#    y 0.000000 1.696010 0.000000 
#    z 0.034980 0.000000 1.774570 
# 
# From -- ./inp_files/9130.got.cif
#   From: 2010.05.17/outbox.cif.g08.bks.cpg/sg10_5_cif.got.tgz:9130.got - 2010.06.03 11:33:40.
