data_PCOD9151932
_publ_section_title
;
Structure prediction by ZEFSAII (Michael W. Deem and Ramdas Pophale) SiO2 
 PCOD9151932
Probable space group: P 2/M
;
_chemical_formula_sum "Si O2"
_cell_formula_units_Z 24
_cell_length_a 15.136813
_cell_length_b 12.568703
_cell_length_c 19.912989
_cell_angle_alpha 90.000000
_cell_angle_beta 19.040528
_cell_angle_gamma 90.000000
_cell_volume 1235.931560
_symmetry_space_group_name_H-M "P 2/M"
_symmetry_group_IT_number 10
_symmetry_cell_setting 'monoclinic'
loop_
_space_group_symop_operation_xyz
x,y,z
-x,y,-z
-x,-y,-z
x,-y,z
loop_
_atom_site_type_symbol
_atom_site_label
_atom_site_fract_x
_atom_site_fract_y
_atom_site_fract_z
Si Si1 0.553587 0.880845 0.116982
Si Si2 0.128549 0.119142 0.542042
Si Si3 0.986905 0.792656 0.901105
Si Si4 0.565063 0.792674 0.322960
Si Si5 0.838808 0.622534 0.330565
Si Si6 0.280041 0.289129 0.109931
O O1 0.306713 0.866773 0.346692
O O2 0.537673 0.000000 0.100344
O O3 0.830400 0.868104 0.961466
O O4 0.569423 0.789468 0.050547
O O5 0.337001 0.131864 0.454889
O O6 0.910313 0.210515 0.709698
O O7 0.014187 0.000000 0.623829
O O8 0.250607 0.837657 0.749380
O O9 0.071923 0.687771 0.799407
O O10 0.768885 0.767428 0.115583
O O11 0.413265 0.687801 0.458066
O O12 0.780454 0.500000 0.359767
O O13 0.083635 0.635900 0.208138
O O14 0.500000 0.341958 0.000000
#
# Coordination Sequence:
#
# PCOD9151932 Si02
#       6
#     4   4   4   4   4   4
#     4   9  18  32  50  74 103 132 161 193 231 279
#     4   9  18  32  50  74 103 132 161 193 231 279
#     4   9  18  32  50  74 103 132 161 193 231 279
#     4   9  18  32  50  74 103 132 161 193 231 279
#     4  10  21  36  52  70  94 124 161 206 250 290
#     4  10  21  36  52  70  94 124 161 206 250 290
#
# _framework density 19.418551999999998
#
# number of rings (size 3 to 8) (size 9 to 14) (size 15 to 20)
#    0.000    2.667    0.000    1.000    0.000    5.000 
#    0.000    6.667    0.000    6.000    0.000    9.333 
#    0.000    0.000    0.000    0.000    0.000    0.000 
#
# Total GULP energy -133892.765674 kJ/mol
# GULP energy per Si atom -5578.865236 kJ/mol
# Density = 1.937435 g / cm^3
# Si number density = 19.418552 Si / 1000 Ang^3
#
#
#
# Elastic Constant Matrix: (Units=GPa)
#
#
# Indices 1 2 3 4 5 6 
#
# 1 59.7972 -15.5110 21.9615 0.0000 -19.6286 0.0000
# 2 -15.5110 46.9032 -2.7631 0.0000 15.9059 0.0000
# 3 21.9615 -2.7631 40.2253 0.0000 -4.6101 0.0000
# 4 0.0000 0.0000 0.0000 0.5657 0.0000 1.9885
# 5 -19.6286 15.9059 -4.6101 0.0000 29.7029 0.0000
# 6 0.0000 0.0000 0.0000 1.9885 0.0000 -1.0118
#
#
#
# Elastic Compliance Matrix: (Units=1/GPa)
#
#
# Indices 1 2 3 4 5 6 
#
# 1 0.026914 0.003407 -0.012859 0.000000 0.013965 0.000000
# 2 0.003407 0.026484 -0.001434 0.000000 -0.012153 0.000000
# 3 -0.012859 -0.001434 0.031456 0.000000 -0.002848 0.000000
# 4 0.000000 0.000000 0.000000 0.223521 0.000000 0.439292
# 5 0.013965 -0.012153 -0.002848 0.000000 0.048962 0.000000
# 6 0.000000 0.000000 0.000000 0.439292 0.000000 -0.124979
#
#
# Mechanical properties :
#
#
# Convention : Reuss Voigt Hill
#
# Bulk Modulus (GPa) = 15.85248 17.14452 16.49850
# Shear Modulus (GPa) = 18.17143 15.40058 16.78600
#
# Velocity S-wave (km/s) = 3.06237 2.81923 2.94331
# Velocity P-wave (km/s) = 4.54812 4.40971 4.47945
#
# Compressibility (1/GPa) = 0.06308160
#
# Stress axis : x y z
#
# Youngs Moduli (GPa) = 37.15545 37.75832 31.79053
#
# Poissons Ratio (x) = -0.12864 0.40881
# Poissons Ratio (y) = -0.12659 0.04558
# Poissons Ratio (z) = 0.47780 0.05414
#
# Static dielectric constant tensor:
#      x y z
#    x 1.716480 0.000000 -0.027780 
#    y 0.000000 1.602800 0.000000 
#    z -0.027780 0.000000 1.694250 
# 
# From -- ./inp_files/24024.got.cif
#   From: 2010.05.17/outbox.cif.g08.bks.cpg/sg10_13_cif.got.tgz:24024.got - 2010.06.03 11:33:40.
