data_PCOD9151050
_publ_section_title
;
Structure prediction by ZEFSAII (Michael W. Deem and Ramdas Pophale) SiO2 
 PCOD9151050
Probable space group: P 2/M
;
_chemical_formula_sum "Si O2"
_cell_formula_units_Z 28
_cell_length_a 9.633140
_cell_length_b 8.067678
_cell_length_c 28.241741
_cell_angle_alpha 90.000000
_cell_angle_beta 142.327588
_cell_angle_gamma 90.000000
_cell_volume 1341.383202
_symmetry_space_group_name_H-M "P 2/M"
_symmetry_group_IT_number 10
_symmetry_cell_setting 'monoclinic'
loop_
_space_group_symop_operation_xyz
x,y,z
-x,y,-z
-x,-y,-z
x,-y,z
loop_
_atom_site_type_symbol
_atom_site_label
_atom_site_fract_x
_atom_site_fract_y
_atom_site_fract_z
Si Si1 0.797493 0.699672 0.976748
Si Si2 0.032885 0.701078 0.236160
Si Si3 0.762548 0.298096 0.071215
Si Si4 0.698952 0.700427 0.517462
Si Si5 0.354503 0.803050 0.800221
Si Si6 0.216030 0.197826 0.662565
Si Si7 0.555233 0.300112 0.374429
O O1 0.810424 0.500000 0.982091
O O2 0.554124 0.737157 0.887957
O O3 0.843564 0.759840 0.042139
O O4 0.000000 0.766452 0.000000
O O5 0.032039 0.500000 0.236714
O O6 0.900595 0.760559 0.153626
O O7 0.887254 0.759076 0.241579
O O8 0.293029 0.755986 0.303680
O O9 0.770882 0.500000 0.075229
O O10 0.500000 0.250565 0.000000
O O11 0.500000 0.757551 0.500000
O O12 0.688538 0.500000 0.514798
O O13 0.658768 0.758095 0.452413
O O14 0.954430 0.750400 0.599331
O O15 0.356323 0.739289 0.746463
O O16 0.378519 0.000000 0.805650
O O17 0.313120 0.253076 0.637932
O O18 0.226022 0.000000 0.665833
O O19 0.555946 0.500000 0.375979
#
# Coordination Sequence:
#
# PCOD9151050 Si02
#       7
#     4   4   4   4   4   4   4
#     4  10  21  36  59  86 112 148 196 243 291 345
#     4  10  20  37  62  87 115 150 193 243 293 344
#     4   9  16  31  55  85 114 140 183 242 287 335
#     4  10  21  40  65  93 120 147 189 242 292 343
#     4  11  24  40  56  81 119 158 197 239 287 345
#     4  11  25  41  58  84 121 162 197 233 283 347
#     4  10  22  38  62  93 119 149 190 241 295 343
#
# _framework density 20.873974
#
# number of rings (size 3 to 8) (size 9 to 14) (size 15 to 20)
#    0.000    1.857    1.429    2.143    2.000    6.857 
#    0.000    1.429    0.000    0.000    0.000    0.000 
#    0.000    0.000    0.000    0.000    0.000    0.000 
#
# Total GULP energy -156330.451027 kJ/mol
# GULP energy per Si atom -5583.230394 kJ/mol
# Density = 2.082646 g / cm^3
# Si number density = 20.873974 Si / 1000 Ang^3
#
#
#
# Elastic Constant Matrix: (Units=GPa)
#
#
# Indices 1 2 3 4 5 6 
#
# 1 121.2298 0.8227 11.2617 0.0000 -19.0952 0.0000
# 2 0.8227 12.4563 -1.5342 0.0000 -6.0770 0.0000
# 3 11.2617 -1.5342 78.6904 0.0000 -20.2487 0.0000
# 4 0.0000 0.0000 0.0000-3835.7371 0.0000-2647.2648
# 5 -19.0952 -6.0770 -20.2487 0.0000 41.9629 0.0000
# 6 0.0000 0.0000 0.0000-2647.2648 0.0000-1812.0925
#
#
#
# Elastic Compliance Matrix: (Units=1/GPa)
#
#
# Indices 1 2 3 4 5 6 
#
# 1 0.008913 0.001429 -0.000172 0.000000 0.004180 0.000000
# 2 0.001429 0.088829 0.005714 0.000000 0.016272 0.000000
# 3 -0.000172 0.005714 0.014885 0.000000 0.007932 0.000000
# 4 0.000000 0.000000 0.000000 0.031624 0.000000 -0.046200
# 5 0.004180 0.016272 0.007932 0.000000 0.031917 0.000000
# 6 0.000000 0.000000 0.000000 -0.046200 0.000000 0.066941
#
#
# Mechanical properties :
#
#
# Convention : Reuss Voigt Hill
#
# Bulk Modulus (GPa) = 7.90074 25.94187 16.92131
# Shear Modulus (GPa) = 18.42600 -1107.71826 -544.64613
#
# Velocity S-wave (km/s) = 2.97429 -23.06126 -16.17058
# Velocity P-wave (km/s) = 3.94822 26.39395 18.45335
#
# Compressibility (1/GPa) = 0.12657042
#
# Stress axis : x y z
#
# Youngs Moduli (GPa) = 112.18940 11.25765 67.18119
#
# Poissons Ratio (x) = -0.01609 0.01157
# Poissons Ratio (y) = -0.16036 -0.38390
# Poissons Ratio (z) = 0.01932 -0.06433
#
# Static dielectric constant tensor:
#      x y z
#    x 2.223200 0.000000 -0.263740 
#    y 0.000000 1.741960 0.000000 
#    z -0.263740 0.000000 1.858830 
# 
# From -- ./inp_files/91990.got.cif
#   From: 2010.05.17/outbox.cif.g08.bks.cpg/sg10_46_cif.got.tgz:91990.got - 2010.06.03 11:33:40.
