data_PCOD9151702
_publ_section_title
;
Structure prediction by ZEFSAII (Michael W. Deem and Ramdas Pophale) SiO2 
 PCOD9151702
Probable space group: P 2/M
;
_chemical_formula_sum "Si O2"
_cell_formula_units_Z 32
_cell_length_a 19.120084
_cell_length_b 14.725830
_cell_length_c 11.991149
_cell_angle_alpha 90.000000
_cell_angle_beta 147.401535
_cell_angle_gamma 90.000000
_cell_volume 1818.930989
_symmetry_space_group_name_H-M "P 2/M"
_symmetry_group_IT_number 10
_symmetry_cell_setting 'monoclinic'
loop_
_space_group_symop_operation_xyz
x,y,z
-x,y,-z
-x,-y,-z
x,-y,z
loop_
_atom_site_type_symbol
_atom_site_label
_atom_site_fract_x
_atom_site_fract_y
_atom_site_fract_z
Si Si1 0.718082 0.393725 0.056565
Si Si2 0.346035 0.605212 0.778301
Si Si3 0.063023 0.394832 0.820365
Si Si4 0.579820 0.100977 0.489852
Si Si5 0.512442 0.297692 0.382630
Si Si6 0.784903 0.605025 0.745504
Si Si7 0.161878 0.716773 0.387456
Si Si8 0.854160 0.104370 0.759754
O O1 0.682922 0.500000 0.997050
O O2 0.610757 0.338027 0.845071
O O3 0.716303 0.374513 0.185101
O O4 0.856126 0.381452 0.183318
O O5 0.316927 0.500000 0.708424
O O6 0.290910 0.674146 0.613966
O O7 0.500000 0.612420 0.000000
O O8 0.013910 0.500000 0.757463
O O9 0.952837 0.320256 0.688808
O O10 0.162446 0.385518 0.058255
O O11 0.500000 0.099543 0.500000
O O12 0.533979 0.194091 0.371443
O O13 0.738089 0.112148 0.696849
O O14 0.555535 0.000000 0.407925
O O15 0.500000 0.294239 0.500000
O O16 0.637799 0.360950 0.535690
O O17 0.797758 0.500000 0.731441
O O18 0.861734 0.666989 0.762344
O O19 0.170474 0.822203 0.369860
O O20 0.850191 0.000000 0.715456
O O21 0.000000 0.121200 0.000000
#
# Coordination Sequence:
#
# PCOD9151702 Si02
#       8
#     4   4   4   4   4   4   4   4
#     4  10  21  36  53  79 113 148 191 234 276 336
#     4  10  22  39  57  77 107 149 196 237 274 327
#     4  10  21  34  51  79 113 144 182 232 283 337
#     4   9  19  34  53  79 111 144 184 233 281 334
#     4  11  19  30  53  78 107 146 180 224 284 344
#     4  11  20  30  47  77 112 143 175 218 271 335
#     4  12  22  35  56  78 108 148 189 229 279 338
#     4  10  21  37  59  86 117 151 187 233 293 354
#
# _framework density 17.592751
#
# number of rings (size 3 to 8) (size 9 to 14) (size 15 to 20)
#    0.000    1.625    2.500    3.375    0.000    3.000 
#    0.000    1.875    0.000    1.125    0.000    0.875 
#    0.000    0.000    0.000    0.000    0.000    0.000 
#
# Total GULP energy -178410.386591 kJ/mol
# GULP energy per Si atom -5575.324581 kJ/mol
# Density = 1.755271 g / cm^3
# Si number density = 17.592751 Si / 1000 Ang^3
#
#
#
# Elastic Constant Matrix: (Units=GPa)
#
#
# Indices 1 2 3 4 5 6 
#
# 1 86.9867 28.0965 23.9421 0.0000 8.7466 0.0000
# 2 28.0965 91.8008 38.0230 0.0000 -1.7837 0.0000
# 3 23.9421 38.0230 61.5259 0.0000 8.8163 0.0000
# 4 0.0000 0.0000 0.0000 22.0947 0.0000 4.1149
# 5 8.7466 -1.7837 8.8163 0.0000 22.7933 0.0000
# 6 0.0000 0.0000 0.0000 4.1149 0.0000 23.0854
#
#
#
# Elastic Compliance Matrix: (Units=1/GPa)
#
#
# Indices 1 2 3 4 5 6 
#
# 1 0.013717 -0.003141 -0.002760 0.000000 -0.004442 0.000000
# 2 -0.003141 0.015900 -0.009480 0.000000 0.006117 0.000000
# 3 -0.002760 -0.009480 0.024499 0.000000 -0.009159 0.000000
# 4 0.000000 0.000000 0.000000 0.046814 0.000000 -0.008344
# 5 -0.004442 0.006117 -0.009159 0.000000 0.049598 0.000000
# 6 0.000000 0.000000 0.000000 -0.008344 0.000000 0.044805
#
#
# Mechanical properties :
#
#
# Convention : Reuss Voigt Hill
#
# Bulk Modulus (GPa) = 42.82220 46.71518 44.76869
# Shear Modulus (GPa) = 21.37851 23.61147 22.49499
#
# Velocity S-wave (km/s) = 3.48974 3.66746 3.57970
# Velocity P-wave (km/s) = 6.37427 6.67420 6.52596
#
# Compressibility (1/GPa) = 0.02335237
#
# Stress axis : x y z
#
# Youngs Moduli (GPa) = 72.90253 62.89276 40.81882
#
# Poissons Ratio (x) = 0.19757 0.11266
# Poissons Ratio (y) = 0.22901 0.38697
# Poissons Ratio (z) = 0.20120 0.59624
#
# Static dielectric constant tensor:
#      x y z
#    x 1.670980 0.000000 0.044180 
#    y 0.000000 1.604440 0.000000 
#    z 0.044180 0.000000 1.599530 
# 
# From -- ./inp_files/54047.got.cif
#   From: 2010.05.17/outbox.cif.g08.bks.cpg/sg10_28_cif.got.tgz:54047.got - 2010.06.03 11:33:40.
