data_PCOD9151944
_publ_section_title
;
Structure prediction by ZEFSAII (Michael W. Deem and Ramdas Pophale) SiO2 
 PCOD9151944
Probable space group: P 2/M
;
_chemical_formula_sum "Si O2"
_cell_formula_units_Z 32
_cell_length_a 11.804518
_cell_length_b 19.176805
_cell_length_c 15.344892
_cell_angle_alpha 90.000000
_cell_angle_beta 28.507790
_cell_angle_gamma 90.000000
_cell_volume 1657.906302
_symmetry_space_group_name_H-M "P 2/M"
_symmetry_group_IT_number 10
_symmetry_cell_setting 'monoclinic'
loop_
_space_group_symop_operation_xyz
x,y,z
-x,y,-z
-x,-y,-z
x,-y,z
loop_
_atom_site_type_symbol
_atom_site_label
_atom_site_fract_x
_atom_site_fract_y
_atom_site_fract_z
Si Si1 0.378810 0.817491 0.666340
Si Si2 0.465768 0.690681 0.229546
Si Si3 0.233250 0.078786 0.904739
Si Si4 0.793174 0.277073 0.440427
Si Si5 0.234203 0.576785 0.279565
Si Si6 0.786176 0.421092 0.081249
Si Si7 0.108533 0.797699 0.096288
Si Si8 0.982980 0.424026 0.265550
O O1 0.500000 0.852712 0.500000
O O2 0.390583 0.870150 0.738986
O O3 0.545402 0.752975 0.574132
O O4 0.114811 0.791656 0.820252
O O5 0.238229 0.720831 0.434230
O O6 0.388155 0.643604 0.200625
O O7 0.575314 0.633538 0.221961
O O8 0.670204 0.747045 0.073013
O O9 0.316756 0.000000 0.862711
O O10 0.181601 0.122295 0.027719
O O11 0.000000 0.074080 0.000000
O O12 0.836461 0.353607 0.373371
O O13 0.995824 0.226554 0.263916
O O14 0.347784 0.500000 0.219538
O O15 0.000000 0.578819 0.500000
O O16 0.155809 0.578502 0.232463
O O17 0.714976 0.500000 0.152888
O O18 0.884804 0.421456 0.915914
O O19 0.000000 0.400118 0.000000
O O20 0.859192 0.500000 0.354262
#
# Coordination Sequence:
#
# PCOD9151944 Si02
#       8
#     4   4   4   4   4   4   4   4
#     4   9  19  32  53  81 116 158 194 236 296 351
#     4  12  22  34  62  79 111 156 190 242 301 349
#     4   9  17  32  54  79 113 156 194 236 286 348
#     4  11  21  34  55  83 111 154 197 240 294 354
#     4  10  21  38  60  84 112 148 199 256 313 359
#     4  10  23  38  54  80 111 149 198 244 290 351
#     4  10  21  36  52  81 116 148 195 235 284 359
#     4  10  21  40  59  81 115 154 199 256 303 349
#
# _framework density 19.301454
#
# number of rings (size 3 to 8) (size 9 to 14) (size 15 to 20)
#    0.000    1.875    3.750    0.375    1.750    2.250 
#    0.000    3.750    0.000    5.625    0.000    0.000 
#    0.000    6.500    0.000    0.000    0.000    0.000 
#
# Total GULP energy -178421.131926 kJ/mol
# GULP energy per Si atom -5575.660373 kJ/mol
# Density = 1.925752 g / cm^3
# Si number density = 19.301454 Si / 1000 Ang^3
#
#
#
# Elastic Constant Matrix: (Units=GPa)
#
#
# Indices 1 2 3 4 5 6 
#
# 1 56.3609 31.8742 22.2228 0.0000 17.3000 0.0000
# 2 31.8742 137.9446 48.5178 0.0000 -3.8859 0.0000
# 3 22.2228 48.5178 85.8787 0.0000 19.4787 0.0000
# 4 0.0000 0.0000 0.0000 6.8348 0.0000 4.5223
# 5 17.3000 -3.8859 19.4787 0.0000 22.1177 0.0000
# 6 0.0000 0.0000 0.0000 4.5223 0.0000 22.8969
#
#
#
# Elastic Compliance Matrix: (Units=1/GPa)
#
#
# Indices 1 2 3 4 5 6 
#
# 1 0.030158 -0.009118 0.003825 0.000000 -0.028559 0.000000
# 2 -0.009118 0.012960 -0.008868 0.000000 0.017219 0.000000
# 3 0.003825 -0.008868 0.020864 0.000000 -0.022925 0.000000
# 4 0.000000 0.000000 0.000000 0.168303 0.000000 -0.033241
# 5 -0.028559 0.017219 -0.022925 0.000000 0.090766 0.000000
# 6 0.000000 0.000000 0.000000 -0.033241 0.000000 0.050239
#
#
# Mechanical properties :
#
#
# Convention : Reuss Voigt Hill
#
# Bulk Modulus (GPa) = 28.04256 53.93486 40.98871
# Shear Modulus (GPa) = 12.09191 22.20786 17.14989
#
# Velocity S-wave (km/s) = 2.50567 3.39570 2.98405
# Velocity P-wave (km/s) = 4.78868 6.58623 5.75803
#
# Compressibility (1/GPa) = 0.03566009
#
# Stress axis : x y z
#
# Youngs Moduli (GPa) = 33.15923 77.15850 47.92879
#
# Poissons Ratio (x) = 0.70355 -0.18334
# Poissons Ratio (y) = 0.30236 0.42504
# Poissons Ratio (z) = -0.12685 0.68425
#
# Static dielectric constant tensor:
#      x y z
#    x 1.696300 0.000000 0.026330 
#    y 0.000000 1.690270 0.000000 
#    z 0.026330 0.000000 1.757840 
# 
# From -- ./inp_files/65373.got.cif
#   From: 2010.05.17/outbox.cif.g08.bks.cpg/sg10_33_cif.got.tgz:65373.got - 2010.06.03 11:33:40.
