data_PCOD9151530
_publ_section_title
;
Structure prediction by ZEFSAII (Michael W. Deem and Ramdas Pophale) SiO2 
 PCOD9151530
Probable space group: P 2/M
;
_chemical_formula_sum "Si O2"
_cell_formula_units_Z 24
_cell_length_a 8.924470
_cell_length_b 17.151920
_cell_length_c 14.723648
_cell_angle_alpha 90.000000
_cell_angle_beta 32.013928
_cell_angle_gamma 90.000000
_cell_volume 1194.783498
_symmetry_space_group_name_H-M "P 2/M"
_symmetry_group_IT_number 10
_symmetry_cell_setting 'monoclinic'
loop_
_space_group_symop_operation_xyz
x,y,z
-x,y,-z
-x,-y,-z
x,-y,z
loop_
_atom_site_type_symbol
_atom_site_label
_atom_site_fract_x
_atom_site_fract_y
_atom_site_fract_z
Si Si1 0.074398 0.844527 0.357979
Si Si2 0.330554 0.588522 0.491235
Si Si3 0.806686 0.701037 0.184271
Si Si4 0.774823 0.000000 0.195563
Si Si5 0.292006 0.000000 0.296501
Si Si6 0.455701 0.149403 0.621028
Si Si7 0.169164 0.693401 0.185023
O O1 0.292601 0.917082 0.244609
O O2 0.158511 0.772679 0.250559
O O3 0.000000 0.819217 0.500000
O O4 0.771367 0.876293 0.481149
O O5 0.500000 0.585412 0.500000
O O6 0.298739 0.500000 0.474505
O O7 0.544768 0.641572 0.323816
O O8 0.028809 0.630141 0.661647
O O9 0.665852 0.786285 0.249433
O O10 0.004450 0.702570 0.173066
O O11 0.000000 0.682944 0.000000
O O12 0.509437 0.000000 0.265592
O O13 0.753272 0.923663 0.268708
O O14 0.000000 0.000000 0.000000
O O15 0.000000 0.000000 0.500000
O O16 0.500000 0.188225 0.500000
O O17 0.500000 0.672687 0.000000
#
# Coordination Sequence:
#
# PCOD9151530 Si02
#       7
#     4   4   4   2   2   4   4
#     4  11  21  40  68  84 122 169 212 255 315 371
#     4   9  19  41  67  91 126 165 202 252 312 377
#     4  11  23  40  63  94 128 164 211 257 306 376
#     4  12  25  38  60  96 124 159 216 268 315 369
#     4  10  20  40  60  82 115 162 207 245 312 370
#     4  12  21  41  64  90 122 167 217 260 307 373
#     4  11  24  39  62  98 126 162 211 255 313 373
#
# _framework density 20.087320999999999
#
# number of rings (size 3 to 8) (size 9 to 14) (size 15 to 20)
#    0.000    1.167    6.667    1.250    2.333    2.000 
#    0.000    0.417    0.000    3.500    0.000    0.000 
#    0.000    0.000    0.000    0.000    0.000    0.000 
#
# Total GULP energy -133779.822938 kJ/mol
# GULP energy per Si atom -5574.159289 kJ/mol
# Density = 2.004160 g / cm^3
# Si number density = 20.087321 Si / 1000 Ang^3
#
#
#
# Elastic Constant Matrix: (Units=GPa)
#
#
# Indices 1 2 3 4 5 6 
#
# 1 51.4282 6.2898 19.4383 0.0000 0.3980 0.0000
# 2 6.2898 150.9820 61.2872 0.0000 4.4347 0.0000
# 3 19.4383 61.2872 146.3439 0.0000 -1.8643 0.0000
# 4 0.0000 0.0000 0.0000 -2.3016 0.0000 -7.6560
# 5 0.3980 4.4347 -1.8643 0.0000 30.7987 0.0000
# 6 0.0000 0.0000 0.0000 -7.6560 0.0000 2.5889
#
#
#
# Elastic Compliance Matrix: (Units=1/GPa)
#
#
# Indices 1 2 3 4 5 6 
#
# 1 0.020491 0.000323 -0.002863 0.000000 -0.000485 0.000000
# 2 0.000323 0.008042 -0.003428 0.000000 -0.001370 0.000000
# 3 -0.002863 -0.003428 0.008663 0.000000 0.001055 0.000000
# 4 0.000000 0.000000 0.000000 -0.040092 0.000000 -0.118563
# 5 -0.000485 -0.001370 0.001055 0.000000 0.032736 0.000000
# 6 0.000000 0.000000 0.000000 -0.118563 0.000000 0.035643
#
#
# Mechanical properties :
#
#
# Convention : Reuss Voigt Hill
#
# Bulk Modulus (GPa) = 39.59064 58.08718 48.83891
# Shear Modulus (GPa) = 58.24861 23.66645 40.95753
#
# Velocity S-wave (km/s) = 5.39079 3.43618 4.52040
# Velocity P-wave (km/s) = 7.64850 6.68755 7.18411
#
# Compressibility (1/GPa) = 0.02525850
#
# Stress axis : x y z
#
# Youngs Moduli (GPa) = 48.80183 124.35310 115.43901
#
# Poissons Ratio (x) = -0.04014 0.33051
# Poissons Ratio (y) = -0.01575 0.39573
# Poissons Ratio (z) = 0.13972 0.42629
#
# Static dielectric constant tensor:
#      x y z
#    x 1.763100 0.000000 0.011070 
#    y 0.000000 1.753060 0.000000 
#    z 0.011070 0.000000 1.652480 
# 
# From -- ./inp_files/62273.got.cif
#   From: 2010.05.17/outbox.cif.g08.bks.cpg/sg10_32_cif.got.tgz:62273.got - 2010.06.03 11:33:40.
