data_PCOD9151267
_publ_section_title
;
Structure prediction by ZEFSAII (Michael W. Deem and Ramdas Pophale) SiO2 
 PCOD9151267
Probable space group: P 2/M
;
_chemical_formula_sum "Si O2"
_cell_formula_units_Z 20
_cell_length_a 8.868223
_cell_length_b 23.901736
_cell_length_c 7.994296
_cell_angle_alpha 90.000000
_cell_angle_beta 146.805822
_cell_angle_gamma 90.000000
_cell_volume 927.711844
_symmetry_space_group_name_H-M "P 2/M"
_symmetry_group_IT_number 10
_symmetry_cell_setting 'monoclinic'
loop_
_space_group_symop_operation_xyz
x,y,z
-x,y,-z
-x,-y,-z
x,-y,z
loop_
_atom_site_type_symbol
_atom_site_label
_atom_site_fract_x
_atom_site_fract_y
_atom_site_fract_z
Si Si1 0.422080 0.178297 0.235874
Si Si2 0.727135 0.500000 0.857070
Si Si3 0.048521 0.113601 0.348895
Si Si4 0.229307 0.394382 0.855514
Si Si5 0.787612 0.000000 0.154425
Si Si6 0.725354 0.704316 0.847252
O O1 0.500000 0.179691 0.500000
O O2 0.420410 0.244008 0.189191
O O3 0.630891 0.130309 0.364103
O O4 0.117527 0.158843 0.909373
O O5 0.500000 0.500000 0.500000
O O6 0.722902 0.446920 0.977139
O O7 0.000000 0.500000 0.000000
O O8 0.000000 0.119717 0.500000
O O9 0.894317 0.055301 0.155675
O O10 0.000000 0.404483 0.500000
O O11 0.500000 0.382595 0.000000
O O12 0.179580 0.342522 0.933991
O O13 0.000000 0.000000 0.500000
O O14 0.500000 0.000000 0.000000
O O15 0.500000 0.684099 0.500000
O O16 0.000000 0.722909 0.000000
#
# Coordination Sequence:
#
# PCOD9151267 Si02
#       6
#     4   2   4   4   2   4
#     4  11  23  40  60  88 125 161 202 259 318 376
#     4  12  24  44  70  96 134 186 224 254 320 408
#     4  11  22  39  63  89 118 160 209 256 310 380
#     4  12  25  42  66 101 135 165 215 284 326 363
#     4  10  20  38  61  90 123 162 207 260 317 386
#     4  11  23  43  64  87 123 173 214 252 318 401
#
# _framework density 21.558416000000001
#
# number of rings (size 3 to 8) (size 9 to 14) (size 15 to 20)
#    0.000    0.800    0.000   10.200    0.000    2.400 
#    0.000    3.000    0.000    0.000    0.000    0.000 
#    0.000    0.000    0.000    0.000    0.000    0.000 
#
# Total GULP energy -111361.737058 kJ/mol
# GULP energy per Si atom -5568.086853 kJ/mol
# Density = 2.150935 g / cm^3
# Si number density = 21.558416 Si / 1000 Ang^3
#
#
#
# Elastic Constant Matrix: (Units=GPa)
#
#
# Indices 1 2 3 4 5 6 
#
# 1 53.8241 45.3152 21.1816 0.0000 8.8860 0.0000
# 2 45.3152 132.7988 14.6074 0.0000 -16.4340 0.0000
# 3 21.1816 14.6074 148.5973 0.0000 -6.6806 0.0000
# 4 0.0000 0.0000 0.0000 41.7672 0.0000 -21.8136
# 5 8.8860 -16.4340 -6.6806 0.0000 52.2291 0.0000
# 6 0.0000 0.0000 0.0000 -21.8136 0.0000 55.1007
#
#
#
# Elastic Compliance Matrix: (Units=1/GPa)
#
#
# Indices 1 2 3 4 5 6 
#
# 1 0.031191 -0.011391 -0.003748 0.000000 -0.009370 0.000000
# 2 -0.011391 0.012061 0.000700 0.000000 0.005822 0.000000
# 3 -0.003748 0.000700 0.007275 0.000000 0.001788 0.000000
# 4 0.000000 0.000000 0.000000 0.030183 0.000000 0.011949
# 5 -0.009370 0.005822 0.001788 0.000000 0.022801 0.000000
# 6 0.000000 0.000000 0.000000 0.011949 0.000000 0.022879
#
#
# Mechanical properties :
#
#
# Convention : Reuss Voigt Hill
#
# Bulk Modulus (GPa) = 46.18944 55.26984 50.72964
# Shear Modulus (GPa) = 30.77252 46.76048 38.76650
#
# Velocity S-wave (km/s) = 3.78220 4.66232 4.24513
# Velocity P-wave (km/s) = 6.36750 7.39431 6.90003
#
# Compressibility (1/GPa) = 0.02164997
#
# Stress axis : x y z
#
# Youngs Moduli (GPa) = 32.06101 82.91506 137.44964
#
# Poissons Ratio (x) = 0.94445 0.51510
# Poissons Ratio (y) = 0.36519 -0.09619
# Poissons Ratio (z) = 0.12015 -0.05803
#
# Static dielectric constant tensor:
#      x y z
#    x 1.657760 0.000000 0.447380 
#    y 0.000000 1.999180 0.000000 
#    z 0.447380 0.000000 0.675050 
# 
# From -- ./inp_files/20695.got.cif
#   From: 2010.05.17/outbox.cif.g08.bks.cpg/sg10_11_cif.got.tgz:20695.got - 2010.06.03 11:33:40.
