data_PCOD9151596
_publ_section_title
;
Structure prediction by ZEFSAII (Michael W. Deem and Ramdas Pophale) SiO2 
 PCOD9151596
Probable space group: P 2/M
;
_chemical_formula_sum "Si O2"
_cell_formula_units_Z 32
_cell_length_a 19.931361
_cell_length_b 7.600734
_cell_length_c 26.308488
_cell_angle_alpha 90.000000
_cell_angle_beta 19.208798
_cell_angle_gamma 90.000000
_cell_volume 1311.292756
_symmetry_space_group_name_H-M "P 2/M"
_symmetry_group_IT_number 10
_symmetry_cell_setting 'monoclinic'
loop_
_space_group_symop_operation_xyz
x,y,z
-x,y,-z
-x,-y,-z
x,-y,z
loop_
_atom_site_type_symbol
_atom_site_label
_atom_site_fract_x
_atom_site_fract_y
_atom_site_fract_z
Si Si1 0.427771 0.706328 0.997216
Si Si2 0.833387 0.198135 0.656515
Si Si3 0.974711 0.206020 0.856226
Si Si4 0.235559 0.214160 0.840540
Si Si5 0.655004 0.784563 0.345553
Si Si6 0.424970 0.212524 0.813301
Si Si7 0.981176 0.288175 0.285857
Si Si8 0.868270 0.703566 0.474133
O O1 0.389757 0.500000 0.033033
O O2 0.612862 0.723918 0.825286
O O3 0.500000 0.781675 0.000000
O O4 0.212048 0.776607 0.132081
O O5 0.000000 0.285299 0.500000
O O6 0.954856 0.197419 0.622766
O O7 0.798212 0.000000 0.662591
O O8 0.075360 0.223316 0.729294
O O9 0.124126 0.275931 0.792368
O O10 0.955935 0.000000 0.880954
O O11 0.744445 0.274872 0.025058
O O12 0.365613 0.270409 0.698096
O O13 0.333362 0.267637 0.823971
O O14 0.232372 0.000000 0.843999
O O15 0.000000 0.268293 0.000000
O O16 0.500000 0.725603 0.500000
O O17 0.649614 0.000000 0.349506
O O18 0.652411 0.281691 0.656025
O O19 0.444475 0.000000 0.800607
O O20 0.977795 0.500000 0.284703
O O21 0.850693 0.235001 0.428310
O O22 0.933338 0.500000 0.426504
#
# Coordination Sequence:
#
# PCOD9151596 Si02
#       8
#     4   4   4   4   4   4   4   4
#     4  10  20  41  66  86 112 152 199 238 281 341
#     4  11  25  42  62  92 124 149 186 242 295 340
#     4  10  21  36  56  86 121 152 189 241 294 347
#     4   9  15  29  52  77 110 150 187 233 290 341
#     4   9  17  29  49  81 115 148 192 238 285 346
#     4  10  21  36  57  87 120 151 192 244 295 345
#     4  10  23  41  60  83 115 154 196 239 283 343
#     4  11  24  43  62  83 115 157 200 237 282 346
#
# _framework density 24.403397999999999
#
# number of rings (size 3 to 8) (size 9 to 14) (size 15 to 20)
#    0.000    2.000    2.500    0.750    3.500    3.250 
#    0.000    0.000    0.000    1.500    0.000    0.000 
#    0.000    0.000    0.000    0.000    0.000    0.000 
#
# Total GULP energy -178853.738139 kJ/mol
# GULP energy per Si atom -5589.179317 kJ/mol
# Density = 2.434785 g / cm^3
# Si number density = 24.403398 Si / 1000 Ang^3
#
#
#
# Elastic Constant Matrix: (Units=GPa)
#
#
# Indices 1 2 3 4 5 6 
#
# 1 47.0697 -6.6933 -17.1511 0.0000 14.6541 0.0000
# 2 -6.6933 51.9617 -1.8538 0.0000 -2.9203 0.0000
# 3 -17.1511 -1.8538 95.4714 0.0000 15.4891 0.0000
# 4 0.0000 0.0000 0.0000 84.3666 0.0000 -55.3413
# 5 14.6541 -2.9203 15.4891 0.0000 40.7951 0.0000
# 6 0.0000 0.0000 0.0000 -55.3413 0.0000 58.6968
#
#
#
# Elastic Compliance Matrix: (Units=1/GPa)
#
#
# Indices 1 2 3 4 5 6 
#
# 1 0.028257 0.003185 0.007191 0.000000 -0.012653 0.000000
# 2 0.003185 0.019684 0.000971 0.000000 -0.000104 0.000000
# 3 0.007191 0.000971 0.012993 0.000000 -0.007447 0.000000
# 4 0.000000 0.000000 0.000000 0.031067 0.000000 0.029291
# 5 -0.012653 -0.000104 -0.007447 0.000000 0.031878 0.000000
# 6 0.000000 0.000000 0.000000 0.029291 0.000000 0.044653
#
#
# Mechanical properties :
#
#
# Convention : Reuss Voigt Hill
#
# Bulk Modulus (GPa) = 11.95747 15.90072 13.92909
# Shear Modulus (GPa) = 28.78309 51.45176 40.11742
#
# Velocity S-wave (km/s) = 3.43807 4.59670 4.05894
# Velocity P-wave (km/s) = 4.54653 5.89090 5.26183
#
# Compressibility (1/GPa) = 0.08362977
#
# Stress axis : x y z
#
# Youngs Moduli (GPa) = 35.38901 50.80250 76.96348
#
# Poissons Ratio (x) = -0.16182 -0.55344
# Poissons Ratio (y) = -0.11273 -0.07476
# Poissons Ratio (z) = -0.25448 -0.04934
#
# Static dielectric constant tensor:
#      x y z
#    x 1.936000 0.000000 0.026750 
#    y 0.000000 1.927840 0.000000 
#    z 0.026750 0.000000 1.946700 
# 
# From -- ./inp_files/93583.got.cif
#   From: 2010.05.17/outbox.cif.g08.bks.cpg/sg10_47_cif.got.tgz:93583.got - 2010.06.03 11:33:40.
