data_PCOD9151578
_publ_section_title
;
Structure prediction by ZEFSAII (Michael W. Deem and Ramdas Pophale) SiO2 
 PCOD9151578
Probable space group: P 2/M
;
_chemical_formula_sum "Si O2"
_cell_formula_units_Z 26
_cell_length_a 7.444450
_cell_length_b 18.769431
_cell_length_c 13.869550
_cell_angle_alpha 90.000000
_cell_angle_beta 142.663057
_cell_angle_gamma 90.000000
_cell_volume 1175.378502
_symmetry_space_group_name_H-M "P 2/M"
_symmetry_group_IT_number 10
_symmetry_cell_setting 'monoclinic'
loop_
_space_group_symop_operation_xyz
x,y,z
-x,y,-z
-x,-y,-z
x,-y,z
loop_
_atom_site_type_symbol
_atom_site_label
_atom_site_fract_x
_atom_site_fract_y
_atom_site_fract_z
Si Si1 0.208681 0.370867 0.493856
Si Si2 0.500000 0.743324 0.500000
Si Si3 0.964846 0.162627 0.201383
Si Si4 0.343873 0.500000 0.286925
Si Si5 0.272910 0.077067 0.191356
Si Si6 0.616949 0.349345 0.150412
Si Si7 0.716083 0.500000 0.969346
Si Si8 0.482855 0.197845 0.151609
O O1 0.401799 0.302759 0.550470
O O2 0.447129 0.434008 0.597280
O O3 0.000000 0.374417 0.500000
O O4 0.960674 0.369945 0.304082
O O5 0.780031 0.788116 0.649815
O O6 0.123564 0.091658 0.230976
O O7 0.722750 0.161333 0.182403
O O8 0.815388 0.194338 0.040277
O O9 0.278834 0.500000 0.145035
O O10 0.995054 0.500000 0.163450
O O11 0.452542 0.146695 0.231390
O O12 0.428076 0.000000 0.254931
O O13 0.000000 0.072590 0.000000
O O14 0.443585 0.423658 0.085703
O O15 0.561179 0.281772 0.198088
O O16 0.500000 0.318684 0.000000
#
# Coordination Sequence:
#
# PCOD9151578 Si02
#       8
#     4   2   4   2   4   4   2   4
#     4  12  26  46  68  90 135 177 221 289 338 406
#     4  12  26  39  65 102 124 172 224 268 338 403
#     4  10  21  39  61  93 133 165 212 275 325 394
#     4  11  26  45  64  95 129 177 234 275 355 398
#     4   9  20  38  65 100 130 171 220 268 328 396
#     4  12  23  44  67  97 136 176 229 283 345 395
#     4  11  26  43  67  97 132 182 229 286 338 409
#     4  10  20  40  66  93 131 171 219 273 331 394
#
# _framework density 22.120535
#
# number of rings (size 3 to 8) (size 9 to 14) (size 15 to 20)
#    0.000    1.231    4.615    0.923    6.462    0.923 
#    5.538    3.462    0.000    0.923    0.000    0.000 
#    0.000    0.000    0.000    0.000    0.000    0.000 
#
# Total GULP energy -144883.291473 kJ/mol
# GULP energy per Si atom -5572.434287 kJ/mol
# Density = 2.207019 g / cm^3
# Si number density = 22.120535 Si / 1000 Ang^3
#
#
#
# Elastic Constant Matrix: (Units=GPa)
#
#
# Indices 1 2 3 4 5 6 
#
# 1 67.6207 40.9936 9.7251 0.0000 3.4462 0.0000
# 2 40.9936 160.9179 29.9820 0.0000 10.2782 0.0000
# 3 9.7251 29.9820 109.1040 0.0000 13.6819 0.0000
# 4 0.0000 0.0000 0.0000 3.0291 0.0000 10.7178
# 5 3.4462 10.2782 13.6819 0.0000 22.3576 0.0000
# 6 0.0000 0.0000 0.0000 10.7178 0.0000 29.4314
#
#
#
# Elastic Compliance Matrix: (Units=1/GPa)
#
#
# Indices 1 2 3 4 5 6 
#
# 1 0.017507 -0.004373 -0.000295 0.000000 -0.000508 0.000000
# 2 -0.004373 0.007731 -0.001488 0.000000 -0.001970 0.000000
# 3 -0.000295 -0.001488 0.010300 0.000000 -0.005573 0.000000
# 4 0.000000 0.000000 0.000000 -1.144329 0.000000 0.416722
# 5 -0.000508 -0.001970 -0.005573 0.000000 0.049122 0.000000
# 6 0.000000 0.000000 0.000000 0.416722 0.000000 -0.117777
#
#
# Mechanical properties :
#
#
# Convention : Reuss Voigt Hill
#
# Bulk Modulus (GPa) = 43.05310 55.44933 49.25121
# Shear Modulus (GPa) = -4.32006 28.09309 11.88652
#
# Velocity S-wave (km/s) = -1.39900 3.56757 2.32060
# Velocity P-wave (km/s) = 4.11043 6.48779 5.43079
#
# Compressibility (1/GPa) = 0.02322713
#
# Stress axis : x y z
#
# Youngs Moduli (GPa) = 57.11840 129.34485 97.09048
#
# Poissons Ratio (x) = 0.56557 0.02867
# Poissons Ratio (y) = 0.24975 0.14445
# Poissons Ratio (z) = 0.01687 0.19244
#
# Static dielectric constant tensor:
#      x y z
#    x 1.835820 0.000000 -0.044190 
#    y 0.000000 1.832740 0.000000 
#    z -0.044190 0.000000 1.752960 
# 
# From -- ./inp_files/75505.got.cif
#   From: 2010.05.17/outbox.cif.g08.bks.cpg/sg10_38_cif.got.tgz:75505.got - 2010.06.03 11:33:40.
