data_PCOD9151364
_publ_section_title
;
Structure prediction by ZEFSAII (Michael W. Deem and Ramdas Pophale) SiO2 
 PCOD9151364
Probable space group: P 2/M
;
_chemical_formula_sum "Si O2"
_cell_formula_units_Z 32
_cell_length_a 14.495908
_cell_length_b 8.383640
_cell_length_c 25.132989
_cell_angle_alpha 90.000000
_cell_angle_beta 30.485154
_cell_angle_gamma 90.000000
_cell_volume 1549.529915
_symmetry_space_group_name_H-M "P 2/M"
_symmetry_group_IT_number 10
_symmetry_cell_setting 'monoclinic'
loop_
_space_group_symop_operation_xyz
x,y,z
-x,y,-z
-x,-y,-z
x,-y,z
loop_
_atom_site_type_symbol
_atom_site_label
_atom_site_fract_x
_atom_site_fract_y
_atom_site_fract_z
Si Si1 0.166237 0.685206 0.291129
Si Si2 0.905043 0.193019 0.101438
Si Si3 0.985657 0.193045 0.838876
Si Si4 0.791302 0.188531 0.616954
Si Si5 0.792124 0.820358 0.458644
Si Si6 0.708038 0.307424 0.887829
Si Si7 0.497216 0.687410 0.324259
Si Si8 0.689219 0.814884 0.390212
O O1 0.216785 0.500000 0.270077
O O2 0.242650 0.775936 0.304164
O O3 0.226609 0.747663 0.203142
O O4 0.948062 0.704383 0.401554
O O5 0.698207 0.251216 0.210870
O O6 0.019867 0.240803 0.096803
O O7 0.899660 0.000000 0.103057
O O8 0.000000 0.248879 0.000000
O O9 0.830955 0.249336 0.875557
O O10 0.178335 0.254306 0.719568
O O11 0.988990 0.000000 0.834702
O O12 0.643913 0.274792 0.653342
O O13 0.000000 0.237775 0.500000
O O14 0.777574 0.000000 0.613646
O O15 0.595627 0.774746 0.579130
O O16 0.794271 0.818061 0.393965
O O17 0.836947 0.000000 0.454323
O O18 0.718827 0.500000 0.881872
O O19 0.500000 0.259462 0.000000
O O20 0.503168 0.500000 0.331402
O O21 0.500000 0.734771 0.500000
O O22 0.649802 0.000000 0.393958
#
# Coordination Sequence:
#
# PCOD9151364 Si02
#       8
#     4   4   4   4   4   4   4   4
#     4  11  22  37  59  87 121 159 202 253 309 368
#     4  10  23  44  68  93 124 163 211 265 312 360
#     4  10  20  38  64  92 121 158 206 257 306 358
#     4  11  23  39  62  89 122 166 210 257 313 372
#     4  11  20  34  58  86 122 160 199 249 307 368
#     4  10  23  42  62  88 127 169 205 248 307 370
#     4  12  25  40  62  92 127 166 208 256 311 375
#     4   9  17  30  53  85 118 154 195 242 300 362
#
# _framework density 20.651423999999999
#
# number of rings (size 3 to 8) (size 9 to 14) (size 15 to 20)
#    0.000    1.500    2.500    3.000    0.000    5.000 
#    0.000    2.500    0.000    1.875    0.000    0.000 
#    0.000    0.000    0.000    0.000    0.000    0.000 
#
# Total GULP energy -178756.516133 kJ/mol
# GULP energy per Si atom -5586.141129 kJ/mol
# Density = 2.060442 g / cm^3
# Si number density = 20.651424 Si / 1000 Ang^3
#
#
#
# Elastic Constant Matrix: (Units=GPa)
#
#
# Indices 1 2 3 4 5 6 
#
# 1 105.7410 9.9774 54.2613 0.0000 22.7264 0.0000
# 2 9.9774 24.3687 7.0196 0.0000 9.1189 0.0000
# 3 54.2613 7.0196 127.4327 0.0000 19.0234 0.0000
# 4 0.0000 0.0000 0.0000 20.1895 0.0000 -1.9510
# 5 22.7264 9.1189 19.0234 0.0000 37.9470 0.0000
# 6 0.0000 0.0000 0.0000 -1.9510 0.0000 35.5294
#
#
#
# Elastic Compliance Matrix: (Units=1/GPa)
#
#
# Indices 1 2 3 4 5 6 
#
# 1 0.013167 -0.002158 -0.004743 0.000000 -0.004989 0.000000
# 2 -0.002158 0.045548 -0.000161 0.000000 -0.009572 0.000000
# 3 -0.004743 -0.000161 0.010210 0.000000 -0.002239 0.000000
# 4 0.000000 0.000000 0.000000 0.049795 0.000000 0.002734
# 5 -0.004989 -0.009572 -0.002239 0.000000 0.032764 0.000000
# 6 0.000000 0.000000 0.000000 0.002734 0.000000 0.028296
#
#
# Mechanical properties :
#
#
# Convention : Reuss Voigt Hill
#
# Bulk Modulus (GPa) = 18.24769 44.45099 31.34934
# Shear Modulus (GPa) = 23.56603 31.15212 27.35907
#
# Velocity S-wave (km/s) = 3.38173 3.88812 3.64373
# Velocity P-wave (km/s) = 4.90952 6.45970 5.73721
#
# Compressibility (1/GPa) = 0.05480145
#
# Stress axis : x y z
#
# Youngs Moduli (GPa) = 75.94861 21.95479 97.94385
#
# Poissons Ratio (x) = 0.04737 0.46453
# Poissons Ratio (y) = 0.16387 0.01580
# Poissons Ratio (z) = 0.36021 0.00354
#
# Static dielectric constant tensor:
#      x y z
#    x 1.745940 0.000000 0.015730 
#    y 0.000000 1.712470 0.000000 
#    z 0.015730 0.000000 1.744600 
# 
# From -- ./inp_files/89520.got.cif
#   From: 2010.05.17/outbox.cif.g08.bks.cpg/sg10_45_cif.got.tgz:89520.got - 2010.06.03 11:33:40.
