data_PCOD9151914
_publ_section_title
;
Structure prediction by ZEFSAII (Michael W. Deem and Ramdas Pophale) SiO2 
 PCOD9151914
Probable space group: P 2/M
;
_chemical_formula_sum "Si O2"
_cell_formula_units_Z 28
_cell_length_a 10.587633
_cell_length_b 12.080517
_cell_length_c 18.650503
_cell_angle_alpha 90.000000
_cell_angle_beta 141.329233
_cell_angle_gamma 90.000000
_cell_volume 1490.550944
_symmetry_space_group_name_H-M "P 2/M"
_symmetry_group_IT_number 10
_symmetry_cell_setting 'monoclinic'
loop_
_space_group_symop_operation_xyz
x,y,z
-x,y,-z
-x,-y,-z
x,-y,z
loop_
_atom_site_type_symbol
_atom_site_label
_atom_site_fract_x
_atom_site_fract_y
_atom_site_fract_z
Si Si1 0.274466 0.500000 0.551897
Si Si2 0.662551 0.132269 0.515033
Si Si3 0.883943 0.868264 0.242716
Si Si4 0.058191 0.372120 0.109087
Si Si5 0.386014 0.267654 0.785417
Si Si6 0.691171 0.704218 0.040223
Si Si7 0.513239 0.717225 0.677561
Si Si8 0.182630 0.500000 0.682617
O O1 0.405813 0.608758 0.596943
O O2 0.224764 0.500000 0.615461
O O3 0.059465 0.500000 0.416436
O O4 0.500000 0.173271 0.500000
O O5 0.588885 0.181336 0.407915
O O6 0.883944 0.162692 0.640781
O O7 0.657374 0.000000 0.509508
O O8 0.769649 0.828430 0.263796
O O9 0.787302 0.796098 0.135537
O O10 0.865376 0.000000 0.222252
O O11 0.128780 0.500000 0.137665
O O12 0.245307 0.297448 0.218149
O O13 0.871796 0.363645 0.082463
O O14 0.000000 0.344485 0.000000
O O15 0.454461 0.274751 0.734565
O O16 0.282661 0.387418 0.756362
O O17 0.576519 0.246561 0.920673
O O18 0.500000 0.651772 0.000000
#
# Coordination Sequence:
#
# PCOD9151914 Si02
#       8
#     2   4   4   4   4   4   4   2
#     4   9  18  32  53  85 115 165 181 236 305 361
#     4  10  22  40  63  82 112 161 205 253 307 363
#     4  10  22  42  62  85 120 165 209 249 305 364
#     4  11  22  37  63  91 126 164 201 249 303 368
#     4  10  21  35  59  92 118 161 197 250 300 361
#     4  10  22  39  60  90 121 164 203 248 306 356
#     4  11  20  37  62  89 124 150 202 249 305 358
#     4   9  18  32  52  80 127 152 197 234 299 361
#
# _framework density 18.785001000000001
#
# number of rings (size 3 to 8) (size 9 to 14) (size 15 to 20)
#    0.000    1.857    2.143    1.714    1.000    5.143 
#    3.857    1.786    0.000    0.857    0.000    0.000 
#    0.000    0.000    0.000    0.000    0.000    0.000 
#
# Total GULP energy -156053.805562 kJ/mol
# GULP energy per Si atom -5573.350199 kJ/mol
# Density = 1.874225 g / cm^3
# Si number density = 18.785001 Si / 1000 Ang^3
#
#
#
# Elastic Constant Matrix: (Units=GPa)
#
#
# Indices 1 2 3 4 5 6 
#
# 1 79.7681 15.1594 41.0335 0.0000 9.0198 0.0000
# 2 15.1594 27.8615 35.8229 0.0000 2.9138 0.0000
# 3 41.0335 35.8229 128.8934 0.0000 15.3914 0.0000
# 4 0.0000 0.0000 0.0000 15.4064 0.0000 4.4586
# 5 9.0198 2.9138 15.3914 0.0000 27.6475 0.0000
# 6 0.0000 0.0000 0.0000 4.4586 0.0000 23.5584
#
#
#
# Elastic Compliance Matrix: (Units=1/GPa)
#
#
# Indices 1 2 3 4 5 6 
#
# 1 0.015346 -0.003419 -0.003621 0.000000 -0.002630 0.000000
# 2 -0.003419 0.056837 -0.015132 0.000000 0.003549 0.000000
# 3 -0.003621 -0.015132 0.013696 0.000000 -0.004848 0.000000
# 4 0.000000 0.000000 0.000000 0.068669 0.000000 -0.012996
# 5 -0.002630 0.003549 -0.004848 0.000000 0.039353 0.000000
# 6 0.000000 0.000000 0.000000 -0.012996 0.000000 0.044907
#
#
# Mechanical properties :
#
#
# Convention : Reuss Voigt Hill
#
# Bulk Modulus (GPa) = 24.07621 46.72831 35.40226
# Shear Modulus (GPa) = 16.83520 22.95627 19.89573
#
# Velocity S-wave (km/s) = 2.99691 3.49958 3.25796
# Velocity P-wave (km/s) = 4.98196 6.42330 5.74798
#
# Compressibility (1/GPa) = 0.04153478
#
# Stress axis : x y z
#
# Youngs Moduli (GPa) = 65.16232 17.59429 73.01581
#
# Poissons Ratio (x) = 0.06015 0.26441
# Poissons Ratio (y) = 0.22278 1.10486
# Poissons Ratio (z) = 0.23597 0.26623
#
# Static dielectric constant tensor:
#      x y z
#    x 1.690210 0.000000 0.015430 
#    y 0.000000 1.678790 0.000000 
#    z 0.015430 0.000000 1.657140 
# 
# From -- ./inp_files/84018.got.cif
#   From: 2010.05.17/outbox.cif.g08.bks.cpg/sg10_43_cif.got.tgz:84018.got - 2010.06.03 11:33:40.
