data_PCOD9151398
_publ_section_title
;
Structure prediction by ZEFSAII (Michael W. Deem and Ramdas Pophale) SiO2 
 PCOD9151398
Probable space group: P 2/M
;
_chemical_formula_sum "Si O2"
_cell_formula_units_Z 22
_cell_length_a 15.437031
_cell_length_b 12.609362
_cell_length_c 5.378795
_cell_angle_alpha 90.000000
_cell_angle_beta 64.641449
_cell_angle_gamma 90.000000
_cell_volume 946.106233
_symmetry_space_group_name_H-M "P 2/M"
_symmetry_group_IT_number 10
_symmetry_cell_setting 'monoclinic'
loop_
_space_group_symop_operation_xyz
x,y,z
-x,y,-z
-x,-y,-z
x,-y,z
loop_
_atom_site_type_symbol
_atom_site_label
_atom_site_fract_x
_atom_site_fract_y
_atom_site_fract_z
Si Si1 0.437572 0.879079 0.830048
Si Si2 0.806693 0.121257 0.464262
Si Si3 0.306139 0.272416 0.726066
Si Si4 0.692061 0.500000 0.291480
Si Si5 0.814971 0.500000 0.637173
Si Si6 0.000000 0.186993 0.000000
Si Si7 0.117343 0.712387 0.246017
O O1 0.500000 0.872810 0.500000
O O2 0.357922 0.790512 0.882355
O O3 0.399646 0.000000 0.888757
O O4 0.500000 0.861155 0.000000
O O5 0.717763 0.186468 0.457433
O O6 0.901898 0.123795 0.170195
O O7 0.844426 0.185330 0.654368
O O8 0.781102 0.000000 0.541220
O O9 0.357720 0.384471 0.609574
O O10 0.199087 0.306083 0.936169
O O11 0.768758 0.500000 0.422812
O O12 0.733148 0.500000 0.956545
O O13 0.876246 0.605653 0.604181
O O14 0.022365 0.258674 0.212245
#
# Coordination Sequence:
#
# PCOD9151398 Si02
#       7
#     4   4   4   2   2   2   4
#     4  10  23  41  63  93 132 167 200 252 307 361
#     4  11  22  37  60  85 118 161 207 256 309 373
#     4  10  22  40  63  91 120 161 209 253 305 375
#     4  10  20  38  66  91 123 158 202 261 311 354
#     4  10  20  39  61  90 122 160 206 259 309 361
#     4  10  23  39  52  86 124 159 199 264 314 366
#     4  10  22  38  61  85 120 160 210 253 312 366
#
# _framework density 23.253204
#
# number of rings (size 3 to 8) (size 9 to 14) (size 15 to 20)
#    0.000    1.818    1.818    1.364    2.545    5.455 
#    0.000    3.636    0.000    0.000    0.000    0.000 
#    0.000    0.000    0.000    0.000    0.000    0.000 
#
# Total GULP energy -122822.913895 kJ/mol
# GULP energy per Si atom -5582.859723 kJ/mol
# Density = 2.320028 g / cm^3
# Si number density = 23.253204 Si / 1000 Ang^3
#
#
#
# Elastic Constant Matrix: (Units=GPa)
#
#
# Indices 1 2 3 4 5 6 
#
# 1 84.9432 65.5013 28.9859 0.0000 29.9013 0.0000
# 2 65.5013 211.2327 31.0902 0.0000 42.6982 0.0000
# 3 28.9859 31.0902 92.3854 0.0000 25.6898 0.0000
# 4 0.0000 0.0000 0.0000 19.2470 0.0000 13.0901
# 5 29.9013 42.6982 25.6898 0.0000 52.6763 0.0000
# 6 0.0000 0.0000 0.0000 13.0901 0.0000 27.3006
#
#
#
# Elastic Compliance Matrix: (Units=1/GPa)
#
#
# Indices 1 2 3 4 5 6 
#
# 1 0.017696 -0.003978 -0.002680 0.000000 -0.005513 0.000000
# 2 -0.003978 0.006599 -0.000131 0.000000 -0.003027 0.000000
# 3 -0.002680 -0.000131 0.013023 0.000000 -0.004724 0.000000
# 4 0.000000 0.000000 0.000000 0.077098 0.000000 -0.036967
# 5 -0.005513 -0.003027 -0.004724 0.000000 0.026870 0.000000
# 6 0.000000 0.000000 0.000000 -0.036967 0.000000 0.054354
#
#
# Mechanical properties :
#
#
# Convention : Reuss Voigt Hill
#
# Bulk Modulus (GPa) = 42.12594 71.07956 56.60275
# Shear Modulus (GPa) = 23.02760 37.37704 30.20232
#
# Velocity S-wave (km/s) = 3.15031 4.01358 3.60786
# Velocity P-wave (km/s) = 5.60251 7.21889 6.46145
#
# Compressibility (1/GPa) = 0.02373834
#
# Stress axis : x y z
#
# Youngs Moduli (GPa) = 56.51131 151.54136 76.78926
#
# Poissons Ratio (x) = 0.60289 0.20581
# Poissons Ratio (y) = 0.22482 0.01004
# Poissons Ratio (z) = 0.15146 0.01982
#
# Static dielectric constant tensor:
#      x y z
#    x 1.852690 0.000000 -0.079030 
#    y 0.000000 1.902090 0.000000 
#    z -0.079030 0.000000 1.975430 
# 
# From -- ./inp_files/8903.got.cif
#   From: 2010.05.17/outbox.cif.g08.bks.cpg/sg10_5_cif.got.tgz:8903.got - 2010.06.03 11:33:40.
