data_PCOD9151508
_publ_section_title
;
Structure prediction by ZEFSAII (Michael W. Deem and Ramdas Pophale) SiO2 
 PCOD9151508
Probable space group: P 2/M
;
_chemical_formula_sum "Si O2"
_cell_formula_units_Z 19
_cell_length_a 15.379944
_cell_length_b 9.691927
_cell_length_c 21.286431
_cell_angle_alpha 90.000000
_cell_angle_beta 163.285428
_cell_angle_gamma 90.000000
_cell_volume 912.562950
_symmetry_space_group_name_H-M "P 2/M"
_symmetry_group_IT_number 10
_symmetry_cell_setting 'monoclinic'
loop_
_space_group_symop_operation_xyz
x,y,z
-x,y,-z
-x,-y,-z
x,-y,z
loop_
_atom_site_type_symbol
_atom_site_label
_atom_site_fract_x
_atom_site_fract_y
_atom_site_fract_z
Si Si1 0.749709 0.500000 0.119254
Si Si2 0.441502 0.500000 0.639475
Si Si3 0.222569 0.500000 0.261404
Si Si4 0.892960 0.000000 0.846460
Si Si5 0.252992 0.739875 0.072544
Si Si6 0.500000 0.000000 0.000000
Si Si7 0.683103 0.797641 0.021010
Si Si8 0.208806 0.000000 0.374910
O O1 0.697997 0.637390 0.044474
O O2 0.091302 0.500000 0.380423
O O3 0.500000 0.500000 0.000000
O O4 0.650427 0.500000 0.721680
O O5 0.525649 0.639010 0.736203
O O6 0.500000 0.500000 0.500000
O O7 0.020991 0.635105 0.133748
O O8 0.550592 0.000000 0.634837
O O9 0.824015 0.000000 0.723333
O O10 0.093579 0.134399 0.998213
O O11 0.389297 0.806295 0.103241
O O12 0.481589 0.120300 0.931499
O O13 0.013040 0.868158 0.260587
#
# Coordination Sequence:
#
# PCOD9151508 Si02
#       8
#     2   2   2   2   4   1   4   2
#     4  12  24  41  68  92 113 167 237 279 324 389
#     4  11  25  44  62  95 141 172 213 280 336 394
#     4  11  23  39  66  95 133 183 219 262 322 400
#     4   9  18  32  59  93 133 173 216 244 314 397
#     4  10  21  39  62  97 140 173 211 265 337 395
#     4  10  20  40  70  92 132 166 226 292 320 378
#     4  10  20  39  65  95 126 169 225 278 327 374
#     4   8  18  32  57  94 127 171 216 268 303 373
#
# _framework density 20.820481000000001
#
# number of rings (size 3 to 8) (size 9 to 14) (size 15 to 20)
#    0.000    1.895    1.053    4.421    8.842    0.000 
#    0.000    6.316    0.000    1.263    0.000    0.000 
#    0.000    0.000    0.000    0.000    0.000    0.000 
#
# Total GULP energy -105799.273862 kJ/mol
# GULP energy per Si atom -5568.382835 kJ/mol
# Density = 2.077309 g / cm^3
# Si number density = 20.820481 Si / 1000 Ang^3
#
#
#
# Elastic Constant Matrix: (Units=GPa)
#
#
# Indices 1 2 3 4 5 6 
#
# 1 119.3826 12.4602 -10.4685 0.0000 -8.2509 0.0000
# 2 12.4602 143.4198 -15.0612 0.0000 -3.2072 0.0000
# 3 -10.4685 -15.0612 9.6509 0.0000 -8.0865 0.0000
# 4 0.0000 0.0000 0.0000 36.7363 0.0000 -47.0338
# 5 -8.2509 -3.2072 -8.0865 0.0000 22.8559 0.0000
# 6 0.0000 0.0000 0.0000 -47.0338 0.0000 64.8117
#
#
#
# Elastic Compliance Matrix: (Units=1/GPa)
#
#
# Indices 1 2 3 4 5 6 
#
# 1 0.011638 0.002301 0.028436 0.000000 0.014585 0.000000
# 2 0.002301 0.010039 0.028484 0.000000 0.012317 0.000000
# 3 0.028436 0.028484 0.271289 0.000000 0.110245 0.000000
# 4 0.000000 0.000000 0.000000 0.384036 0.000000 0.278694
# 5 0.014585 0.012317 0.110245 0.000000 0.089751 0.000000
# 6 0.000000 0.000000 0.000000 0.278694 0.000000 0.217678
#
#
# Mechanical properties :
#
#
# Convention : Reuss Voigt Hill
#
# Bulk Modulus (GPa) = 2.43068 27.36826 14.89947
# Shear Modulus (GPa) = 4.98443 43.91563 24.45003
#
# Velocity S-wave (km/s) = 1.54893 4.59764 3.43056
# Velocity P-wave (km/s) = 2.09019 6.43100 4.78156
#
# Compressibility (1/GPa) = 0.41140796
#
# Stress axis : x y z
#
# Youngs Moduli (GPa) = 85.92744 99.60845 3.68610
#
# Poissons Ratio (x) = -0.22922 -0.10482
# Poissons Ratio (y) = -0.19774 -0.10500
# Poissons Ratio (z) = -2.44339 -2.83727
#
# Static dielectric constant tensor:
#      x y z
#    x 1.811760 0.000000 0.030200 
#    y 0.000000 1.728880 0.000000 
#    z 0.030200 0.000000 1.677560 
# 
# From -- ./inp_files/84884.got.cif
#   From: 2010.05.17/outbox.cif.g08.bks.cpg/sg10_43_cif.got.tgz:84884.got - 2010.06.03 11:33:40.
