data_PCOD9151284
_publ_section_title
;
Structure prediction by ZEFSAII (Michael W. Deem and Ramdas Pophale) SiO2 
 PCOD9151284
Probable space group: P 2/M
;
_chemical_formula_sum "Si O2"
_cell_formula_units_Z 14
_cell_length_a 7.994675
_cell_length_b 17.167020
_cell_length_c 8.080511
_cell_angle_alpha 90.000000
_cell_angle_beta 35.775841
_cell_angle_gamma 90.000000
_cell_volume 648.343227
_symmetry_space_group_name_H-M "P 2/M"
_symmetry_group_IT_number 10
_symmetry_cell_setting 'monoclinic'
loop_
_space_group_symop_operation_xyz
x,y,z
-x,y,-z
-x,-y,-z
x,-y,z
loop_
_atom_site_type_symbol
_atom_site_label
_atom_site_fract_x
_atom_site_fract_y
_atom_site_fract_z
Si Si1 0.182635 0.500000 0.185530
Si Si2 0.820321 0.330551 0.811340
Si Si3 0.324833 0.087825 0.298917
Si Si4 0.804806 0.795961 0.303410
O O1 0.150729 0.415857 0.126148
O O2 0.000000 0.500000 0.500000
O O3 0.500000 0.500000 0.000000
O O4 0.000000 0.333928 0.500000
O O5 0.970410 0.264580 0.798712
O O6 0.500000 0.316077 0.000000
O O7 0.307118 0.141382 0.473500
O O8 0.000000 0.082365 0.500000
O O9 0.433976 0.000000 0.246606
O O10 0.500000 0.119292 0.000000
O O11 0.500000 0.756518 0.500000
O O12 0.000000 0.832211 0.000000
#
# Coordination Sequence:
#
# PCOD9151284 Si02
#       4
#     2   4   4   4
#     4   8  16  32  58  86 108 148 209 258 287 334
#     4  10  20  38  62  85 116 160 209 250 292 354
#     4  10  22  42  66  88 113 156 210 252 293 356
#     4  12  25  38  57  92 131 160 193 247 315 368
#
# _framework density 21.593499999999999
#
# number of rings (size 3 to 8) (size 9 to 14) (size 15 to 20)
#    0.000    1.714    0.000    4.286    0.000    3.429 
#    0.000    1.429    0.000    0.000    0.000    0.000 
#    0.000    0.000    0.000    0.000    0.000    0.000 
#
# Total GULP energy -78072.430801 kJ/mol
# GULP energy per Si atom -5576.602200 kJ/mol
# Density = 2.154435 g / cm^3
# Si number density = 21.593500 Si / 1000 Ang^3
#
#
#
# Elastic Constant Matrix: (Units=GPa)
#
#
# Indices 1 2 3 4 5 6 
#
# 1 68.4695 48.3521 45.2839 0.0000 -10.9183 0.0000
# 2 48.3521 125.2694 39.4580 0.0000 15.8006 0.0000
# 3 45.2839 39.4580 190.9823 0.0000 -7.4655 0.0000
# 4 0.0000 0.0000 0.0000 24.3437 0.0000 -9.5693
# 5 -10.9183 15.8006 -7.4655 0.0000 45.3560 0.0000
# 6 0.0000 0.0000 0.0000 -9.5693 0.0000 -17.8400
#
#
#
# Elastic Compliance Matrix: (Units=1/GPa)
#
#
# Indices 1 2 3 4 5 6 
#
# 1 0.025312 -0.009744 -0.003641 0.000000 0.008888 0.000000
# 2 -0.009744 0.012806 -0.000605 0.000000 -0.006906 0.000000
# 3 -0.003641 -0.000605 0.006239 0.000000 0.000361 0.000000
# 4 0.000000 0.000000 0.000000 0.033925 0.000000 -0.018197
# 5 0.008888 -0.006906 0.000361 0.000000 0.026653 0.000000
# 6 0.000000 0.000000 0.000000 -0.018197 0.000000 -0.046293
#
#
# Mechanical properties :
#
#
# Convention : Reuss Voigt Hill
#
# Bulk Modulus (GPa) = 61.06852 72.32325 66.69588
# Shear Modulus (GPa) = 54.30035 27.14709 40.72372
#
# Velocity S-wave (km/s) = 5.02008 3.54953 4.34744
# Velocity P-wave (km/s) = 7.87045 7.09681 7.49362
#
# Compressibility (1/GPa) = 0.01637505
#
# Stress axis : x y z
#
# Youngs Moduli (GPa) = 39.50745 78.09044 160.29298
#
# Poissons Ratio (x) = 0.76093 0.58363
# Poissons Ratio (y) = 0.38497 0.09702
# Poissons Ratio (z) = 0.14385 0.04726
#
# Static dielectric constant tensor:
#      x y z
#    x 1.768610 0.000000 -0.000610 
#    y 0.000000 1.933430 0.000000 
#    z -0.000610 0.000000 1.719900 
# 
# From -- ./inp_files/19172.got.cif
#   From: 2010.05.17/outbox.cif.g08.bks.cpg/sg10_10_cif.got.tgz:19172.got - 2010.06.03 11:33:40.
