data_PCOD9151609
_publ_section_title
;
Structure prediction by ZEFSAII (Michael W. Deem and Ramdas Pophale) SiO2 
 PCOD9151609
Probable space group: P 2/M
;
_chemical_formula_sum "Si O2"
_cell_formula_units_Z 22
_cell_length_a 6.961824
_cell_length_b 14.942509
_cell_length_c 9.827648
_cell_angle_alpha 90.000000
_cell_angle_beta 106.275536
_cell_angle_gamma 90.000000
_cell_volume 981.371588
_symmetry_space_group_name_H-M "P 2/M"
_symmetry_group_IT_number 10
_symmetry_cell_setting 'monoclinic'
loop_
_space_group_symop_operation_xyz
x,y,z
-x,y,-z
-x,-y,-z
x,-y,z
loop_
_atom_site_type_symbol
_atom_site_label
_atom_site_fract_x
_atom_site_fract_y
_atom_site_fract_z
Si Si1 0.749520 0.500000 0.389811
Si Si2 0.736645 0.500000 0.702082
Si Si3 0.559192 0.000000 0.207528
Si Si4 0.754995 0.666061 0.204972
Si Si5 0.272662 0.333928 0.113191
Si Si6 0.820840 0.127586 0.863178
Si Si7 0.917957 0.141602 0.331192
O O1 0.803197 0.500000 0.558972
O O2 0.506242 0.500000 0.342872
O O3 0.812674 0.587750 0.319591
O O4 0.793401 0.410317 0.794900
O O5 0.727458 0.077779 0.273809
O O6 0.616449 0.076949 0.855392
O O7 0.513805 0.671616 0.165890
O O8 0.852259 0.759748 0.267720
O O9 0.791895 0.644478 0.053763
O O10 0.204243 0.233951 0.131649
O O11 0.901544 0.107830 0.728815
O O12 0.000000 0.101730 0.000000
O O13 0.000000 0.144009 0.500000
#
# Coordination Sequence:
#
# PCOD9151609 Si02
#       7
#     2   2   2   4   4   4   4
#     4   9  19  35  67 107 145 191 244 281 354 432
#     4   9  19  35  67 109 141 192 244 286 348 438
#     4  12  28  54  76 106 144 190 240 304 370 424
#     4  10  20  42  67 103 146 195 235 296 356 421
#     4  10  20  41  69 102 147 192 238 293 361 418
#     4  12  26  47  75 111 142 187 241 298 363 433
#     4  12  28  47  73 107 148 188 243 297 359 435
#
# _framework density 22.417604000000001
#
# number of rings (size 3 to 8) (size 9 to 14) (size 15 to 20)
#    0.000    1.273    3.636    1.636    2.545    5.091 
#    0.000    1.818    0.000    0.000    0.000    0.000 
#    0.000    0.000    0.000    0.000    0.000    0.000 
#
# Total GULP energy -122678.273640 kJ/mol
# GULP energy per Si atom -5576.285165 kJ/mol
# Density = 2.236658 g / cm^3
# Si number density = 22.417604 Si / 1000 Ang^3
#
#
#
# Elastic Constant Matrix: (Units=GPa)
#
#
# Indices 1 2 3 4 5 6 
#
# 1 103.4476 37.3821 35.3956 0.0000 22.4056 0.0000
# 2 37.3821 203.7599 64.1123 0.0000 -3.7218 0.0000
# 3 35.3956 64.1123 139.0352 0.0000 -22.2222 0.0000
# 4 0.0000 0.0000 0.0000 175.2485 0.0000 51.0883
# 5 22.4056 -3.7218 -22.2222 0.0000 33.0209 0.0000
# 6 0.0000 0.0000 0.0000 51.0883 0.0000 -18.5651
#
#
#
# Elastic Compliance Matrix: (Units=1/GPa)
#
#
# Indices 1 2 3 4 5 6 
#
# 1 0.015052 -0.001294 -0.005481 0.000000 -0.014047 0.000000
# 2 -0.001294 0.005900 -0.002403 0.000000 -0.000075 0.000000
# 3 -0.005481 -0.002403 0.011482 0.000000 0.011175 0.000000
# 4 0.000000 0.000000 0.000000 0.003166 0.000000 0.008713
# 5 -0.014047 -0.000075 0.011175 0.000000 0.047327 0.000000
# 6 0.000000 0.000000 0.000000 0.008713 0.000000 -0.029888
#
#
# Mechanical properties :
#
#
# Convention : Reuss Voigt Hill
#
# Bulk Modulus (GPa) = 71.02773 80.00251 75.51512
# Shear Modulus (GPa) = 65.71429 58.56438 62.13934
#
# Velocity S-wave (km/s) = 5.42009 5.11674 5.27059
# Velocity P-wave (km/s) = 8.42155 8.40671 8.41413
#
# Compressibility (1/GPa) = 0.01407901
#
# Stress axis : x y z
#
# Youngs Moduli (GPa) = 66.43681 169.49619 87.09348
#
# Poissons Ratio (x) = 0.21926 0.47732
# Poissons Ratio (y) = 0.08594 0.20930
# Poissons Ratio (z) = 0.36411 0.40732
#
# Static dielectric constant tensor:
#      x y z
#    x 1.844740 0.000000 -0.042240 
#    y 0.000000 1.816540 0.000000 
#    z -0.042240 0.000000 1.828530 
# 
# From -- ./inp_files/18577.got.cif
#   From: 2010.05.17/outbox.cif.g08.bks.cpg/sg10_10_cif.got.tgz:18577.got - 2010.06.03 11:33:40.
