data_PCOD9151147
_publ_section_title
;
Structure prediction by ZEFSAII (Michael W. Deem and Ramdas Pophale) SiO2 
 PCOD9151147
Probable space group: P 2/M
;
_chemical_formula_sum "Si O2"
_cell_formula_units_Z 20
_cell_length_a 13.158796
_cell_length_b 15.182538
_cell_length_c 10.114247
_cell_angle_alpha 90.000000
_cell_angle_beta 154.386409
_cell_angle_gamma 90.000000
_cell_volume 873.532321
_symmetry_space_group_name_H-M "P 2/M"
_symmetry_group_IT_number 10
_symmetry_cell_setting 'monoclinic'
loop_
_space_group_symop_operation_xyz
x,y,z
-x,y,-z
-x,-y,-z
x,-y,z
loop_
_atom_site_type_symbol
_atom_site_label
_atom_site_fract_x
_atom_site_fract_y
_atom_site_fract_z
Si Si1 0.946510 0.661029 0.578553
Si Si2 0.238759 0.596232 0.364294
Si Si3 0.886767 0.903767 0.012298
Si Si4 0.411618 0.249999 0.234847
Si Si5 0.314462 0.161027 0.682418
O O1 0.821367 0.609036 0.550629
O O2 0.791834 0.750000 0.375505
O O3 0.000000 0.617536 0.500000
O O4 0.195649 0.692820 0.926589
O O5 0.350645 0.500000 0.476598
O O6 0.393460 0.678073 0.499602
O O7 0.000000 0.598449 0.000000
O O8 0.092095 0.890963 0.362830
O O9 0.775303 0.000000 0.901251
O O10 0.712674 0.821927 0.818813
O O11 0.000000 0.901551 0.000000
O O12 0.535292 0.192816 0.266231
O O13 0.500000 0.117534 0.000000
#
# Coordination Sequence:
#
# PCOD9151147 Si02
#       5
#     4   4   4   4   4
#     4  10  20  37  64  96 131 176 227 275 327 397
#     4  10  24  43  64  99 138 172 225 285 336 403
#     4  10  24  43  64  99 138 172 225 285 336 403
#     4  10  22  41  70  92 131 182 218 264 341 404
#     4  10  20  37  64  96 131 176 227 275 327 397
#
# _framework density 22.895546
#
# number of rings (size 3 to 8) (size 9 to 14) (size 15 to 20)
#    0.000    2.000    2.000    0.000    0.000   12.800 
#    0.000    6.000    0.000    1.200    0.000    0.000 
#    0.000    0.000    0.000    0.000    0.000    0.000 
#
# Total GULP energy -111808.506347 kJ/mol
# GULP energy per Si atom -5590.425317 kJ/mol
# Density = 2.284343 g / cm^3
# Si number density = 22.895546 Si / 1000 Ang^3
#
#
#
# Elastic Constant Matrix: (Units=GPa)
#
#
# Indices 1 2 3 4 5 6 
#
# 1 122.0432 51.7592 7.0867 0.0000 -1.0800 0.0000
# 2 51.7592 164.0698 52.3760 0.0000 1.1037 0.0000
# 3 7.0867 52.3760 114.7928 0.0000 -11.9129 0.0000
# 4 0.0000 0.0000 0.0000 1.8977 0.0000 -0.4347
# 5 -1.0800 1.1037 -11.9129 0.0000 37.7864 0.0000
# 6 0.0000 0.0000 0.0000 -0.4347 0.0000 2.1483
#
#
#
# Elastic Compliance Matrix: (Units=1/GPa)
#
#
# Indices 1 2 3 4 5 6 
#
# 1 0.009558 -0.003341 0.001006 0.000000 0.000688 0.000000
# 2 -0.003341 0.008362 -0.003768 0.000000 -0.001528 0.000000
# 3 0.001006 -0.003768 0.010734 0.000000 0.003523 0.000000
# 4 0.000000 0.000000 0.000000 0.552573 0.000000 0.111817
# 5 0.000688 -0.001528 0.003523 0.000000 0.027640 0.000000
# 6 0.000000 0.000000 0.000000 0.111817 0.000000 0.488107
#
#
# Mechanical properties :
#
#
# Convention : Reuss Voigt Hill
#
# Bulk Modulus (GPa) = 60.79595 69.26107 65.02851
# Shear Modulus (GPa) = 4.48566 27.67873 16.08220
#
# Velocity S-wave (km/s) = 1.40123 3.48072 2.65319
# Velocity P-wave (km/s) = 5.40640 6.81692 6.15222
#
# Compressibility (1/GPa) = 0.01644847
#
# Stress axis : x y z
#
# Youngs Moduli (GPa) = 104.61908 119.58902 93.16323
#
# Poissons Ratio (x) = 0.39956 -0.09370
# Poissons Ratio (y) = 0.34954 0.35100
# Poissons Ratio (z) = -0.10522 0.45056
#
# Static dielectric constant tensor:
#      x y z
#    x 1.858980 0.000000 -0.035960 
#    y 0.000000 1.814850 0.000000 
#    z -0.035960 0.000000 1.838790 
# 
# From -- ./inp_files/47577.got.cif
#   From: 2010.05.17/outbox.cif.g08.bks.cpg/sg10_24_cif.got.tgz:47577.got - 2010.06.03 11:33:40.
