data_PCOD9151481
_publ_section_title
;
Structure prediction by ZEFSAII (Michael W. Deem and Ramdas Pophale) SiO2 
 PCOD9151481
Probable space group: P 2/M
;
_chemical_formula_sum "Si O2"
_cell_formula_units_Z 15
_cell_length_a 7.706747
_cell_length_b 19.658018
_cell_length_c 9.333999
_cell_angle_alpha 90.000000
_cell_angle_beta 34.074672
_cell_angle_gamma 90.000000
_cell_volume 792.279081
_symmetry_space_group_name_H-M "P 2/M"
_symmetry_group_IT_number 10
_symmetry_cell_setting 'monoclinic'
loop_
_space_group_symop_operation_xyz
x,y,z
-x,y,-z
-x,-y,-z
x,-y,z
loop_
_atom_site_type_symbol
_atom_site_label
_atom_site_fract_x
_atom_site_fract_y
_atom_site_fract_z
Si Si1 0.368137 0.752365 0.748787
Si Si2 0.500000 0.000000 0.000000
Si Si3 0.371460 0.500000 0.749438
Si Si4 0.629293 0.372239 0.750673
Si Si5 0.633536 0.859397 0.763355
O O1 0.500000 0.743327 0.500000
O O2 0.520769 0.696857 0.748431
O O3 0.463677 0.825826 0.745826
O O4 0.000000 0.744440 0.000000
O O5 0.433450 0.061000 0.164434
O O6 0.500000 0.500000 0.500000
O O7 0.493751 0.434157 0.750255
O O8 0.000000 0.500000 0.000000
O O9 0.000000 0.375888 0.500000
O O10 0.500000 0.375897 0.000000
O O11 0.000000 0.848880 0.500000
O O12 0.500000 0.825381 0.000000
#
# Coordination Sequence:
#
# PCOD9151481 Si02
#       5
#     4   1   2   4   4
#     4  12  24  40  61  92 126 158 202 258 312 355
#     4   8  22  36  70  82 122 150 218 230 310 356
#     4  12  24  42  64  94 132 164 198 260 316 350
#     4  12  24  42  65  92 122 168 214 249 294 368
#     4  10  20  39  63  87 115 161 201 247 294 371
#
# _framework density 18.932724
#
# number of rings (size 3 to 8) (size 9 to 14) (size 15 to 20)
#    0.800    0.000    0.000    9.200    0.000    0.000 
#    0.000    1.333    0.000    0.000    0.000    0.000 
#    0.000    0.000    0.000    0.000    0.000    0.000 
#
# Total GULP energy -83564.755399 kJ/mol
# GULP energy per Si atom -5570.983693 kJ/mol
# Density = 1.888963 g / cm^3
# Si number density = 18.932724 Si / 1000 Ang^3
#
#
#
# Elastic Constant Matrix: (Units=GPa)
#
#
# Indices 1 2 3 4 5 6 
#
# 1 141.3192 67.5817 104.7735 0.0000 8.4653 0.0000
# 2 67.5817 113.9924 59.2104 0.0000 -2.4090 0.0000
# 3 104.7735 59.2104 207.4122 0.0000 1.2673 0.0000
# 4 0.0000 0.0000 0.0000 -63.4637 0.0000 -38.6496
# 5 8.4653 -2.4090 1.2673 0.0000 59.8447 0.0000
# 6 0.0000 0.0000 0.0000 -38.6496 0.0000 -8.7071
#
#
#
# Elastic Compliance Matrix: (Units=1/GPa)
#
#
# Indices 1 2 3 4 5 6 
#
# 1 0.013803 -0.005414 -0.005414 0.000000 -0.002056 0.000000
# 2 -0.005414 0.012437 -0.000823 0.000000 0.001284 0.000000
# 3 -0.005414 -0.000823 0.007788 0.000000 0.000568 0.000000
# 4 0.000000 0.000000 0.000000 0.009251 0.000000 -0.041064
# 5 -0.002056 0.001284 0.000568 0.000000 0.017040 0.000000
# 6 0.000000 0.000000 0.000000 -0.041064 0.000000 0.067428
#
#
# Mechanical properties :
#
#
# Convention : Reuss Voigt Hill
#
# Bulk Modulus (GPa) = 93.24735 102.87278 98.06007
# Shear Modulus (GPa) = 32.33627 12.94532 22.64080
#
# Velocity S-wave (km/s) = 4.13723 2.61771 3.46187
# Velocity P-wave (km/s) = 8.49594 7.97436 8.23928
#
# Compressibility (1/GPa) = 0.01072417
#
# Stress axis : x y z
#
# Youngs Moduli (GPa) = 72.45055 80.40407 128.40559
#
# Poissons Ratio (x) = 0.43532 0.69520
# Poissons Ratio (y) = 0.39226 0.10572
# Poissons Ratio (z) = 0.39226 0.06620
#
# Static dielectric constant tensor:
#      x y z
#    x 1.630960 0.000000 0.012940 
#    y 0.000000 1.661640 0.000000 
#    z 0.012940 0.000000 1.644000 
# 
# From -- ./inp_files/1245.got.cif
#   From: 2010.05.17/outbox.cif.g08.bks.cpg/sg10_1_cif.got.tgz:1245.got - 2010.06.03 11:33:40.
