data_PCOD9151344
_publ_section_title
;
Structure prediction by ZEFSAII (Michael W. Deem and Ramdas Pophale) SiO2 
 PCOD9151344
Probable space group: P 2/M
;
_chemical_formula_sum "Si O2"
_cell_formula_units_Z 32
_cell_length_a 11.801184
_cell_length_b 8.730109
_cell_length_c 29.255586
_cell_angle_alpha 90.000000
_cell_angle_beta 31.945985
_cell_angle_gamma 90.000000
_cell_volume 1594.805959
_symmetry_space_group_name_H-M "P 2/M"
_symmetry_group_IT_number 10
_symmetry_cell_setting 'monoclinic'
loop_
_space_group_symop_operation_xyz
x,y,z
-x,y,-z
-x,-y,-z
x,-y,z
loop_
_atom_site_type_symbol
_atom_site_label
_atom_site_fract_x
_atom_site_fract_y
_atom_site_fract_z
Si Si1 0.123196 0.681867 0.202632
Si Si2 0.010415 0.181318 0.842698
Si Si3 0.413150 0.683997 0.461168
Si Si4 0.182300 0.818083 0.623430
Si Si5 0.582405 0.182314 0.234922
Si Si6 0.246575 0.315366 0.418362
Si Si7 0.613179 0.320270 0.030080
Si Si8 0.244575 0.319823 0.914396
O O1 0.115107 0.500000 0.212888
O O2 0.367304 0.724087 0.106876
O O3 0.981937 0.729103 0.207500
O O4 0.034060 0.766477 0.277622
O O5 0.204009 0.226876 0.809736
O O6 0.022755 0.000000 0.829734
O O7 0.788066 0.223471 0.943368
O O8 0.440323 0.500000 0.453746
O O9 0.227111 0.734634 0.560080
O O10 0.625182 0.763259 0.408922
O O11 0.354421 0.730666 0.429744
O O12 0.192228 0.000000 0.614173
O O13 0.382612 0.253848 0.329540
O O14 0.618496 0.237765 0.171126
O O15 0.565234 0.000000 0.241797
O O16 0.248892 0.500000 0.416478
O O17 0.000000 0.264525 0.500000
O O18 0.639508 0.500000 0.008026
O O19 0.658842 0.306649 0.068334
O O20 0.233644 0.500000 0.905995
O O21 0.000000 0.260378 0.000000
#
# Coordination Sequence:
#
# PCOD9151344 Si02
#       8
#     4   4   4   4   4   4   4   4
#     4  11  23  38  57  83 118 154 195 241 288 348
#     4  11  23  38  58  85 119 154 193 240 292 350
#     4  10  20  38  64  88 114 151 195 240 290 347
#     4  11  22  37  59  87 119 152 191 240 293 350
#     4  11  24  39  60  90 121 156 195 242 297 352
#     4  10  23  42  63  88 118 154 197 245 293 347
#     4  10  22  39  59  85 114 152 197 243 292 343
#     4  10  20  38  64  87 113 152 200 247 289 342
#
# _framework density 20.065138000000001
#
# number of rings (size 3 to 8) (size 9 to 14) (size 15 to 20)
#    0.000    1.500    1.250    4.500    0.000    9.000 
#    0.000    5.000    0.000    0.000    0.000    0.000 
#    0.000    0.000    0.000    0.000    0.000    0.000 
#
# Total GULP energy -178944.684175 kJ/mol
# GULP energy per Si atom -5592.021380 kJ/mol
# Density = 2.001947 g / cm^3
# Si number density = 20.065138 Si / 1000 Ang^3
#
#
#
# Elastic Constant Matrix: (Units=GPa)
#
#
# Indices 1 2 3 4 5 6 
#
# 1 38.7869 5.9924 9.2756 0.0000 8.4167 0.0000
# 2 5.9924 29.3661 16.6197 0.0000 -0.6364 0.0000
# 3 9.2756 16.6197 102.7857 0.0000 14.3862 0.0000
# 4 0.0000 0.0000 0.0000 58.5970 0.0000 -10.8929
# 5 8.4167 -0.6364 14.3862 0.0000 26.6225 0.0000
# 6 0.0000 0.0000 0.0000 -10.8929 0.0000 2.7319
#
#
#
# Elastic Compliance Matrix: (Units=1/GPa)
#
#
# Indices 1 2 3 4 5 6 
#
# 1 0.028733 -0.005839 -0.000387 0.000000 -0.009014 0.000000
# 2 -0.005839 0.039178 -0.006704 0.000000 0.006405 0.000000
# 3 -0.000387 -0.006704 0.011741 0.000000 -0.006383 0.000000
# 4 0.000000 0.000000 0.000000 0.065950 0.000000 0.262964
# 5 -0.009014 0.006405 -0.006383 0.000000 0.044014 0.000000
# 6 0.000000 0.000000 0.000000 0.262964 0.000000 1.414574
#
#
# Mechanical properties :
#
#
# Convention : Reuss Voigt Hill
#
# Bulk Modulus (GPa) = 18.59081 26.07935 22.33508
# Shear Modulus (GPa) = 3.03402 26.86036 14.94719
#
# Velocity S-wave (km/s) = 1.23100 3.66274 2.73231
# Velocity P-wave (km/s) = 3.36241 5.55995 4.59450
#
# Compressibility (1/GPa) = 0.05379001
#
# Stress axis : x y z
#
# Youngs Moduli (GPa) = 34.80355 25.52484 85.16958
#
# Poissons Ratio (x) = 0.14905 0.03296
# Poissons Ratio (y) = 0.20323 0.57100
# Poissons Ratio (z) = 0.01347 0.17113
#
# Static dielectric constant tensor:
#      x y z
#    x 1.702930 0.000000 -0.012260 
#    y 0.000000 1.673620 0.000000 
#    z -0.012260 0.000000 1.705160 
# 
# From -- ./inp_files/95001.got.cif
#   From: 2010.05.17/outbox.cif.g08.bks.cpg/sg10_48_cif.got.tgz:95001.got - 2010.06.03 11:33:40.
