data_PCOD9151709
_publ_section_title
;
Structure prediction by ZEFSAII (Michael W. Deem and Ramdas Pophale) SiO2 
 PCOD9151709
Probable space group: P 2/M
;
_chemical_formula_sum "Si O2"
_cell_formula_units_Z 32
_cell_length_a 9.148051
_cell_length_b 13.375906
_cell_length_c 26.241584
_cell_angle_alpha 90.000000
_cell_angle_beta 31.754575
_cell_angle_gamma 90.000000
_cell_volume 1689.896867
_symmetry_space_group_name_H-M "P 2/M"
_symmetry_group_IT_number 10
_symmetry_cell_setting 'monoclinic'
loop_
_space_group_symop_operation_xyz
x,y,z
-x,y,-z
-x,-y,-z
x,-y,z
loop_
_atom_site_type_symbol
_atom_site_label
_atom_site_fract_x
_atom_site_fract_y
_atom_site_fract_z
Si Si1 0.395499 0.613643 0.972590
Si Si2 0.249710 0.758022 0.703575
Si Si3 0.284873 0.761739 0.196913
Si Si4 0.809413 0.690375 0.168812
Si Si5 0.732274 0.118483 0.609043
Si Si6 0.447863 0.882332 0.796437
Si Si7 0.207967 0.382586 0.313833
Si Si8 0.390042 0.616141 0.474604
O O1 0.463692 0.500000 0.935771
O O2 0.532126 0.697656 0.896642
O O3 0.500000 0.624390 0.000000
O O4 0.063899 0.630351 0.069842
O O5 0.143527 0.699642 0.784897
O O6 0.458510 0.839987 0.663465
O O7 0.428792 0.685287 0.615096
O O8 0.988292 0.799789 0.750599
O O9 0.447330 0.847443 0.179442
O O10 0.191908 0.683025 0.267836
O O11 0.785205 0.802121 0.151796
O O12 0.507788 0.641042 0.249211
O O13 0.691370 0.136730 0.681690
O O14 0.000000 0.159982 0.500000
O O15 0.738404 0.000000 0.601659
O O16 0.375651 0.000000 0.815761
O O17 0.188805 0.500000 0.307515
O O18 0.938478 0.359108 0.428021
O O19 0.500000 0.626395 0.500000
O O20 0.422531 0.500000 0.450294
#
# Coordination Sequence:
#
# PCOD9151709 Si02
#       8
#     4   4   4   4   4   4   4   4
#     4  11  23  40  63  90 122 155 199 251 303 354
#     4  11  22  34  59  84 118 154 197 242 297 347
#     4  11  22  38  60  88 117 158 199 248 296 358
#     4  10  22  40  61  88 115 154 198 253 298 355
#     4   9  20  38  61  87 117 156 200 245 299 355
#     4   9  21  41  63  87 121 157 191 245 304 356
#     4  10  21  37  54  81 119 155 196 241 292 352
#     4  10  21  34  52  80 118 160 196 234 284 356
#
# _framework density 18.936067000000001
#
# number of rings (size 3 to 8) (size 9 to 14) (size 15 to 20)
#    0.000    1.875    2.500    0.750    5.250    4.000 
#    0.000    5.625    0.000    3.375    0.000    0.000 
#    0.000    0.000    0.000    0.000    0.000    0.000 
#
# Total GULP energy -178543.045119 kJ/mol
# GULP energy per Si atom -5579.470160 kJ/mol
# Density = 1.889297 g / cm^3
# Si number density = 18.936067 Si / 1000 Ang^3
#
#
#
# Elastic Constant Matrix: (Units=GPa)
#
#
# Indices 1 2 3 4 5 6 
#
# 1 81.5143 10.7682 23.6482 0.0000 -2.2014 0.0000
# 2 10.7682 58.2016 17.5659 0.0000 3.3587 0.0000
# 3 23.6482 17.5659 61.8871 0.0000 -8.7269 0.0000
# 4 0.0000 0.0000 0.0000 15.7156 0.0000 3.1783
# 5 -2.2014 3.3587 -8.7269 0.0000 27.0413 0.0000
# 6 0.0000 0.0000 0.0000 3.1783 0.0000 21.8537
#
#
#
# Elastic Compliance Matrix: (Units=1/GPa)
#
#
# Indices 1 2 3 4 5 6 
#
# 1 0.013860 -0.001015 -0.005062 0.000000 -0.000379 0.000000
# 2 -0.001015 0.019344 -0.005713 0.000000 -0.004329 0.000000
# 3 -0.005062 -0.005713 0.020698 0.000000 0.006977 0.000000
# 4 0.000000 0.000000 0.000000 0.065559 0.000000 -0.009535
# 5 -0.000379 -0.004329 0.006977 0.000000 0.039739 0.000000
# 6 0.000000 0.000000 0.000000 -0.009535 0.000000 0.047145
#
#
# Mechanical properties :
#
#
# Convention : Reuss Voigt Hill
#
# Bulk Modulus (GPa) = 32.97868 33.95198 33.46533
# Shear Modulus (GPa) = 20.83056 22.89683 21.86369
#
# Velocity S-wave (km/s) = 3.32029 3.48108 3.40164
# Velocity P-wave (km/s) = 5.67034 5.84174 5.75668
#
# Compressibility (1/GPa) = 0.03032262
#
# Stress axis : x y z
#
# Youngs Moduli (GPa) = 72.14992 51.69694 48.31368
#
# Poissons Ratio (x) = 0.05246 0.24454
# Poissons Ratio (y) = 0.07322 0.27602
# Poissons Ratio (z) = 0.36519 0.29535
#
# Static dielectric constant tensor:
#      x y z
#    x 1.667090 0.000000 -0.003170 
#    y 0.000000 1.638730 0.000000 
#    z -0.003170 0.000000 1.679470 
# 
# From -- ./inp_files/88245.got.cif
#   From: 2010.05.17/outbox.cif.g08.bks.cpg/sg10_45_cif.got.tgz:88245.got - 2010.06.03 11:33:40.
