data_PCOD9151816
_publ_section_title
;
Structure prediction by ZEFSAII (Michael W. Deem and Ramdas Pophale) SiO2 
 PCOD9151816
Probable space group: P 2/M
;
_chemical_formula_sum "Si O2"
_cell_formula_units_Z 24
_cell_length_a 15.882019
_cell_length_b 18.938932
_cell_length_c 9.153473
_cell_angle_alpha 90.000000
_cell_angle_beta 28.888732
_cell_angle_gamma 90.000000
_cell_volume 1330.127613
_symmetry_space_group_name_H-M "P 2/M"
_symmetry_group_IT_number 10
_symmetry_cell_setting 'monoclinic'
loop_
_space_group_symop_operation_xyz
x,y,z
-x,y,-z
-x,-y,-z
x,-y,z
loop_
_atom_site_type_symbol
_atom_site_label
_atom_site_fract_x
_atom_site_fract_y
_atom_site_fract_z
Si Si1 0.170688 0.833251 0.139414
Si Si2 0.819960 0.416911 0.187607
Si Si3 0.303983 0.680045 0.868865
Si Si4 0.828380 0.084123 0.164212
Si Si5 0.517312 0.836941 0.801126
Si Si6 0.520195 0.669169 0.800580
O O1 0.000000 0.833825 0.500000
O O2 0.209916 0.755246 0.015774
O O3 0.155933 0.884336 0.022528
O O4 0.336727 0.849983 0.989929
O O5 0.788084 0.500000 0.216685
O O6 0.805827 0.375894 0.055857
O O7 0.670063 0.379738 0.509390
O O8 0.000000 0.407378 0.000000
O O9 0.500000 0.687017 0.500000
O O10 0.346333 0.657299 0.969660
O O11 0.666702 0.119510 0.493514
O O12 0.805693 0.000000 0.190698
O O13 0.000000 0.099301 0.000000
O O14 0.559465 0.753051 0.724570
O O15 0.500000 0.853325 0.000000
O O16 0.500000 0.654435 0.000000
#
# Coordination Sequence:
#
# PCOD9151816 Si02
#       6
#     4   4   4   4   4   4
#     4  11  22  37  60  87 114 146 186 232 281 334
#     4  10  21  35  52  77 109 145 183 223 272 328
#     4   9  19  36  57  80 107 142 185 226 273 331
#     4  11  24  40  58  83 115 151 189 229 278 333
#     4  10  21  39  61  87 114 144 187 233 280 333
#     4   9  19  35  56  81 107 137 178 225 272 326
#
# _framework density 18.043381
#
# number of rings (size 3 to 8) (size 9 to 14) (size 15 to 20)
#    0.000    2.000    0.000    4.500    0.000   12.000 
#    0.000    0.000    0.000    2.500    0.000    0.000 
#    0.000    0.000    0.000    0.000    0.000    0.000 
#
# Total GULP energy -133955.524654 kJ/mol
# GULP energy per Si atom -5581.480194 kJ/mol
# Density = 1.800231 g / cm^3
# Si number density = 18.043381 Si / 1000 Ang^3
#
#
#
# Elastic Constant Matrix: (Units=GPa)
#
#
# Indices 1 2 3 4 5 6 
#
# 1 173.7039 97.9872 66.1622 0.0000 10.3785 0.0000
# 2 97.9872 97.0703 72.1756 0.0000 -7.6590 0.0000
# 3 66.1622 72.1756 101.2701 0.0000 -7.7208 0.0000
# 4 0.0000 0.0000 0.0000 7.3201 0.0000 -15.1700
# 5 10.3785 -7.6590 -7.7208 0.0000 27.8222 0.0000
# 6 0.0000 0.0000 0.0000 -15.1700 0.0000 22.6600
#
#
#
# Elastic Compliance Matrix: (Units=1/GPa)
#
#
# Indices 1 2 3 4 5 6 
#
# 1 0.016093 -0.018427 0.001813 0.000000 -0.010573 0.000000
# 2 -0.018427 0.043098 -0.017621 0.000000 0.013848 0.000000
# 3 0.001813 -0.017621 0.021277 0.000000 0.000377 0.000000
# 4 0.000000 0.000000 0.000000 -0.352657 0.000000 -0.236091
# 5 -0.010573 0.013848 0.000377 0.000000 0.043803 0.000000
# 6 0.000000 0.000000 0.000000 -0.236091 0.000000 -0.113923
#
#
# Mechanical properties :
#
#
# Convention : Reuss Voigt Hill
#
# Bulk Modulus (GPa) = 83.34966 93.85489 88.60227
# Shear Modulus (GPa) = -18.52959 20.60843 1.03942
#
# Velocity S-wave (km/s) = -3.20808 3.38325 0.75981
# Velocity P-wave (km/s) = 5.70719 8.20920 7.06976
#
# Compressibility (1/GPa) = 0.01199765
#
# Stress axis : x y z
#
# Youngs Moduli (GPa) = 62.13905 23.20290 46.99823
#
# Poissons Ratio (x) = 0.42757 -0.08522
# Poissons Ratio (y) = 1.14506 0.82817
# Poissons Ratio (z) = -0.11268 0.40886
#
# Static dielectric constant tensor:
#      x y z
#    x 1.641560 0.000000 0.008010 
#    y 0.000000 1.596750 0.000000 
#    z 0.008010 0.000000 1.607230 
# 
# From -- ./inp_files/20142.got.cif
#   From: 2010.05.17/outbox.cif.g08.bks.cpg/sg10_11_cif.got.tgz:20142.got - 2010.06.03 11:33:40.
