data_PCOD9151535
_publ_section_title
;
Structure prediction by ZEFSAII (Michael W. Deem and Ramdas Pophale) SiO2 
 PCOD9151535
Probable space group: P 2/M
;
_chemical_formula_sum "Si O2"
_cell_formula_units_Z 24
_cell_length_a 12.510946
_cell_length_b 11.865162
_cell_length_c 11.335837
_cell_angle_alpha 90.000000
_cell_angle_beta 47.861214
_cell_angle_gamma 90.000000
_cell_volume 1247.789582
_symmetry_space_group_name_H-M "P 2/M"
_symmetry_group_IT_number 10
_symmetry_cell_setting 'monoclinic'
loop_
_space_group_symop_operation_xyz
x,y,z
-x,y,-z
-x,-y,-z
x,-y,z
loop_
_atom_site_type_symbol
_atom_site_label
_atom_site_fract_x
_atom_site_fract_y
_atom_site_fract_z
Si Si1 0.707643 0.257885 0.688363
Si Si2 0.396412 0.500000 0.694043
Si Si3 0.821005 0.132995 0.377263
Si Si4 0.425712 0.500000 0.187859
Si Si5 0.353813 0.749126 0.686203
Si Si6 0.425340 0.129871 0.876578
Si Si7 0.863990 0.873243 0.756664
O O1 0.743823 0.210476 0.532382
O O2 0.670895 0.388421 0.726871
O O3 0.560563 0.193661 0.832489
O O4 0.836998 0.217258 0.675441
O O5 0.500000 0.500000 0.500000
O O6 0.472132 0.500000 0.768850
O O7 0.315078 0.619000 0.741694
O O8 0.768252 0.182519 0.292640
O O9 0.991170 0.142278 0.276353
O O10 0.782460 0.000000 0.416615
O O11 0.500000 0.500000 0.000000
O O12 0.500000 0.749896 0.500000
O O13 0.393108 0.810964 0.777180
O O14 0.466785 0.000000 0.830649
O O15 0.277513 0.133724 0.058150
O O16 0.868948 0.000000 0.700290
#
# Coordination Sequence:
#
# PCOD9151535 Si02
#       7
#     4   2   4   2   4   4   4
#     4  12  22  39  64  91 121 164 213 257 308 378
#     4  10  20  40  61  92 130 169 212 269 324 371
#     4  11  23  40  63  92 128 168 205 257 322 382
#     4  12  24  40  66  97 131 170 213 270 330 373
#     4  11  21  37  62  90 121 161 214 261 310 371
#     4  11  21  35  61  92 121 157 206 259 310 373
#     4  10  23  40  59  89 131 167 200 253 325 384
#
# _framework density 19.234012
#
# number of rings (size 3 to 8) (size 9 to 14) (size 15 to 20)
#    0.000    1.000    3.333    5.000    0.000    4.000 
#    0.000    5.000    0.000    1.000    0.000    0.000 
#    0.000    0.000    0.000    0.000    0.000    0.000 
#
# Total GULP energy -134010.898562 kJ/mol
# GULP energy per Si atom -5583.787440 kJ/mol
# Density = 1.919023 g / cm^3
# Si number density = 19.234012 Si / 1000 Ang^3
#
#
#
# Elastic Constant Matrix: (Units=GPa)
#
#
# Indices 1 2 3 4 5 6 
#
# 1 121.4199 61.5980 27.9052 0.0000 2.0367 0.0000
# 2 61.5980 174.0895 30.4351 0.0000 -4.7527 0.0000
# 3 27.9052 30.4351 60.1193 0.0000 -0.2973 0.0000
# 4 0.0000 0.0000 0.0000 76.7834 0.0000 10.1547
# 5 2.0367 -4.7527 -0.2973 0.0000 33.8153 0.0000
# 6 0.0000 0.0000 0.0000 10.1547 0.0000 48.8051
#
#
#
# Elastic Compliance Matrix: (Units=1/GPa)
#
#
# Indices 1 2 3 4 5 6 
#
# 1 0.010651 -0.003219 -0.003320 0.000000 -0.001123 0.000000
# 2 -0.003219 0.007300 -0.002195 0.000000 0.001201 0.000000
# 3 -0.003320 -0.002195 0.019286 0.000000 0.000061 0.000000
# 4 0.000000 0.000000 0.000000 0.013392 0.000000 -0.002786
# 5 -0.001123 0.001201 0.000061 0.000000 0.029809 0.000000
# 6 0.000000 0.000000 0.000000 -0.002786 0.000000 0.021069
#
#
# Mechanical properties :
#
#
# Convention : Reuss Voigt Hill
#
# Bulk Modulus (GPa) = 50.58517 66.16726 58.37622
# Shear Modulus (GPa) = 39.82010 47.59346 43.70678
#
# Velocity S-wave (km/s) = 4.55499 4.97977 4.77211
# Velocity P-wave (km/s) = 7.34989 8.21828 7.79618
#
# Compressibility (1/GPa) = 0.01976864
#
# Stress axis : x y z
#
# Youngs Moduli (GPa) = 93.89147 136.99262 51.85057
#
# Poissons Ratio (x) = 0.44095 0.17213
# Poissons Ratio (y) = 0.30222 0.11383
# Poissons Ratio (z) = 0.31169 0.30076
#
# Static dielectric constant tensor:
#      x y z
#    x 1.676550 0.000000 0.042060 
#    y 0.000000 1.665750 0.000000 
#    z 0.042060 0.000000 1.733210 
# 
# From -- ./inp_files/46533.got.cif
#   From: 2010.05.17/outbox.cif.g08.bks.cpg/sg10_24_cif.got.tgz:46533.got - 2010.06.03 11:33:40.
