data_PCOD9151616
_publ_section_title
;
Structure prediction by ZEFSAII (Michael W. Deem and Ramdas Pophale) SiO2 
 PCOD9151616
Probable space group: P 2/M
;
_chemical_formula_sum "Si O2"
_cell_formula_units_Z 24
_cell_length_a 7.902159
_cell_length_b 18.622344
_cell_length_c 8.873061
_cell_angle_alpha 90.000000
_cell_angle_beta 52.010393
_cell_angle_gamma 90.000000
_cell_volume 1029.075542
_symmetry_space_group_name_H-M "P 2/M"
_symmetry_group_IT_number 10
_symmetry_cell_setting 'monoclinic'
loop_
_space_group_symop_operation_xyz
x,y,z
-x,y,-z
-x,-y,-z
x,-y,z
loop_
_atom_site_type_symbol
_atom_site_label
_atom_site_fract_x
_atom_site_fract_y
_atom_site_fract_z
Si Si1 0.685078 0.586227 0.786297
Si Si2 0.702749 0.712440 0.285210
Si Si3 0.605092 0.919440 0.608501
Si Si4 0.026126 0.802623 0.641438
Si Si5 0.226696 0.163950 0.964611
Si Si6 0.825548 0.584735 0.380751
O O1 0.652312 0.500000 0.791587
O O2 0.704541 0.611290 0.600799
O O3 0.921173 0.595454 0.728662
O O4 0.500000 0.614646 0.000000
O O5 0.500000 0.730354 0.500000
O O6 0.892991 0.748967 0.276054
O O7 0.698882 0.756998 0.134522
O O8 0.748655 0.628527 0.277003
O O9 0.500000 0.920915 0.500000
O O10 0.802215 0.864462 0.488635
O O11 0.413483 0.889677 0.816028
O O12 0.672040 0.000000 0.613122
O O13 0.000000 0.762094 0.500000
O O14 0.819395 0.836481 0.833188
O O15 0.000000 0.145631 0.000000
O O16 0.787128 0.500000 0.384608
#
# Coordination Sequence:
#
# PCOD9151616 Si02
#       6
#     4   4   4   4   4   4
#     4   8  15  33  55  83 122 156 196 249 316 383
#     4  11  21  42  63  84 127 168 209 257 311 379
#     4  11  21  40  69  99 129 165 205 245 303 372
#     4  11  24  42  65  92 126 163 212 257 306 363
#     4  10  20  42  64  88 124 167 206 250 307 365
#     4   9  19  34  57  87 121 160 206 266 318 364
#
# _framework density 23.321901
#
# number of rings (size 3 to 8) (size 9 to 14) (size 15 to 20)
#    0.000    2.000    5.000    1.000    2.333    2.333 
#    9.000    0.833    0.000    4.500    0.000    0.000 
#    0.000    0.000    0.000    0.000    0.000    0.000 
#
# Total GULP energy -134077.105786 kJ/mol
# GULP energy per Si atom -5586.546074 kJ/mol
# Density = 2.326882 g / cm^3
# Si number density = 23.321901 Si / 1000 Ang^3
#
#
#
# Elastic Constant Matrix: (Units=GPa)
#
#
# Indices 1 2 3 4 5 6 
#
# 1 27.5844 11.4162 11.5869 0.0000 -4.6490 0.0000
# 2 11.4162 98.8664 20.3300 0.0000 -6.9034 0.0000
# 3 11.5869 20.3300 142.0173 0.0000 -25.1174 0.0000
# 4 0.0000 0.0000 0.0000 22.6157 0.0000 -1.6233
# 5 -4.6490 -6.9034 -25.1174 0.0000 30.6602 0.0000
# 6 0.0000 0.0000 0.0000 -1.6233 0.0000 19.9481
#
#
#
# Elastic Compliance Matrix: (Units=1/GPa)
#
#
# Indices 1 2 3 4 5 6 
#
# 1 0.039292 -0.003878 -0.002048 0.000000 0.003407 0.000000
# 2 -0.003878 0.010850 -0.001063 0.000000 0.000984 0.000000
# 3 -0.002048 -0.001063 0.008494 0.000000 0.006409 0.000000
# 4 0.000000 0.000000 0.000000 0.044477 0.000000 0.003619
# 5 0.003407 0.000984 0.006409 0.000000 0.038604 0.000000
# 6 0.000000 0.000000 0.000000 0.003619 0.000000 0.050425
#
#
# Mechanical properties :
#
#
# Convention : Reuss Voigt Hill
#
# Bulk Modulus (GPa) = 22.39237 39.45936 30.92586
# Shear Modulus (GPa) = 22.62398 29.65381 26.13889
#
# Velocity S-wave (km/s) = 3.11798 3.56968 3.35145
# Velocity P-wave (km/s) = 4.75233 5.82635 5.31653
#
# Compressibility (1/GPa) = 0.04465808
#
# Stress axis : x y z
#
# Youngs Moduli (GPa) = 25.45062 92.16841 117.72926
#
# Poissons Ratio (x) = 0.35743 0.24111
# Poissons Ratio (y) = 0.09870 0.12511
# Poissons Ratio (z) = 0.05212 0.09794
#
# Static dielectric constant tensor:
#      x y z
#    x 1.946880 0.000000 -0.023400 
#    y 0.000000 1.893970 0.000000 
#    z -0.023400 0.000000 1.949280 
# 
# From -- ./inp_files/20129.got.cif
#   From: 2010.05.17/outbox.cif.g08.bks.cpg/sg10_11_cif.got.tgz:20129.got - 2010.06.03 11:33:40.
