data_PCOD9151838
_publ_section_title
;
Structure prediction by ZEFSAII (Michael W. Deem and Ramdas Pophale) SiO2 
 PCOD9151838
Probable space group: P 2/M
;
_chemical_formula_sum "Si O2"
_cell_formula_units_Z 32
_cell_length_a 22.911329
_cell_length_b 9.536176
_cell_length_c 20.246628
_cell_angle_alpha 90.000000
_cell_angle_beta 160.356164
_cell_angle_gamma 90.000000
_cell_volume 1487.096218
_symmetry_space_group_name_H-M "P 2/M"
_symmetry_group_IT_number 10
_symmetry_cell_setting 'monoclinic'
loop_
_space_group_symop_operation_xyz
x,y,z
-x,y,-z
-x,-y,-z
x,-y,z
loop_
_atom_site_type_symbol
_atom_site_label
_atom_site_fract_x
_atom_site_fract_y
_atom_site_fract_z
Si Si1 0.149853 0.341922 0.616549
Si Si2 0.590511 0.844667 0.169871
Si Si3 0.326646 0.347167 0.941130
Si Si4 0.895416 0.665176 0.821059
Si Si5 0.552792 0.840064 0.768628
Si Si6 0.860628 0.167707 0.653064
Si Si7 0.422563 0.154501 0.489849
Si Si8 0.883939 0.334566 0.165606
O O1 0.100516 0.500000 0.544300
O O2 0.244008 0.254104 0.661723
O O3 0.291271 0.359731 0.825826
O O4 0.000000 0.269656 0.500000
O O5 0.641102 0.000000 0.243371
O O6 0.500000 0.854544 0.000000
O O7 0.462096 0.778251 0.086896
O O8 0.393130 0.500000 0.035011
O O9 0.147705 0.321225 0.789240
O O10 0.908964 0.500000 0.819680
O O11 0.702500 0.714983 0.633372
O O12 0.936661 0.760065 0.800997
O O13 0.000000 0.692794 0.000000
O O14 0.557096 0.840836 0.693194
O O15 0.697185 0.729031 0.944221
O O16 0.349644 0.809698 0.569920
O O17 0.593011 0.000000 0.833775
O O18 0.889015 0.000000 0.682514
O O19 0.962787 0.244670 0.702946
O O20 0.500000 0.158121 0.500000
O O21 0.332384 0.000000 0.401736
O O22 0.903004 0.500000 0.170166
#
# Coordination Sequence:
#
# PCOD9151838 Si02
#       8
#     4   4   4   4   4   4   4   4
#     4   9  17  32  55  80 110 145 181 222 268 324
#     4   9  17  30  51  77 106 138 172 219 269 310
#     4   9  19  36  54  78 109 145 186 221 267 332
#     4  10  21  35  53  83 115 142 179 230 288 343
#     4   9  20  39  59  82 112 149 194 237 286 346
#     4  10  22  41  62  82 111 152 195 239 287 345
#     4   9  19  35  55  81 109 142 184 229 281 344
#     4  11  23  38  60  86 116 154 193 238 289 341
#
# _framework density 21.518445
#
# number of rings (size 3 to 8) (size 9 to 14) (size 15 to 20)
#    0.000    2.500    0.000    2.250    1.750    6.500 
#    2.250    0.000    0.000    0.000    0.000    0.000 
#    0.000    0.000    0.000    0.000    0.000    0.000 
#
# Total GULP energy -178354.090036 kJ/mol
# GULP energy per Si atom -5573.565314 kJ/mol
# Density = 2.146947 g / cm^3
# Si number density = 21.518445 Si / 1000 Ang^3
#
#
#
# Elastic Constant Matrix: (Units=GPa)
#
#
# Indices 1 2 3 4 5 6 
#
# 1 101.1608 52.5459 24.4678 0.0000 19.1464 0.0000
# 2 52.5459 100.2738 32.4487 0.0000 13.4109 0.0000
# 3 24.4678 32.4487 43.5408 0.0000 7.1874 0.0000
# 4 0.0000 0.0000 0.0000 42.6005 0.0000 17.0371
# 5 19.1464 13.4109 7.1874 0.0000 39.0766 0.0000
# 6 0.0000 0.0000 0.0000 17.0371 0.0000 36.4451
#
#
#
# Elastic Compliance Matrix: (Units=1/GPa)
#
#
# Indices 1 2 3 4 5 6 
#
# 1 0.014623 -0.006114 -0.002913 0.000000 -0.004531 0.000000
# 2 -0.006114 0.016001 -0.008330 0.000000 -0.000964 0.000000
# 3 -0.002913 -0.008330 0.031047 0.000000 -0.001424 0.000000
# 4 0.000000 0.000000 0.000000 0.028872 0.000000 -0.013497
# 5 -0.004531 -0.000964 -0.001424 0.000000 0.028403 0.000000
# 6 0.000000 0.000000 0.000000 -0.013497 0.000000 0.033748
#
#
# Mechanical properties :
#
#
# Convention : Reuss Voigt Hill
#
# Bulk Modulus (GPa) = 37.09604 51.54445 44.32025
# Shear Modulus (GPa) = 25.45900 32.65865 29.05882
#
# Velocity S-wave (km/s) = 3.44339 3.90000 3.67879
# Velocity P-wave (km/s) = 5.75203 6.65474 6.21979
#
# Compressibility (1/GPa) = 0.02695705
#
# Stress axis : x y z
#
# Youngs Moduli (GPa) = 68.38384 62.49534 32.20941
#
# Poissons Ratio (x) = 0.38212 0.09382
# Poissons Ratio (y) = 0.41813 0.26830
# Poissons Ratio (z) = 0.19920 0.52057
#
# Static dielectric constant tensor:
#      x y z
#    x 1.868130 0.000000 -0.077080 
#    y 0.000000 1.781060 0.000000 
#    z -0.077080 0.000000 1.840040 
# 
# From -- ./inp_files/90632.got.cif
#   From: 2010.05.17/outbox.cif.g08.bks.cpg/sg10_46_cif.got.tgz:90632.got - 2010.06.03 11:33:40.
