data_PCOD9151456
_publ_section_title
;
Structure prediction by ZEFSAII (Michael W. Deem and Ramdas Pophale) SiO2 
 PCOD9151456
Probable space group: P 2/M
;
_chemical_formula_sum "Si O2"
_cell_formula_units_Z 26
_cell_length_a 17.214319
_cell_length_b 13.440454
_cell_length_c 6.548862
_cell_angle_alpha 90.000000
_cell_angle_beta 59.207807
_cell_angle_gamma 90.000000
_cell_volume 1301.600728
_symmetry_space_group_name_H-M "P 2/M"
_symmetry_group_IT_number 10
_symmetry_cell_setting 'monoclinic'
loop_
_space_group_symop_operation_xyz
x,y,z
-x,y,-z
-x,-y,-z
x,-y,z
loop_
_atom_site_type_symbol
_atom_site_label
_atom_site_fract_x
_atom_site_fract_y
_atom_site_fract_z
Si Si1 0.275551 0.387456 0.077077
Si Si2 0.323729 0.111022 0.083737
Si Si3 0.680221 0.216900 0.306637
Si Si4 0.073470 0.387346 0.225694
Si Si5 0.000000 0.767146 0.000000
Si Si6 0.170502 0.880387 0.599127
Si Si7 0.405778 0.709206 0.196373
O O1 0.301420 0.500000 0.988593
O O2 0.302012 0.308441 0.869066
O O3 0.167964 0.380090 0.217616
O O4 0.323135 0.358044 0.225502
O O5 0.221728 0.132129 0.309816
O O6 0.391166 0.188461 0.094005
O O7 0.344810 0.000000 0.119979
O O8 0.333578 0.126167 0.829886
O O9 0.761744 0.179591 0.341558
O O10 0.602728 0.257612 0.559616
O O11 0.068765 0.500000 0.143796
O O12 0.000000 0.376825 0.500000
O O13 0.056081 0.304711 0.077331
O O14 0.071645 0.833495 0.773329
O O15 0.167983 0.000000 0.642204
O O16 0.500000 0.663256 0.000000
#
# Coordination Sequence:
#
# PCOD9151456 Si02
#       7
#     4   4   4   4   2   4   4
#     4  10  22  40  61  88 120 158 201 244 297 354
#     4   9  20  38  61  86 118 157 198 245 296 353
#     4  10  20  39  62  83 116 159 195 242 298 356
#     4  10  23  39  59  88 123 159 201 247 291 348
#     4  12  22  34  62  88 122 158 204 246 292 350
#     4  10  21  36  56  88 122 156 198 244 295 352
#     4  10  23  40  61  90 121 152 195 249 303 360
#
# _framework density 19.975404000000001
#
# number of rings (size 3 to 8) (size 9 to 14) (size 15 to 20)
#    0.000    2.000    1.538    0.923    6.462    4.308 
#    0.000    1.538    0.000    3.692    0.000    0.000 
#    0.000    0.000    0.000    0.000    0.000    0.000 
#
# Total GULP energy -144873.329915 kJ/mol
# GULP energy per Si atom -5572.051151 kJ/mol
# Density = 1.992994 g / cm^3
# Si number density = 19.975404 Si / 1000 Ang^3
#
#
#
# Elastic Constant Matrix: (Units=GPa)
#
#
# Indices 1 2 3 4 5 6 
#
# 1 37.1793 11.2993 15.3593 0.0000 -2.3176 0.0000
# 2 11.2993 96.0799 1.9305 0.0000 1.5487 0.0000
# 3 15.3593 1.9305 74.8180 0.0000 1.9547 0.0000
# 4 0.0000 0.0000 0.0000 -75.8936 0.0000 16.0461
# 5 -2.3176 1.5487 1.9547 0.0000 18.4018 0.0000
# 6 0.0000 0.0000 0.0000 16.0461 0.0000 13.3730
#
#
#
# Elastic Compliance Matrix: (Units=1/GPa)
#
#
# Indices 1 2 3 4 5 6 
#
# 1 0.030928 -0.003588 -0.006384 0.000000 0.004875 0.000000
# 2 -0.003588 0.010843 0.000494 0.000000 -0.001417 0.000000
# 3 -0.006384 0.000494 0.014727 0.000000 -0.002410 0.000000
# 4 0.000000 0.000000 0.000000 -0.010510 0.000000 0.012611
# 5 0.004875 -0.001417 -0.002410 0.000000 0.055332 0.000000
# 6 0.000000 0.000000 0.000000 0.012611 0.000000 0.059646
#
#
# Mechanical properties :
#
#
# Convention : Reuss Voigt Hill
#
# Bulk Modulus (GPa) = 26.63690 29.47281 28.05486
# Shear Modulus (GPa) = 25.98280 3.14211 14.56245
#
# Velocity S-wave (km/s) = 3.61049 1.25555 2.70296
# Velocity P-wave (km/s) = 5.54479 4.10956 4.88022
#
# Compressibility (1/GPa) = 0.03754190
#
# Stress axis : x y z
#
# Youngs Moduli (GPa) = 32.33293 92.22685 67.90452
#
# Poissons Ratio (x) = 0.33087 0.43350
# Poissons Ratio (y) = 0.11600 -0.03353
# Poissons Ratio (z) = 0.20641 -0.04554
#
# Static dielectric constant tensor:
#      x y z
#    x 1.731160 0.000000 -0.010660 
#    y 0.000000 1.722230 0.000000 
#    z -0.010660 0.000000 1.738240 
# 
# From -- ./inp_files/11223.got.cif
#   From: 2010.05.17/outbox.cif.g08.bks.cpg/sg10_6_cif.got.tgz:11223.got - 2010.06.03 11:33:40.
