data_PCOD9151251
_publ_section_title
;
Structure prediction by ZEFSAII (Michael W. Deem and Ramdas Pophale) SiO2 
 PCOD9151251
Probable space group: P 2/M
;
_chemical_formula_sum "Si O2"
_cell_formula_units_Z 20
_cell_length_a 5.389209
_cell_length_b 27.750409
_cell_length_c 6.715548
_cell_angle_alpha 90.000000
_cell_angle_beta 90.831193
_cell_angle_gamma 90.000000
_cell_volume 1004.223017
_symmetry_space_group_name_H-M "P 2/M"
_symmetry_group_IT_number 10
_symmetry_cell_setting 'monoclinic'
loop_
_space_group_symop_operation_xyz
x,y,z
-x,y,-z
-x,-y,-z
x,-y,z
loop_
_atom_site_type_symbol
_atom_site_label
_atom_site_fract_x
_atom_site_fract_y
_atom_site_fract_z
Si Si1 0.251892 0.196024 0.625932
Si Si2 0.248227 0.901976 0.874503
Si Si3 0.604499 0.500000 0.262359
Si Si4 0.246331 0.600394 0.867352
Si Si5 0.752293 0.705416 0.131842
Si Si6 0.748263 0.000000 0.374676
O O1 0.500000 0.193581 0.500000
O O2 0.249114 0.148631 0.760727
O O3 0.252618 0.247088 0.736861
O O4 0.000000 0.194238 0.500000
O O5 0.250168 0.950374 0.745926
O O6 0.500000 0.903162 0.000000
O O7 0.000000 0.903342 0.000000
O O8 0.500000 0.500000 0.500000
O O9 0.739478 0.551271 0.256907
O O10 0.500000 0.500000 0.000000
O O11 0.238089 0.652833 0.761895
O O12 0.500000 0.602166 0.000000
O O13 0.000000 0.597413 0.000000
O O14 0.500000 0.706400 0.000000
O O15 0.000000 0.707615 0.000000
O O16 0.500000 0.000000 0.500000
O O17 0.000000 0.000000 0.500000
#
# Coordination Sequence:
#
# PCOD9151251 Si02
#       6
#     4   4   2   4   4   2
#     4  12  24  39  59  89 123 158 201 254 308 361
#     4  12  24  42  64  88 118 160 205 244 296 368
#     4  10  21  40  64  94 130 172 220 274 334 400
#     4   9  19  37  61  88 123 163 211 262 321 385
#     4  10  20  38  61  86 118 160 203 252 308 374
#     4  12  24  42  64  92 124 152 190 250 310 362
#
# _framework density 19.915896
#
# number of rings (size 3 to 8) (size 9 to 14) (size 15 to 20)
#    0.000    1.200    0.000    6.900    0.000    0.800 
#    0.000   12.000    0.000    0.000    0.000    0.000 
#    0.000    0.000    0.000    0.000    0.000    0.000 
#
# Total GULP energy -111357.752802 kJ/mol
# GULP energy per Si atom -5567.887640 kJ/mol
# Density = 1.987057 g / cm^3
# Si number density = 19.915896 Si / 1000 Ang^3
#
#
#
# Elastic Constant Matrix: (Units=GPa)
#
#
# Indices 1 2 3 4 5 6 
#
# 1 202.7020 81.7428 77.6984 0.0000 -10.0655 0.0000
# 2 81.7428 274.5832 107.9332 0.0000 -14.3147 0.0000
# 3 77.6984 107.9332 87.2450 0.0000 -10.6988 0.0000
# 4 0.0000 0.0000 0.0000 77.1495 0.0000 -7.1844
# 5 -10.0655 -14.3147 -10.6988 0.0000 49.8912 0.0000
# 6 0.0000 0.0000 0.0000 -7.1844 0.0000 37.2635
#
#
#
# Elastic Compliance Matrix: (Units=1/GPa)
#
#
# Indices 1 2 3 4 5 6 
#
# 1 0.007574 0.000773 -0.007689 0.000000 0.000101 0.000000
# 2 0.000773 0.007169 -0.009537 0.000000 0.000168 0.000000
# 3 -0.007689 -0.009537 0.030382 0.000000 0.002227 0.000000
# 4 0.000000 0.000000 0.000000 0.013199 0.000000 0.002545
# 5 0.000101 0.000168 0.002227 0.000000 0.020590 0.000000
# 6 0.000000 0.000000 0.000000 0.002545 0.000000 0.027326
#
#
# Mechanical properties :
#
#
# Convention : Reuss Voigt Hill
#
# Bulk Modulus (GPa) = 81.84473 122.14211 101.99342
# Shear Modulus (GPa) = 34.91141 52.67123 43.79132
#
# Velocity S-wave (km/s) = 4.19136 5.14823 4.69424
# Velocity P-wave (km/s) = 8.03789 9.83875 8.98356
#
# Compressibility (1/GPa) = 0.01221826
#
# Stress axis : x y z
#
# Youngs Moduli (GPa) = 132.03103 139.48064 32.91467
#
# Poissons Ratio (x) = -0.10781 0.25308
# Poissons Ratio (y) = -0.10205 0.31392
# Poissons Ratio (z) = 1.01519 1.33027
#
# Static dielectric constant tensor:
#      x y z
#    x 1.690480 0.000000 0.033430 
#    y 0.000000 1.626440 0.000000 
#    z 0.033430 0.000000 2.087660 
# 
# From -- ./inp_files/2137.got.cif
#   From: 2010.05.17/outbox.cif.g08.bks.cpg/sg10_2_cif.got.tgz:2137.got - 2010.06.03 11:33:40.
