data_PCOD9151238
_publ_section_title
;
Structure prediction by ZEFSAII (Michael W. Deem and Ramdas Pophale) SiO2 
 PCOD9151238
Probable space group: P 2/M
;
_chemical_formula_sum "Si O2"
_cell_formula_units_Z 32
_cell_length_a 21.338957
_cell_length_b 7.922922
_cell_length_c 27.216978
_cell_angle_alpha 90.000000
_cell_angle_beta 18.959501
_cell_angle_gamma 90.000000
_cell_volume 1495.022874
_symmetry_space_group_name_H-M "P 2/M"
_symmetry_group_IT_number 10
_symmetry_cell_setting 'monoclinic'
loop_
_space_group_symop_operation_xyz
x,y,z
-x,y,-z
-x,-y,-z
x,-y,z
loop_
_atom_site_type_symbol
_atom_site_label
_atom_site_fract_x
_atom_site_fract_y
_atom_site_fract_z
Si Si1 0.727999 0.704384 0.086517
Si Si2 0.988933 0.794766 0.613193
Si Si3 0.782794 0.801174 0.156780
Si Si4 0.382044 0.302819 0.271660
Si Si5 0.598039 0.804982 0.852929
Si Si6 0.173284 0.796476 0.165610
Si Si7 0.971334 0.297656 0.214908
Si Si8 0.459236 0.702680 0.475027
O O1 0.729188 0.500000 0.087808
O O2 0.715746 0.768791 0.150828
O O3 0.547040 0.755570 0.186962
O O4 0.919743 0.762449 0.915117
O O5 0.791591 0.734503 0.733481
O O6 0.971107 0.749760 0.683687
O O7 0.175363 0.718489 0.449843
O O8 0.000664 0.000000 0.599984
O O9 0.628781 0.738493 0.310829
O O10 0.796731 0.000000 0.154779
O O11 0.000000 0.727337 0.000000
O O12 0.418698 0.500000 0.233294
O O13 0.384584 0.204735 0.218674
O O14 0.592801 0.000000 0.873297
O O15 0.387326 0.730587 0.020031
O O16 0.100294 0.741199 0.166733
O O17 0.185874 0.000000 0.155398
O O18 0.962659 0.500000 0.217292
O O19 0.753334 0.233132 0.382617
O O20 0.500000 0.765813 0.500000
O O21 0.446853 0.500000 0.487064
#
# Coordination Sequence:
#
# PCOD9151238 Si02
#       8
#     4   4   4   4   4   4   4   4
#     4  10  22  41  63  86 118 161 202 243 291 353
#     4  10  22  38  57  83 117 155 198 247 299 361
#     4  11  25  42  63  94 128 159 195 243 292 340
#     4  11  23  38  58  86 118 154 199 249 300 350
#     4  10  20  38  61  83 112 155 201 245 298 361
#     4  10  21  37  59  86 115 153 198 244 298 356
#     4  10  21  39  62  88 118 153 198 247 293 346
#     4  10  22  41  67  94 122 161 201 237 286 349
#
# _framework density 21.404354999999999
#
# number of rings (size 3 to 8) (size 9 to 14) (size 15 to 20)
#    0.000    1.750    1.250    2.250    1.750    8.250 
#    0.000    0.000    0.000    2.250    0.000    0.000 
#    0.000    0.000    0.000    0.000    0.000    0.000 
#
# Total GULP energy -178810.369025 kJ/mol
# GULP energy per Si atom -5587.824032 kJ/mol
# Density = 2.135564 g / cm^3
# Si number density = 21.404355 Si / 1000 Ang^3
#
#
#
# Elastic Constant Matrix: (Units=GPa)
#
#
# Indices 1 2 3 4 5 6 
#
# 1 90.0270 -2.3849 39.2754 0.0000 4.4910 0.0000
# 2 -2.3849 22.0441 4.6605 0.0000 -3.4895 0.0000
# 3 39.2754 4.6605 135.7785 0.0000 -0.9055 0.0000
# 4 0.0000 0.0000 0.0000 20.9106 0.0000 -4.5219
# 5 4.4910 -3.4895 -0.9055 0.0000 32.9466 0.0000
# 6 0.0000 0.0000 0.0000 -4.5219 0.0000 17.0859
#
#
#
# Elastic Compliance Matrix: (Units=1/GPa)
#
#
# Indices 1 2 3 4 5 6 
#
# 1 0.012904 0.001939 -0.003810 0.000000 -0.001658 0.000000
# 2 0.001939 0.046758 -0.002135 0.000000 0.004629 0.000000
# 3 -0.003810 -0.002135 0.008544 0.000000 0.000528 0.000000
# 4 0.000000 0.000000 0.000000 0.050726 0.000000 0.013425
# 5 -0.001658 0.004629 0.000528 0.000000 0.031083 0.000000
# 6 0.000000 0.000000 0.000000 0.013425 0.000000 0.062081
#
#
# Mechanical properties :
#
#
# Convention : Reuss Voigt Hill
#
# Bulk Modulus (GPa) = 16.61312 36.77239 26.69275
# Shear Modulus (GPa) = 20.81841 27.94185 24.38013
#
# Velocity S-wave (km/s) = 3.12208 3.61699 3.37861
# Velocity P-wave (km/s) = 4.55795 5.88733 5.26477
#
# Compressibility (1/GPa) = 0.06019339
#
# Stress axis : x y z
#
# Youngs Moduli (GPa) = 77.49439 21.38691 117.04250
#
# Poissons Ratio (x) = -0.04147 0.44597
# Poissons Ratio (y) = -0.15027 0.24988
# Poissons Ratio (z) = 0.29528 0.04566
#
# Static dielectric constant tensor:
#      x y z
#    x 1.739680 0.000000 -0.020420 
#    y 0.000000 1.789280 0.000000 
#    z -0.020420 0.000000 1.780840 
# 
# From -- ./inp_files/93568.got.cif
#   From: 2010.05.17/outbox.cif.g08.bks.cpg/sg10_47_cif.got.tgz:93568.got - 2010.06.03 11:33:40.
