data_PCOD9151631
_publ_section_title
;
Structure prediction by ZEFSAII (Michael W. Deem and Ramdas Pophale) SiO2 
 PCOD9151631
Probable space group: P 2/M
;
_chemical_formula_sum "Si O2"
_cell_formula_units_Z 32
_cell_length_a 23.542371
_cell_length_b 7.403682
_cell_length_c 14.331681
_cell_angle_alpha 90.000000
_cell_angle_beta 143.872530
_cell_angle_gamma 90.000000
_cell_volume 1472.789021
_symmetry_space_group_name_H-M "P 2/M"
_symmetry_group_IT_number 10
_symmetry_cell_setting 'monoclinic'
loop_
_space_group_symop_operation_xyz
x,y,z
-x,y,-z
-x,-y,-z
x,-y,z
loop_
_atom_site_type_symbol
_atom_site_label
_atom_site_fract_x
_atom_site_fract_y
_atom_site_fract_z
Si Si1 0.589332 0.785833 0.679270
Si Si2 0.064621 0.209699 0.505817
Si Si3 0.424272 0.778925 0.125688
Si Si4 0.577711 0.790509 0.188357
Si Si5 0.279070 0.221723 0.768574
Si Si6 0.209140 0.717710 0.155509
Si Si7 0.012915 0.719299 0.795879
Si Si8 0.103642 0.710218 0.191396
O O1 0.500000 0.712844 0.500000
O O2 0.590901 0.717126 0.788306
O O3 0.689576 0.763281 0.756932
O O4 0.573544 0.000000 0.667629
O O5 0.007002 0.219548 0.333869
O O6 0.000000 0.294077 0.500000
O O7 0.170640 0.286239 0.633301
O O8 0.081133 0.000000 0.553431
O O9 0.523692 0.716820 0.207700
O O10 0.425348 0.000000 0.126793
O O11 0.340467 0.726613 0.941588
O O12 0.671058 0.713129 0.261127
O O13 0.598050 0.000000 0.236953
O O14 0.500000 0.787215 0.000000
O O15 0.282396 0.000000 0.769192
O O16 0.204820 0.500000 0.154026
O O17 0.183670 0.784829 0.226657
O O18 0.117570 0.777263 0.972033
O O19 0.011910 0.500000 0.798120
O O20 0.926750 0.786815 0.749143
O O21 0.128334 0.500000 0.238601
O O22 0.000000 0.714989 0.000000
#
# Coordination Sequence:
#
# PCOD9151631 Si02
#       8
#     4   4   4   4   4   4   4   4
#     4  10  21  34  47  73 107 132 159 200 255 304
#     4  10  21  32  44  71 109 139 166 200 243 295
#     4   8  14  26  46  64  88 128 163 196 240 289
#     4   7  10  20  40  63  82 109 160 206 229 266
#     4   8  14  26  43  65  90 125 168 200 230 281
#     4   9  18  34  57  77  94 128 173 208 246 302
#     4   9  18  34  55  76  98 128 170 212 251 295
#     4   7  12  28  53  75  93 119 162 210 247 292
#
# _framework density 21.727484
#
# number of rings (size 3 to 8) (size 9 to 14) (size 15 to 20)
#    0.000    3.500    0.000    3.000    1.750    1.000 
#    2.250    0.625    0.000    2.250    0.000    0.000 
#    0.000    3.000    0.000    0.000    0.000    0.000 
#
# Total GULP energy -178313.969038 kJ/mol
# GULP energy per Si atom -5572.311532 kJ/mol
# Density = 2.167803 g / cm^3
# Si number density = 21.727484 Si / 1000 Ang^3
#
#
#
# Elastic Constant Matrix: (Units=GPa)
#
#
# Indices 1 2 3 4 5 6 
#
# 1 214.0299 -3.6444 68.9739 0.0000 10.2660 0.0000
# 2 -3.6444 70.8942 -7.0618 0.0000 3.2281 0.0000
# 3 68.9739 -7.0618 56.7053 0.0000 9.8870 0.0000
# 4 0.0000 0.0000 0.0000 0.7447 0.0000 0.4435
# 5 10.2660 3.2281 9.8870 0.0000 33.3159 0.0000
# 6 0.0000 0.0000 0.0000 0.4435 0.0000 6.6682
#
#
#
# Elastic Compliance Matrix: (Units=1/GPa)
#
#
# Indices 1 2 3 4 5 6 
#
# 1 0.007713 -0.000577 -0.009543 0.000000 0.000511 0.000000
# 2 -0.000577 0.014455 0.002864 0.000000 -0.002073 0.000000
# 3 -0.009543 0.002864 0.030725 0.000000 -0.006455 0.000000
# 4 0.000000 0.000000 0.000000 1.398228 0.000000 -0.093000
# 5 0.000511 -0.002073 -0.006455 0.000000 0.031975 0.000000
# 6 0.000000 0.000000 0.000000 -0.093000 0.000000 0.156151
#
#
# Mechanical properties :
#
#
# Convention : Reuss Voigt Hill
#
# Bulk Modulus (GPa) = 26.05489 50.90721 38.48105
# Shear Modulus (GPa) = 3.00020 27.03656 15.01838
#
# Velocity S-wave (km/s) = 1.17636 3.53136 2.63195
# Velocity P-wave (km/s) = 3.72328 6.33309 5.19475
#
# Compressibility (1/GPa) = 0.03838052
#
# Stress axis : x y z
#
# Youngs Moduli (GPa) = 129.64622 69.17790 32.54673
#
# Poissons Ratio (x) = 0.03994 0.31060
# Poissons Ratio (y) = 0.07485 -0.09321
# Poissons Ratio (z) = 1.23724 -0.19812
#
# Static dielectric constant tensor:
#      x y z
#    x 1.823300 0.000000 0.003190 
#    y 0.000000 1.847110 0.000000 
#    z 0.003190 0.000000 1.759090 
# 
# From -- ./inp_files/55733.got.cif
#   From: 2010.05.17/outbox.cif.g08.bks.cpg/sg10_28_cif.got.tgz:55733.got - 2010.06.03 11:33:40.
