data_PCOD9151185
_publ_section_title
;
Structure prediction by ZEFSAII (Michael W. Deem and Ramdas Pophale) SiO2 
 PCOD9151185
Probable space group: P 2/M
;
_chemical_formula_sum "Si O2"
_cell_formula_units_Z 32
_cell_length_a 31.228292
_cell_length_b 7.670181
_cell_length_c 13.393648
_cell_angle_alpha 90.000000
_cell_angle_beta 152.312322
_cell_angle_gamma 90.000000
_cell_volume 1490.665442
_symmetry_space_group_name_H-M "P 2/M"
_symmetry_group_IT_number 10
_symmetry_cell_setting 'monoclinic'
loop_
_space_group_symop_operation_xyz
x,y,z
-x,y,-z
-x,-y,-z
x,-y,z
loop_
_atom_site_type_symbol
_atom_site_label
_atom_site_fract_x
_atom_site_fract_y
_atom_site_fract_z
Si Si1 0.900131 0.295272 0.987369
Si Si2 0.233583 0.791133 0.876427
Si Si3 0.557284 0.789338 0.715810
Si Si4 0.108060 0.710649 0.428247
Si Si5 0.401399 0.713091 0.757497
Si Si6 0.394906 0.295130 0.516493
Si Si7 0.790561 0.198940 0.956851
Si Si8 0.792717 0.713578 0.569289
O O1 0.911340 0.500000 0.989374
O O2 0.841045 0.280790 0.966239
O O3 0.846200 0.225236 0.779271
O O4 0.002952 0.223408 0.213656
O O5 0.166049 0.757868 0.645539
O O6 0.241679 0.000000 0.906001
O O7 0.337483 0.726229 0.069640
O O8 0.196852 0.722130 0.907101
O O9 0.500000 0.731057 0.500000
O O10 0.497220 0.730787 0.686071
O O11 0.558117 0.000000 0.717428
O O12 0.105941 0.500000 0.420479
O O13 0.158301 0.771116 0.430866
O O14 0.403278 0.500000 0.760974
O O15 0.386695 0.767764 0.612817
O O16 0.313716 0.767427 0.641338
O O17 0.500000 0.773431 0.000000
O O18 0.372468 0.500000 0.468260
O O19 0.319003 0.204164 0.290878
O O20 0.823087 0.000000 0.025597
O O21 0.793354 0.500000 0.571019
#
# Coordination Sequence:
#
# PCOD9151185 Si02
#       8
#     4   4   4   4   4   4   4   4
#     4  10  20  38  61  88 114 144 191 245 294 338
#     4  10  23  41  58  79 116 158 194 233 284 345
#     4  10  20  38  58  77 110 155 191 222 270 339
#     4  10  22  37  60  88 115 148 191 243 292 342
#     4   9  18  31  51  83 118 147 177 223 284 341
#     4  11  21  34  57  88 115 146 189 242 285 330
#     4  11  22  39  61  83 112 156 198 235 285 349
#     4   9  17  34  58  83 116 153 186 227 287 352
#
# _framework density 21.466923000000001
#
# number of rings (size 3 to 8) (size 9 to 14) (size 15 to 20)
#    0.000    2.000    2.500    1.125    1.750    4.250 
#    0.000    3.125    0.000    3.000    0.000    0.000 
#    0.000    0.000    0.000    0.000    0.000    0.000 
#
# Total GULP energy -178774.786636 kJ/mol
# GULP energy per Si atom -5586.712082 kJ/mol
# Density = 2.141806 g / cm^3
# Si number density = 21.466923 Si / 1000 Ang^3
#
#
#
# Elastic Constant Matrix: (Units=GPa)
#
#
# Indices 1 2 3 4 5 6 
#
# 1 130.5823 -3.0430 77.6603 0.0000 -14.6841 0.0000
# 2 -3.0430 37.8636 -0.7164 0.0000 -0.2936 0.0000
# 3 77.6603 -0.7164 157.7829 0.0000 3.0597 0.0000
# 4 0.0000 0.0000 0.0000 20.9254 0.0000 -3.7809
# 5 -14.6841 -0.2936 3.0597 0.0000 26.5550 0.0000
# 6 0.0000 0.0000 0.0000 -3.7809 0.0000 11.1472
#
#
#
# Elastic Compliance Matrix: (Units=1/GPa)
#
#
# Indices 1 2 3 4 5 6 
#
# 1 0.012158 0.000919 -0.006124 0.000000 0.007439 0.000000
# 2 0.000919 0.026484 -0.000348 0.000000 0.000841 0.000000
# 3 -0.006124 -0.000348 0.009437 0.000000 -0.004478 0.000000
# 4 0.000000 0.000000 0.000000 0.050909 0.000000 0.017267
# 5 0.007439 0.000841 -0.004478 0.000000 0.042296 0.000000
# 6 0.000000 0.000000 0.000000 0.017267 0.000000 0.095566
#
#
# Mechanical properties :
#
#
# Convention : Reuss Voigt Hill
#
# Bulk Modulus (GPa) = 27.04711 52.67007 39.85859
# Shear Modulus (GPa) = 19.20990 28.54738 23.87864
#
# Velocity S-wave (km/s) = 2.99467 3.65064 3.33880
# Velocity P-wave (km/s) = 4.95824 6.50832 5.78543
#
# Compressibility (1/GPa) = 0.03697253
#
# Stress axis : x y z
#
# Youngs Moduli (GPa) = 82.24907 37.75814 105.96102
#
# Poissons Ratio (x) = -0.03470 0.64894
# Poissons Ratio (y) = -0.07558 0.03691
# Poissons Ratio (z) = 0.50372 0.01315
#
# Static dielectric constant tensor:
#      x y z
#    x 1.759170 0.000000 0.000680 
#    y 0.000000 1.808000 0.000000 
#    z 0.000680 0.000000 1.747330 
# 
# From -- ./inp_files/58222.got.cif
#   From: 2010.05.17/outbox.cif.g08.bks.cpg/sg10_30_cif.got.tgz:58222.got - 2010.06.03 11:33:40.
