data_PCOD9151048
_publ_section_title
;
Structure prediction by ZEFSAII (Michael W. Deem and Ramdas Pophale) SiO2 
 PCOD9151048
Probable space group: P 2/M
;
_chemical_formula_sum "Si O2"
_cell_formula_units_Z 24
_cell_length_a 21.677438
_cell_length_b 7.693168
_cell_length_c 11.191205
_cell_angle_alpha 90.000000
_cell_angle_beta 33.361079
_cell_angle_gamma 90.000000
_cell_volume 1026.323807
_symmetry_space_group_name_H-M "P 2/M"
_symmetry_group_IT_number 10
_symmetry_cell_setting 'monoclinic'
loop_
_space_group_symop_operation_xyz
x,y,z
-x,y,-z
-x,-y,-z
x,-y,z
loop_
_atom_site_type_symbol
_atom_site_label
_atom_site_fract_x
_atom_site_fract_y
_atom_site_fract_z
Si Si1 0.759055 0.212187 0.332613
Si Si2 0.628274 0.210063 0.302311
Si Si3 0.026397 0.802026 0.140404
Si Si4 0.817341 0.701113 0.618263
Si Si5 0.377563 0.201613 0.221359
Si Si6 0.153098 0.700880 0.170492
O O1 0.681212 0.254621 0.345156
O O2 0.696073 0.278099 0.551598
O O3 0.767863 0.000000 0.323789
O O4 0.885673 0.272753 0.098012
O O5 0.500000 0.266717 0.500000
O O6 0.631210 0.000000 0.285248
O O7 0.713506 0.287626 0.067904
O O8 0.096960 0.798819 0.150657
O O9 0.910147 0.715744 0.364643
O O10 0.999188 0.000000 0.151723
O O11 0.791710 0.500000 0.680771
O O12 0.703434 0.790912 0.761566
O O13 0.867202 0.768283 0.663067
O O14 0.396601 0.000000 0.224246
O O15 0.500000 0.279376 0.000000
O O16 0.114724 0.500000 0.223235
#
# Coordination Sequence:
#
# PCOD9151048 Si02
#       6
#     4   4   4   4   4   4
#     4   8  17  35  55  83 115 141 180 239 290 323
#     4   9  18  32  56  84 112 147 188 236 281 331
#     4  10  20  37  62  87 114 146 188 239 288 339
#     4  11  24  39  56  82 119 155 189 233 285 339
#     4  10  22  39  61  84 110 149 195 237 279 336
#     4  10  21  36  54  82 120 153 183 229 287 343
#
# _framework density 23.384433999999999
#
# number of rings (size 3 to 8) (size 9 to 14) (size 15 to 20)
#    0.000    2.333    0.000    3.000    2.333    6.000 
#    0.000    7.500    0.000    0.000    0.000    0.000 
#    0.000    0.000    0.000    0.000    0.000    0.000 
#
# Total GULP energy -134104.075611 kJ/mol
# GULP energy per Si atom -5587.669817 kJ/mol
# Density = 2.333121 g / cm^3
# Si number density = 23.384434 Si / 1000 Ang^3
#
#
#
# Elastic Constant Matrix: (Units=GPa)
#
#
# Indices 1 2 3 4 5 6 
#
# 1 70.4017 -0.9604 49.3012 0.0000 -2.3494 0.0000
# 2 -0.9604 42.6575 3.0381 0.0000 3.6252 0.0000
# 3 49.3012 3.0381 150.8990 0.0000 -5.2654 0.0000
# 4 0.0000 0.0000 0.0000 149.9481 0.0000 -109.3916
# 5 -2.3494 3.6252 -5.2654 0.0000 45.4487 0.0000
# 6 0.0000 0.0000 0.0000 -109.3916 0.0000 129.9613
#
#
#
# Elastic Compliance Matrix: (Units=1/GPa)
#
#
# Indices 1 2 3 4 5 6 
#
# 1 0.018450 0.000829 -0.006038 0.000000 0.000188 0.000000
# 2 0.000829 0.023684 -0.000816 0.000000 -0.001941 0.000000
# 3 -0.006038 -0.000816 0.008642 0.000000 0.000754 0.000000
# 4 0.000000 0.000000 0.000000 0.017280 0.000000 0.014545
# 5 0.000188 -0.001941 0.000754 0.000000 0.022255 0.000000
# 6 0.000000 0.000000 0.000000 0.014545 0.000000 0.019937
#
#
# Mechanical properties :
#
#
# Convention : Reuss Voigt Hill
#
# Bulk Modulus (GPa) = 25.82086 40.74623 33.28355
# Shear Modulus (GPa) = 36.98036 79.24357 58.11196
#
# Velocity S-wave (km/s) = 3.98101 5.82760 4.99046
# Velocity P-wave (km/s) = 5.67425 7.92108 6.88987
#
# Compressibility (1/GPa) = 0.03872838
#
# Stress axis : x y z
#
# Youngs Moduli (GPa) = 54.19997 42.22219 115.70810
#
# Poissons Ratio (x) = -0.03502 0.69866
# Poissons Ratio (y) = -0.04496 0.09437
# Poissons Ratio (z) = 0.32727 0.03443
#
# Static dielectric constant tensor:
#      x y z
#    x 1.891210 0.000000 0.016610 
#    y 0.000000 1.837560 0.000000 
#    z 0.016610 0.000000 1.896610 
# 
# From -- ./inp_files/56534.got.cif
#   From: 2010.05.17/outbox.cif.g08.bks.cpg/sg10_29_cif.got.tgz:56534.got - 2010.06.03 11:33:40.
