data_PCOD9151780
_publ_section_title
;
Structure prediction by ZEFSAII (Michael W. Deem and Ramdas Pophale) SiO2 
 PCOD9151780
Probable space group: P 2/M
;
_chemical_formula_sum "Si O2"
_cell_formula_units_Z 28
_cell_length_a 22.437919
_cell_length_b 13.627266
_cell_length_c 22.565480
_cell_angle_alpha 90.000000
_cell_angle_beta 12.942761
_cell_angle_gamma 90.000000
_cell_volume 1545.398019
_symmetry_space_group_name_H-M "P 2/M"
_symmetry_group_IT_number 10
_symmetry_cell_setting 'monoclinic'
loop_
_space_group_symop_operation_xyz
x,y,z
-x,y,-z
-x,-y,-z
x,-y,z
loop_
_atom_site_type_symbol
_atom_site_label
_atom_site_fract_x
_atom_site_fract_y
_atom_site_fract_z
Si Si1 0.579125 0.614370 0.985815
Si Si2 0.782561 0.884445 0.758562
Si Si3 0.449790 0.885194 0.285462
Si Si4 0.862254 0.387246 0.498736
Si Si5 0.079247 0.804401 0.248244
Si Si6 0.138113 0.880538 0.926868
Si Si7 0.317660 0.119205 0.546427
O O1 0.490388 0.500000 0.069854
O O2 0.404657 0.650735 0.210337
O O3 0.500000 0.660096 0.000000
O O4 0.893436 0.612477 0.691188
O O5 0.000000 0.851341 0.500000
O O6 0.808040 0.825148 0.794935
O O7 0.832011 0.000000 0.724584
O O8 0.500000 0.879283 0.000000
O O9 0.178800 0.872469 0.511119
O O10 0.380774 0.849404 0.418588
O O11 0.524140 0.000000 0.216324
O O12 0.692564 0.829599 0.019500
O O13 0.831352 0.500000 0.507389
O O14 0.965462 0.306001 0.353129
O O15 0.959341 0.849865 0.156179
O O16 0.137419 0.000000 0.925837
O O17 0.441199 0.851279 0.644069
O O18 0.000000 0.847560 0.000000
O O19 0.311772 0.000000 0.550336
#
# Coordination Sequence:
#
# PCOD9151780 Si02
#       7
#     4   4   4   4   4   4   4
#     4   9  17  31  50  69  91 117 140 172 225 287
#     4  10  21  36  51  67  89 115 148 196 247 293
#     4  11  22  36  53  72  96 126 167 212 243 278
#     4  10  21  35  50  71  97 120 150 192 236 295
#     4  12  23  36  54  73  92 125 165 198 251 305
#     4   9  15  24  40  63  92 126 162 193 223 266
#     4   9  17  28  42  63  91 123 159 200 235 260
#
# _framework density 18.118309
#
# number of rings (size 3 to 8) (size 9 to 14) (size 15 to 20)
#    0.000    2.000    0.000    4.714    0.000    8.571 
#    0.000    0.000    0.000    0.000    0.000    0.000 
#    0.000    0.000    0.000    0.000    0.000   50.000 
#
# Total GULP energy -156281.708003 kJ/mol
# GULP energy per Si atom -5581.489572 kJ/mol
# Density = 1.807707 g / cm^3
# Si number density = 18.118309 Si / 1000 Ang^3
#
#
#
# Elastic Constant Matrix: (Units=GPa)
#
#
# Indices 1 2 3 4 5 6 
#
# 1 36.3973 9.7396 -6.0191 0.0000 6.0649 0.0000
# 2 9.7396 52.7015 -2.1133 0.0000 12.6403 0.0000
# 3 -6.0191 -2.1133 72.3351 0.0000 7.0636 0.0000
# 4 0.0000 0.0000 0.0000 16.2817 0.0000 6.5902
# 5 6.0649 12.6403 7.0636 0.0000 26.8904 0.0000
# 6 0.0000 0.0000 0.0000 6.5902 0.0000 -0.9902
#
#
#
# Elastic Compliance Matrix: (Units=1/GPa)
#
#
# Indices 1 2 3 4 5 6 
#
# 1 0.029985 -0.004078 0.002924 0.000000 -0.005614 0.000000
# 2 -0.004078 0.022134 0.001266 0.000000 -0.009817 0.000000
# 3 0.002924 0.001266 0.014602 0.000000 -0.005090 0.000000
# 4 0.000000 0.000000 0.000000 0.016627 0.000000 0.110660
# 5 -0.005614 -0.009817 -0.005090 0.000000 0.044406 0.000000
# 6 0.000000 0.000000 0.000000 0.110660 0.000000 -0.273395
#
#
# Mechanical properties :
#
#
# Convention : Reuss Voigt Hill
#
# Bulk Modulus (GPa) = 14.93749 18.29424 16.61586
# Shear Modulus (GPa) = -40.46904 19.09150 -10.68877
#
# Velocity S-wave (km/s) = -4.73122 3.24962 -2.43151
# Velocity P-wave (km/s) = 4.64582 4.91925 1.14354
#
# Compressibility (1/GPa) = 0.06694567
#
# Stress axis : x y z
#
# Youngs Moduli (GPa) = 33.35027 45.17985 68.48409
#
# Poissons Ratio (x) = 0.18422 -0.20026
# Poissons Ratio (y) = 0.13599 -0.08670
# Poissons Ratio (z) = -0.09752 -0.05720
#
# Static dielectric constant tensor:
#      x y z
#    x 1.641890 0.000000 -0.006920 
#    y 0.000000 1.673890 0.000000 
#    z -0.006920 0.000000 1.648180 
# 
# From -- ./inp_files/90941.got.cif
#   From: 2010.05.17/outbox.cif.g08.bks.cpg/sg10_46_cif.got.tgz:90941.got - 2010.06.03 11:33:40.
