data_PCOD9151825
_publ_section_title
;
Structure prediction by ZEFSAII (Michael W. Deem and Ramdas Pophale) SiO2 
 PCOD9151825
Probable space group: P 2/M
;
_chemical_formula_sum "Si O2"
_cell_formula_units_Z 32
_cell_length_a 9.696622
_cell_length_b 14.598736
_cell_length_c 24.463662
_cell_angle_alpha 90.000000
_cell_angle_beta 149.157806
_cell_angle_gamma 90.000000
_cell_volume 1775.413713
_symmetry_space_group_name_H-M "P 2/M"
_symmetry_group_IT_number 10
_symmetry_cell_setting 'monoclinic'
loop_
_space_group_symop_operation_xyz
x,y,z
-x,y,-z
-x,-y,-z
x,-y,z
loop_
_atom_site_type_symbol
_atom_site_label
_atom_site_fract_x
_atom_site_fract_y
_atom_site_fract_z
Si Si1 0.076155 0.598756 0.962465
Si Si2 0.399075 0.894829 0.700716
Si Si3 0.387591 0.894844 0.345688
Si Si4 0.418848 0.895368 0.036010
Si Si5 0.087700 0.208046 0.093132
Si Si6 0.644750 0.393718 0.107220
Si Si7 0.067636 0.783699 0.760012
Si Si8 0.126841 0.893774 0.408119
O O1 0.006127 0.500000 0.913098
O O2 0.938277 0.689204 0.892442
O O3 0.395776 0.610255 0.064686
O O4 0.000000 0.594718 0.000000
O O5 0.437198 0.880217 0.649077
O O6 0.102443 0.884319 0.623523
O O7 0.613257 0.829221 0.801678
O O8 0.480243 0.000000 0.739557
O O9 0.586290 0.885161 0.464850
O O10 0.135259 0.828040 0.264973
O O11 0.287887 0.000000 0.310130
O O12 0.643141 0.833580 0.141076
O O13 0.433536 0.000000 0.060319
O O14 0.500000 0.892995 0.000000
O O15 0.124244 0.855712 0.947264
O O16 0.000000 0.209172 0.000000
O O17 0.734380 0.500000 0.133672
O O18 0.866506 0.321001 0.201980
O O19 0.500000 0.368757 0.000000
O O20 0.934236 0.816792 0.657760
O O21 0.106159 0.000000 0.379597
#
# Coordination Sequence:
#
# PCOD9151825 Si02
#       8
#     4   4   4   4   4   4   4   4
#     4   9  19  35  54  76 106 140 176 217 259 310
#     4  10  21  35  53  76 107 148 186 218 265 323
#     4  10  21  37  56  78 106 142 187 233 273 316
#     4  11  22  33  46  71 110 146 173 206 256 318
#     4  11  21  32  50  77 110 143 173 218 261 320
#     4  10  22  39  57  81 113 146 180 219 266 326
#     4  12  21  33  55  81 105 139 180 222 271 319
#     4  10  21  37  56  79 107 140 184 235 276 315
#
# _framework density 18.023968
#
# number of rings (size 3 to 8) (size 9 to 14) (size 15 to 20)
#    0.000    1.625    1.250    4.125    3.500    6.500 
#    0.000    0.000    0.000    1.500    0.000    0.000 
#    0.000    3.000    0.000    0.000    0.000    0.000 
#
# Total GULP energy -178626.438184 kJ/mol
# GULP energy per Si atom -5582.076193 kJ/mol
# Density = 1.798294 g / cm^3
# Si number density = 18.023968 Si / 1000 Ang^3
#
#
#
# Elastic Constant Matrix: (Units=GPa)
#
#
# Indices 1 2 3 4 5 6 
#
# 1 83.5826 26.1067 11.7190 0.0000 9.7915 0.0000
# 2 26.1067 117.6074 38.3990 0.0000 0.9514 0.0000
# 3 11.7190 38.3990 56.2568 0.0000 2.1696 0.0000
# 4 0.0000 0.0000 0.0000 16.8136 0.0000 -6.8294
# 5 9.7915 0.9514 2.1696 0.0000 32.5838 0.0000
# 6 0.0000 0.0000 0.0000 -6.8294 0.0000 7.1225
#
#
#
# Elastic Compliance Matrix: (Units=1/GPa)
#
#
# Indices 1 2 3 4 5 6 
#
# 1 0.013367 -0.002671 -0.000812 0.000000 -0.003885 0.000000
# 2 -0.002671 0.011476 -0.007313 0.000000 0.000954 0.000000
# 3 -0.000812 -0.007313 0.022978 0.000000 -0.001073 0.000000
# 4 0.000000 0.000000 0.000000 0.097417 0.000000 0.093409
# 5 -0.003885 0.000954 -0.001073 0.000000 0.031901 0.000000
# 6 0.000000 0.000000 0.000000 0.093409 0.000000 0.229966
#
#
# Mechanical properties :
#
#
# Convention : Reuss Voigt Hill
#
# Bulk Modulus (GPa) = 38.12559 45.54404 41.83481
# Shear Modulus (GPa) = 11.43013 23.38543 17.40778
#
# Velocity S-wave (km/s) = 2.52099 3.60594 3.11112
# Velocity P-wave (km/s) = 5.44725 6.53150 6.01386
#
# Compressibility (1/GPa) = 0.02622910
#
# Stress axis : x y z
#
# Youngs Moduli (GPa) = 74.80910 87.13915 43.51983
#
# Poissons Ratio (x) = 0.23274 0.03533
# Poissons Ratio (y) = 0.19980 0.31828
# Poissons Ratio (z) = 0.06073 0.63729
#
# Static dielectric constant tensor:
#      x y z
#    x 1.679240 0.000000 -0.026730 
#    y 0.000000 1.641790 0.000000 
#    z -0.026730 0.000000 1.592400 
# 
# From -- ./inp_files/88261.got.cif
#   From: 2010.05.17/outbox.cif.g08.bks.cpg/sg10_45_cif.got.tgz:88261.got - 2010.06.03 11:33:40.
