data_PCOD9151599
_publ_section_title
;
Structure prediction by ZEFSAII (Michael W. Deem and Ramdas Pophale) SiO2 
 PCOD9151599
Probable space group: P 2/M
;
_chemical_formula_sum "Si O2"
_cell_formula_units_Z 32
_cell_length_a 15.740666
_cell_length_b 13.455716
_cell_length_c 23.256308
_cell_angle_alpha 90.000000
_cell_angle_beta 18.480190
_cell_angle_gamma 90.000000
_cell_volume 1561.342212
_symmetry_space_group_name_H-M "P 2/M"
_symmetry_group_IT_number 10
_symmetry_cell_setting 'monoclinic'
loop_
_space_group_symop_operation_xyz
x,y,z
-x,y,-z
-x,-y,-z
x,-y,z
loop_
_atom_site_type_symbol
_atom_site_label
_atom_site_fract_x
_atom_site_fract_y
_atom_site_fract_z
Si Si1 0.306851 0.387298 0.283386
Si Si2 0.955779 0.116660 0.803829
Si Si3 0.800155 0.610192 0.336646
Si Si4 0.052580 0.237344 0.843031
Si Si5 0.460347 0.737962 0.761942
Si Si6 0.583231 0.230271 0.882053
Si Si7 0.120921 0.118658 0.569210
Si Si8 0.438115 0.382850 0.665437
O O1 0.416669 0.500000 0.211072
O O2 0.428940 0.314841 0.252719
O O3 0.337405 0.327462 0.204559
O O4 0.000000 0.395169 0.500000
O O5 0.111913 0.146036 0.762318
O O6 0.112252 0.139324 0.643778
O O7 0.903871 0.000000 0.836883
O O8 0.668114 0.171859 0.984588
O O9 0.500000 0.615705 0.500000
O O10 0.899448 0.500000 0.265209
O O11 0.730851 0.626901 0.447800
O O12 0.993796 0.682065 0.178542
O O13 0.263540 0.297867 0.746110
O O14 0.814247 0.214073 0.039309
O O15 0.650690 0.818061 0.609328
O O16 0.423139 0.648067 0.740735
O O17 0.838090 0.156977 0.725111
O O18 0.500000 0.258007 0.000000
O O19 0.150478 0.000000 0.542394
O O20 0.359353 0.500000 0.707250
#
# Coordination Sequence:
#
# PCOD9151599 Si02
#       8
#     4   4   4   4   4   4   4   4
#     4  11  23  40  58  86 127 165 196 237 300 369
#     4  10  21  39  63  93 121 154 203 260 314 358
#     4   8  16  33  56  80 108 145 196 251 295 338
#     4  11  21  35  58  88 120 155 198 254 298 353
#     4  12  23  38  59  88 127 162 200 246 303 360
#     4  10  20  41  67  92 119 154 203 255 303 360
#     4  10  22  41  66  91 121 159 204 253 307 368
#     4  10  22  40  62  87 119 164 211 253 299 358
#
# _framework density 20.495187999999999
#
# number of rings (size 3 to 8) (size 9 to 14) (size 15 to 20)
#    0.000    1.750    2.500    3.000    0.000    4.750 
#    0.000    1.250    0.000    6.375    0.000    0.000 
#    0.000    0.000    0.000    0.000    0.000    0.000 
#
# Total GULP energy -178353.205516 kJ/mol
# GULP energy per Si atom -5573.537672 kJ/mol
# Density = 2.044854 g / cm^3
# Si number density = 20.495188 Si / 1000 Ang^3
#
#
#
# Elastic Constant Matrix: (Units=GPa)
#
#
# Indices 1 2 3 4 5 6 
#
# 1 47.3894 14.5836 27.1569 0.0000 16.8212 0.0000
# 2 14.5836 110.6503 56.6082 0.0000 12.5122 0.0000
# 3 27.1569 56.6082 108.5212 0.0000 20.9302 0.0000
# 4 0.0000 0.0000 0.0000 15.1615 0.0000 2.0594
# 5 16.8212 12.5122 20.9302 0.0000 23.3188 0.0000
# 6 0.0000 0.0000 0.0000 2.0594 0.0000 29.0021
#
#
#
# Elastic Compliance Matrix: (Units=1/GPa)
#
#
# Indices 1 2 3 4 5 6 
#
# 1 0.029734 0.000198 -0.004096 0.000000 -0.017879 0.000000
# 2 0.000198 0.012349 -0.006271 0.000000 -0.001140 0.000000
# 3 -0.004096 -0.006271 0.014866 0.000000 -0.007023 0.000000
# 4 0.000000 0.000000 0.000000 0.066599 0.000000 -0.004729
# 5 -0.017879 -0.001140 -0.007023 0.000000 0.062697 0.000000
# 6 0.000000 0.000000 0.000000 -0.004729 0.000000 0.034816
#
#
# Mechanical properties :
#
#
# Convention : Reuss Voigt Hill
#
# Bulk Modulus (GPa) = 27.31444 51.47315 39.39379
# Shear Modulus (GPa) = 19.71598 24.71063 22.21331
#
# Velocity S-wave (km/s) = 3.10495 3.47606 3.29573
# Velocity P-wave (km/s) = 5.11961 6.42494 5.80906
#
# Compressibility (1/GPa) = 0.03661068
#
# Stress axis : x y z
#
# Youngs Moduli (GPa) = 33.63124 80.98112 67.26944
#
# Poissons Ratio (x) = -0.01606 0.27554
# Poissons Ratio (y) = -0.00667 0.42186
# Poissons Ratio (z) = 0.13775 0.50784
#
# Static dielectric constant tensor:
#      x y z
#    x 1.789980 0.000000 -0.008950 
#    y 0.000000 1.788160 0.000000 
#    z -0.008950 0.000000 1.775690 
# 
# From -- ./inp_files/90200.got.cif
#   From: 2010.05.17/outbox.cif.g08.bks.cpg/sg10_46_cif.got.tgz:90200.got - 2010.06.03 11:33:40.
