data_PCOD9151806
_publ_section_title
;
Structure prediction by ZEFSAII (Michael W. Deem and Ramdas Pophale) SiO2 
 PCOD9151806
Probable space group: P 2/M
;
_chemical_formula_sum "Si O2"
_cell_formula_units_Z 32
_cell_length_a 9.189107
_cell_length_b 13.744798
_cell_length_c 23.477055
_cell_angle_alpha 90.000000
_cell_angle_beta 147.421407
_cell_angle_gamma 90.000000
_cell_volume 1596.634461
_symmetry_space_group_name_H-M "P 2/M"
_symmetry_group_IT_number 10
_symmetry_cell_setting 'monoclinic'
loop_
_space_group_symop_operation_xyz
x,y,z
-x,y,-z
-x,-y,-z
x,-y,z
loop_
_atom_site_type_symbol
_atom_site_label
_atom_site_fract_x
_atom_site_fract_y
_atom_site_fract_z
Si Si1 0.194674 0.700796 0.613614
Si Si2 0.772835 0.207469 0.627286
Si Si3 0.255905 0.609606 0.054948
Si Si4 0.179003 0.111830 0.679078
Si Si5 0.816545 0.885684 0.884125
Si Si6 0.800406 0.390897 0.094928
Si Si7 0.236536 0.764207 0.247280
Si Si8 0.144961 0.614104 0.719314
O O1 0.104773 0.807638 0.607188
O O2 0.491182 0.714265 0.685634
O O3 0.181658 0.632073 0.664027
O O4 0.000000 0.666310 0.500000
O O5 0.500000 0.201238 0.500000
O O6 0.718031 0.186467 0.676019
O O7 0.995563 0.135667 0.673149
O O8 0.908003 0.314395 0.662009
O O9 0.282041 0.500000 0.088752
O O10 0.561953 0.647393 0.158872
O O11 0.160089 0.601000 0.959121
O O12 0.000000 0.659322 0.000000
O O13 0.499373 0.128362 0.795318
O O14 0.142945 0.000000 0.649316
O O15 0.862845 0.827743 0.839989
O O16 0.855011 0.000000 0.884302
O O17 0.000000 0.864294 0.000000
O O18 0.803113 0.500000 0.121078
O O19 0.019241 0.318412 0.189525
O O20 0.500000 0.350556 0.000000
O O21 0.098467 0.500000 0.715843
#
# Coordination Sequence:
#
# PCOD9151806 Si02
#       8
#     4   4   4   4   4   4   4   4
#     4  10  21  38  57  83 114 143 191 252 293 335
#     4  11  24  41  57  82 119 153 196 250 290 333
#     4   9  17  31  52  77 103 134 179 231 275 322
#     4   9  20  40  63  84 111 149 188 231 290 350
#     4   9  20  40  64  91 122 151 183 229 285 353
#     4  10  21  35  51  77 113 147 183 229 276 329
#     4  11  22  35  60  88 114 154 195 236 292 346
#     4  10  21  38  58  79 112 159 199 235 290 351
#
# _framework density 20.042157
#
# number of rings (size 3 to 8) (size 9 to 14) (size 15 to 20)
#    0.000    2.125    0.000    3.000    0.000    9.000 
#    0.000    3.750    0.000    2.625    0.000    0.000 
#    0.000    0.000    0.000    0.000    0.000    0.000 
#
# Total GULP energy -178437.669097 kJ/mol
# GULP energy per Si atom -5576.177159 kJ/mol
# Density = 1.999654 g / cm^3
# Si number density = 20.042157 Si / 1000 Ang^3
#
#
#
# Elastic Constant Matrix: (Units=GPa)
#
#
# Indices 1 2 3 4 5 6 
#
# 1 109.4610 2.7752 35.0308 0.0000 -10.0778 0.0000
# 2 2.7752 58.5725 12.5255 0.0000 4.3075 0.0000
# 3 35.0308 12.5255 87.7729 0.0000 -19.2119 0.0000
# 4 0.0000 0.0000 0.0000 1621.4883 0.0000 -392.5088
# 5 -10.0778 4.3075 -19.2119 0.0000 37.3236 0.0000
# 6 0.0000 0.0000 0.0000 -392.5088 0.0000 118.2947
#
#
#
# Elastic Compliance Matrix: (Units=1/GPa)
#
#
# Indices 1 2 3 4 5 6 
#
# 1 0.010499 0.000325 -0.004084 0.000000 0.000695 0.000000
# 2 0.000325 0.018098 -0.003550 0.000000 -0.003828 0.000000
# 3 -0.004084 -0.003550 0.015077 0.000000 0.007067 0.000000
# 4 0.000000 0.000000 0.000000 0.003134 0.000000 0.010398
# 5 0.000695 -0.003828 0.007067 0.000000 0.031060 0.000000
# 6 0.000000 0.000000 0.000000 0.010398 0.000000 0.042953
#
#
# Mechanical properties :
#
#
# Convention : Reuss Voigt Hill
#
# Bulk Modulus (GPa) = 34.41870 39.60771 37.01321
# Shear Modulus (GPa) = 34.45323 369.11965 201.78644
#
# Velocity S-wave (km/s) = 4.15063 13.58571 10.04488
# Velocity P-wave (km/s) = 6.33882 16.30645 12.37095
#
# Compressibility (1/GPa) = 0.02905397
#
# Stress axis : x y z
#
# Youngs Moduli (GPa) = 95.25156 55.25406 66.32751
#
# Poissons Ratio (x) = -0.01795 0.27090
# Poissons Ratio (y) = -0.03095 0.23548
# Poissons Ratio (z) = 0.38904 0.19617
#
# Static dielectric constant tensor:
#      x y z
#    x 1.759880 0.000000 -0.007100 
#    y 0.000000 1.744950 0.000000 
#    z -0.007100 0.000000 1.709600 
# 
# From -- ./inp_files/88272.got.cif
#   From: 2010.05.17/outbox.cif.g08.bks.cpg/sg10_45_cif.got.tgz:88272.got - 2010.06.03 11:33:40.
