data_PCOD9151551
_publ_section_title
;
Structure prediction by ZEFSAII (Michael W. Deem and Ramdas Pophale) SiO2 
 PCOD9151551
Probable space group: P 2/M
;
_chemical_formula_sum "Si O2"
_cell_formula_units_Z 32
_cell_length_a 11.222533
_cell_length_b 9.517361
_cell_length_c 25.043539
_cell_angle_alpha 90.000000
_cell_angle_beta 36.412790
_cell_angle_gamma 90.000000
_cell_volume 1587.800606
_symmetry_space_group_name_H-M "P 2/M"
_symmetry_group_IT_number 10
_symmetry_cell_setting 'monoclinic'
loop_
_space_group_symop_operation_xyz
x,y,z
-x,y,-z
-x,-y,-z
x,-y,z
loop_
_atom_site_type_symbol
_atom_site_label
_atom_site_fract_x
_atom_site_fract_y
_atom_site_fract_z
Si Si1 0.563081 0.838822 0.212628
Si Si2 0.192603 0.663872 0.359360
Si Si3 0.411717 0.837053 0.591353
Si Si4 0.031477 0.339260 0.753833
Si Si5 0.117606 0.662774 0.848774
Si Si6 0.436624 0.660872 0.085033
Si Si7 0.738269 0.335649 0.537968
Si Si8 0.237655 0.838383 0.972991
O O1 0.352529 0.765541 0.274639
O O2 0.677050 0.746098 0.215450
O O3 0.706632 0.836745 0.109264
O O4 0.534151 0.000000 0.239746
O O5 0.226076 0.500000 0.333344
O O6 0.233024 0.678592 0.408554
O O7 0.958751 0.696993 0.434196
O O8 0.500000 0.826999 0.500000
O O9 0.194870 0.764396 0.671089
O O10 0.564248 0.757687 0.575960
O O11 0.395915 0.000000 0.612216
O O12 0.076328 0.500000 0.721319
O O13 0.054493 0.332285 0.809754
O O14 0.799762 0.310672 0.824171
O O15 0.140961 0.500000 0.855932
O O16 0.945474 0.739313 0.944621
O O17 0.476968 0.500000 0.089474
O O18 0.569992 0.774501 0.066661
O O19 0.500000 0.663499 0.000000
O O20 0.693933 0.500000 0.543642
O O21 0.195432 0.000000 0.003720
#
# Coordination Sequence:
#
# PCOD9151551 Si02
#       8
#     4   4   4   4   4   4   4   4
#     4  11  24  38  53  83 124 157 191 236 288 350
#     4   9  19  37  61  88 114 146 190 241 292 346
#     4  11  25  41  57  84 122 158 194 239 290 347
#     4  10  22  40  64  90 115 149 194 246 296 344
#     4  11  22  39  62  86 114 150 197 246 291 343
#     4  10  20  40  64  87 116 148 194 249 292 341
#     4   9  19  38  63  87 113 146 192 243 290 345
#     4  11  24  39  56  83 120 158 193 236 291 348
#
# _framework density 20.153663999999999
#
# number of rings (size 3 to 8) (size 9 to 14) (size 15 to 20)
#    0.000    1.750    1.250    3.375    0.000   11.250 
#    0.000    6.250    0.000    0.000    0.000    0.000 
#    0.000    0.000    0.000    0.000    0.000    0.000 
#
# Total GULP energy -178895.224683 kJ/mol
# GULP energy per Si atom -5590.475771 kJ/mol
# Density = 2.010779 g / cm^3
# Si number density = 20.153664 Si / 1000 Ang^3
#
#
#
# Elastic Constant Matrix: (Units=GPa)
#
#
# Indices 1 2 3 4 5 6 
#
# 1 34.9451 25.6692 -0.2330 0.0000 -14.7033 0.0000
# 2 25.6692 119.9793 66.4905 0.0000 -15.2104 0.0000
# 3 -0.2330 66.4905 106.6330 0.0000 -18.7243 0.0000
# 4 0.0000 0.0000 0.0000 29.4088 0.0000 20.2570
# 5 -14.7033 -15.2104 -18.7243 0.0000 22.4600 0.0000
# 6 0.0000 0.0000 0.0000 20.2570 0.0000 -16.2397
#
#
#
# Elastic Compliance Matrix: (Units=1/GPa)
#
#
# Indices 1 2 3 4 5 6 
#
# 1 0.059683 -0.017702 0.018655 0.000000 0.042635 0.000000
# 2 -0.017702 0.018093 -0.013125 0.000000 -0.010278 0.000000
# 3 0.018655 -0.013125 0.021305 0.000000 0.021085 0.000000
# 4 0.000000 0.000000 0.000000 0.018289 0.000000 0.022814
# 5 0.042635 -0.010278 0.021085 0.000000 0.083052 0.000000
# 6 0.000000 0.000000 0.000000 0.022814 0.000000 -0.033120
#
#
# Mechanical properties :
#
#
# Convention : Reuss Voigt Hill
#
# Bulk Modulus (GPa) = 13.38042 49.49010 31.43526
# Shear Modulus (GPa) = 23.08847 18.43454 20.76151
#
# Velocity S-wave (km/s) = 3.38838 3.02768 3.21309
# Velocity P-wave (km/s) = 4.68633 6.06895 5.42189
#
# Compressibility (1/GPa) = 0.07473608
#
# Stress axis : x y z
#
# Youngs Moduli (GPa) = 16.75531 55.27038 46.93655
#
# Poissons Ratio (x) = 0.97841 -0.87560
# Poissons Ratio (y) = 0.29661 0.61605
# Poissons Ratio (z) = -0.31257 0.72543
#
# Static dielectric constant tensor:
#      x y z
#    x 1.718340 0.000000 0.006630 
#    y 0.000000 1.680560 0.000000 
#    z 0.006630 0.000000 1.730100 
# 
# From -- ./inp_files/94940.got.cif
#   From: 2010.05.17/outbox.cif.g08.bks.cpg/sg10_48_cif.got.tgz:94940.got - 2010.06.03 11:33:40.
