data_PCOD9151041
_publ_section_title
;
Structure prediction by ZEFSAII (Michael W. Deem and Ramdas Pophale) SiO2 
 PCOD9151041
Probable space group: P 2/M
;
_chemical_formula_sum "Si O2"
_cell_formula_units_Z 32
_cell_length_a 12.009225
_cell_length_b 7.617695
_cell_length_c 28.920433
_cell_angle_alpha 90.000000
_cell_angle_beta 29.237958
_cell_angle_gamma 90.000000
_cell_volume 1292.268235
_symmetry_space_group_name_H-M "P 2/M"
_symmetry_group_IT_number 10
_symmetry_cell_setting 'monoclinic'
loop_
_space_group_symop_operation_xyz
x,y,z
-x,y,-z
-x,-y,-z
x,-y,z
loop_
_atom_site_type_symbol
_atom_site_label
_atom_site_fract_x
_atom_site_fract_y
_atom_site_fract_z
Si Si1 0.795736 0.793492 0.718960
Si Si2 0.829012 0.788287 0.205387
Si Si3 0.469955 0.213979 0.412907
Si Si4 0.198271 0.800079 0.632860
Si Si5 0.029736 0.297659 0.438232
Si Si6 0.042170 0.197801 0.935326
Si Si7 0.567590 0.702459 0.073940
Si Si8 0.161874 0.708617 0.160271
O O1 0.594271 0.710260 0.821799
O O2 0.036391 0.720285 0.652238
O O3 0.799593 0.775961 0.662380
O O4 0.789083 0.000000 0.732420
O O5 0.632932 0.728313 0.311575
O O6 0.811387 0.721571 0.159313
O O7 0.068494 0.739736 0.143009
O O8 0.818491 0.000000 0.206939
O O9 0.577886 0.273737 0.422791
O O10 0.220274 0.279600 0.493061
O O11 0.469065 0.000000 0.414140
O O12 0.021464 0.801858 0.740228
O O13 0.248217 0.000000 0.600249
O O14 0.094286 0.500000 0.421094
O O15 0.000000 0.215560 0.500000
O O16 0.131588 0.000000 0.912305
O O17 0.791457 0.190111 0.003886
O O18 0.000000 0.286280 0.000000
O O19 0.632947 0.500000 0.042211
O O20 0.409738 0.763758 0.088415
O O21 0.149980 0.500000 0.173731
#
# Coordination Sequence:
#
# PCOD9151041 Si02
#       8
#     4   4   4   4   4   4   4   4
#     4  10  20  37  62  86 110 144 183 224 272 327
#     4   9  19  36  57  81 111 144 180 228 278 323
#     4   9  18  35  58  82 109 142 181 225 275 330
#     4   8  16  32  55  84 113 138 171 219 274 329
#     4  11  25  41  54  76 112 149 188 232 274 321
#     4  10  22  39  57  80 109 145 194 239 272 319
#     4  10  21  37  57  84 117 147 177 222 279 332
#     4   9  17  30  52  82 113 143 177 217 267 333
#
# _framework density 24.76266
#
# number of rings (size 3 to 8) (size 9 to 14) (size 15 to 20)
#    0.000    2.500    0.000    2.250    0.000    7.750 
#    0.000    6.250    0.000    0.000    0.000    0.000 
#    0.000    0.000    0.000    0.000    0.000    0.000 
#
# Total GULP energy -178726.416379 kJ/mol
# GULP energy per Si atom -5585.200512 kJ/mol
# Density = 2.470630 g / cm^3
# Si number density = 24.762660 Si / 1000 Ang^3
#
#
#
# Elastic Constant Matrix: (Units=GPa)
#
#
# Indices 1 2 3 4 5 6 
#
# 1 78.8819 -5.0584 27.8549 0.0000 48.0966 0.0000
# 2 -5.0584 65.3760 -5.3075 0.0000 4.4346 0.0000
# 3 27.8549 -5.3075 69.2740 0.0000 27.3347 0.0000
# 4 0.0000 0.0000 0.0000 9.8736 0.0000 -4.4254
# 5 48.0966 4.4346 27.3347 0.0000 52.6839 0.0000
# 6 0.0000 0.0000 0.0000 -4.4254 0.0000 14.9473
#
#
#
# Elastic Compliance Matrix: (Units=1/GPa)
#
#
# Indices 1 2 3 4 5 6 
#
# 1 0.029731 0.004047 -0.001006 0.000000 -0.026961 0.000000
# 2 0.004047 0.016188 0.002023 0.000000 -0.006107 0.000000
# 3 -0.001006 0.002023 0.018484 0.000000 -0.008842 0.000000
# 4 0.000000 0.000000 0.000000 0.116776 0.000000 0.034574
# 5 -0.026961 -0.006107 -0.008842 0.000000 0.048696 0.000000
# 6 0.000000 0.000000 0.000000 0.034574 0.000000 0.077138
#
#
# Mechanical properties :
#
#
# Convention : Reuss Voigt Hill
#
# Bulk Modulus (GPa) = 13.41744 27.61223 20.51484
# Shear Modulus (GPa) = 15.54107 28.57048 22.05578
#
# Velocity S-wave (km/s) = 2.50791 3.40041 2.98768
# Velocity P-wave (km/s) = 3.71704 5.15674 4.49491
#
# Compressibility (1/GPa) = 0.07452985
#
# Stress axis : x y z
#
# Youngs Moduli (GPa) = 33.63526 61.77508 54.10123
#
# Poissons Ratio (x) = -0.25003 0.05444
# Poissons Ratio (y) = -0.13614 -0.10942
# Poissons Ratio (z) = 0.03384 -0.12494
#
# Static dielectric constant tensor:
#      x y z
#    x 2.007850 0.000000 0.036160 
#    y 0.000000 1.950550 0.000000 
#    z 0.036160 0.000000 1.993230 
# 
# From -- ./inp_files/49933.got.cif
#   From: 2010.05.17/outbox.cif.g08.bks.cpg/sg10_25_cif.got.tgz:49933.got - 2010.06.03 11:33:40.
