data_PCOD9151014
_publ_section_title
;
Structure prediction by ZEFSAII (Michael W. Deem and Ramdas Pophale) SiO2 
 PCOD9151014
Probable space group: P 2/M
;
_chemical_formula_sum "Si O2"
_cell_formula_units_Z 28
_cell_length_a 24.791811
_cell_length_b 8.136261
_cell_length_c 9.569527
_cell_angle_alpha 90.000000
_cell_angle_beta 144.121192
_cell_angle_gamma 90.000000
_cell_volume 1131.292982
_symmetry_space_group_name_H-M "P 2/M"
_symmetry_group_IT_number 10
_symmetry_cell_setting 'monoclinic'
loop_
_space_group_symop_operation_xyz
x,y,z
-x,y,-z
-x,-y,-z
x,-y,z
loop_
_atom_site_type_symbol
_atom_site_label
_atom_site_fract_x
_atom_site_fract_y
_atom_site_fract_z
Si Si1 0.569452 0.681525 0.514778
Si Si2 0.281108 0.691403 0.514790
Si Si3 0.181784 0.802388 0.040580
Si Si4 0.904048 0.193967 0.728286
Si Si5 0.014375 0.306350 0.374049
Si Si6 0.278770 0.186118 0.988545
Si Si7 0.594225 0.193373 0.990732
O O1 0.500000 0.670528 0.500000
O O2 0.611881 0.500000 0.586548
O O3 0.641248 0.812422 0.724765
O O4 0.503697 0.726047 0.248156
O O5 0.301498 0.500000 0.553599
O O6 0.259905 0.757230 0.316167
O O7 0.186772 0.721769 0.403258
O O8 0.363318 0.780219 0.768775
O O9 0.200054 0.736678 0.920887
O O10 0.172569 0.000000 0.015539
O O11 0.088326 0.723670 0.901141
O O12 0.916165 0.222822 0.588098
O O13 0.894850 0.000000 0.738593
O O14 0.000000 0.251521 0.000000
O O15 0.033956 0.500000 0.421776
O O16 0.000000 0.236649 0.500000
O O17 0.252397 0.000000 0.896726
O O18 0.328010 0.261075 0.956353
O O19 0.584829 0.000000 0.940366
#
# Coordination Sequence:
#
# PCOD9151014 Si02
#       7
#     4   4   4   4   4   4   4
#     4   9  17  32  56  87 120 154 191 236 290 346
#     4  12  25  40  60  87 120 156 195 245 298 349
#     4  11  23  41  61  86 118 157 199 241 292 352
#     4  11  23  41  65  88 113 155 202 241 287 349
#     4  11  25  42  61  90 122 154 193 242 297 348
#     4   9  20  37  60  88 117 153 195 240 291 345
#     4  10  20  37  61  89 119 154 196 242 287 347
#
# _framework density 24.750442
#
# number of rings (size 3 to 8) (size 9 to 14) (size 15 to 20)
#    0.000    1.571    1.429    3.429    2.000    5.143 
#    0.000    0.714    0.000    4.286    0.000    0.000 
#    0.000    0.000    0.000    0.000    0.000    0.000 
#
# Total GULP energy -156558.508713 kJ/mol
# GULP energy per Si atom -5591.375311 kJ/mol
# Density = 2.469411 g / cm^3
# Si number density = 24.750442 Si / 1000 Ang^3
#
#
#
# Elastic Constant Matrix: (Units=GPa)
#
#
# Indices 1 2 3 4 5 6 
#
# 1 68.9676 -9.4550 -11.9620 0.0000 -22.2595 0.0000
# 2 -9.4550 63.3454 -8.5781 0.0000 4.8349 0.0000
# 3 -11.9620 -8.5781 105.1411 0.0000 -20.9196 0.0000
# 4 0.0000 0.0000 0.0000 45.0165 0.0000 -7.0078
# 5 -22.2595 4.8349 -20.9196 0.0000 31.8728 0.0000
# 6 0.0000 0.0000 0.0000 -7.0078 0.0000 28.5851
#
#
#
# Elastic Compliance Matrix: (Units=1/GPa)
#
#
# Indices 1 2 3 4 5 6 
#
# 1 0.022342 0.002744 0.006657 0.000000 0.019556 0.000000
# 2 0.002744 0.016390 0.001767 0.000000 0.000589 0.000000
# 3 0.006657 0.001767 0.012979 0.000000 0.012900 0.000000
# 4 0.000000 0.000000 0.000000 0.023095 0.000000 0.005662
# 5 0.019556 0.000589 0.012900 0.000000 0.053410 0.000000
# 6 0.000000 0.000000 0.000000 0.005662 0.000000 0.036371
#
#
# Mechanical properties :
#
#
# Convention : Reuss Voigt Hill
#
# Bulk Modulus (GPa) = 13.50520 19.71823 16.61171
# Shear Modulus (GPa) = 29.95158 38.92483 34.43821
#
# Velocity S-wave (km/s) = 3.48249 3.97002 3.73422
# Velocity P-wave (km/s) = 4.65174 5.38506 5.03178
#
# Compressibility (1/GPa) = 0.07404556
#
# Stress axis : x y z
#
# Youngs Moduli (GPa) = 44.75845 61.01193 77.04671
#
# Poissons Ratio (x) = -0.16739 -0.51288
# Poissons Ratio (y) = -0.12280 -0.13611
# Poissons Ratio (z) = -0.29795 -0.10779
#
# Static dielectric constant tensor:
#      x y z
#    x 2.023160 0.000000 0.027250 
#    y 0.000000 1.870040 0.000000 
#    z 0.027250 0.000000 2.022940 
# 
# From -- ./inp_files/37230.got.cif
#   From: 2010.05.17/outbox.cif.g08.bks.cpg/sg10_19_cif.got.tgz:37230.got - 2010.06.03 11:33:40.
