data_PCOD9151161
_publ_section_title
;
Structure prediction by ZEFSAII (Michael W. Deem and Ramdas Pophale) SiO2 
 PCOD9151161
Probable space group: P 2/M
;
_chemical_formula_sum "Si O2"
_cell_formula_units_Z 21
_cell_length_a 9.432991
_cell_length_b 24.843417
_cell_length_c 4.941971
_cell_angle_alpha 90.000000
_cell_angle_beta 54.146239
_cell_angle_gamma 90.000000
_cell_volume 938.689111
_symmetry_space_group_name_H-M "P 2/M"
_symmetry_group_IT_number 10
_symmetry_cell_setting 'monoclinic'
loop_
_space_group_symop_operation_xyz
x,y,z
-x,y,-z
-x,-y,-z
x,-y,z
loop_
_atom_site_type_symbol
_atom_site_label
_atom_site_fract_x
_atom_site_fract_y
_atom_site_fract_z
Si Si1 0.630015 0.240332 0.604632
Si Si2 0.288960 0.347616 0.718727
Si Si3 0.500000 0.500000 0.000000
Si Si4 0.318056 0.878762 0.535667
Si Si5 0.194121 0.060400 0.165577
Si Si6 0.195018 0.587247 0.318302
O O1 0.500000 0.233514 0.500000
O O2 0.749541 0.290244 0.378860
O O3 0.716924 0.181887 0.532235
O O4 0.500000 0.253010 0.000000
O O5 0.500000 0.350709 0.500000
O O6 0.219863 0.393405 0.596819
O O7 0.215490 0.361506 0.095032
O O8 0.353431 0.546625 0.084649
O O9 0.500000 0.880778 0.500000
O O10 0.308564 0.915880 0.282664
O O11 0.191996 0.901405 0.907636
O O12 0.000000 0.057710 0.500000
O O13 0.251412 0.000000 0.023528
O O14 0.000000 0.565006 0.500000
#
# Coordination Sequence:
#
# PCOD9151161 Si02
#       6
#     4   4   1   4   4   4
#     4  10  20  37  66  97 128 170 213 263 329 403
#     4  11  21  44  69  97 131 180 220 264 337 405
#     4  12  26  50  72 100 140 194 222 270 346 392
#     4  11  22  39  63  95 124 160 222 275 322 387
#     4  11  24  41  59  84 126 176 217 264 337 404
#     4  12  26  44  70 103 138 175 232 281 324 395
#
# _framework density 22.371623
#
# number of rings (size 3 to 8) (size 9 to 14) (size 15 to 20)
#    0.000    0.952    1.905    7.143    0.000    5.333 
#    0.000    7.619    0.000    0.000    0.000    0.000 
#    0.000    0.000    0.000    0.000    0.000    0.000 
#
# Total GULP energy -117027.067605 kJ/mol
# GULP energy per Si atom -5572.717505 kJ/mol
# Density = 2.232070 g / cm^3
# Si number density = 22.371623 Si / 1000 Ang^3
#
#
#
# Elastic Constant Matrix: (Units=GPa)
#
#
# Indices 1 2 3 4 5 6 
#
# 1 102.6448 25.1115 23.6089 0.0000 -7.4830 0.0000
# 2 25.1115 116.2510 22.5816 0.0000 -16.3927 0.0000
# 3 23.6089 22.5816 90.3568 0.0000 4.7873 0.0000
# 4 0.0000 0.0000 0.0000 -202.8987 0.0000 -262.4152
# 5 -7.4830 -16.3927 4.7873 0.0000 39.1972 0.0000
# 6 0.0000 0.0000 0.0000 -262.4152 0.0000 -256.9284
#
#
#
# Elastic Compliance Matrix: (Units=1/GPa)
#
#
# Indices 1 2 3 4 5 6 
#
# 1 0.010840 -0.001612 -0.002520 0.000000 0.001703 0.000000
# 2 -0.001612 0.009980 -0.002293 0.000000 0.004146 0.000000
# 3 -0.002520 -0.002293 0.012456 0.000000 -0.002961 0.000000
# 4 0.000000 0.000000 0.000000 0.015356 0.000000 -0.015684
# 5 0.001703 0.004146 -0.002961 0.000000 0.027933 0.000000
# 6 0.000000 0.000000 0.000000 -0.015684 0.000000 0.012127
#
#
# Mechanical properties :
#
#
# Convention : Reuss Voigt Hill
#
# Bulk Modulus (GPa) = 48.95446 50.20628 49.58037
# Shear Modulus (GPa) = 46.14665 -68.26261 -11.05798
#
# Velocity S-wave (km/s) = 4.54666 -5.52985 -2.22567
# Velocity P-wave (km/s) = 7.03510 4.27571 3.95038
#
# Compressibility (1/GPa) = 0.02042715
#
# Stress axis : x y z
#
# Youngs Moduli (GPa) = 92.24713 100.19739 80.28579
#
# Poissons Ratio (x) = 0.16152 0.20231
# Poissons Ratio (y) = 0.14870 0.18407
# Poissons Ratio (z) = 0.23245 0.22972
#
# Static dielectric constant tensor:
#      x y z
#    x 1.797350 0.000000 -0.035360 
#    y 0.000000 1.894420 0.000000 
#    z -0.035360 0.000000 1.830540 
# 
# From -- ./inp_files/7971.got.cif
#   From: 2010.05.17/outbox.cif.g08.bks.cpg/sg10_4_cif.got.tgz:7971.got - 2010.06.03 11:33:40.
