data_PCOD9151653
_publ_section_title
;
Structure prediction by ZEFSAII (Michael W. Deem and Ramdas Pophale) SiO2 
 PCOD9151653
Probable space group: P 2/M
;
_chemical_formula_sum "Si O2"
_cell_formula_units_Z 32
_cell_length_a 16.380082
_cell_length_b 14.995369
_cell_length_c 10.217177
_cell_angle_alpha 90.000000
_cell_angle_beta 136.584706
_cell_angle_gamma 90.000000
_cell_volume 1724.800051
_symmetry_space_group_name_H-M "P 2/M"
_symmetry_group_IT_number 10
_symmetry_cell_setting 'monoclinic'
loop_
_space_group_symop_operation_xyz
x,y,z
-x,y,-z
-x,-y,-z
x,-y,z
loop_
_atom_site_type_symbol
_atom_site_label
_atom_site_fract_x
_atom_site_fract_y
_atom_site_fract_z
Si Si1 0.661514 0.103626 0.566086
Si Si2 0.839492 0.605576 0.619164
Si Si3 0.247860 0.260129 0.998730
Si Si4 0.070641 0.401454 0.716134
Si Si5 0.860749 0.760920 0.843766
Si Si6 0.598909 0.896834 0.804494
Si Si7 0.602385 0.603373 0.215749
Si Si8 0.449536 0.400056 0.296605
O O1 0.773627 0.166856 0.675117
O O2 0.539697 0.131094 0.350866
O O3 0.631035 0.106888 0.686431
O O4 0.685329 0.000000 0.562679
O O5 0.818668 0.500000 0.622039
O O6 0.970672 0.613810 0.710457
O O7 0.836227 0.666802 0.743601
O O8 0.737329 0.635818 0.396235
O O9 0.162766 0.321229 0.813775
O O10 0.176157 0.241470 0.048045
O O11 0.309256 0.169850 0.019925
O O12 0.355622 0.324165 0.162317
O O13 0.125472 0.500000 0.803126
O O14 0.000000 0.406289 0.500000
O O15 0.000000 0.782391 0.000000
O O16 0.608801 0.000000 0.856527
O O17 0.616028 0.500000 0.187232
O O18 0.547927 0.605473 0.298082
O O19 0.500000 0.642631 0.000000
O O20 0.500000 0.388531 0.500000
O O21 0.398322 0.500000 0.228980
#
# Coordination Sequence:
#
# PCOD9151653 Si02
#       8
#     4   4   4   4   4   4   4   4
#     4   8  16  31  51  75 106 137 167 207 261 317
#     4  10  21  36  51  70 106 144 173 214 260 310
#     4  11  21  32  54  77 103 138 176 218 257 316
#     4  10  22  38  54  72 100 143 188 224 253 296
#     4  11  21  33  49  77 109 140 176 209 255 321
#     4   8  16  31  52  77 103 134 168 210 266 320
#     4   9  19  34  52  72  97 134 178 220 265 314
#     4  10  21  33  48  76 109 135 168 219 275 320
#
# _framework density 18.552875
#
# number of rings (size 3 to 8) (size 9 to 14) (size 15 to 20)
#    0.000    2.375    1.250    1.875    7.000    2.500 
#    0.000    0.000    0.000    0.375    0.000    0.000 
#    0.000    3.000    0.000    0.000    0.000    0.000 
#
# Total GULP energy -178351.778196 kJ/mol
# GULP energy per Si atom -5573.493069 kJ/mol
# Density = 1.851065 g / cm^3
# Si number density = 18.552875 Si / 1000 Ang^3
#
#
#
# Elastic Constant Matrix: (Units=GPa)
#
#
# Indices 1 2 3 4 5 6 
#
# 1 23.5511 19.4178 17.7367 0.0000 7.3561 0.0000
# 2 19.4178 86.2675 62.6798 0.0000 23.0120 0.0000
# 3 17.7367 62.6798 98.0116 0.0000 23.6465 0.0000
# 4 0.0000 0.0000 0.0000 3.0817 0.0000 12.7658
# 5 7.3561 23.0120 23.6465 0.0000 28.2355 0.0000
# 6 0.0000 0.0000 0.0000 12.7658 0.0000 6.4422
#
#
#
# Elastic Compliance Matrix: (Units=1/GPa)
#
#
# Indices 1 2 3 4 5 6 
#
# 1 0.053210 -0.008575 -0.003116 0.000000 -0.004264 0.000000
# 2 -0.008575 0.024413 -0.012281 0.000000 -0.007378 0.000000
# 3 -0.003116 -0.012281 0.020064 0.000000 -0.005982 0.000000
# 4 0.000000 0.000000 0.000000 -0.045014 0.000000 0.089201
# 5 -0.004264 -0.007378 -0.005982 0.000000 0.047550 0.000000
# 6 0.000000 0.000000 0.000000 0.089201 0.000000 -0.021533
#
#
# Mechanical properties :
#
#
# Convention : Reuss Voigt Hill
#
# Bulk Modulus (GPa) = 20.10374 45.27763 32.69068
# Shear Modulus (GPa) = 34.91272 14.75160 24.83216
#
# Velocity S-wave (km/s) = 4.34267 2.82283 3.66246
# Velocity P-wave (km/s) = 6.00038 5.92302 5.96182
#
# Compressibility (1/GPa) = 0.04974200
#
# Stress axis : x y z
#
# Youngs Moduli (GPa) = 18.79348 40.96218 49.84122
#
# Poissons Ratio (x) = 0.35126 0.15533
# Poissons Ratio (y) = 0.16116 0.61208
# Poissons Ratio (z) = 0.05857 0.50304
#
# Static dielectric constant tensor:
#      x y z
#    x 1.684140 0.000000 0.016020 
#    y 0.000000 1.663050 0.000000 
#    z 0.016020 0.000000 1.659860 
# 
# From -- ./inp_files/54043.got.cif
#   From: 2010.05.17/outbox.cif.g08.bks.cpg/sg10_28_cif.got.tgz:54043.got - 2010.06.03 11:33:40.
