data_PCOD9151689
_publ_section_title
;
Structure prediction by ZEFSAII (Michael W. Deem and Ramdas Pophale) SiO2 
 PCOD9151689
Probable space group: P 2/M
;
_chemical_formula_sum "Si O2"
_cell_formula_units_Z 28
_cell_length_a 12.679119
_cell_length_b 7.342294
_cell_length_c 12.258400
_cell_angle_alpha 90.000000
_cell_angle_beta 101.659701
_cell_angle_gamma 90.000000
_cell_volume 1117.633227
_symmetry_space_group_name_H-M "P 2/M"
_symmetry_group_IT_number 10
_symmetry_cell_setting 'monoclinic'
loop_
_space_group_symop_operation_xyz
x,y,z
-x,y,-z
-x,-y,-z
x,-y,z
loop_
_atom_site_type_symbol
_atom_site_label
_atom_site_fract_x
_atom_site_fract_y
_atom_site_fract_z
Si Si1 0.994157 0.277040 0.159720
Si Si2 0.443121 0.205748 0.368894
Si Si3 0.003383 0.704377 0.386448
Si Si4 0.181519 0.717786 0.057273
Si Si5 0.652683 0.222112 0.296284
Si Si6 0.243415 0.777298 0.451561
Si Si7 0.620270 0.785279 0.048159
O O1 0.996166 0.500000 0.164848
O O2 0.956698 0.209541 0.269318
O O3 0.903334 0.228226 0.054621
O O4 0.113842 0.215974 0.148261
O O5 0.500000 0.194672 0.500000
O O6 0.531573 0.282958 0.305869
O O7 0.330435 0.288240 0.380615
O O8 0.422148 0.000000 0.325331
O O9 0.958056 0.500000 0.389639
O O10 0.130304 0.698200 0.394027
O O11 0.000000 0.802942 0.500000
O O12 0.182973 0.500000 0.065274
O O13 0.299149 0.766982 0.037776
O O14 0.725994 0.275520 0.416427
O O15 0.670040 0.282828 0.174736
O O16 0.654868 0.000000 0.300207
O O17 0.242545 0.000000 0.448861
O O18 0.607103 0.000000 0.063353
O O19 0.500000 0.711790 0.000000
#
# Coordination Sequence:
#
# PCOD9151689 Si02
#       7
#     4   4   4   4   4   4   4
#     4   8  17  36  57  77 100 135 175 214 259 303
#     4   7  11  23  44  66  87 119 164 197 224 279
#     4  10  21  34  49  73 106 134 159 199 259 314
#     4   9  18  36  61  77  95 134 184 219 245 300
#     4   8  15  29  48  70 101 138 166 198 247 302
#     4   9  17  30  50  74  97 129 173 209 240 288
#     4  10  21  34  49  76 111 138 164 209 269 313
#
# _framework density 25.052942000000002
#
# number of rings (size 3 to 8) (size 9 to 14) (size 15 to 20)
#    0.000    3.286    0.000    2.571    2.000    1.714 
#    0.000    4.286    0.000    4.714    0.000    0.000 
#    0.000    0.000    0.000    0.000    0.000    0.000 
#
# Total GULP energy -156096.808742 kJ/mol
# GULP energy per Si atom -5574.886026 kJ/mol
# Density = 2.499592 g / cm^3
# Si number density = 25.052942 Si / 1000 Ang^3
#
#
#
# Elastic Constant Matrix: (Units=GPa)
#
#
# Indices 1 2 3 4 5 6 
#
# 1 68.8657 -7.2117 -11.1404 0.0000 -7.2500 0.0000
# 2 -7.2117 102.4802 2.7289 0.0000 1.6339 0.0000
# 3 -11.1404 2.7289 104.1693 0.0000 -13.8660 0.0000
# 4 0.0000 0.0000 0.0000 -27.0197 0.0000 8.0514
# 5 -7.2500 1.6339 -13.8660 0.0000 26.0285 0.0000
# 6 0.0000 0.0000 0.0000 8.0514 0.0000 6.9648
#
#
#
# Elastic Compliance Matrix: (Units=1/GPa)
#
#
# Indices 1 2 3 4 5 6 
#
# 1 0.015590 0.000945 0.002381 0.000000 0.005552 0.000000
# 2 0.000945 0.009838 -0.000219 0.000000 -0.000471 0.000000
# 3 0.002381 -0.000219 0.010710 0.000000 0.006382 0.000000
# 4 0.000000 0.000000 0.000000 -0.027527 0.000000 0.031822
# 5 0.005552 -0.000471 0.006382 0.000000 0.043395 0.000000
# 6 0.000000 0.000000 0.000000 0.031822 0.000000 0.106792
#
#
# Mechanical properties :
#
#
# Convention : Reuss Voigt Hill
#
# Bulk Modulus (GPa) = 23.61172 27.14096 25.37634
# Shear Modulus (GPa) = 29.99393 20.60395 25.29894
#
# Velocity S-wave (km/s) = 3.46384 2.87089 3.18121
# Velocity P-wave (km/s) = 5.04409 4.67400 4.86257
#
# Compressibility (1/GPa) = 0.04235185
#
# Stress axis : x y z
#
# Youngs Moduli (GPa) = 64.14483 101.64823 93.37283
#
# Poissons Ratio (x) = -0.09607 -0.22236
# Poissons Ratio (y) = -0.06063 0.02048
# Poissons Ratio (z) = -0.15276 0.02230
#
# Static dielectric constant tensor:
#      x y z
#    x 2.008040 0.000000 -0.039520 
#    y 0.000000 1.977370 0.000000 
#    z -0.039520 0.000000 2.055640 
# 
# From -- ./inp_files/46078.got.cif
#   From: 2010.05.17/outbox.cif.g08.bks.cpg/sg10_24_cif.got.tgz:46078.got - 2010.06.03 11:33:40.
