data_PCOD9151841
_publ_section_title
;
Structure prediction by ZEFSAII (Michael W. Deem and Ramdas Pophale) SiO2 
 PCOD9151841
Probable space group: P 2/M
;
_chemical_formula_sum "Si O2"
_cell_formula_units_Z 32
_cell_length_a 22.207196
_cell_length_b 17.014301
_cell_length_c 16.178622
_cell_angle_alpha 90.000000
_cell_angle_beta 163.953886
_cell_angle_gamma 90.000000
_cell_volume 1689.680440
_symmetry_space_group_name_H-M "P 2/M"
_symmetry_group_IT_number 10
_symmetry_cell_setting 'monoclinic'
loop_
_space_group_symop_operation_xyz
x,y,z
-x,y,-z
-x,-y,-z
x,-y,z
loop_
_atom_site_type_symbol
_atom_site_label
_atom_site_fract_x
_atom_site_fract_y
_atom_site_fract_z
Si Si1 0.042995 0.151618 0.723246
Si Si2 0.214234 0.089755 0.465644
Si Si3 0.909678 0.675477 0.287712
Si Si4 0.479579 0.305013 0.791002
Si Si5 0.487370 0.912602 0.383652
Si Si6 0.267245 0.409424 0.645866
Si Si7 0.374100 0.848107 0.921175
Si Si8 0.211269 0.195551 0.316159
O O1 0.104629 0.239044 0.775008
O O2 0.896988 0.146349 0.613514
O O3 0.871717 0.125721 0.424935
O O4 0.256159 0.103728 0.032377
O O5 0.143578 0.121653 0.284321
O O6 0.151518 0.000000 0.398732
O O7 0.476288 0.099090 0.821642
O O8 0.000000 0.679928 0.500000
O O9 0.074930 0.624993 0.449766
O O10 0.662313 0.648215 0.980081
O O11 0.319149 0.356730 0.634618
O O12 0.342573 0.253367 0.547261
O O13 0.603041 0.240063 0.012396
O O14 0.500000 0.912516 0.500000
O O15 0.637631 0.841806 0.553274
O O16 0.560072 0.000000 0.453206
O O17 0.220058 0.500000 0.563551
O O18 0.500000 0.406871 0.000000
O O19 0.500000 0.849821 0.000000
O O20 0.000000 0.234440 0.000000
#
# Coordination Sequence:
#
# PCOD9151841 Si02
#       8
#     4   4   4   4   4   4   4   4
#     4  11  20  35  55  80 110 153 199 243 293 351
#     4  10  21  35  54  78 110 150 194 250 310 357
#     4  12  21  35  63  88 122 165 199 235 287 349
#     4  11  21  40  62  87 122 158 199 249 293 347
#     4  11  24  38  53  80 116 150 191 253 313 354
#     4  11  23  37  59  98 135 161 190 229 286 360
#     4   9  18  31  55  81 109 148 202 238 285 349
#     4  11  23  40  61  82 104 147 209 252 296 361
#
# _framework density 18.938493000000001
#
# number of rings (size 3 to 8) (size 9 to 14) (size 15 to 20)
#    0.000    1.250    3.750    4.125    0.000    5.500 
#    0.000    0.000    0.000    4.125    0.000    0.875 
#    0.000    0.000    0.000    0.000    0.000    0.000 
#
# Total GULP energy -178406.724808 kJ/mol
# GULP energy per Si atom -5575.210150 kJ/mol
# Density = 1.889539 g / cm^3
# Si number density = 18.938493 Si / 1000 Ang^3
#
#
#
# Elastic Constant Matrix: (Units=GPa)
#
#
# Indices 1 2 3 4 5 6 
#
# 1 91.1869 44.9258 21.0397 0.0000 7.9430 0.0000
# 2 44.9258 82.0200 15.7149 0.0000 2.9267 0.0000
# 3 21.0397 15.7149 88.2347 0.0000 -4.0765 0.0000
# 4 0.0000 0.0000 0.0000 11.1633 0.0000 2.3640
# 5 7.9430 2.9267 -4.0765 0.0000 24.5317 0.0000
# 6 0.0000 0.0000 0.0000 2.3640 0.0000 4.6768
#
#
#
# Elastic Compliance Matrix: (Units=1/GPa)
#
#
# Indices 1 2 3 4 5 6 
#
# 1 0.015942 -0.008073 -0.002577 0.000000 -0.004627 0.000000
# 2 -0.008073 0.016799 -0.001047 0.000000 0.000436 0.000000
# 3 -0.002577 -0.001047 0.012273 0.000000 0.002999 0.000000
# 4 0.000000 0.000000 0.000000 0.100318 0.000000 -0.050709
# 5 -0.004627 0.000436 0.002999 0.000000 0.042708 0.000000
# 6 0.000000 0.000000 0.000000 -0.050709 0.000000 0.239454
#
#
# Mechanical properties :
#
#
# Convention : Reuss Voigt Hill
#
# Bulk Modulus (GPa) = 46.25451 47.20029 46.72740
# Shear Modulus (GPa) = 10.91479 20.05843 15.48661
#
# Velocity S-wave (km/s) = 2.40329 3.25797 2.86270
# Velocity P-wave (km/s) = 5.67253 6.25536 5.97106
#
# Compressibility (1/GPa) = 0.02161951
#
# Stress axis : x y z
#
# Youngs Moduli (GPa) = 62.72922 59.52702 81.48010
#
# Poissons Ratio (x) = 0.48056 0.20999
# Poissons Ratio (y) = 0.50641 0.08530
# Poissons Ratio (z) = 0.16167 0.06231
#
# Static dielectric constant tensor:
#      x y z
#    x 1.684550 0.000000 0.039790 
#    y 0.000000 1.644920 0.000000 
#    z 0.039790 0.000000 1.732910 
# 
# From -- ./inp_files/70887.got.cif
#   From: 2010.05.17/outbox.cif.g08.bks.cpg/sg10_36_cif.got.tgz:70887.got - 2010.06.03 11:33:40.
