data_PCOD9151347
_publ_section_title
;
Structure prediction by ZEFSAII (Michael W. Deem and Ramdas Pophale) SiO2 
 PCOD9151347
Probable space group: P 2/M
;
_chemical_formula_sum "Si O2"
_cell_formula_units_Z 32
_cell_length_a 13.003418
_cell_length_b 9.344183
_cell_length_c 30.217705
_cell_angle_alpha 90.000000
_cell_angle_beta 152.479179
_cell_angle_gamma 90.000000
_cell_volume 1696.559015
_symmetry_space_group_name_H-M "P 2/M"
_symmetry_group_IT_number 10
_symmetry_cell_setting 'monoclinic'
loop_
_space_group_symop_operation_xyz
x,y,z
-x,y,-z
-x,-y,-z
x,-y,z
loop_
_atom_site_type_symbol
_atom_site_label
_atom_site_fract_x
_atom_site_fract_y
_atom_site_fract_z
Si Si1 0.765208 0.163384 0.602341
Si Si2 0.333669 0.168277 0.213055
Si Si3 0.056669 0.168034 0.797473
Si Si4 0.064146 0.670586 0.892266
Si Si5 0.502610 0.832798 0.910307
Si Si6 0.386063 0.832446 0.762854
Si Si7 0.064558 0.330285 0.416184
Si Si8 0.771580 0.167492 0.439931
O O1 0.500000 0.166936 0.500000
O O2 0.859215 0.270850 0.602095
O O3 0.861775 0.194256 0.687618
O O4 0.840044 0.000000 0.619911
O O5 0.406263 0.194983 0.190133
O O6 0.555954 0.192175 0.327311
O O7 0.135073 0.265366 0.154376
O O8 0.273707 0.000000 0.194657
O O9 0.038356 0.266319 0.833073
O O10 0.287653 0.191118 0.859220
O O11 0.048320 0.000000 0.807410
O O12 0.061577 0.500000 0.891193
O O13 0.296757 0.731675 0.999306
O O14 0.438285 0.811969 0.834415
O O15 0.568137 0.000000 0.940715
O O16 0.181241 0.734154 0.670639
O O17 0.323960 0.000000 0.732259
O O18 0.063796 0.500000 0.417388
O O19 0.220702 0.264599 0.513791
O O20 0.000000 0.192763 0.500000
O O21 0.770803 0.000000 0.452732
#
# Coordination Sequence:
#
# PCOD9151347 Si02
#       8
#     4   4   4   4   4   4   4   4
#     4  10  22  41  65  92 121 160 208 252 298 357
#     4  10  22  41  66  91 120 161 212 261 303 354
#     4  10  21  41  68  94 120 157 210 261 300 355
#     4  12  27  42  59  88 132 167 198 249 316 386
#     4  10  21  41  70  94 116 151 208 268 309 360
#     4  10  20  41  69  94 119 157 214 265 301 355
#     4  12  24  36  57  91 132 166 195 244 309 378
#     4  10  20  38  64  88 115 158 212 255 286 343
#
# _framework density 18.861708
#
# number of rings (size 3 to 8) (size 9 to 14) (size 15 to 20)
#    0.000    1.500    2.500    2.625    1.750    5.000 
#    0.000    2.500    0.000    0.000    0.000    0.000 
#    0.000    0.000    0.000    0.000    0.000    0.000 
#
# Total GULP energy -178897.520324 kJ/mol
# GULP energy per Si atom -5590.547510 kJ/mol
# Density = 1.881878 g / cm^3
# Si number density = 18.861708 Si / 1000 Ang^3
#
#
#
# Elastic Constant Matrix: (Units=GPa)
#
#
# Indices 1 2 3 4 5 6 
#
# 1 79.7902 42.0855 1.8056 0.0000 5.8114 0.0000
# 2 42.0855 70.7990 21.3710 0.0000 5.3918 0.0000
# 3 1.8056 21.3710 39.8179 0.0000 17.5396 0.0000
# 4 0.0000 0.0000 0.0000 -3.3913 0.0000 12.2191
# 5 5.8114 5.3918 17.5396 0.0000 19.8571 0.0000
# 6 0.0000 0.0000 0.0000 12.2191 0.0000 2.0992
#
#
#
# Elastic Compliance Matrix: (Units=1/GPa)
#
#
# Indices 1 2 3 4 5 6 
#
# 1 0.021702 -0.016008 0.013898 0.000000 -0.014281 0.000000
# 2 -0.016008 0.029051 -0.022025 0.000000 0.016251 0.000000
# 3 0.013898 -0.022025 0.058048 0.000000 -0.049361 0.000000
# 4 0.000000 0.000000 0.000000 -0.013420 0.000000 0.078115
# 5 -0.014281 0.016251 -0.049361 0.000000 0.093727 0.000000
# 6 0.000000 0.000000 0.000000 0.078115 0.000000 0.021680
#
#
# Mechanical properties :
#
#
# Convention : Reuss Voigt Hill
#
# Bulk Modulus (GPa) = 16.52006 35.65903 26.08954
# Shear Modulus (GPa) = 17.90608 12.05599 14.98103
#
# Velocity S-wave (km/s) = 3.08447 2.53094 2.82131
# Velocity P-wave (km/s) = 4.63280 5.24285 4.94723
#
# Compressibility (1/GPa) = 0.06053248
#
# Stress axis : x y z
#
# Youngs Moduli (GPa) = 46.07862 34.42226 17.22701
#
# Poissons Ratio (x) = 0.55104 -0.23943
# Poissons Ratio (y) = 0.73764 0.37942
# Poissons Ratio (z) = -0.64042 0.75814
#
# Static dielectric constant tensor:
#      x y z
#    x 1.653010 0.000000 -0.002170 
#    y 0.000000 1.621780 0.000000 
#    z -0.002170 0.000000 1.646210 
# 
# From -- ./inp_files/63842.got.cif
#   From: 2010.05.17/outbox.cif.g08.bks.cpg/sg10_32_cif.got.tgz:63842.got - 2010.06.03 11:33:40.
