data_PCOD9151304
_publ_section_title
;
Structure prediction by ZEFSAII (Michael W. Deem and Ramdas Pophale) SiO2 
 PCOD9151304
Probable space group: P 2/M
;
_chemical_formula_sum "Si O2"
_cell_formula_units_Z 30
_cell_length_a 11.660028
_cell_length_b 11.884322
_cell_length_c 22.910449
_cell_angle_alpha 90.000000
_cell_angle_beta 25.977144
_cell_angle_gamma 90.000000
_cell_volume 1390.574240
_symmetry_space_group_name_H-M "P 2/M"
_symmetry_group_IT_number 10
_symmetry_cell_setting 'monoclinic'
loop_
_space_group_symop_operation_xyz
x,y,z
-x,y,-z
-x,-y,-z
x,-y,z
loop_
_atom_site_type_symbol
_atom_site_label
_atom_site_fract_x
_atom_site_fract_y
_atom_site_fract_z
Si Si1 0.548230 0.675746 0.647817
Si Si2 0.435414 0.375736 0.113279
Si Si3 0.016599 0.717013 0.849075
Si Si4 0.690935 0.281320 0.710079
Si Si5 0.825732 0.134661 0.466360
Si Si6 0.762101 0.500000 0.454122
Si Si7 0.203318 0.876119 0.959734
Si Si8 0.929193 0.278102 0.307980
O O1 0.238197 0.653970 0.785467
O O2 0.672004 0.665512 0.655077
O O3 0.586470 0.805433 0.609402
O O4 0.692904 0.597450 0.535274
O O5 0.386467 0.500000 0.112633
O O6 0.322911 0.370567 0.230971
O O7 0.246880 0.287480 0.167710
O O8 0.741679 0.349702 0.971278
O O9 0.130452 0.735871 0.732548
O O10 0.938945 0.830444 0.917842
O O11 0.430085 0.208843 0.838679
O O12 0.928728 0.195766 0.613487
O O13 0.836262 0.181326 0.394974
O O14 0.830735 0.000000 0.467374
O O15 0.819920 0.398520 0.379685
O O16 0.313499 0.000000 0.918785
O O17 0.000000 0.878223 0.000000
#
# Coordination Sequence:
#
# PCOD9151304 Si02
#       8
#     4   4   4   4   4   2   4   4
#     4  11  24  40  59  94 128 168 211 259 311 380
#     4  10  22  39  64  94 122 163 205 256 312 377
#     4  11  24  38  62  94 127 161 209 255 314 383
#     4  10  21  40  62  93 126 161 207 263 315 371
#     4  10  23  42  64  91 123 168 217 263 310 364
#     4  10  24  41  60  85 126 169 214 254 313 362
#     4  10  20  38  62  90 128 163 198 254 319 381
#     4  10  22  43  64  90 124 165 214 265 310 371
#
# _framework density 21.573823000000001
#
# number of rings (size 3 to 8) (size 9 to 14) (size 15 to 20)
#    0.000    1.733    2.000    1.200    2.800    5.867 
#    0.000    3.333    0.000    4.800    0.000    0.000 
#    0.000    0.000    0.000    0.000    0.000    0.000 
#
# Total GULP energy -167088.836530 kJ/mol
# GULP energy per Si atom -5569.627884 kJ/mol
# Density = 2.152472 g / cm^3
# Si number density = 21.573823 Si / 1000 Ang^3
#
#
#
# Elastic Constant Matrix: (Units=GPa)
#
#
# Indices 1 2 3 4 5 6 
#
# 1 73.7810 3.7227 19.3662 0.0000 13.8057 0.0000
# 2 3.7227 84.0645 7.4777 0.0000 6.1665 0.0000
# 3 19.3662 7.4777 67.0243 0.0000 6.0938 0.0000
# 4 0.0000 0.0000 0.0000 13.0861 0.0000 9.1444
# 5 13.8057 6.1665 6.0938 0.0000 39.9687 0.0000
# 6 0.0000 0.0000 0.0000 9.1444 0.0000 -10.1475
#
#
#
# Elastic Compliance Matrix: (Units=1/GPa)
#
#
# Indices 1 2 3 4 5 6 
#
# 1 0.015503 0.000022 -0.004051 0.000000 -0.004741 0.000000
# 2 0.000022 0.012126 -0.001205 0.000000 -0.001695 0.000000
# 3 -0.004051 -0.001205 0.016307 0.000000 -0.000901 0.000000
# 4 0.000000 0.000000 0.000000 0.046890 0.000000 0.042255
# 5 -0.004741 -0.001695 -0.000901 0.000000 0.027056 0.000000
# 6 0.000000 0.000000 0.000000 0.042255 0.000000 -0.060469
#
#
# Mechanical properties :
#
#
# Convention : Reuss Voigt Hill
#
# Bulk Modulus (GPa) = 29.88001 31.77811 30.82906
# Shear Modulus (GPa) = 63.26127 21.53500 42.39813
#
# Velocity S-wave (km/s) = 5.42096 3.16286 4.43793
# Velocity P-wave (km/s) = 7.28441 5.30096 6.37035
#
# Compressibility (1/GPa) = 0.03346719
#
# Stress axis : x y z
#
# Youngs Moduli (GPa) = 64.50419 82.46621 61.32415
#
# Poissons Ratio (x) = -0.00178 0.24841
# Poissons Ratio (y) = -0.00139 0.07390
# Poissons Ratio (z) = 0.26130 0.09938
#
# Static dielectric constant tensor:
#      x y z
#    x 1.850390 0.000000 -0.032250 
#    y 0.000000 1.748010 0.000000 
#    z -0.032250 0.000000 1.836540 
# 
# From -- ./inp_files/84028.got.cif
#   From: 2010.05.17/outbox.cif.g08.bks.cpg/sg10_43_cif.got.tgz:84028.got - 2010.06.03 11:33:40.
