data_PCOD9151991
_publ_section_title
;
Structure prediction by ZEFSAII (Michael W. Deem and Ramdas Pophale) SiO2 
 PCOD9151991
Probable space group: P 2/M
;
_chemical_formula_sum "Si O2"
_cell_formula_units_Z 20
_cell_length_a 23.681632
_cell_length_b 8.674717
_cell_length_c 5.186107
_cell_angle_alpha 90.000000
_cell_angle_beta 70.706590
_cell_angle_gamma 90.000000
_cell_volume 1005.556128
_symmetry_space_group_name_H-M "P 2/M"
_symmetry_group_IT_number 10
_symmetry_cell_setting 'monoclinic'
loop_
_space_group_symop_operation_xyz
x,y,z
-x,y,-z
-x,-y,-z
x,-y,z
loop_
_atom_site_type_symbol
_atom_site_label
_atom_site_fract_x
_atom_site_fract_y
_atom_site_fract_z
Si Si1 0.872058 0.817028 0.782043
Si Si2 0.536881 0.813893 0.695050
Si Si3 0.067356 0.316088 0.807989
Si Si4 0.330646 0.314788 0.559508
Si Si5 0.256552 0.313821 0.173480
O O1 0.916109 0.762301 0.486979
O O2 0.806308 0.763834 0.793779
O O3 0.874848 0.000000 0.806415
O O4 0.889637 0.739325 0.026448
O O5 0.500000 0.763879 0.500000
O O6 0.604243 0.754014 0.585912
O O7 0.538884 0.000000 0.694351
O O8 0.500000 0.761672 0.000000
O O9 0.072861 0.500000 0.767663
O O10 0.000000 0.280171 0.000000
O O11 0.335461 0.500000 0.541036
O O12 0.284419 0.267723 0.405256
O O13 0.303565 0.273381 0.877710
O O14 0.248291 0.500000 0.184399
#
# Coordination Sequence:
#
# PCOD9151991 Si02
#       5
#     4   4   4   4   4
#     4  12  25  40  63  95 126 158 201 254 307 355
#     4  10  21  36  54  78 109 145 182 225 284 348
#     4  11  24  43  66  90 121 165 208 245 298 366
#     4  10  21  36  57  83 109 145 192 239 284 336
#     4  10  21  38  58  82 115 153 193 236 289 353
#
# _framework density 19.889489999999999
#
# number of rings (size 3 to 8) (size 9 to 14) (size 15 to 20)
#    0.000    1.400    0.000    5.400    0.000    8.000 
#    0.000    0.000    0.000    0.000    0.000    0.000 
#    0.000    0.000    0.000    0.000    0.000    0.000 
#
# Total GULP energy -111893.036735 kJ/mol
# GULP energy per Si atom -5594.651837 kJ/mol
# Density = 1.984422 g / cm^3
# Si number density = 19.889490 Si / 1000 Ang^3
#
#
#
# Elastic Constant Matrix: (Units=GPa)
#
#
# Indices 1 2 3 4 5 6 
#
# 1 58.3705 4.9792 -24.9256 0.0000 0.3678 0.0000
# 2 4.9792 13.0850 0.5264 0.0000 -9.7687 0.0000
# 3 -24.9256 0.5264 58.4665 0.0000 3.4085 0.0000
# 4 0.0000 0.0000 0.0000 17.8471 0.0000 1.9298
# 5 0.3678 -9.7687 3.4085 0.0000 41.5310 0.0000
# 6 0.0000 0.0000 0.0000 1.9298 0.0000 42.9419
#
#
#
# Elastic Compliance Matrix: (Units=1/GPa)
#
#
# Indices 1 2 3 4 5 6 
#
# 1 0.022366 -0.011717 0.009860 0.000000 -0.003763 0.000000
# 2 -0.011717 0.099101 -0.007287 0.000000 0.024012 0.000000
# 3 0.009860 -0.007287 0.021581 0.000000 -0.003573 0.000000
# 4 0.000000 0.000000 0.000000 0.056305 0.000000 -0.002530
# 5 -0.003763 0.024012 -0.003573 0.000000 0.030053 0.000000
# 6 0.000000 0.000000 0.000000 -0.002530 0.000000 0.023401
#
#
# Mechanical properties :
#
#
# Convention : Reuss Voigt Hill
#
# Bulk Modulus (GPa) = 8.01543 10.12023 9.06783
# Shear Modulus (GPa) = 15.99067 30.42012 23.20539
#
# Velocity S-wave (km/s) = 2.83852 3.91507 3.41943
# Velocity P-wave (km/s) = 3.84469 5.05335 4.48988
#
# Compressibility (1/GPa) = 0.12475944
#
# Stress axis : x y z
#
# Youngs Moduli (GPa) = 44.71168 10.09066 46.33676
#
# Poissons Ratio (x) = 0.11823 -0.45687
# Poissons Ratio (y) = 0.52388 0.33767
# Poissons Ratio (z) = -0.44085 0.07353
#
# Static dielectric constant tensor:
#      x y z
#    x 1.661120 0.000000 0.001910 
#    y 0.000000 1.672710 0.000000 
#    z 0.001910 0.000000 1.677520 
# 
# From -- ./inp_files/11982.got.cif
#   From: 2010.05.17/outbox.cif.g08.bks.cpg/sg10_6_cif.got.tgz:11982.got - 2010.06.03 11:33:40.
