data_PCOD9151231
_publ_section_title
;
Structure prediction by ZEFSAII (Michael W. Deem and Ramdas Pophale) SiO2 
 PCOD9151231
Probable space group: P 2/M
;
_chemical_formula_sum "Si O2"
_cell_formula_units_Z 28
_cell_length_a 5.123880
_cell_length_b 34.199980
_cell_length_c 8.902565
_cell_angle_alpha 90.000000
_cell_angle_beta 120.063078
_cell_angle_gamma 90.000000
_cell_volume 1350.187838
_symmetry_space_group_name_H-M "P 2/M"
_symmetry_group_IT_number 10
_symmetry_cell_setting 'monoclinic'
loop_
_space_group_symop_operation_xyz
x,y,z
-x,y,-z
-x,-y,-z
x,-y,z
loop_
_atom_site_type_symbol
_atom_site_label
_atom_site_fract_x
_atom_site_fract_y
_atom_site_fract_z
Si Si1 0.910452 0.870254 0.300172
Si Si2 0.640955 0.500000 0.374757
Si Si3 0.174210 0.217775 0.711527
Si Si4 0.356826 0.000000 0.126406
Si Si5 0.651775 0.656221 0.884139
Si Si6 0.325772 0.736580 0.289926
Si Si7 0.692376 0.085221 0.813401
Si Si8 0.358071 0.585163 0.624863
O O1 0.866412 0.825570 0.235357
O O2 0.588948 0.891857 0.197282
O O3 0.000000 0.869007 0.500000
O O4 0.181271 0.892841 0.296066
O O5 0.500000 0.500000 0.500000
O O6 0.561204 0.542261 0.283616
O O7 0.000000 0.500000 0.500000
O O8 0.508411 0.231224 0.765632
O O9 0.000000 0.218020 0.500000
O O10 0.009640 0.249282 0.768803
O O11 0.421643 0.959596 0.231175
O O12 0.500000 0.000000 0.000000
O O13 0.000000 0.000000 0.000000
O O14 0.650313 0.694987 0.781909
O O15 0.473273 0.620892 0.756028
O O16 0.500000 0.664765 0.000000
O O17 0.000000 0.644366 0.000000
O O18 0.500000 0.734853 0.500000
O O19 0.000000 0.084805 0.000000
O O20 0.500000 0.587736 0.500000
O O21 0.000000 0.587384 0.500000
#
# Coordination Sequence:
#
# PCOD9151231 Si02
#       8
#     4   2   4   2   4   4   4   4
#     4  11  22  39  61  89 121 149 182 237 297 343
#     4   8  16  32  58  88 112 140 194 252 280 316
#     4   9  19  36  60  84 109 146 192 234 281 342
#     4  10  20  38  61  82 113 156 197 232 273 330
#     4  12  25  39  55  85 124 153 184 240 303 344
#     4  10  20  38  61  80 103 150 204 235 267 340
#     4  11  22  39  61  87 115 154 198 234 275 337
#     4  10  20  38  63  87 113 154 201 239 281 345
#
# _framework density 20.737856000000001
#
# number of rings (size 3 to 8) (size 9 to 14) (size 15 to 20)
#    0.000    1.714    0.000    5.571    0.000    4.000 
#    0.000   10.000    0.000    0.000    0.000    0.000 
#    0.000    0.000    0.000    0.000    0.000    0.000 
#
# Total GULP energy -156375.516133 kJ/mol
# GULP energy per Si atom -5584.839862 kJ/mol
# Density = 2.069066 g / cm^3
# Si number density = 20.737856 Si / 1000 Ang^3
#
#
#
# Elastic Constant Matrix: (Units=GPa)
#
#
# Indices 1 2 3 4 5 6 
#
# 1 151.4116 49.1948 23.6544 0.0000 -14.0825 0.0000
# 2 49.1948 191.4688 38.9469 0.0000 -19.6290 0.0000
# 3 23.6544 38.9469 38.8741 0.0000 -6.5186 0.0000
# 4 0.0000 0.0000 0.0000 19.6584 0.0000 -17.1468
# 5 -14.0825 -19.6290 -6.5186 0.0000 31.8635 0.0000
# 6 0.0000 0.0000 0.0000 -17.1468 0.0000 54.6856
#
#
#
# Elastic Compliance Matrix: (Units=1/GPa)
#
#
# Indices 1 2 3 4 5 6 
#
# 1 0.007655 -0.001104 -0.003208 0.000000 0.002046 0.000000
# 2 -0.001104 0.006968 -0.005872 0.000000 0.002603 0.000000
# 3 -0.003208 -0.005872 0.033878 0.000000 0.001895 0.000000
# 4 0.000000 0.000000 0.000000 0.070018 0.000000 0.021954
# 5 0.002046 0.002603 0.001895 0.000000 0.034280 0.000000
# 6 0.000000 0.000000 0.000000 0.021954 0.000000 0.025170
#
#
# Mechanical properties :
#
#
# Convention : Reuss Voigt Hill
#
# Bulk Modulus (GPa) = 35.54916 67.26073 51.40495
# Shear Modulus (GPa) = 24.07136 39.23870 31.65503
#
# Velocity S-wave (km/s) = 3.41067 4.35458 3.91120
# Velocity P-wave (km/s) = 5.71748 7.60180 6.72595
#
# Compressibility (1/GPa) = 0.02813006
#
# Stress axis : x y z
#
# Youngs Moduli (GPa) = 130.63527 143.51481 29.51805
#
# Poissons Ratio (x) = 0.15850 0.09470
# Poissons Ratio (y) = 0.14427 0.17334
# Poissons Ratio (z) = 0.41912 0.84279
#
# Static dielectric constant tensor:
#      x y z
#    x 1.701400 0.000000 -0.005360 
#    y 0.000000 1.773430 0.000000 
#    z -0.005360 0.000000 1.777890 
# 
# From -- ./inp_files/15927.got.cif
#   From: 2010.05.17/outbox.cif.g08.bks.cpg/sg10_8_cif.got.tgz:15927.got - 2010.06.03 11:33:40.
