data_PCOD9151070
_publ_section_title
;
Structure prediction by ZEFSAII (Michael W. Deem and Ramdas Pophale) SiO2 
 PCOD9151070
Probable space group: P 2/M
;
_chemical_formula_sum "Si O2"
_cell_formula_units_Z 32
_cell_length_a 26.427247
_cell_length_b 14.725256
_cell_length_c 8.636626
_cell_angle_alpha 90.000000
_cell_angle_beta 29.500631
_cell_angle_gamma 90.000000
_cell_volume 1655.031135
_symmetry_space_group_name_H-M "P 2/M"
_symmetry_group_IT_number 10
_symmetry_cell_setting 'monoclinic'
loop_
_space_group_symop_operation_xyz
x,y,z
-x,y,-z
-x,-y,-z
x,-y,z
loop_
_atom_site_type_symbol
_atom_site_label
_atom_site_fract_x
_atom_site_fract_y
_atom_site_fract_z
Si Si1 0.598677 0.833331 0.321553
Si Si2 0.148544 0.603026 0.423995
Si Si3 0.205095 0.221086 0.750083
Si Si4 0.685581 0.297474 0.825980
Si Si5 0.023326 0.242804 0.616572
Si Si6 0.479299 0.313907 0.231976
Si Si7 0.736200 0.399606 0.213738
Si Si8 0.797417 0.897097 0.948321
O O1 0.500000 0.876893 0.500000
O O2 0.556335 0.774322 0.577886
O O3 0.646216 0.759888 0.076505
O O4 0.693859 0.892700 0.123486
O O5 0.114151 0.500000 0.541214
O O6 0.223663 0.637539 0.358830
O O7 0.059487 0.674989 0.627499
O O8 0.212400 0.606085 0.092166
O O9 0.272688 0.229349 0.416942
O O10 0.222003 0.318222 0.791446
O O11 0.230895 0.145463 0.809050
O O12 0.085124 0.207005 0.033115
O O13 0.585649 0.347583 0.023364
O O14 0.114262 0.168549 0.357956
O O15 0.000000 0.272250 0.500000
O O16 0.385104 0.383460 0.485065
O O17 0.500000 0.289456 0.000000
O O18 0.756809 0.500000 0.223107
O O19 0.834778 0.000000 0.862236
#
# Coordination Sequence:
#
# PCOD9151070 Si02
#       8
#     4   4   4   4   4   4   4   4
#     4  10  20  37  62  90 119 160 196 234 309 367
#     4  11  22  38  60  88 122 162 208 249 299 360
#     4  11  22  39  60  87 120 159 203 253 304 354
#     4  11  21  37  61  84 127 164 193 246 303 365
#     4  10  20  39  63  87 116 156 206 253 307 348
#     4  11  19  36  62  86 119 162 208 246 299 359
#     4  11  21  36  58  87 122 160 209 249 296 360
#     4  11  21  41  68  92 119 153 205 256 305 366
#
# _framework density 19.334983999999999
#
# number of rings (size 3 to 8) (size 9 to 14) (size 15 to 20)
#    0.000    1.250    7.500    0.000    0.000    5.000 
#    0.000    2.500    0.000    7.875    0.000    0.000 
#    0.000    0.000    0.000    0.000    0.000    0.000 
#
# Total GULP energy -178594.460055 kJ/mol
# GULP energy per Si atom -5581.076877 kJ/mol
# Density = 1.929098 g / cm^3
# Si number density = 19.334984 Si / 1000 Ang^3
#
#
#
# Elastic Constant Matrix: (Units=GPa)
#
#
# Indices 1 2 3 4 5 6 
#
# 1 80.7066 36.1289 16.5802 0.0000 -22.0793 0.0000
# 2 36.1289 85.5740 -5.7461 0.0000 -14.0600 0.0000
# 3 16.5802 -5.7461 37.2726 0.0000 -14.6261 0.0000
# 4 0.0000 0.0000 0.0000 4.8517 0.0000 5.6462
# 5 -22.0793 -14.0600 -14.6261 0.0000 37.0075 0.0000
# 6 0.0000 0.0000 0.0000 5.6462 0.0000 1.4626
#
#
#
# Elastic Compliance Matrix: (Units=1/GPa)
#
#
# Indices 1 2 3 4 5 6 
#
# 1 0.018756 -0.007524 -0.007378 0.000000 0.005416 0.000000
# 2 -0.007524 0.016146 0.007672 0.000000 0.004677 0.000000
# 3 -0.007378 0.007672 0.036348 0.000000 0.012878 0.000000
# 4 0.000000 0.000000 0.000000 -0.059014 0.000000 0.227820
# 5 0.005416 0.004677 0.012878 0.000000 0.037119 0.000000
# 6 0.000000 0.000000 0.000000 0.227820 0.000000 -0.195761
#
#
# Mechanical properties :
#
#
# Convention : Reuss Voigt Hill
#
# Bulk Modulus (GPa) = 17.60949 33.05326 25.33138
# Shear Modulus (GPa) = -44.24240 19.10370 -12.56935
#
# Velocity S-wave (km/s) = -4.78871 3.14672 -2.55244
# Velocity P-wave (km/s) = 4.63123 5.50769 2.10788
#
# Compressibility (1/GPa) = 0.05678756
#
# Stress axis : x y z
#
# Youngs Moduli (GPa) = 53.31549 61.93428 27.51218
#
# Poissons Ratio (x) = 0.46602 0.20299
# Poissons Ratio (y) = 0.40117 -0.21106
# Poissons Ratio (z) = 0.39338 -0.47513
#
# Static dielectric constant tensor:
#      x y z
#    x 1.695780 0.000000 -0.020190 
#    y 0.000000 1.662450 0.000000 
#    z -0.020190 0.000000 1.697290 
# 
# From -- ./inp_files/37709.got.cif
#   From: 2010.05.17/outbox.cif.g08.bks.cpg/sg10_19_cif.got.tgz:37709.got - 2010.06.03 11:33:40.
