data_PCOD9151650
_publ_section_title
;
Structure prediction by ZEFSAII (Michael W. Deem and Ramdas Pophale) SiO2 
 PCOD9151650
Probable space group: P 2/M
;
_chemical_formula_sum "Si O2"
_cell_formula_units_Z 32
_cell_length_a 14.211643
_cell_length_b 22.065700
_cell_length_c 14.193804
_cell_angle_alpha 90.000000
_cell_angle_beta 19.906320
_cell_angle_gamma 90.000000
_cell_volume 1515.502214
_symmetry_space_group_name_H-M "P 2/M"
_symmetry_group_IT_number 10
_symmetry_cell_setting 'monoclinic'
loop_
_space_group_symop_operation_xyz
x,y,z
-x,y,-z
-x,-y,-z
x,-y,z
loop_
_atom_site_type_symbol
_atom_site_label
_atom_site_fract_x
_atom_site_fract_y
_atom_site_fract_z
Si Si1 0.163431 0.309943 0.063448
Si Si2 0.360762 0.429139 0.723063
Si Si3 0.421136 0.736510 0.464123
Si Si4 0.610070 0.221656 0.995875
Si Si5 0.069488 0.430585 0.722887
Si Si6 0.100542 0.863388 0.504713
Si Si7 0.975166 0.069551 0.229736
Si Si8 0.559836 0.126099 0.331838
O O1 0.059073 0.372724 0.208598
O O2 0.889336 0.278300 0.277091
O O3 0.375773 0.311311 0.776234
O O4 0.340359 0.270741 0.970808
O O5 0.500000 0.399841 0.500000
O O6 0.321019 0.500000 0.735856
O O7 0.602241 0.428673 0.575185
O O8 0.065902 0.415456 0.047055
O O9 0.500000 0.736496 0.500000
O O10 0.489636 0.805271 0.367125
O O11 0.410612 0.164114 0.209280
O O12 0.500000 0.246190 0.000000
O O13 0.912890 0.195743 0.692450
O O14 0.991404 0.500000 0.771139
O O15 0.000000 0.891457 0.500000
O O16 0.019811 0.904560 0.669143
O O17 0.655870 0.078035 0.504950
O O18 0.062423 0.000000 0.143481
O O19 0.148175 0.108167 0.989569
O O20 0.500000 0.124636 0.500000
#
# Coordination Sequence:
#
# PCOD9151650 Si02
#       8
#     4   4   4   4   4   4   4   4
#     4  12  22  36  59  83 114 148 188 244 289 341
#     4   9  17  30  46  64  93 137 184 221 257 316
#     4  11  24  39  58  85 114 150 194 239 291 342
#     4  10  21  38  62  88 111 145 195 246 298 350
#     4  10  21  33  47  72 106 145 181 220 281 344
#     4  10  21  39  62  88 120 151 184 239 304 359
#     4  12  24  38  61  90 119 156 199 236 282 350
#     4  11  24  42  60  81 117 159 200 248 291 330
#
# _framework density 21.115112
#
# number of rings (size 3 to 8) (size 9 to 14) (size 15 to 20)
#    0.000    1.375    0.000    6.750    0.000    8.250 
#    0.000    0.000    0.000    4.125    0.000    0.000 
#    0.000    8.000    0.000    0.000    0.000    2.000 
#
# Total GULP energy -178450.647218 kJ/mol
# GULP energy per Si atom -5576.582726 kJ/mol
# Density = 2.106705 g / cm^3
# Si number density = 21.115112 Si / 1000 Ang^3
#
#
#
# Elastic Constant Matrix: (Units=GPa)
#
#
# Indices 1 2 3 4 5 6 
#
# 1 79.0085 34.7637 1.9086 0.0000 -0.4527 0.0000
# 2 34.7637 106.3347 10.3654 0.0000 -1.2557 0.0000
# 3 1.9086 10.3654 90.2685 0.0000 -12.7123 0.0000
# 4 0.0000 0.0000 0.0000 27.3484 0.0000 3.6226
# 5 -0.4527 -1.2557 -12.7123 0.0000 25.2677 0.0000
# 6 0.0000 0.0000 0.0000 3.6226 0.0000 -6.1149
#
#
#
# Elastic Compliance Matrix: (Units=1/GPa)
#
#
# Indices 1 2 3 4 5 6 
#
# 1 0.014789 -0.004859 0.000268 0.000000 0.000158 0.000000
# 2 -0.004859 0.011107 -0.001192 0.000000 -0.000135 0.000000
# 3 0.000268 -0.001192 0.012056 0.000000 0.006011 0.000000
# 4 0.000000 0.000000 0.000000 0.033905 0.000000 0.020086
# 5 0.000158 -0.000135 0.006011 0.000000 0.042596 0.000000
# 6 0.000000 0.000000 0.000000 0.020086 0.000000 -0.151637
#
#
# Mechanical properties :
#
#
# Convention : Reuss Voigt Hill
#
# Bulk Modulus (GPa) = 37.89915 41.07635 39.48775
# Shear Modulus (GPa) = -297.24679 24.53852 -136.35414
#
# Velocity S-wave (km/s) = -11.87771 3.41270 -8.04467
# Velocity P-wave (km/s) = 13.04296 5.91815 8.21871
#
# Compressibility (1/GPa) = 0.02638581
#
# Stress axis : x y z
#
# Youngs Moduli (GPa) = 67.61602 90.02950 82.94807
#
# Poissons Ratio (x) = 0.43748 -0.02219
# Poissons Ratio (y) = 0.32856 0.09885
# Poissons Ratio (z) = -0.01809 0.10729
#
# Static dielectric constant tensor:
#      x y z
#    x 1.865080 0.000000 0.044550 
#    y 0.000000 1.843410 0.000000 
#    z 0.044550 0.000000 1.762100 
# 
# From -- ./inp_files/67935.got.cif
#   From: 2010.05.17/outbox.cif.g08.bks.cpg/sg10_34_cif.got.tgz:67935.got - 2010.06.03 11:33:40.
