data_PCOD9151380
_publ_section_title
;
Structure prediction by ZEFSAII (Michael W. Deem and Ramdas Pophale) SiO2 
 PCOD9151380
Probable space group: P 2/M
;
_chemical_formula_sum "Si O2"
_cell_formula_units_Z 20
_cell_length_a 12.055409
_cell_length_b 9.244437
_cell_length_c 12.517904
_cell_angle_alpha 90.000000
_cell_angle_beta 132.927917
_cell_angle_gamma 90.000000
_cell_volume 1021.481162
_symmetry_space_group_name_H-M "P 2/M"
_symmetry_group_IT_number 10
_symmetry_cell_setting 'monoclinic'
loop_
_space_group_symop_operation_xyz
x,y,z
-x,y,-z
-x,-y,-z
x,-y,z
loop_
_atom_site_type_symbol
_atom_site_label
_atom_site_fract_x
_atom_site_fract_y
_atom_site_fract_z
Si Si1 0.834976 0.829167 0.627881
Si Si2 0.128740 0.330540 0.732146
Si Si3 0.632016 0.669479 0.919873
Si Si4 0.820189 0.170513 0.862338
Si Si5 0.679379 0.829454 0.309528
O O1 0.788166 0.793215 0.717772
O O2 0.707218 0.809318 0.454304
O O3 0.979683 0.737740 0.686454
O O4 0.877086 0.000000 0.655713
O O5 0.106980 0.500000 0.694976
O O6 0.183234 0.245032 0.663685
O O7 0.263432 0.315613 0.907142
O O8 0.599898 0.500000 0.883389
O O9 0.725678 0.734279 0.882275
O O10 0.476060 0.755611 0.827209
O O11 0.786077 0.000000 0.857649
O O12 0.000000 0.190131 0.000000
O O13 0.677675 0.000000 0.285717
#
# Coordination Sequence:
#
# PCOD9151380 Si02
#       5
#     4   4   4   4   4
#     4  10  22  40  62  90 119 152 197 245 291 345
#     4  11  23  39  61  88 120 157 197 242 291 348
#     4  11  24  40  60  88 122 156 195 243 293 347
#     4  10  20  38  65  89 114 152 198 243 289 347
#     4  11  24  40  60  87 121 157 196 243 293 347
#
# _framework density 19.579412000000001
#
# number of rings (size 3 to 8) (size 9 to 14) (size 15 to 20)
#    0.000    1.400    2.000    3.000    0.000   10.800 
#    0.000    4.000    0.000    0.000    0.000    0.000 
#    0.000    0.000    0.000    0.000    0.000    0.000 
#
# Total GULP energy -111859.952415 kJ/mol
# GULP energy per Si atom -5592.997621 kJ/mol
# Density = 1.953485 g / cm^3
# Si number density = 19.579412 Si / 1000 Ang^3
#
#
#
# Elastic Constant Matrix: (Units=GPa)
#
#
# Indices 1 2 3 4 5 6 
#
# 1 49.6969 24.5175 4.1391 0.0000 -15.0740 0.0000
# 2 24.5175 72.9630 34.7771 0.0000 -6.6468 0.0000
# 3 4.1391 34.7771 52.1379 0.0000 -10.2358 0.0000
# 4 0.0000 0.0000 0.0000 55.6733 0.0000 -42.2826
# 5 -15.0740 -6.6468 -10.2358 0.0000 36.6929 0.0000
# 6 0.0000 0.0000 0.0000 -42.2826 0.0000 72.6019
#
#
#
# Elastic Compliance Matrix: (Units=1/GPa)
#
#
# Indices 1 2 3 4 5 6 
#
# 1 0.029475 -0.012930 0.008677 0.000000 0.012187 0.000000
# 2 -0.012930 0.025767 -0.017231 0.000000 -0.005451 0.000000
# 3 0.008677 -0.017231 0.031813 0.000000 0.009318 0.000000
# 4 0.000000 0.000000 0.000000 0.032208 0.000000 0.018757
# 5 0.012187 -0.005451 0.009318 0.000000 0.033872 0.000000
# 6 0.000000 0.000000 0.000000 0.018757 0.000000 0.024698
#
#
# Mechanical properties :
#
#
# Convention : Reuss Voigt Hill
#
# Bulk Modulus (GPa) = 22.68179 33.51837 28.10008
# Shear Modulus (GPa) = 21.23188 40.41788 30.82488
#
# Velocity S-wave (km/s) = 3.29659 4.54839 3.97211
# Velocity P-wave (km/s) = 5.10879 6.68881 5.95146
#
# Compressibility (1/GPa) = 0.04408823
#
# Stress axis : x y z
#
# Youngs Moduli (GPa) = 33.92739 38.80996 31.43321
#
# Poissons Ratio (x) = 0.50181 -0.27275
# Poissons Ratio (y) = 0.43868 0.54161
# Poissons Ratio (z) = -0.29439 0.66872
#
# Static dielectric constant tensor:
#      x y z
#    x 1.645000 0.000000 -0.013070 
#    y 0.000000 1.650960 0.000000 
#    z -0.013070 0.000000 1.702870 
# 
# From -- ./inp_files/22172.got.cif
#   From: 2010.05.17/outbox.cif.g08.bks.cpg/sg10_12_cif.got.tgz:22172.got - 2010.06.03 11:33:40.
