data_PCOD9151279
_publ_section_title
;
Structure prediction by ZEFSAII (Michael W. Deem and Ramdas Pophale) SiO2 
 PCOD9151279
Probable space group: P 2/M
;
_chemical_formula_sum "Si O2"
_cell_formula_units_Z 24
_cell_length_a 11.819441
_cell_length_b 23.048646
_cell_length_c 5.197001
_cell_angle_alpha 90.000000
_cell_angle_beta 61.556566
_cell_angle_gamma 90.000000
_cell_volume 1244.876262
_symmetry_space_group_name_H-M "P 2/M"
_symmetry_group_IT_number 10
_symmetry_cell_setting 'monoclinic'
loop_
_space_group_symop_operation_xyz
x,y,z
-x,y,-z
-x,-y,-z
x,-y,z
loop_
_atom_site_type_symbol
_atom_site_label
_atom_site_fract_x
_atom_site_fract_y
_atom_site_fract_z
Si Si1 0.730919 0.185591 0.603600
Si Si2 0.408446 0.500000 0.850443
Si Si3 0.000000 0.162861 0.500000
Si Si4 0.408340 0.374185 0.847606
Si Si5 0.638713 0.249053 0.207224
Si Si6 0.626739 0.934164 0.533997
Si Si7 0.117104 0.059968 0.072741
O O1 0.714293 0.213130 0.339705
O O2 0.669717 0.120102 0.663964
O O3 0.884716 0.193822 0.479858
O O4 0.654945 0.217684 0.915576
O O5 0.500000 0.500000 0.500000
O O6 0.339989 0.437189 0.936279
O O7 0.500000 0.500000 0.000000
O O8 0.087501 0.118776 0.243742
O O9 0.500000 0.378081 0.500000
O O10 0.326592 0.316170 0.888856
O O11 0.500000 0.365992 0.000000
O O12 0.500000 0.250437 0.500000
O O13 0.500000 0.921658 0.500000
O O14 0.611890 0.000000 0.663278
O O15 0.748418 0.937441 0.214049
O O16 0.118806 0.000000 0.231233
O O17 0.000000 0.056081 0.000000
#
# Coordination Sequence:
#
# PCOD9151279 Si02
#       7
#     4   2   2   4   4   4   4
#     4  12  25  40  62  82 112 149 194 238 290 343
#     4   8  14  24  44  76 112 151 184 221 264 318
#     4  12  25  38  60  82 108 143 194 244 288 340
#     4   9  16  29  50  78 115 152 188 222 268 333
#     4  11  23  39  59  85 115 154 188 228 281 351
#     4  10  22  41  64  89 116 144 184 241 299 353
#     4  10  20  38  62  85 109 140 181 229 294 364
#
# _framework density 19.279025000000001
#
# number of rings (size 3 to 8) (size 9 to 14) (size 15 to 20)
#    0.000    1.667    1.667    4.250    0.000    2.000 
#    0.000    0.833    0.000   11.500    0.000    0.000 
#    0.000    4.000    0.000    0.000    0.000    0.083 
#
# Total GULP energy -133638.672928 kJ/mol
# GULP energy per Si atom -5568.278039 kJ/mol
# Density = 1.923514 g / cm^3
# Si number density = 19.279025 Si / 1000 Ang^3
#
#
#
# Elastic Constant Matrix: (Units=GPa)
#
#
# Indices 1 2 3 4 5 6 
#
# 1 88.3005 20.3215 8.9665 0.0000 -9.7185 0.0000
# 2 20.3215 151.0566 26.2836 0.0000 6.5824 0.0000
# 3 8.9665 26.2836 82.5025 0.0000 4.2529 0.0000
# 4 0.0000 0.0000 0.0000 25.5124 0.0000 10.8511
# 5 -9.7185 6.5824 4.2529 0.0000 35.8136 0.0000
# 6 0.0000 0.0000 0.0000 10.8511 0.0000 1.8680
#
#
#
# Elastic Compliance Matrix: (Units=1/GPa)
#
#
# Indices 1 2 3 4 5 6 
#
# 1 0.012213 -0.001632 -0.001000 0.000000 0.003733 0.000000
# 2 -0.001632 0.007264 -0.002058 0.000000 -0.001534 0.000000
# 3 -0.001000 -0.002058 0.012959 0.000000 -0.001432 0.000000
# 4 0.000000 0.000000 0.000000 -0.026651 0.000000 0.154817
# 5 0.003733 -0.001534 -0.001432 0.000000 0.029387 0.000000
# 6 0.000000 0.000000 0.000000 0.154817 0.000000 -0.363994
#
#
# Mechanical properties :
#
#
# Convention : Reuss Voigt Hill
#
# Bulk Modulus (GPa) = 43.37029 48.11142 45.74085
# Shear Modulus (GPa) = -16.03813 30.39132 7.17659
#
# Velocity S-wave (km/s) = -2.88739 3.97469 1.93147
# Velocity P-wave (km/s) = 3.38067 6.78776 5.36202
#
# Compressibility (1/GPa) = 0.02305726
#
# Stress axis : x y z
#
# Youngs Moduli (GPa) = 81.88098 137.65690 77.16679
#
# Poissons Ratio (x) = 0.22461 0.07716
# Poissons Ratio (y) = 0.13360 0.15880
# Poissons Ratio (z) = 0.08187 0.28329
#
# Static dielectric constant tensor:
#      x y z
#    x 1.754430 0.000000 0.054820 
#    y 0.000000 1.823370 0.000000 
#    z 0.054820 0.000000 1.699450 
# 
# From -- ./inp_files/7875.got.cif
#   From: 2010.05.17/outbox.cif.g08.bks.cpg/sg10_4_cif.got.tgz:7875.got - 2010.06.03 11:33:40.
