data_PCOD9151633
_publ_section_title
;
Structure prediction by ZEFSAII (Michael W. Deem and Ramdas Pophale) SiO2 
 PCOD9151633
Probable space group: P 2/M
;
_chemical_formula_sum "Si O2"
_cell_formula_units_Z 22
_cell_length_a 5.109375
_cell_length_b 16.030165
_cell_length_c 15.454886
_cell_angle_alpha 90.000000
_cell_angle_beta 87.793357
_cell_angle_gamma 90.000000
_cell_volume 1264.880247
_symmetry_space_group_name_H-M "P 2/M"
_symmetry_group_IT_number 10
_symmetry_cell_setting 'monoclinic'
loop_
_space_group_symop_operation_xyz
x,y,z
-x,y,-z
-x,-y,-z
x,-y,z
loop_
_atom_site_type_symbol
_atom_site_label
_atom_site_fract_x
_atom_site_fract_y
_atom_site_fract_z
Si Si1 0.057212 0.597656 0.598489
Si Si2 0.827020 0.410374 0.144814
Si Si3 0.500000 0.649402 0.000000
Si Si4 0.223540 0.258596 0.160501
Si Si5 0.530923 0.354691 0.703338
Si Si6 0.756517 0.905123 0.938078
O O1 0.135856 0.500000 0.600146
O O2 0.295442 0.648666 0.637731
O O3 0.000000 0.620051 0.500000
O O4 0.789800 0.608682 0.655613
O O5 0.966651 0.500000 0.153411
O O6 0.715265 0.402795 0.049333
O O7 0.587610 0.408590 0.216005
O O8 0.986787 0.326116 0.164704
O O9 0.618608 0.706533 0.924000
O O10 0.379244 0.271314 0.247683
O O11 0.183365 0.162901 0.136383
O O12 0.727423 0.000000 0.905418
O O13 0.500000 0.886712 0.000000
O O14 0.000000 0.902089 0.000000
#
# Coordination Sequence:
#
# PCOD9151633 Si02
#       6
#     4   4   2   4   4   4
#     4  11  22  38  58  79 107 143 188 234 279 334
#     4  11  22  34  49  71 109 152 192 228 260 314
#     4  10  21  32  47  72 102 152 193 230 259 308
#     4  11  22  36  55  76 113 146 187 235 275 320
#     4  11  23  36  54  80 106 147 183 228 278 325
#     4  10  21  37  60  83 107 143 189 235 283 331
#
# _framework density 17.392952000000001
#
# number of rings (size 3 to 8) (size 9 to 14) (size 15 to 20)
#    0.000    1.273    2.727    4.091    2.545    6.545 
#    0.000    0.000    0.000    0.000    0.000    0.000 
#    0.000    4.364    0.000    0.000    0.000    0.000 
#
# Total GULP energy -122694.015591 kJ/mol
# GULP energy per Si atom -5577.000709 kJ/mol
# Density = 1.735336 g / cm^3
# Si number density = 17.392952 Si / 1000 Ang^3
#
#
#
# Elastic Constant Matrix: (Units=GPa)
#
#
# Indices 1 2 3 4 5 6 
#
# 1 96.9838 33.3685 34.8072 0.0000 13.4014 0.0000
# 2 33.3685 125.7184 39.1346 0.0000 10.0846 0.0000
# 3 34.8072 39.1346 104.3833 0.0000 23.7696 0.0000
# 4 0.0000 0.0000 0.0000 9.1932 0.0000 9.7977
# 5 13.4014 10.0846 23.7696 0.0000 31.0190 0.0000
# 6 0.0000 0.0000 0.0000 9.7977 0.0000 21.7628
#
#
#
# Elastic Compliance Matrix: (Units=1/GPa)
#
#
# Indices 1 2 3 4 5 6 
#
# 1 0.012410 -0.002244 -0.002716 0.000000 -0.002551 0.000000
# 2 -0.002244 0.009415 -0.002793 0.000000 0.000048 0.000000
# 3 -0.002716 -0.002793 0.013396 0.000000 -0.008184 0.000000
# 4 0.000000 0.000000 0.000000 0.209105 0.000000 -0.094140
# 5 -0.002551 0.000048 -0.008184 0.000000 0.039596 0.000000
# 6 0.000000 0.000000 0.000000 -0.094140 0.000000 0.088332
#
#
# Mechanical properties :
#
#
# Convention : Reuss Voigt Hill
#
# Bulk Modulus (GPa) = 50.71869 60.18958 55.45413
# Shear Modulus (GPa) = 12.67964 27.04669 19.86317
#
# Velocity S-wave (km/s) = 2.70295 3.94767 3.38305
# Velocity P-wave (km/s) = 6.24220 7.44713 6.87113
#
# Compressibility (1/GPa) = 0.01971660
#
# Stress axis : x y z
#
# Youngs Moduli (GPa) = 80.57798 106.21004 74.64645
#
# Poissons Ratio (x) = 0.23832 0.20275
# Poissons Ratio (y) = 0.18080 0.20847
# Poissons Ratio (z) = 0.21887 0.29662
#
# Static dielectric constant tensor:
#      x y z
#    x 1.681160 0.000000 0.009670 
#    y 0.000000 1.627330 0.000000 
#    z 0.009670 0.000000 1.593260 
# 
# From -- ./inp_files/58960.got.cif
#   From: 2010.05.17/outbox.cif.g08.bks.cpg/sg10_30_cif.got.tgz:58960.got - 2010.06.03 11:33:40.
