data_PCOD9151712
_publ_section_title
;
Structure prediction by ZEFSAII (Michael W. Deem and Ramdas Pophale) SiO2 
 PCOD9151712
Probable space group: P 2/M
;
_chemical_formula_sum "Si O2"
_cell_formula_units_Z 32
_cell_length_a 13.506156
_cell_length_b 21.800670
_cell_length_c 13.982471
_cell_angle_alpha 90.000000
_cell_angle_beta 158.310791
_cell_angle_gamma 90.000000
_cell_volume 1521.543269
_symmetry_space_group_name_H-M "P 2/M"
_symmetry_group_IT_number 10
_symmetry_cell_setting 'monoclinic'
loop_
_space_group_symop_operation_xyz
x,y,z
-x,y,-z
-x,-y,-z
x,-y,z
loop_
_atom_site_type_symbol
_atom_site_label
_atom_site_fract_x
_atom_site_fract_y
_atom_site_fract_z
Si Si1 0.946664 0.073247 0.564249
Si Si2 0.990180 0.312039 0.390213
Si Si3 0.570396 0.696155 0.452835
Si Si4 0.390826 0.135739 0.096172
Si Si5 0.491591 0.264218 0.108034
Si Si6 0.078227 0.220801 0.959143
Si Si7 0.797803 0.565559 0.167455
Si Si8 0.399606 0.568181 0.630070
O O1 0.650467 0.091771 0.337674
O O2 0.000000 0.089194 0.500000
O O3 0.976095 0.000000 0.598814
O O4 0.177399 0.106384 0.832190
O O5 0.305055 0.309163 0.655066
O O6 0.000000 0.276518 0.500000
O O7 0.830292 0.375459 0.263663
O O8 0.818583 0.281087 0.154871
O O9 0.500000 0.686778 0.500000
O O10 0.585946 0.627638 0.423492
O O11 0.822240 0.743997 0.682428
O O12 0.321065 0.730891 0.182044
O O13 0.529989 0.195921 0.175668
O O14 0.209883 0.162553 0.021513
O O15 0.500000 0.269419 0.000000
O O16 0.000000 0.205699 0.000000
O O17 0.758639 0.500000 0.181736
O O18 0.089814 0.565466 0.382426
O O19 0.582397 0.572492 0.890034
O O20 0.466919 0.500000 0.648696
#
# Coordination Sequence:
#
# PCOD9151712 Si02
#       8
#     4   4   4   4   4   4   4   4
#     4  11  24  43  68 100 137 171 209 252 293 357
#     4  10  21  35  50  74 108 146 187 244 302 352
#     4  10  21  38  58  83 117 154 200 259 322 379
#     4  12  23  39  67  94 126 178 206 248 312 362
#     4  10  21  34  52  84 117 145 191 245 298 367
#     4  10  23  40  61  94 127 164 214 263 308 367
#     4  10  21  35  51  73 102 143 194 246 298 370
#     4  10  21  35  54  79 107 144 195 256 315 382
#
# _framework density 21.031279000000001
#
# number of rings (size 3 to 8) (size 9 to 14) (size 15 to 20)
#    0.000    1.625    0.000    4.500    5.250    2.500 
#    0.000    0.000    0.000   11.250    0.000    0.000 
#    0.000    0.000    0.000    0.000    0.000    0.000 
#
# Total GULP energy -178368.347664 kJ/mol
# GULP energy per Si atom -5574.010864 kJ/mol
# Density = 2.098341 g / cm^3
# Si number density = 21.031279 Si / 1000 Ang^3
#
#
#
# Elastic Constant Matrix: (Units=GPa)
#
#
# Indices 1 2 3 4 5 6 
#
# 1 97.9046 38.7522 22.3045 0.0000 9.3612 0.0000
# 2 38.7522 98.5202 30.0118 0.0000 -1.8552 0.0000
# 3 22.3045 30.0118 143.6511 0.0000 7.3532 0.0000
# 4 0.0000 0.0000 0.0000 18.9788 0.0000 -10.6256
# 5 9.3612 -1.8552 7.3532 0.0000 26.9235 0.0000
# 6 0.0000 0.0000 0.0000 -10.6256 0.0000 22.5450
#
#
#
# Elastic Compliance Matrix: (Units=1/GPa)
#
#
# Indices 1 2 3 4 5 6 
#
# 1 0.012748 -0.004879 -0.000726 0.000000 -0.004570 0.000000
# 2 -0.004879 0.012759 -0.002069 0.000000 0.003141 0.000000
# 3 -0.000726 -0.002069 0.007607 0.000000 -0.001968 0.000000
# 4 0.000000 0.000000 0.000000 0.071577 0.000000 0.033735
# 5 -0.004570 0.003141 -0.001968 0.000000 0.039485 0.000000
# 6 0.000000 0.000000 0.000000 0.033735 0.000000 0.060255
#
#
# Mechanical properties :
#
#
# Convention : Reuss Voigt Hill
#
# Bulk Modulus (GPa) = 56.28864 58.02364 57.15614
# Shear Modulus (GPa) = 22.15325 30.28995 26.22160
#
# Velocity S-wave (km/s) = 3.24905 3.79916 3.53482
# Velocity P-wave (km/s) = 6.39511 6.84791 6.62538
#
# Compressibility (1/GPa) = 0.01776557
#
# Stress axis : x y z
#
# Youngs Moduli (GPa) = 78.44602 78.37793 131.45842
#
# Poissons Ratio (x) = 0.38241 0.09544
# Poissons Ratio (y) = 0.38274 0.27196
# Poissons Ratio (z) = 0.05695 0.16215
#
# Static dielectric constant tensor:
#      x y z
#    x 1.955550 0.000000 0.118460 
#    y 0.000000 1.789110 0.000000 
#    z 0.118460 0.000000 1.844810 
# 
# From -- ./inp_files/67978.got.cif
#   From: 2010.05.17/outbox.cif.g08.bks.cpg/sg10_34_cif.got.tgz:67978.got - 2010.06.03 11:33:40.
