data_PCOD9151301
_publ_section_title
;
Structure prediction by ZEFSAII (Michael W. Deem and Ramdas Pophale) SiO2 
 PCOD9151301
Probable space group: P 2/M
;
_chemical_formula_sum "Si O2"
_cell_formula_units_Z 32
_cell_length_a 12.662438
_cell_length_b 8.161706
_cell_length_c 14.777306
_cell_angle_alpha 90.000000
_cell_angle_beta 89.360996
_cell_angle_gamma 90.000000
_cell_volume 1527.096687
_symmetry_space_group_name_H-M "P 2/M"
_symmetry_group_IT_number 10
_symmetry_cell_setting 'monoclinic'
loop_
_space_group_symop_operation_xyz
x,y,z
-x,y,-z
-x,-y,-z
x,-y,z
loop_
_atom_site_type_symbol
_atom_site_label
_atom_site_fract_x
_atom_site_fract_y
_atom_site_fract_z
Si Si1 0.334032 0.805691 0.735994
Si Si2 0.382467 0.800596 0.531949
Si Si3 0.839614 0.310310 0.981135
Si Si4 0.893653 0.192975 0.781643
Si Si5 0.550693 0.687914 0.795199
Si Si6 0.883111 0.306336 0.176176
Si Si7 0.384503 0.811681 0.026013
Si Si8 0.706982 0.198377 0.651413
O O1 0.348703 0.746547 0.632276
O O2 0.426544 0.722466 0.793223
O O3 0.218372 0.772046 0.775799
O O4 0.354411 0.000000 0.738575
O O5 0.500000 0.747246 0.500000
O O6 0.300003 0.754873 0.453733
O O7 0.385602 0.000000 0.534884
O O8 0.868160 0.500000 0.966476
O O9 0.857878 0.222155 0.885799
O O10 0.715326 0.290312 0.004311
O O11 0.895735 0.246798 0.071548
O O12 0.806446 0.254758 0.710752
O O13 0.008554 0.272983 0.772903
O O14 0.905058 0.000000 0.766865
O O15 0.572174 0.500000 0.818962
O O16 0.610202 0.803463 0.865580
O O17 0.601987 0.730792 0.698896
O O18 0.864108 0.500000 0.170103
O O19 0.375185 0.000000 0.994473
O O20 0.500000 0.746018 0.000000
O O21 0.702642 0.000000 0.656671
#
# Coordination Sequence:
#
# PCOD9151301 Si02
#       8
#     4   4   4   4   4   4   4   4
#     4  11  22  39  64  90 120 158 203 252 302 360
#     4   9  17  34  63  93 120 154 196 247 304 358
#     4  11  23  39  60  86 118 158 201 249 305 361
#     4  11  23  39  64  91 119 158 208 255 295 352
#     4  12  23  35  56  86 123 160 193 238 301 361
#     4  11  25  43  61  85 123 163 202 250 306 362
#     4  11  23  37  55  82 117 158 202 248 295 353
#     4  10  20  38  62  90 120 152 198 249 297 353
#
# _framework density 20.954796000000002
#
# number of rings (size 3 to 8) (size 9 to 14) (size 15 to 20)
#    0.000    1.250    2.500    4.125    0.000    7.000 
#    0.000    2.500    0.000    3.750    0.000    0.000 
#    0.000    0.000    0.000    0.000    0.000    0.000 
#
# Total GULP energy -178857.247932 kJ/mol
# GULP energy per Si atom -5589.288998 kJ/mol
# Density = 2.090710 g / cm^3
# Si number density = 20.954796 Si / 1000 Ang^3
#
#
#
# Elastic Constant Matrix: (Units=GPa)
#
#
# Indices 1 2 3 4 5 6 
#
# 1 106.0773 1.1418 27.8768 0.0000 18.8584 0.0000
# 2 1.1418 30.4537 1.3889 0.0000 3.8573 0.0000
# 3 27.8768 1.3889 92.5302 0.0000 16.2418 0.0000
# 4 0.0000 0.0000 0.0000 52.6586 0.0000 12.7423
# 5 18.8584 3.8573 16.2418 0.0000 30.1721 0.0000
# 6 0.0000 0.0000 0.0000 12.7423 0.0000 25.6329
#
#
#
# Elastic Compliance Matrix: (Units=1/GPa)
#
#
# Indices 1 2 3 4 5 6 
#
# 1 0.011050 0.000415 -0.002334 0.000000 -0.005703 0.000000
# 2 0.000415 0.033399 0.000186 0.000000 -0.004629 0.000000
# 3 -0.002334 0.000186 0.012430 0.000000 -0.005256 0.000000
# 4 0.000000 0.000000 0.000000 0.021587 0.000000 -0.010731
# 5 -0.005703 -0.004629 -0.005256 0.000000 0.040129 0.000000
# 6 0.000000 0.000000 0.000000 -0.010731 0.000000 0.044347
#
#
# Mechanical properties :
#
#
# Convention : Reuss Voigt Hill
#
# Bulk Modulus (GPa) = 18.72215 32.20845 25.46530
# Shear Modulus (GPa) = 27.14251 34.93631 31.03941
#
# Velocity S-wave (km/s) = 3.60292 4.08759 3.85288
# Velocity P-wave (km/s) = 5.12464 6.13854 5.65436
#
# Compressibility (1/GPa) = 0.05341268
#
# Stress axis : x y z
#
# Youngs Moduli (GPa) = 90.49833 29.94094 80.44836
#
# Poissons Ratio (x) = -0.01241 0.18778
# Poissons Ratio (y) = -0.03751 -0.01499
# Poissons Ratio (z) = 0.21124 -0.00558
#
# Static dielectric constant tensor:
#      x y z
#    x 1.746180 0.000000 -0.000350 
#    y 0.000000 1.724010 0.000000 
#    z -0.000350 0.000000 1.795960 
# 
# From -- ./inp_files/58132.got.cif
#   From: 2010.05.17/outbox.cif.g08.bks.cpg/sg10_30_cif.got.tgz:58132.got - 2010.06.03 11:33:40.
