data_PCOD9151704
_publ_section_title
;
Structure prediction by ZEFSAII (Michael W. Deem and Ramdas Pophale) SiO2 
 PCOD9151704
Probable space group: P 2/M
;
_chemical_formula_sum "Si O2"
_cell_formula_units_Z 32
_cell_length_a 11.850991
_cell_length_b 13.751081
_cell_length_c 12.087563
_cell_angle_alpha 90.000000
_cell_angle_beta 114.854435
_cell_angle_gamma 90.000000
_cell_volume 1787.387731
_symmetry_space_group_name_H-M "P 2/M"
_symmetry_group_IT_number 10
_symmetry_cell_setting 'monoclinic'
loop_
_space_group_symop_operation_xyz
x,y,z
-x,y,-z
-x,-y,-z
x,-y,z
loop_
_atom_site_type_symbol
_atom_site_label
_atom_site_fract_x
_atom_site_fract_y
_atom_site_fract_z
Si Si1 0.237086 0.386389 0.920740
Si Si2 0.476804 0.384175 0.367509
Si Si3 0.663052 0.112656 0.456203
Si Si4 0.129406 0.273989 0.500499
Si Si5 0.944025 0.614862 0.754560
Si Si6 0.316626 0.616469 0.722080
Si Si7 0.620341 0.111632 0.702698
Si Si8 0.758576 0.704142 0.838893
O O1 0.267632 0.500000 0.956845
O O2 0.317786 0.350160 0.849661
O O3 0.093297 0.382776 0.823162
O O4 0.250422 0.326507 0.037934
O O5 0.500000 0.343213 0.500000
O O6 0.491325 0.500000 0.380254
O O7 0.572729 0.351077 0.312924
O O8 0.340564 0.357871 0.272615
O O9 0.771774 0.186903 0.470459
O O10 0.647013 0.117499 0.582361
O O11 0.527086 0.134809 0.348009
O O12 0.692443 0.000000 0.440517
O O13 0.105130 0.329446 0.374686
O O14 0.191454 0.349807 0.610676
O O15 0.000000 0.240146 0.500000
O O16 0.907405 0.500000 0.739243
O O17 0.888034 0.671758 0.837224
O O18 0.318716 0.500000 0.728293
O O19 0.712027 0.186216 0.800460
O O20 0.638829 0.000000 0.745008
#
# Coordination Sequence:
#
# PCOD9151704 Si02
#       8
#     4   4   4   4   4   4   4   4
#     4  10  22  38  53  76 112 158 197 224 262 323
#     4  10  21  34  51  80 113 141 178 232 285 325
#     4   9  19  37  58  85 113 136 173 231 294 346
#     4  12  21  33  57  83 110 147 189 228 282 333
#     4  11  22  36  54  80 115 152 192 234 270 321
#     4  10  21  36  52  77 118 153 185 226 272 333
#     4   9  19  36  60  84 109 138 174 230 293 346
#     4  12  21  34  59  81 107 143 192 232 275 328
#
# _framework density 17.903223000000001
#
# number of rings (size 3 to 8) (size 9 to 14) (size 15 to 20)
#    0.000    1.625    2.500    4.125    1.750    3.250 
#    0.000    1.875    0.000    3.000    0.000    2.625 
#    0.000    0.000    0.000    0.000    0.000    0.000 
#
# Total GULP energy -178615.528510 kJ/mol
# GULP energy per Si atom -5581.735266 kJ/mol
# Density = 1.786247 g / cm^3
# Si number density = 17.903223 Si / 1000 Ang^3
#
#
#
# Elastic Constant Matrix: (Units=GPa)
#
#
# Indices 1 2 3 4 5 6 
#
# 1 69.9020 30.5769 1.7883 0.0000 -16.1738 0.0000
# 2 30.5769 100.0949 33.6236 0.0000 -13.1606 0.0000
# 3 1.7883 33.6236 73.1634 0.0000 -22.6463 0.0000
# 4 0.0000 0.0000 0.0000 4.8869 0.0000 26.8611
# 5 -16.1738 -13.1606 -22.6463 0.0000 24.0549 0.0000
# 6 0.0000 0.0000 0.0000 26.8611 0.0000 4.4910
#
#
#
# Elastic Compliance Matrix: (Units=1/GPa)
#
#
# Indices 1 2 3 4 5 6 
#
# 1 0.021397 -0.006920 0.008381 0.000000 0.018490 0.000000
# 2 -0.006920 0.014115 -0.007575 0.000000 -0.004062 0.000000
# 3 0.008381 -0.007575 0.024564 0.000000 0.024616 0.000000
# 4 0.000000 0.000000 0.000000 -0.006420 0.000000 0.038396
# 5 0.018490 -0.004062 0.024616 0.000000 0.074956 0.000000
# 6 0.000000 0.000000 0.000000 0.038396 0.000000 -0.006985
#
#
# Mechanical properties :
#
#
# Convention : Reuss Voigt Hill
#
# Bulk Modulus (GPa) = 20.90033 41.68201 31.29117
# Shear Modulus (GPa) = 33.37687 18.49799 25.93743
#
# Velocity S-wave (km/s) = 4.32243 3.21786 3.81038
# Velocity P-wave (km/s) = 6.05067 6.09414 6.07245
#
# Compressibility (1/GPa) = 0.04784614
#
# Stress axis : x y z
#
# Youngs Moduli (GPa) = 46.73617 70.84641 40.71034
#
# Poissons Ratio (x) = 0.49028 -0.34118
# Poissons Ratio (y) = 0.32343 0.30838
# Poissons Ratio (z) = -0.39168 0.53666
#
# Static dielectric constant tensor:
#      x y z
#    x 1.682280 0.000000 -0.009680 
#    y 0.000000 1.622600 0.000000 
#    z -0.009680 0.000000 1.591390 
# 
# From -- ./inp_files/47424.got.cif
#   From: 2010.05.17/outbox.cif.g08.bks.cpg/sg10_24_cif.got.tgz:47424.got - 2010.06.03 11:33:40.
