data_PCOD9151170
_publ_section_title
;
Structure prediction by ZEFSAII (Michael W. Deem and Ramdas Pophale) SiO2 
 PCOD9151170
Probable space group: P 2/M
;
_chemical_formula_sum "Si O2"
_cell_formula_units_Z 22
_cell_length_a 13.914487
_cell_length_b 15.656948
_cell_length_c 5.146466
_cell_angle_alpha 90.000000
_cell_angle_beta 93.454328
_cell_angle_gamma 90.000000
_cell_volume 1119.163786
_symmetry_space_group_name_H-M "P 2/M"
_symmetry_group_IT_number 10
_symmetry_cell_setting 'monoclinic'
loop_
_space_group_symop_operation_xyz
x,y,z
-x,y,-z
-x,-y,-z
x,-y,z
loop_
_atom_site_type_symbol
_atom_site_label
_atom_site_fract_x
_atom_site_fract_y
_atom_site_fract_z
Si Si1 0.211514 0.500000 0.915189
Si Si2 0.500000 0.346768 0.500000
Si Si3 0.812196 0.313809 0.239699
Si Si4 0.566469 0.100194 0.766230
Si Si5 0.000000 0.661767 0.000000
Si Si6 0.311072 0.256733 0.276266
Si Si7 0.085699 0.500000 0.316902
Si Si8 0.417922 0.500000 0.782535
O O1 0.176380 0.417400 0.748079
O O2 0.322509 0.500000 0.920053
O O3 0.192412 0.500000 0.219145
O O4 0.420476 0.293639 0.328876
O O5 0.429769 0.412763 0.632321
O O6 0.759939 0.278158 0.490738
O O7 0.740441 0.292590 0.989213
O O8 0.920670 0.287829 0.161583
O O9 0.500000 0.108785 0.500000
O O10 0.662197 0.156984 0.752650
O O11 0.589755 0.000000 0.803768
O O12 0.500000 0.126982 0.000000
O O13 0.059582 0.593975 0.182529
O O14 0.000000 0.500000 0.500000
O O15 0.500000 0.500000 0.000000
#
# Coordination Sequence:
#
# PCOD9151170 Si02
#       8
#     2   2   4   4   2   4   2   2
#     4  10  20  38  51  79 109 155 208 242 288 348
#     4  11  24  34  55  76 120 156 201 238 274 341
#     4  11  25  38  61  83 118 158 204 252 298 341
#     4  10  21  39  65  92 122 155 189 238 298 356
#     4   9  22  40  52  84 109 150 202 262 307 350
#     4  12  24  39  59  91 116 159 194 243 294 356
#     4   9  19  35  59  74 102 146 197 276 314 335
#     4  11  21  37  48  72 113 166 203 230 277 332
#
# _framework density 19.657533999999998
#
# number of rings (size 3 to 8) (size 9 to 14) (size 15 to 20)
#    0.000    1.455    2.727    2.727    5.091    1.455 
#    0.000    0.000    0.000    0.000    0.000    3.818 
#    0.000    0.000    0.000    0.000    0.000    0.000 
#
# Total GULP energy -122475.618020 kJ/mol
# GULP energy per Si atom -5567.073546 kJ/mol
# Density = 1.961279 g / cm^3
# Si number density = 19.657534 Si / 1000 Ang^3
#
#
#
# Elastic Constant Matrix: (Units=GPa)
#
#
# Indices 1 2 3 4 5 6 
#
# 1 110.1221 24.0188 28.6917 0.0000 -41.8670 0.0000
# 2 24.0188 84.9516 26.7777 0.0000 -18.6309 0.0000
# 3 28.6917 26.7777 122.0853 0.0000 -46.5376 0.0000
# 4 0.0000 0.0000 0.0000 18.4656 0.0000 -12.1649
# 5 -41.8670 -18.6309 -46.5376 0.0000 49.1760 0.0000
# 6 0.0000 0.0000 0.0000 -12.1649 0.0000 15.1888
#
#
#
# Elastic Compliance Matrix: (Units=1/GPa)
#
#
# Indices 1 2 3 4 5 6 
#
# 1 0.013930 -0.001711 0.002151 0.000000 0.013247 0.000000
# 2 -0.001711 0.013227 -0.001790 0.000000 0.001861 0.000000
# 3 0.002151 -0.001790 0.013324 0.000000 0.013763 0.000000
# 4 0.000000 0.000000 0.000000 0.114645 0.000000 0.091821
# 5 0.013247 0.001861 0.013763 0.000000 0.045342 0.000000
# 6 0.000000 0.000000 0.000000 0.091821 0.000000 0.139379
#
#
# Mechanical properties :
#
#
# Convention : Reuss Voigt Hill
#
# Bulk Modulus (GPa) = 26.46779 52.90394 39.68586
# Shear Modulus (GPa) = 14.07886 32.41079 23.24483
#
# Velocity S-wave (km/s) = 2.67911 4.06491 3.44246
# Velocity P-wave (km/s) = 4.80248 7.00018 6.00277
#
# Compressibility (1/GPa) = 0.03778177
#
# Stress axis : x y z
#
# Youngs Moduli (GPa) = 71.78795 75.60012 75.05128
#
# Poissons Ratio (x) = 0.12938 -0.16145
# Poissons Ratio (y) = 0.12285 0.13433
# Poissons Ratio (z) = -0.15443 0.13531
#
# Static dielectric constant tensor:
#      x y z
#    x 1.603800 0.000000 -0.257000 
#    y 0.000000 1.709170 0.000000 
#    z -0.257000 0.000000 1.075400 
# 
# From -- ./inp_files/9087.got.cif
#   From: 2010.05.17/outbox.cif.g08.bks.cpg/sg10_5_cif.got.tgz:9087.got - 2010.06.03 11:33:40.
