data_PCOD9151898
_publ_section_title
;
Structure prediction by ZEFSAII (Michael W. Deem and Ramdas Pophale) SiO2 
 PCOD9151898
Probable space group: P 2/M
;
_chemical_formula_sum "Si O2"
_cell_formula_units_Z 17
_cell_length_a 8.559268
_cell_length_b 9.967388
_cell_length_c 12.557439
_cell_angle_alpha 90.000000
_cell_angle_beta 46.474614
_cell_angle_gamma 90.000000
_cell_volume 776.780993
_symmetry_space_group_name_H-M "P 2/M"
_symmetry_group_IT_number 10
_symmetry_cell_setting 'monoclinic'
loop_
_space_group_symop_operation_xyz
x,y,z
-x,y,-z
-x,-y,-z
x,-y,z
loop_
_atom_site_type_symbol
_atom_site_label
_atom_site_fract_x
_atom_site_fract_y
_atom_site_fract_z
Si Si1 0.052865 0.342316 0.282243
Si Si2 0.925268 0.852854 0.914048
Si Si3 0.575690 0.344726 0.578628
Si Si4 0.500000 0.500000 0.000000
Si Si5 0.511423 0.252141 0.839161
O O1 0.136566 0.500000 0.230604
O O2 0.235653 0.250771 0.250450
O O3 0.835815 0.348422 0.452027
O O4 0.001554 0.268946 0.195608
O O5 0.664389 0.852675 0.039584
O O6 0.002488 0.000000 0.841531
O O7 0.000000 0.831856 0.000000
O O8 0.500000 0.290897 0.500000
O O9 0.500469 0.500000 0.620934
O O10 0.497539 0.268746 0.719099
O O11 0.556290 0.383196 0.063146
#
# Coordination Sequence:
#
# PCOD9151898 Si02
#       5
#     4   4   4   1   4
#     4  11  21  38  62  93 121 158 201 250 306 355
#     4  11  25  42  60  86 123 164 205 253 305 360
#     4  10  21  35  57  91 127 161 197 247 302 360
#     4  12  20  36  60 100 122 160 190 264 294 360
#     4  12  20  38  61  88 126 156 204 242 304 359
#
# _framework density 21.885190000000001
#
# number of rings (size 3 to 8) (size 9 to 14) (size 15 to 20)
#    0.000    0.941    4.706    2.118    0.000    4.235 
#    0.000    1.176    0.000    7.059    0.000    0.000 
#    0.000    0.000    0.000    0.000    0.000    0.000 
#
# Total GULP energy -94662.188112 kJ/mol
# GULP energy per Si atom -5568.364007 kJ/mol
# Density = 2.183538 g / cm^3
# Si number density = 21.885190 Si / 1000 Ang^3
#
#
#
# Elastic Constant Matrix: (Units=GPa)
#
#
# Indices 1 2 3 4 5 6 
#
# 1 68.2380 -1.7484 1.8247 0.0000 6.4410 0.0000
# 2 -1.7484 70.5827 16.4639 0.0000 5.9857 0.0000
# 3 1.8247 16.4639 86.7221 0.0000 14.8571 0.0000
# 4 0.0000 0.0000 0.0000 13.6888 0.0000 -6.1407
# 5 6.4410 5.9857 14.8571 0.0000 40.1027 0.0000
# 6 0.0000 0.0000 0.0000 -6.1407 0.0000 14.3564
#
#
#
# Elastic Compliance Matrix: (Units=1/GPa)
#
#
# Indices 1 2 3 4 5 6 
#
# 1 0.014904 0.000579 0.000001 0.000000 -0.002481 0.000000
# 2 0.000579 0.014906 -0.002611 0.000000 -0.001351 0.000000
# 3 0.000001 -0.002611 0.012770 0.000000 -0.004342 0.000000
# 4 0.000000 0.000000 0.000000 0.090398 0.000000 0.038666
# 5 -0.002481 -0.001351 -0.004342 0.000000 0.027145 0.000000
# 6 0.000000 0.000000 0.000000 0.038666 0.000000 0.086194
#
#
# Mechanical properties :
#
#
# Convention : Reuss Voigt Hill
#
# Bulk Modulus (GPa) = 25.96067 28.73591 27.34829
# Shear Modulus (GPa) = 18.99581 27.56310 23.27946
#
# Velocity S-wave (km/s) = 2.94934 3.55271 3.26499
# Velocity P-wave (km/s) = 4.84625 5.47611 5.17078
#
# Compressibility (1/GPa) = 0.03851981
#
# Stress axis : x y z
#
# Youngs Moduli (GPa) = 67.09814 67.08887 78.30559
#
# Poissons Ratio (x) = -0.03886 -0.00011
# Poissons Ratio (y) = -0.03886 0.20442
# Poissons Ratio (z) = -0.00010 0.17514
#
# Static dielectric constant tensor:
#      x y z
#    x 1.841340 0.000000 0.067030 
#    y 0.000000 1.794430 0.000000 
#    z 0.067030 0.000000 1.559610 
# 
# From -- ./inp_files/40696.got.cif
#   From: 2010.05.17/outbox.cif.g08.bks.cpg/sg10_21_cif.got.tgz:40696.got - 2010.06.03 11:33:40.
