data_PCOD9151169
_publ_section_title
;
Structure prediction by ZEFSAII (Michael W. Deem and Ramdas Pophale) SiO2 
 PCOD9151169
Probable space group: P 2/M
;
_chemical_formula_sum "Si O2"
_cell_formula_units_Z 32
_cell_length_a 12.362583
_cell_length_b 18.513218
_cell_length_c 11.437594
_cell_angle_alpha 90.000000
_cell_angle_beta 146.168991
_cell_angle_gamma 90.000000
_cell_volume 1457.412024
_symmetry_space_group_name_H-M "P 2/M"
_symmetry_group_IT_number 10
_symmetry_cell_setting 'monoclinic'
loop_
_space_group_symop_operation_xyz
x,y,z
-x,y,-z
-x,-y,-z
x,-y,z
loop_
_atom_site_type_symbol
_atom_site_label
_atom_site_fract_x
_atom_site_fract_y
_atom_site_fract_z
Si Si1 0.767093 0.082571 0.802582
Si Si2 0.380231 0.418206 0.787514
Si Si3 0.526289 0.704060 0.400309
Si Si4 0.917234 0.654009 0.645611
Si Si5 0.935459 0.191929 0.308340
Si Si6 0.724021 0.580151 0.906060
Si Si7 0.582896 0.834865 0.850948
Si Si8 0.765526 0.084398 0.535156
O O1 0.708753 0.134954 0.854648
O O2 0.700308 0.100156 0.610427
O O3 0.704258 0.000000 0.774164
O O4 0.000000 0.082332 0.000000
O O5 0.325542 0.500000 0.775605
O O6 0.192228 0.380304 0.564917
O O7 0.543955 0.423505 0.834826
O O8 0.500000 0.381514 0.000000
O O9 0.500000 0.743317 0.500000
O O10 0.739552 0.670646 0.574286
O O11 0.356903 0.643436 0.248885
O O12 0.497755 0.758070 0.266401
O O13 0.015663 0.728863 0.697009
O O14 0.080690 0.603980 0.851444
O O15 0.000000 0.187509 0.500000
O O16 0.056224 0.133742 0.342106
O O17 0.711983 0.175658 0.080502
O O18 0.748417 0.500000 0.875732
O O19 0.408758 0.891192 0.704878
O O20 0.811391 0.000000 0.570073
#
# Coordination Sequence:
#
# PCOD9151169 Si02
#       8
#     4   4   4   4   4   4   4   4
#     4  10  20  37  69 103 131 162 204 267 334 388
#     4   9  20  37  63  96 126 160 213 276 327 373
#     4  11  24  41  66  97 130 167 217 268 325 385
#     4  11  23  42  63  90 128 174 215 265 323 382
#     4  12  28  44  64  94 131 176 223 265 318 382
#     4  10  22  41  63  93 130 171 216 261 320 389
#     4  12  23  42  67  97 131 170 213 272 326 385
#     4  11  24  45  69  99 130 168 216 265 326 389
#
# _framework density 21.956727999999998
#
# number of rings (size 3 to 8) (size 9 to 14) (size 15 to 20)
#    0.000    1.250    3.750    1.875    1.750    3.500 
#    0.000    3.125    0.000    0.000    0.000    0.000 
#    0.000    0.000    0.000    0.000    0.000    0.000 
#
# Total GULP energy -178850.044432 kJ/mol
# GULP energy per Si atom -5589.063889 kJ/mol
# Density = 2.190675 g / cm^3
# Si number density = 21.956728 Si / 1000 Ang^3
#
#
#
# Elastic Constant Matrix: (Units=GPa)
#
#
# Indices 1 2 3 4 5 6 
#
# 1 14.5102 2.3452 -0.5239 0.0000 -1.8573 0.0000
# 2 2.3452 87.7990 5.7658 0.0000 4.9536 0.0000
# 3 -0.5239 5.7658 98.5123 0.0000 9.2417 0.0000
# 4 0.0000 0.0000 0.0000 30.4250 0.0000 2.0124
# 5 -1.8573 4.9536 9.2417 0.0000 31.9597 0.0000
# 6 0.0000 0.0000 0.0000 2.0124 0.0000 8.7200
#
#
#
# Elastic Compliance Matrix: (Units=1/GPa)
#
#
# Indices 1 2 3 4 5 6 
#
# 1 0.069821 -0.002117 0.000086 0.000000 0.004361 0.000000
# 2 -0.002117 0.011580 -0.000523 0.000000 -0.001767 0.000000
# 3 0.000086 -0.000523 0.010458 0.000000 -0.002938 0.000000
# 4 0.000000 0.000000 0.000000 0.033377 0.000000 -0.007703
# 5 0.004361 -0.001767 -0.002938 0.000000 0.032666 0.000000
# 6 0.000000 0.000000 0.000000 -0.007703 0.000000 0.116457
#
#
# Mechanical properties :
#
#
# Convention : Reuss Voigt Hill
#
# Bulk Modulus (GPa) = 11.52725 23.99951 17.76338
# Shear Modulus (GPa) = 16.21356 27.10322 21.65839
#
# Velocity S-wave (km/s) = 2.72036 3.51720 3.14413
# Velocity P-wave (km/s) = 3.88954 5.23912 4.61394
#
# Compressibility (1/GPa) = 0.08675094
#
# Stress axis : x y z
#
# Youngs Moduli (GPa) = 14.32241 86.35411 95.62317
#
# Poissons Ratio (x) = 0.18278 -0.00823
# Poissons Ratio (y) = 0.03032 0.05004
# Poissons Ratio (z) = -0.00123 0.04519
#
# Static dielectric constant tensor:
#      x y z
#    x 1.794140 0.000000 0.007420 
#    y 0.000000 1.811640 0.000000 
#    z 0.007420 0.000000 1.851210 
# 
# From -- ./inp_files/51989.got.cif
#   From: 2010.05.17/outbox.cif.g08.bks.cpg/sg10_26_cif.got.tgz:51989.got - 2010.06.03 11:33:40.
