data_PCOD9151876
_publ_section_title
;
Structure prediction by ZEFSAII (Michael W. Deem and Ramdas Pophale) SiO2 
 PCOD9151876
Probable space group: P 2/M
;
_chemical_formula_sum "Si O2"
_cell_formula_units_Z 20
_cell_length_a 9.308383
_cell_length_b 14.412621
_cell_length_c 8.215900
_cell_angle_alpha 90.000000
_cell_angle_beta 101.447741
_cell_angle_gamma 90.000000
_cell_volume 1080.302708
_symmetry_space_group_name_H-M "P 2/M"
_symmetry_group_IT_number 10
_symmetry_cell_setting 'monoclinic'
loop_
_space_group_symop_operation_xyz
x,y,z
-x,y,-z
-x,-y,-z
x,-y,z
loop_
_atom_site_type_symbol
_atom_site_label
_atom_site_fract_x
_atom_site_fract_y
_atom_site_fract_z
Si Si1 0.581274 0.104090 0.751750
Si Si2 0.076806 0.389697 0.191442
Si Si3 0.115935 0.256592 0.646183
Si Si4 0.341913 0.291211 0.417840
Si Si5 0.728785 0.896724 0.136916
O O1 0.626261 0.188369 0.646563
O O2 0.413665 0.111645 0.777499
O O3 0.602274 0.000000 0.687389
O O4 0.673802 0.110009 0.939583
O O5 0.089111 0.500000 0.212387
O O6 0.235871 0.344012 0.265571
O O7 0.967102 0.344185 0.297337
O O8 0.000000 0.370502 0.000000
O O9 0.251393 0.284887 0.564529
O O10 0.163742 0.185552 0.794610
O O11 0.000000 0.208213 0.500000
O O12 0.500000 0.333399 0.500000
O O13 0.790826 0.000000 0.175249
#
# Coordination Sequence:
#
# PCOD9151876 Si02
#       5
#     4   4   4   4   4
#     4   9  18  32  54  81 115 155 188 226 274 324
#     4  10  23  44  64  80 107 149 188 229 290 350
#     4  10  21  35  56  83 115 149 183 229 287 337
#     4  11  21  35  59  90 117 146 187 234 279 330
#     4   9  17  32  53  80 114 154 194 226 266 323
#
# _framework density 18.513328999999999
#
# number of rings (size 3 to 8) (size 9 to 14) (size 15 to 20)
#    0.000    2.200    2.000    2.400    0.000    5.600 
#    0.000    3.000    0.000   13.200    0.000    0.000 
#    0.000    0.000    0.000    0.000    0.000    0.000 
#
# Total GULP energy -111514.471560 kJ/mol
# GULP energy per Si atom -5575.723578 kJ/mol
# Density = 1.847119 g / cm^3
# Si number density = 18.513329 Si / 1000 Ang^3
#
#
#
# Elastic Constant Matrix: (Units=GPa)
#
#
# Indices 1 2 3 4 5 6 
#
# 1 93.6369 39.7717 39.2091 0.0000 13.9079 0.0000
# 2 39.7717 102.1671 52.9689 0.0000 13.7841 0.0000
# 3 39.2091 52.9689 83.5042 0.0000 15.8122 0.0000
# 4 0.0000 0.0000 0.0000 37.4287 0.0000 10.5633
# 5 13.9079 13.7841 15.8122 0.0000 34.7733 0.0000
# 6 0.0000 0.0000 0.0000 10.5633 0.0000 32.0498
#
#
#
# Elastic Compliance Matrix: (Units=1/GPa)
#
#
# Indices 1 2 3 4 5 6 
#
# 1 0.014090 -0.002923 -0.004283 0.000000 -0.002529 0.000000
# 2 -0.002923 0.015286 -0.008094 0.000000 -0.001209 0.000000
# 3 -0.004283 -0.008094 0.019903 0.000000 -0.004129 0.000000
# 4 0.000000 0.000000 0.000000 0.029458 0.000000 -0.009709
# 5 -0.002529 -0.001209 -0.004129 0.000000 0.032126 0.000000
# 6 0.000000 0.000000 0.000000 -0.009709 0.000000 0.034401
#
#
# Mechanical properties :
#
#
# Convention : Reuss Voigt Hill
#
# Bulk Modulus (GPa) = 53.54041 60.35642 56.94842
# Shear Modulus (GPa) = 27.45888 30.67426 29.06657
#
# Velocity S-wave (km/s) = 3.85541 4.07489 3.96667
# Velocity P-wave (km/s) = 6.98581 7.40351 7.19769
#
# Compressibility (1/GPa) = 0.01867748
#
# Stress axis : x y z
#
# Youngs Moduli (GPa) = 70.97108 65.42073 50.24455
#
# Poissons Ratio (x) = 0.19126 0.21518
# Poissons Ratio (y) = 0.20748 0.40670
# Poissons Ratio (z) = 0.30394 0.52954
#
# Static dielectric constant tensor:
#      x y z
#    x 1.652160 0.000000 0.016990 
#    y 0.000000 1.618480 0.000000 
#    z 0.016990 0.000000 1.664980 
# 
# From -- ./inp_files/17949.got.cif
#   From: 2010.05.17/outbox.cif.g08.bks.cpg/sg10_9_cif.got.tgz:17949.got - 2010.06.03 11:33:40.
