data_PCOD9151282
_publ_section_title
;
Structure prediction by ZEFSAII (Michael W. Deem and Ramdas Pophale) SiO2 
 PCOD9151282
Probable space group: P 2/M
;
_chemical_formula_sum "Si O2"
_cell_formula_units_Z 32
_cell_length_a 31.591489
_cell_length_b 8.698264
_cell_length_c 11.424072
_cell_angle_alpha 90.000000
_cell_angle_beta 147.008325
_cell_angle_gamma 90.000000
_cell_volume 1709.366515
_symmetry_space_group_name_H-M "P 2/M"
_symmetry_group_IT_number 10
_symmetry_cell_setting 'monoclinic'
loop_
_space_group_symop_operation_xyz
x,y,z
-x,y,-z
-x,-y,-z
x,-y,z
loop_
_atom_site_type_symbol
_atom_site_label
_atom_site_fract_x
_atom_site_fract_y
_atom_site_fract_z
Si Si1 0.074609 0.814730 0.095780
Si Si2 0.269890 0.185247 0.928600
Si Si3 0.112158 0.815310 0.696744
Si Si4 0.541198 0.816614 0.266170
Si Si5 0.955302 0.316749 0.227598
Si Si6 0.424487 0.683636 0.401763
Si Si7 0.612957 0.316793 0.201657
Si Si8 0.759398 0.185029 0.409615
O O1 0.154142 0.775753 0.347028
O O2 0.072088 0.000000 0.074757
O O3 0.070484 0.737645 0.959684
O O4 0.000000 0.770191 0.000000
O O5 0.194587 0.225868 0.831393
O O6 0.253836 0.226827 0.756505
O O7 0.279345 0.000000 0.956194
O O8 0.347007 0.263798 0.155906
O O9 0.099700 0.750711 0.798045
O O10 0.041093 0.748726 0.455566
O O11 0.105262 0.000000 0.682619
O O12 0.569312 0.763292 0.457905
O O13 0.596270 0.753459 0.290723
O O14 0.537239 0.000000 0.249904
O O15 0.456133 0.747436 0.040933
O O16 0.956642 0.500000 0.239120
O O17 0.500000 0.725619 0.500000
O O18 0.424438 0.500000 0.417338
O O19 0.607084 0.500000 0.193758
O O20 0.694715 0.264546 0.339165
O O21 0.750556 0.000000 0.398707
#
# Coordination Sequence:
#
# PCOD9151282 Si02
#       8
#     4   4   4   4   4   4   4   4
#     4  10  21  39  62  85 112 151 196 239 283 336
#     4  10  22  39  61  87 113 149 195 240 284 334
#     4  10  20  38  62  85 113 152 196 236 280 338
#     4  11  22  39  63  87 114 151 195 238 281 333
#     4  11  22  36  57  87 120 152 188 234 290 343
#     4  11  24  40  59  86 119 153 188 232 289 345
#     4  11  22  38  60  87 120 153 188 232 287 345
#     4  10  21  38  60  86 116 150 193 239 283 337
#
# _framework density 18.720386999999999
#
# number of rings (size 3 to 8) (size 9 to 14) (size 15 to 20)
#    0.000    1.500    0.000    7.125    0.000    8.250 
#    0.000    2.500    0.000    0.000    0.000    0.000 
#    0.000    0.000    0.000    0.000    0.000    0.000 
#
# Total GULP energy -178941.670404 kJ/mol
# GULP energy per Si atom -5591.927200 kJ/mol
# Density = 1.867778 g / cm^3
# Si number density = 18.720387 Si / 1000 Ang^3
#
#
#
# Elastic Constant Matrix: (Units=GPa)
#
#
# Indices 1 2 3 4 5 6 
#
# 1 127.6927 67.9520 112.8015 0.0000 3.8972 0.0000
# 2 67.9520 93.2604 72.9033 0.0000 1.1073 0.0000
# 3 112.8015 72.9033 142.2970 0.0000 -1.2962 0.0000
# 4 0.0000 0.0000 0.0000********** 0.0000 3409.5366
# 5 3.8972 1.1073 -1.2962 0.0000 42.2748 0.0000
# 6 0.0000 0.0000 0.0000 3409.5366 0.0000 -399.1172
#
#
#
# Elastic Compliance Matrix: (Units=1/GPa)
#
#
# Indices 1 2 3 4 5 6 
#
# 1 0.027836 -0.004962 -0.019551 0.000000 -0.003036 0.000000
# 2 -0.004962 0.018794 -0.005697 0.000000 -0.000210 0.000000
# 3 -0.019551 -0.005697 0.025470 0.000000 0.002733 0.000000
# 4 0.000000 0.000000 0.000000 0.001196 0.000000 0.010221
# 5 -0.003036 -0.000210 0.002733 0.000000 0.024024 0.000000
# 6 0.000000 0.000000 0.000000 0.010221 0.000000 0.084812
#
#
# Mechanical properties :
#
#
# Convention : Reuss Voigt Hill
#
# Bulk Modulus (GPa) = 85.62617 96.72931 91.17774
# Shear Modulus (GPa) = 20.28831 -5722.23367 -2850.97268
#
# Velocity S-wave (km/s) = 3.29561 -55.34728 -39.06700
# Velocity P-wave (km/s) = 7.76661 63.50312 44.56639
#
# Compressibility (1/GPa) = 0.01167867
#
# Stress axis : x y z
#
# Youngs Moduli (GPa) = 35.92459 53.20725 39.26173
#
# Poissons Ratio (x) = 0.26403 0.76762
# Poissons Ratio (y) = 0.17827 0.22368
# Poissons Ratio (z) = 0.70238 0.30313
#
# Static dielectric constant tensor:
#      x y z
#    x 1.624480 0.000000 0.003360 
#    y 0.000000 1.627140 0.000000 
#    z 0.003360 0.000000 1.615840 
# 
# From -- ./inp_files/58254.got.cif
#   From: 2010.05.17/outbox.cif.g08.bks.cpg/sg10_30_cif.got.tgz:58254.got - 2010.06.03 11:33:40.
