data_PCOD9151334
_publ_section_title
;
Structure prediction by ZEFSAII (Michael W. Deem and Ramdas Pophale) SiO2 
 PCOD9151334
Probable space group: P 2/M
;
_chemical_formula_sum "Si O2"
_cell_formula_units_Z 28
_cell_length_a 12.760706
_cell_length_b 9.185438
_cell_length_c 14.064600
_cell_angle_alpha 90.000000
_cell_angle_beta 63.022106
_cell_angle_gamma 90.000000
_cell_volume 1469.156896
_symmetry_space_group_name_H-M "P 2/M"
_symmetry_group_IT_number 10
_symmetry_cell_setting 'monoclinic'
loop_
_space_group_symop_operation_xyz
x,y,z
-x,y,-z
-x,-y,-z
x,-y,z
loop_
_atom_site_type_symbol
_atom_site_label
_atom_site_fract_x
_atom_site_fract_y
_atom_site_fract_z
Si Si1 0.621525 0.175963 0.256951
Si Si2 0.964618 0.160013 0.906177
Si Si3 0.180601 0.172675 0.676181
Si Si4 0.370795 0.839987 0.093823
Si Si5 0.643218 0.172675 0.676181
Si Si6 0.262995 0.668146 0.974011
Si Si7 0.124976 0.324683 0.500000
O O1 0.699015 0.215813 0.318084
O O2 0.482900 0.215813 0.318084
O O3 0.681414 0.242000 0.137172
O O4 0.627328 0.000000 0.245344
O O5 0.077118 0.190197 0.795713
O O6 0.918038 0.000000 0.895394
O O7 0.869956 0.285927 0.949829
O O8 0.000000 0.145328 0.000000
O O9 0.141250 0.260546 0.599487
O O10 0.190389 0.000000 0.648591
O O11 0.372831 0.809802 0.204287
O O12 0.686568 0.000000 0.895393
O O13 0.500000 0.854672 0.000000
O O14 0.319785 0.714073 0.050171
O O15 0.759263 0.260546 0.599486
O O16 0.661020 0.000000 0.648592
O O17 0.276720 0.500000 0.946561
O O18 0.128789 0.500000 0.500000
O O19 0.000000 0.283279 0.500000
#
# Coordination Sequence:
#
# PCOD9151334 Si02
#       7
#     4   4   4   4   4   4   4
#     4  10  20  41  67  94 126 159 206 259 308 365
#     4  10  20  38  63  90 122 163 209 253 302 361
#     4  10  22  41  69  95 119 159 211 263 305 361
#     4  10  20  38  63  90 122 163 209 253 302 361
#     4  10  22  41  69  95 119 159 211 263 305 361
#     4  12  24  34  53  90 135 172 201 247 309 377
#     4  11  27  48  65  86 126 167 202 253 312 375
#
# _framework density 19.058551000000001
#
# number of rings (size 3 to 8) (size 9 to 14) (size 15 to 20)
#    0.000    1.571    2.857    1.714    2.000    4.571 
#    0.000    2.857    0.000    0.000    0.000    0.000 
#    0.000    0.000    0.000    0.000    0.000    0.000 
#
# Total GULP energy -156080.570225 kJ/mol
# GULP energy per Si atom -5574.306079 kJ/mol
# Density = 1.901517 g / cm^3
# Si number density = 19.058551 Si / 1000 Ang^3
#
#
#
# Elastic Constant Matrix: (Units=GPa)
#
#
# Indices 1 2 3 4 5 6 
#
# 1 176.9157 59.4715 74.6995 0.0000 -4.7492 0.0000
# 2 59.4715 65.6710 38.1705 0.0000 -1.2939 0.0000
# 3 74.6995 38.1705 126.2961 0.0000 1.6748 0.0000
# 4 0.0000 0.0000 0.0000 18.3691 0.0000 -0.7823
# 5 -4.7492 -1.2939 1.6748 0.0000 12.4122 0.0000
# 6 0.0000 0.0000 0.0000 -0.7823 0.0000 31.2443
#
#
#
# Elastic Compliance Matrix: (Units=1/GPa)
#
#
# Indices 1 2 3 4 5 6 
#
# 1 0.009440 -0.006319 -0.003719 0.000000 0.003455 0.000000
# 2 -0.006319 0.022792 -0.003156 0.000000 0.000384 0.000000
# 3 -0.003719 -0.003156 0.011115 0.000000 -0.003252 0.000000
# 4 0.000000 0.000000 0.000000 0.054497 0.000000 0.001364
# 5 0.003455 0.000384 -0.003252 0.000000 0.082366 0.000000
# 6 0.000000 0.000000 0.000000 0.001364 0.000000 0.032040
#
#
# Mechanical properties :
#
#
# Convention : Reuss Voigt Hill
#
# Bulk Modulus (GPa) = 58.97008 79.28507 69.12758
# Shear Modulus (GPa) = 20.46743 25.50789 22.98766
#
# Velocity S-wave (km/s) = 3.28063 3.66238 3.47675
# Velocity P-wave (km/s) = 6.73489 7.71849 7.24341
#
# Compressibility (1/GPa) = 0.01695775
#
# Stress axis : x y z
#
# Youngs Moduli (GPa) = 105.93654 43.87585 89.97047
#
# Poissons Ratio (x) = 0.27723 0.33463
# Poissons Ratio (y) = 0.66937 0.28396
# Poissons Ratio (z) = 0.39401 0.13848
#
# Static dielectric constant tensor:
#      x y z
#    x 1.684730 0.000000 -0.003980 
#    y 0.000000 1.662350 0.000000 
#    z -0.003980 0.000000 1.619180 
# 
# From -- ./inp_files/63677.got.cif
#   From: 2010.05.17/outbox.cif.g08.bks.cpg/sg10_32_cif.got.tgz:63677.got - 2010.06.03 11:33:40.
