data_PCOD9151772
_publ_section_title
;
Structure prediction by ZEFSAII (Michael W. Deem and Ramdas Pophale) SiO2 
 PCOD9151772
Probable space group: P 2/M
;
_chemical_formula_sum "Si O2"
_cell_formula_units_Z 26
_cell_length_a 15.249904
_cell_length_b 12.472039
_cell_length_c 8.489474
_cell_angle_alpha 90.000000
_cell_angle_beta 86.464484
_cell_angle_gamma 90.000000
_cell_volume 1611.602752
_symmetry_space_group_name_H-M "P 2/M"
_symmetry_group_IT_number 10
_symmetry_cell_setting 'monoclinic'
loop_
_space_group_symop_operation_xyz
x,y,z
-x,y,-z
-x,-y,-z
x,-y,z
loop_
_atom_site_type_symbol
_atom_site_label
_atom_site_fract_x
_atom_site_fract_y
_atom_site_fract_z
Si Si1 0.117822 0.124424 0.818494
Si Si2 0.423541 0.500000 0.885480
Si Si3 0.093626 0.876551 0.185880
Si Si4 0.589443 0.376103 0.415444
Si Si5 0.913460 0.684346 0.608494
Si Si6 0.226629 0.500000 0.906550
Si Si7 0.782975 0.682641 0.355749
Si Si8 0.064317 0.500000 0.143960
O O1 0.173664 0.206882 0.709288
O O2 0.012814 0.135396 0.802689
O O3 0.140232 0.000000 0.784929
O O4 0.127491 0.144675 0.005099
O O5 0.428867 0.398753 0.766790
O O6 0.325230 0.500000 0.960969
O O7 0.500000 0.500000 0.000000
O O8 0.126379 0.789342 0.304842
O O9 0.113155 0.000000 0.223643
O O10 0.500000 0.332540 0.500000
O O11 0.603173 0.500000 0.476357
O O12 0.680932 0.314035 0.419298
O O13 0.842466 0.640162 0.493001
O O14 0.943175 0.602495 0.741640
O O15 0.000000 0.712451 0.500000
O O16 0.213573 0.601043 0.791909
O O17 0.159418 0.500000 0.055089
O O18 0.000000 0.500000 0.000000
#
# Coordination Sequence:
#
# PCOD9151772 Si02
#       8
#     4   2   4   4   4   2   4   2
#     4   9  18  33  54  72  98 135 170 212 255 296
#     4   8  15  28  51  74  91 114 158 209 244 284
#     4   9  19  35  52  72  97 134 178 216 250 284
#     4   8  17  33  52  70  99 135 154 202 255 299
#     4  12  23  33  48  72 101 139 170 210 245 296
#     4  10  21  35  50  69  99 138 164 206 243 304
#     4  11  19  34  53  75 104 127 174 207 252 300
#     4  12  26  35  44  61 102 146 174 194 238 307
#
# _framework density 16.133009000000001
#
# number of rings (size 3 to 8) (size 9 to 14) (size 15 to 20)
#    0.462    1.692    2.308    3.462    2.154    2.154 
#    0.000    0.000    0.000    0.462    0.000    0.000 
#    0.000   12.308    0.000    0.000    0.000    0.000 
#
# Total GULP energy -144838.962049 kJ/mol
# GULP energy per Si atom -5570.729310 kJ/mol
# Density = 1.609629 g / cm^3
# Si number density = 16.133009 Si / 1000 Ang^3
#
#
#
# Elastic Constant Matrix: (Units=GPa)
#
#
# Indices 1 2 3 4 5 6 
#
# 1 72.2349 14.6353 28.7494 0.0000 3.6222 0.0000
# 2 14.6353 62.5306 29.4037 0.0000 -3.1870 0.0000
# 3 28.7494 29.4037 59.3786 0.0000 1.6735 0.0000
# 4 0.0000 0.0000 0.0000 1.3052 0.0000 -18.2700
# 5 3.6222 -3.1870 1.6735 0.0000 33.3503 0.0000
# 6 0.0000 0.0000 0.0000 -18.2700 0.0000 5.4894
#
#
#
# Elastic Compliance Matrix: (Units=1/GPa)
#
#
# Indices 1 2 3 4 5 6 
#
# 1 0.017222 -0.000268 -0.008164 0.000000 -0.001486 0.000000
# 2 -0.000268 0.021063 -0.010373 0.000000 0.002562 0.000000
# 3 -0.008164 -0.010373 0.025970 0.000000 -0.001408 0.000000
# 4 0.000000 0.000000 0.000000 -0.016806 0.000000 -0.055935
# 5 -0.001486 0.002562 -0.001408 0.000000 0.030462 0.000000
# 6 0.000000 0.000000 0.000000 -0.055935 0.000000 -0.003996
#
#
# Mechanical properties :
#
#
# Convention : Reuss Voigt Hill
#
# Bulk Modulus (GPa) = 37.52895 37.74676 37.63785
# Shear Modulus (GPa) = 41.52656 16.11935 28.82295
#
# Velocity S-wave (km/s) = 5.07898 3.16437 4.23138
# Velocity P-wave (km/s) = 7.59654 6.06622 6.87409
#
# Compressibility (1/GPa) = 0.02664610
#
# Stress axis : x y z
#
# Youngs Moduli (GPa) = 58.06637 47.47663 38.50604
#
# Poissons Ratio (x) = 0.01271 0.31436
# Poissons Ratio (y) = 0.01554 0.39942
# Poissons Ratio (z) = 0.47404 0.49247
#
# Static dielectric constant tensor:
#      x y z
#    x 1.537720 0.000000 -0.002140 
#    y 0.000000 1.553680 0.000000 
#    z -0.002140 0.000000 1.565090 
# 
# From -- ./inp_files/27873.got.cif
#   From: 2010.05.17/outbox.cif.g08.bks.cpg/sg10_14_cif.got.tgz:27873.got - 2010.06.03 11:33:40.
