data_PCOD9151275
_publ_section_title
;
Structure prediction by ZEFSAII (Michael W. Deem and Ramdas Pophale) SiO2 
 PCOD9151275
Probable space group: P 2/M
;
_chemical_formula_sum "Si O2"
_cell_formula_units_Z 20
_cell_length_a 8.254595
_cell_length_b 15.356890
_cell_length_c 8.297358
_cell_angle_alpha 90.000000
_cell_angle_beta 82.641974
_cell_angle_gamma 90.000000
_cell_volume 1043.152395
_symmetry_space_group_name_H-M "P 2/M"
_symmetry_group_IT_number 10
_symmetry_cell_setting 'monoclinic'
loop_
_space_group_symop_operation_xyz
x,y,z
-x,y,-z
-x,-y,-z
x,-y,z
loop_
_atom_site_type_symbol
_atom_site_label
_atom_site_fract_x
_atom_site_fract_y
_atom_site_fract_z
Si Si1 0.500000 0.142144 0.500000
Si Si2 0.690263 0.278573 0.682987
Si Si3 0.037308 0.743971 0.807942
Si Si4 0.270284 0.098560 0.816503
Si Si5 0.825946 0.597563 0.427769
Si Si6 0.500000 0.785095 0.000000
O O1 0.631351 0.202761 0.572464
O O2 0.400416 0.094836 0.653278
O O3 0.700032 0.365561 0.575888
O O4 0.869429 0.259107 0.730089
O O5 0.567336 0.274110 0.847842
O O6 0.121812 0.838345 0.786477
O O7 0.152347 0.669524 0.714909
O O8 0.000000 0.725516 0.000000
O O9 0.223817 0.000000 0.866094
O O10 0.359851 0.151269 0.948708
O O11 0.789049 0.500000 0.376218
O O12 0.000000 0.594594 0.500000
#
# Coordination Sequence:
#
# PCOD9151275 Si02
#       6
#     2   4   4   4   4   2
#     4  10  21  38  61  82 118 162 191 244 291 354
#     4  10  20  38  62  83 119 155 198 236 300 344
#     4  11  21  38  60  88 119 155 194 250 289 343
#     4  11  22  38  59  88 119 158 201 239 290 349
#     4   9  19  37  63  87 114 154 197 240 292 352
#     4  10  21  38  59  82 122 168 187 238 293 354
#
# _framework density 19.172654999999999
#
# number of rings (size 3 to 8) (size 9 to 14) (size 15 to 20)
#    0.000    1.800    4.000    0.600    0.000    0.800 
#    0.000    4.000    0.000    0.000    0.000    0.000 
#    0.000    0.000    0.000    0.000    0.000    0.000 
#
# Total GULP energy -111572.066754 kJ/mol
# GULP energy per Si atom -5578.603338 kJ/mol
# Density = 1.912902 g / cm^3
# Si number density = 19.172655 Si / 1000 Ang^3
#
#
#
# Elastic Constant Matrix: (Units=GPa)
#
#
# Indices 1 2 3 4 5 6 
#
# 1 49.8999 36.1097 12.0563 0.0000 14.5212 0.0000
# 2 36.1097 134.0290 51.6175 0.0000 -23.8543 0.0000
# 3 12.0563 51.6175 105.8698 0.0000 -15.4629 0.0000
# 4 0.0000 0.0000 0.0000 8.7399 0.0000 -0.5586
# 5 14.5212 -23.8543 -15.4629 0.0000 26.8135 0.0000
# 6 0.0000 0.0000 0.0000 -0.5586 0.0000 13.9602
#
#
#
# Elastic Compliance Matrix: (Units=1/GPa)
#
#
# Indices 1 2 3 4 5 6 
#
# 1 0.048687 -0.020389 -0.002297 0.000000 -0.045831 0.000000
# 2 -0.020389 0.018740 -0.003022 0.000000 0.025972 0.000000
# 3 -0.002297 -0.003022 0.011978 0.000000 0.005464 0.000000
# 4 0.000000 0.000000 0.000000 0.114711 0.000000 0.004590
# 5 -0.045831 0.025972 0.005464 0.000000 0.088372 0.000000
# 6 0.000000 0.000000 0.000000 0.004590 0.000000 0.071816
#
#
# Mechanical properties :
#
#
# Convention : Reuss Voigt Hill
#
# Bulk Modulus (GPa) = 35.72840 54.37397 45.05118
# Shear Modulus (GPa) = 12.04670 22.57039 17.30855
#
# Velocity S-wave (km/s) = 2.50937 3.43478 3.00788
# Velocity P-wave (km/s) = 5.20302 6.64470 5.96756
#
# Compressibility (1/GPa) = 0.02798894
#
# Stress axis : x y z
#
# Youngs Moduli (GPa) = 20.53937 53.36040 83.48294
#
# Poissons Ratio (x) = 1.08798 0.19179
# Poissons Ratio (y) = 0.41878 0.25227
# Poissons Ratio (z) = 0.04719 0.16124
#
# Static dielectric constant tensor:
#      x y z
#    x 1.700250 0.000000 -0.026770 
#    y 0.000000 1.649970 0.000000 
#    z -0.026770 0.000000 1.688430 
# 
# From -- ./inp_files/18392.got.cif
#   From: 2010.05.17/outbox.cif.g08.bks.cpg/sg10_10_cif.got.tgz:18392.got - 2010.06.03 11:33:40.
