data_PCOD9151112
_publ_section_title
;
Structure prediction by ZEFSAII (Michael W. Deem and Ramdas Pophale) SiO2 
 PCOD9151112
Probable space group: P 2/M
;
_chemical_formula_sum "Si O2"
_cell_formula_units_Z 32
_cell_length_a 11.473911
_cell_length_b 8.956195
_cell_length_c 14.968717
_cell_angle_alpha 90.000000
_cell_angle_beta 80.921853
_cell_angle_gamma 90.000000
_cell_volume 1518.956337
_symmetry_space_group_name_H-M "P 2/M"
_symmetry_group_IT_number 10
_symmetry_cell_setting 'monoclinic'
loop_
_space_group_symop_operation_xyz
x,y,z
-x,y,-z
-x,-y,-z
x,-y,z
loop_
_atom_site_type_symbol
_atom_site_label
_atom_site_fract_x
_atom_site_fract_y
_atom_site_fract_z
Si Si1 0.219549 0.176758 0.945580
Si Si2 0.720715 0.678719 0.882217
Si Si3 0.462997 0.675243 0.858330
Si Si4 0.118815 0.321874 0.791285
Si Si5 0.713069 0.822504 0.369909
Si Si6 0.524636 0.675182 0.640796
Si Si7 0.889915 0.678210 0.702428
Si Si8 0.227399 0.822505 0.440944
O O1 0.349627 0.228536 0.896483
O O2 0.127887 0.248126 0.887085
O O3 0.209567 0.000000 0.945807
O O4 0.211901 0.240681 0.046210
O O5 0.730389 0.500000 0.892874
O O6 0.582131 0.716836 0.896855
O O7 0.778982 0.714016 0.779929
O O8 0.436135 0.500000 0.879928
O O9 0.496343 0.687515 0.749917
O O10 0.125048 0.500000 0.799900
O O11 0.227622 0.262526 0.719391
O O12 0.003637 0.282874 0.747614
O O13 0.580230 0.762632 0.395775
O O14 0.784260 0.790828 0.452352
O O15 0.712426 0.000000 0.354063
O O16 0.523169 0.500000 0.617754
O O17 0.651296 0.744053 0.604240
O O18 0.890778 0.500000 0.686561
O O19 0.874366 0.761447 0.611055
O O20 0.238455 0.000000 0.429179
#
# Coordination Sequence:
#
# PCOD9151112 Si02
#       8
#     4   4   4   4   4   4   4   4
#     4  12  25  39  60  92 128 161 198 247 303 371
#     4  10  21  41  65  89 121 158 199 250 303 361
#     4  10  20  37  63  91 122 159 200 246 301 360
#     4  11  24  43  66  89 117 159 210 261 306 356
#     4  11  24  41  61  91 128 165 202 246 307 371
#     4  11  21  37  64  94 124 161 205 250 300 360
#     4  10  23  44  67  90 117 157 212 261 303 355
#     4  11  24  40  62  92 129 165 198 246 310 370
#
# _framework density 21.067098000000001
#
# number of rings (size 3 to 8) (size 9 to 14) (size 15 to 20)
#    0.000    1.250    2.500    3.375    0.000    8.500 
#    0.000    5.000    0.000    0.000    0.000    0.000 
#    0.000    0.000    0.000    0.000    0.000    0.000 
#
# Total GULP energy -179057.680848 kJ/mol
# GULP energy per Si atom -5595.552527 kJ/mol
# Density = 2.101915 g / cm^3
# Si number density = 21.067098 Si / 1000 Ang^3
#
#
#
# Elastic Constant Matrix: (Units=GPa)
#
#
# Indices 1 2 3 4 5 6 
#
# 1 58.5464 17.5587 9.2862 0.0000 30.1065 0.0000
# 2 17.5587 48.1895 28.3886 0.0000 27.5323 0.0000
# 3 9.2862 28.3886 83.7837 0.0000 38.5889 0.0000
# 4 0.0000 0.0000 0.0000 30.8812 0.0000 19.9081
# 5 30.1065 27.5323 38.5889 0.0000 39.8338 0.0000
# 6 0.0000 0.0000 0.0000 19.9081 0.0000 1.9736
#
#
#
# Elastic Compliance Matrix: (Units=1/GPa)
#
#
# Indices 1 2 3 4 5 6 
#
# 1 0.036958 0.003194 0.015716 0.000000 -0.045365 0.000000
# 2 0.003194 0.034645 0.000087 0.000000 -0.026444 0.000000
# 3 0.015716 0.000087 0.028281 0.000000 -0.039335 0.000000
# 4 0.000000 0.000000 0.000000 -0.005885 0.000000 0.059359
# 5 -0.045365 -0.026444 -0.039335 0.000000 0.115775 0.000000
# 6 0.000000 0.000000 0.000000 0.059359 0.000000 -0.092077
#
#
# Mechanical properties :
#
#
# Convention : Reuss Voigt Hill
#
# Bulk Modulus (GPa) = 7.25282 33.44297 20.34790
# Shear Modulus (GPa) = 39.78881 23.55679 31.67280
#
# Velocity S-wave (km/s) = 4.35060 3.34755 3.88161
# Velocity P-wave (km/s) = 5.35604 5.55431 5.45608
#
# Compressibility (1/GPa) = 0.13787734
#
# Stress axis : x y z
#
# Youngs Moduli (GPa) = 27.05759 28.86446 35.35906
#
# Poissons Ratio (x) = -0.09220 -0.55570
# Poissons Ratio (y) = -0.08643 -0.00306
# Poissons Ratio (z) = -0.42523 -0.00250
#
# Static dielectric constant tensor:
#      x y z
#    x 1.774380 0.000000 0.018560 
#    y 0.000000 1.695330 0.000000 
#    z 0.018560 0.000000 1.767010 
# 
# From -- ./inp_files/49795.got.cif
#   From: 2010.05.17/outbox.cif.g08.bks.cpg/sg10_25_cif.got.tgz:49795.got - 2010.06.03 11:33:40.
