data_PCOD9151354
_publ_section_title
;
Structure prediction by ZEFSAII (Michael W. Deem and Ramdas Pophale) SiO2 
 PCOD9151354
Probable space group: P 2/M
;
_chemical_formula_sum "Si O2"
_cell_formula_units_Z 28
_cell_length_a 25.379425
_cell_length_b 8.466185
_cell_length_c 22.929808
_cell_angle_alpha 90.000000
_cell_angle_beta 17.385814
_cell_angle_gamma 90.000000
_cell_volume 1472.167122
_symmetry_space_group_name_H-M "P 2/M"
_symmetry_group_IT_number 10
_symmetry_cell_setting 'monoclinic'
loop_
_space_group_symop_operation_xyz
x,y,z
-x,y,-z
-x,-y,-z
x,-y,z
loop_
_atom_site_type_symbol
_atom_site_label
_atom_site_fract_x
_atom_site_fract_y
_atom_site_fract_z
Si Si1 0.393041 0.689298 0.821309
Si Si2 0.674966 0.311281 0.975164
Si Si3 0.211637 0.818060 0.788324
Si Si4 0.414423 0.809148 0.152039
Si Si5 0.733764 0.808277 0.395670
Si Si6 0.980846 0.190853 0.452697
Si Si7 0.137337 0.808277 0.992024
O O1 0.393056 0.500000 0.821294
O O2 0.579619 0.748853 0.599639
O O3 0.241785 0.748828 0.937365
O O4 0.358932 0.746101 0.923253
O O5 0.674618 0.500000 0.976309
O O6 0.860532 0.253458 0.753592
O O7 0.525389 0.253522 0.088727
O O8 0.291500 0.749376 0.644616
O O9 0.227908 0.749383 0.835877
O O10 0.273032 0.000000 0.726914
O O11 0.000000 0.822245 0.000000
O O12 0.210779 0.759938 0.367697
O O13 0.421417 0.000000 0.145705
O O14 0.500000 0.758698 0.000000
O O15 0.729888 0.000000 0.397778
O O16 0.930739 0.762736 0.208309
O O17 0.000000 0.241335 0.500000
O O18 0.988460 0.000000 0.444442
O O19 0.142993 0.000000 0.984604
#
# Coordination Sequence:
#
# PCOD9151354 Si02
#       7
#     4   4   4   4   4   4   4
#     4  11  25  40  52  75 116 160 192 226 276 332
#     4  11  25  41  56  80 117 156 192 228 270 329
#     4   7  12  27  53  84 111 135 174 236 295 335
#     4  10  20  38  64  90 115 142 175 223 281 332
#     4   9  18  35  60  85 109 142 189 240 287 334
#     4  10  20  38  64  90 115 142 175 223 281 332
#     4   9  18  35  60  85 109 142 189 240 287 334
#
# _framework density 19.019577999999999
#
# number of rings (size 3 to 8) (size 9 to 14) (size 15 to 20)
#    0.000    2.429    1.429    2.571    0.000    5.714 
#    0.000    9.286    0.000    2.571    0.000    0.000 
#    0.000    0.000    0.000    0.000    0.000    0.000 
#
# Total GULP energy -156239.078072 kJ/mol
# GULP energy per Si atom -5579.967074 kJ/mol
# Density = 1.897629 g / cm^3
# Si number density = 19.019578 Si / 1000 Ang^3
#
#
#
# Elastic Constant Matrix: (Units=GPa)
#
#
# Indices 1 2 3 4 5 6 
#
# 1 201.5625 29.7225 118.0068 0.0000 13.7366 0.0000
# 2 29.7225 13.1822 29.5962 0.0000 0.1192 0.0000
# 3 118.0068 29.5962 174.2797 0.0000 11.8772 0.0000
# 4 0.0000 0.0000 0.0000 48.8977 0.0000 -6.3392
# 5 13.7366 0.1192 11.8772 0.0000 36.2256 0.0000
# 6 0.0000 0.0000 0.0000 -6.3392 0.0000 42.3258
#
#
#
# Elastic Compliance Matrix: (Units=1/GPa)
#
#
# Indices 1 2 3 4 5 6 
#
# 1 0.009229 -0.011444 -0.004163 0.000000 -0.002097 0.000000
# 2 -0.011444 0.138345 -0.016376 0.000000 0.009253 0.000000
# 3 -0.004163 -0.016376 0.011483 0.000000 -0.002132 0.000000
# 4 0.000000 0.000000 0.000000 0.020856 0.000000 0.003124
# 5 -0.002097 0.009253 -0.002132 0.000000 0.029069 0.000000
# 6 0.000000 0.000000 0.000000 0.003124 0.000000 0.024094
#
#
# Mechanical properties :
#
#
# Convention : Reuss Voigt Hill
#
# Bulk Modulus (GPa) = 10.51609 82.63060 46.57335
# Shear Modulus (GPa) = 15.20977 39.60308 27.40642
#
# Velocity S-wave (km/s) = 2.83095 4.56809 3.80011
# Velocity P-wave (km/s) = 4.02825 8.44764 6.61776
#
# Compressibility (1/GPa) = 0.09509236
#
# Stress axis : x y z
#
# Youngs Moduli (GPa) = 108.35809 7.22831 87.08803
#
# Poissons Ratio (x) = 0.08272 0.36251
# Poissons Ratio (y) = 1.24003 1.42612
# Poissons Ratio (z) = 0.45104 0.11837
#
# Static dielectric constant tensor:
#      x y z
#    x 1.658800 0.000000 0.006810 
#    y 0.000000 1.654580 0.000000 
#    z 0.006810 0.000000 1.651640 
# 
# From -- ./inp_files/86481.got.cif
#   From: 2010.05.17/outbox.cif.g08.bks.cpg/sg10_44_cif.got.tgz:86481.got - 2010.06.03 11:33:40.
