data_PCOD9151436
_publ_section_title
;
Structure prediction by ZEFSAII (Michael W. Deem and Ramdas Pophale) SiO2 
 PCOD9151436
Probable space group: P 2/M
;
_chemical_formula_sum "Si O2"
_cell_formula_units_Z 32
_cell_length_a 21.017443
_cell_length_b 7.800793
_cell_length_c 20.616354
_cell_angle_alpha 90.000000
_cell_angle_beta 29.081503
_cell_angle_gamma 90.000000
_cell_volume 1642.912243
_symmetry_space_group_name_H-M "P 2/M"
_symmetry_group_IT_number 10
_symmetry_cell_setting 'monoclinic'
loop_
_space_group_symop_operation_xyz
x,y,z
-x,y,-z
-x,-y,-z
x,-y,z
loop_
_atom_site_type_symbol
_atom_site_label
_atom_site_fract_x
_atom_site_fract_y
_atom_site_fract_z
Si Si1 0.084494 0.292614 0.122066
Si Si2 0.413868 0.197694 0.353531
Si Si3 0.789910 0.299612 0.357197
Si Si4 0.650978 0.207416 0.350905
Si Si5 0.220885 0.703423 0.415554
Si Si6 0.152563 0.698654 0.341112
Si Si7 0.677097 0.204113 0.181528
Si Si8 0.064962 0.710435 0.284424
O O1 0.085152 0.500000 0.120297
O O2 0.111306 0.236522 0.172163
O O3 0.937769 0.235879 0.234448
O O4 0.192960 0.232289 0.975275
O O5 0.312554 0.210402 0.503598
O O6 0.342613 0.272131 0.354142
O O7 0.550503 0.276068 0.256377
O O8 0.437563 0.000000 0.316858
O O9 0.788421 0.500000 0.377368
O O10 0.741480 0.279480 0.326992
O O11 0.500000 0.251865 0.500000
O O12 0.685369 0.268730 0.247954
O O13 0.661526 0.000000 0.344529
O O14 0.201884 0.500000 0.424456
O O15 0.228049 0.775145 0.335760
O O16 0.086412 0.765318 0.569491
O O17 0.194032 0.500000 0.296799
O O18 0.147761 0.772322 0.272836
O O19 0.000000 0.698557 0.500000
O O20 0.654261 0.000000 0.208467
O O21 0.065856 0.500000 0.284834
#
# Coordination Sequence:
#
# PCOD9151436 Si02
#       8
#     4   4   4   4   4   4   4   4
#     4  10  21  36  54  79 112 140 171 218 264 311
#     4  11  21  35  54  77 106 142 179 218 262 311
#     4  11  22  36  57  85 109 134 172 219 266 313
#     4  10  20  39  60  78 105 139 176 217 260 310
#     4   9  15  27  49  79 107 131 172 223 263 305
#     4   7  11  20  42  73 103 135 168 208 260 308
#     4  10  23  40  56  75 103 140 181 216 255 316
#     4   8  13  26  47  74 107 139 169 208 262 312
#
# _framework density 19.477608
#
# number of rings (size 3 to 8) (size 9 to 14) (size 15 to 20)
#    0.000    2.500    2.500    2.250    0.000    3.250 
#    0.000    2.500    0.000    4.875    0.000    5.250 
#    0.000    0.000    0.000    0.000    0.000    0.000 
#
# Total GULP energy -178418.504802 kJ/mol
# GULP energy per Si atom -5575.578275 kJ/mol
# Density = 1.943328 g / cm^3
# Si number density = 19.477608 Si / 1000 Ang^3
#
#
#
# Elastic Constant Matrix: (Units=GPa)
#
#
# Indices 1 2 3 4 5 6 
#
# 1 150.9031 -5.6095 37.3004 0.0000 13.5680 0.0000
# 2 -5.6095 19.2875 -9.0406 0.0000 0.5936 0.0000
# 3 37.3004 -9.0406 69.3157 0.0000 5.0835 0.0000
# 4 0.0000 0.0000 0.0000 19.5562 0.0000 5.6430
# 5 13.5680 0.5936 5.0835 0.0000 25.9700 0.0000
# 6 0.0000 0.0000 0.0000 5.6430 0.0000 49.7249
#
#
#
# Elastic Compliance Matrix: (Units=1/GPa)
#
#
# Indices 1 2 3 4 5 6 
#
# 1 0.007927 0.000561 -0.003944 0.000000 -0.003382 0.000000
# 2 0.000561 0.055451 0.007148 0.000000 -0.002959 0.000000
# 3 -0.003944 0.007148 0.017595 0.000000 -0.001547 0.000000
# 4 0.000000 0.000000 0.000000 0.052866 0.000000 -0.005999
# 5 -0.003382 -0.002959 -0.001547 0.000000 0.040643 0.000000
# 6 0.000000 0.000000 0.000000 -0.005999 0.000000 0.020791
#
#
# Mechanical properties :
#
#
# Convention : Reuss Voigt Hill
#
# Bulk Modulus (GPa) = 11.29931 31.64522 21.47226
# Shear Modulus (GPa) = 23.01537 33.50729 28.26133
#
# Velocity S-wave (km/s) = 3.44122 4.15215 3.81329
# Velocity P-wave (km/s) = 4.64791 6.26653 5.51690
#
# Compressibility (1/GPa) = 0.08850100
#
# Stress axis : x y z
#
# Youngs Moduli (GPa) = 126.15643 18.03378 56.83433
#
# Poissons Ratio (x) = -0.01011 0.22418
# Poissons Ratio (y) = -0.07072 -0.40623
# Poissons Ratio (z) = 0.49761 -0.12890
#
# Static dielectric constant tensor:
#      x y z
#    x 1.722870 0.000000 0.005920 
#    y 0.000000 1.724930 0.000000 
#    z 0.005920 0.000000 1.637530 
# 
# From -- ./inp_files/86109.got.cif
#   From: 2010.05.17/outbox.cif.g08.bks.cpg/sg10_44_cif.got.tgz:86109.got - 2010.06.03 11:33:40.
