data_PCOD9151184
_publ_section_title
;
Structure prediction by ZEFSAII (Michael W. Deem and Ramdas Pophale) SiO2 
 PCOD9151184
Probable space group: P 2/M
;
_chemical_formula_sum "Si O2"
_cell_formula_units_Z 18
_cell_length_a 18.194873
_cell_length_b 11.274213
_cell_length_c 5.067572
_cell_angle_alpha 90.000000
_cell_angle_beta 107.058214
_cell_angle_gamma 90.000000
_cell_volume 993.793970
_symmetry_space_group_name_H-M "P 2/M"
_symmetry_group_IT_number 10
_symmetry_cell_setting 'monoclinic'
loop_
_space_group_symop_operation_xyz
x,y,z
-x,y,-z
-x,-y,-z
x,-y,z
loop_
_atom_site_type_symbol
_atom_site_label
_atom_site_fract_x
_atom_site_fract_y
_atom_site_fract_z
Si Si1 0.056029 0.500000 0.307800
Si Si2 0.416754 0.144464 0.311451
Si Si3 0.161867 0.860315 0.773686
Si Si4 0.325857 0.855976 0.714828
Si Si5 0.086475 0.756756 0.206565
O O1 0.100688 0.623430 0.329264
O O2 0.000000 0.500000 0.500000
O O3 0.000000 0.500000 0.000000
O O4 0.500000 0.184199 0.500000
O O5 0.351534 0.181644 0.451751
O O6 0.418869 0.000000 0.312758
O O7 0.391120 0.180104 0.993142
O O8 0.242917 0.819313 0.734501
O O9 0.100624 0.839189 0.474943
O O10 0.167131 0.000000 0.842513
O O11 0.139816 0.792771 0.017439
O O12 0.323745 0.000000 0.707545
O O13 0.000000 0.764824 0.000000
#
# Coordination Sequence:
#
# PCOD9151184 Si02
#       5
#     2   4   4   4   4
#     4  10  20  38  58  74  92 118 161 214 263 296
#     4   9  15  24  40  60  83 119 165 200 223 262
#     4  11  22  34  49  72 104 138 164 194 245 300
#     4   9  17  28  40  59  91 127 158 188 231 285
#     4  11  22  36  54  73  94 127 169 211 248 289
#
# _framework density 18.112404999999999
#
# number of rings (size 3 to 8) (size 9 to 14) (size 15 to 20)
#    0.000    2.000    0.000    6.000    0.000    8.889 
#    0.000    0.000    0.000    0.000    0.000    0.000 
#    0.000    0.000    0.000   70.000    0.000   31.111 
#
# Total GULP energy -100380.561317 kJ/mol
# GULP energy per Si atom -5576.697851 kJ/mol
# Density = 1.807118 g / cm^3
# Si number density = 18.112405 Si / 1000 Ang^3
#
#
#
# Elastic Constant Matrix: (Units=GPa)
#
#
# Indices 1 2 3 4 5 6 
#
# 1 54.8422 19.1070 -0.9322 0.0000 -10.7714 0.0000
# 2 19.1070 36.8221 1.2658 0.0000 -9.0583 0.0000
# 3 -0.9322 1.2658 70.9609 0.0000 -16.9939 0.0000
# 4 0.0000 0.0000 0.0000 16.0561 0.0000 -10.8664
# 5 -10.7714 -9.0583 -16.9939 0.0000 36.2633 0.0000
# 6 0.0000 0.0000 0.0000 -10.8664 0.0000 3.7528
#
#
#
# Elastic Compliance Matrix: (Units=1/GPa)
#
#
# Indices 1 2 3 4 5 6 
#
# 1 0.022982 -0.010773 0.001672 0.000000 0.004919 0.000000
# 2 -0.010773 0.034104 0.000590 0.000000 0.005596 0.000000
# 3 0.001672 0.000590 0.016060 0.000000 0.008170 0.000000
# 4 0.000000 0.000000 0.000000 -0.064901 0.000000 -0.187923
# 5 0.004919 0.005596 0.008170 0.000000 0.034264 0.000000
# 6 0.000000 0.000000 0.000000 -0.187923 0.000000 -0.277673
#
#
# Mechanical properties :
#
#
# Convention : Reuss Voigt Hill
#
# Bulk Modulus (GPa) = 17.81729 22.38960 20.10345
# Shear Modulus (GPa) = -25.07084 20.76009 -2.15537
#
# Velocity S-wave (km/s) = -3.72449 3.38920 -1.09205
# Velocity P-wave (km/s) = 2.93894 5.26345 3.08760
#
# Compressibility (1/GPa) = 0.05612526
#
# Stress axis : x y z
#
# Youngs Moduli (GPa) = 43.51247 29.32227 62.26507
#
# Poissons Ratio (x) = 0.31588 -0.10411
# Poissons Ratio (y) = 0.46875 -0.03675
# Poissons Ratio (z) = -0.07276 -0.01731
#
# Static dielectric constant tensor:
#      x y z
#    x 1.650660 0.000000 0.017840 
#    y 0.000000 1.638990 0.000000 
#    z 0.017840 0.000000 1.623940 
# 
# From -- ./inp_files/8787.got.cif
#   From: 2010.05.17/outbox.cif.g08.bks.cpg/sg10_5_cif.got.tgz:8787.got - 2010.06.03 11:33:40.
