data_PCOD9151155
_publ_section_title
;
Structure prediction by ZEFSAII (Michael W. Deem and Ramdas Pophale) SiO2 
 PCOD9151155
Probable space group: P 2/M
;
_chemical_formula_sum "Si O2"
_cell_formula_units_Z 30
_cell_length_a 13.938123
_cell_length_b 7.911405
_cell_length_c 11.372786
_cell_angle_alpha 90.000000
_cell_angle_beta 78.892021
_cell_angle_gamma 90.000000
_cell_volume 1230.584553
_symmetry_space_group_name_H-M "P 2/M"
_symmetry_group_IT_number 10
_symmetry_cell_setting 'monoclinic'
loop_
_space_group_symop_operation_xyz
x,y,z
-x,y,-z
-x,-y,-z
x,-y,z
loop_
_atom_site_type_symbol
_atom_site_label
_atom_site_fract_x
_atom_site_fract_y
_atom_site_fract_z
Si Si1 0.640457 0.698863 0.870259
Si Si2 0.131244 0.808635 0.896088
Si Si3 0.051823 0.691796 0.672488
Si Si4 0.646145 0.703755 0.134945
Si Si5 0.873638 0.298545 0.841217
Si Si6 0.654281 0.000000 0.703464
Si Si7 0.246573 0.819610 0.532683
Si Si8 0.427723 0.308197 0.610184
O O1 0.622082 0.500000 0.842744
O O2 0.759140 0.728100 0.847867
O O3 0.607760 0.847913 0.794303
O O4 0.607522 0.724967 0.012895
O O5 0.095771 0.697087 0.795221
O O6 0.247717 0.785838 0.878285
O O7 0.105276 0.000000 0.872312
O O8 0.097451 0.768951 0.036929
O O9 0.041269 0.500000 0.634121
O O10 0.133268 0.775339 0.571331
O O11 0.944442 0.768719 0.721634
O O12 0.660027 0.500000 0.146043
O O13 0.582569 0.766664 0.258789
O O14 0.887581 0.500000 0.842397
O O15 0.710822 0.855525 0.605739
O O16 0.319602 0.692699 0.579910
O O17 0.259984 0.000000 0.594401
O O18 0.500000 0.220084 0.500000
O O19 0.463966 0.500000 0.617132
#
# Coordination Sequence:
#
# PCOD9151155 Si02
#       8
#     4   4   4   4   4   2   4   4
#     4   9  19  39  62  84 115 154 204 259 295 336
#     4  11  20  28  47  80 118 152 187 232 289 358
#     4  11  20  34  53  74 114 158 193 241 295 352
#     4   9  18  33  57  88 117 149 190 234 290 354
#     4   9  20  34  51  79 109 151 202 244 296 347
#     4  10  24  42  60  87 111 160 214 249 291 345
#     4  10  23  39  54  83 119 149 195 237 281 358
#     4  10  20  37  65  96 124 154 184 225 290 364
#
# _framework density 24.378658000000001
#
# number of rings (size 3 to 8) (size 9 to 14) (size 15 to 20)
#    0.400    1.733    1.333    3.200    3.733    4.000 
#    0.000    1.333    0.000    4.000    0.000    3.733 
#    0.000    0.000    0.000    0.000    0.000    0.000 
#
# Total GULP energy -167042.768402 kJ/mol
# GULP energy per Si atom -5568.092280 kJ/mol
# Density = 2.432317 g / cm^3
# Si number density = 24.378658 Si / 1000 Ang^3
#
#
#
# Elastic Constant Matrix: (Units=GPa)
#
#
# Indices 1 2 3 4 5 6 
#
# 1 63.9431 17.5878 31.1171 0.0000 -12.6261 0.0000
# 2 17.5878 60.0690 38.9001 0.0000 -0.3559 0.0000
# 3 31.1171 38.9001 163.1691 0.0000 -32.7455 0.0000
# 4 0.0000 0.0000 0.0000 27.4374 0.0000 -12.9639
# 5 -12.6261 -0.3559 -32.7455 0.0000 25.2245 0.0000
# 6 0.0000 0.0000 0.0000 -12.9639 0.0000 -16.7092
#
#
#
# Elastic Compliance Matrix: (Units=1/GPa)
#
#
# Indices 1 2 3 4 5 6 
#
# 1 0.019068 -0.005072 -0.000712 0.000000 0.008549 0.000000
# 2 -0.005072 0.022261 -0.006473 0.000000 -0.010627 0.000000
# 3 -0.000712 -0.006473 0.010437 0.000000 0.013101 0.000000
# 4 0.000000 0.000000 0.000000 0.026670 0.000000 -0.020692
# 5 0.008549 -0.010627 0.013101 0.000000 0.060780 0.000000
# 6 0.000000 0.000000 0.000000 -0.020692 0.000000 -0.043793
#
#
# Mechanical properties :
#
#
# Convention : Reuss Voigt Hill
#
# Bulk Modulus (GPa) = 36.69152 51.37678 44.03415
# Shear Modulus (GPa) = 38.75395 20.49564 29.62479
#
# Velocity S-wave (km/s) = 3.99139 2.90266 3.48974
# Velocity P-wave (km/s) = 6.02702 5.68807 5.86000
#
# Compressibility (1/GPa) = 0.02725426
#
# Stress axis : x y z
#
# Youngs Moduli (GPa) = 52.44309 44.92139 95.81706
#
# Poissons Ratio (x) = 0.22782 0.06819
# Poissons Ratio (y) = 0.26597 0.62019
# Poissons Ratio (z) = 0.03732 0.29076
#
# Static dielectric constant tensor:
#      x y z
#    x 2.002620 0.000000 -0.030380 
#    y 0.000000 1.892390 0.000000 
#    z -0.030380 0.000000 1.959540 
# 
# From -- ./inp_files/52662.got.cif
#   From: 2010.05.17/outbox.cif.g08.bks.cpg/sg10_27_cif.got.tgz:52662.got - 2010.06.03 11:33:40.
