data_PCOD9151127
_publ_section_title
;
Structure prediction by ZEFSAII (Michael W. Deem and Ramdas Pophale) SiO2 
 PCOD9151127
Probable space group: P 2/M
;
_chemical_formula_sum "Si O2"
_cell_formula_units_Z 30
_cell_length_a 13.027772
_cell_length_b 7.483407
_cell_length_c 14.759719
_cell_angle_alpha 90.000000
_cell_angle_beta 68.083646
_cell_angle_gamma 90.000000
_cell_volume 1334.962573
_symmetry_space_group_name_H-M "P 2/M"
_symmetry_group_IT_number 10
_symmetry_cell_setting 'monoclinic'
loop_
_space_group_symop_operation_xyz
x,y,z
-x,y,-z
-x,-y,-z
x,-y,z
loop_
_atom_site_type_symbol
_atom_site_label
_atom_site_fract_x
_atom_site_fract_y
_atom_site_fract_z
Si Si1 0.110889 0.291124 0.510446
Si Si2 0.612335 0.706639 0.007761
Si Si3 0.016590 0.500000 0.834420
Si Si4 0.148750 0.203151 0.135711
Si Si5 0.242440 0.215550 0.290646
Si Si6 0.824209 0.204661 0.310550
Si Si7 0.509365 0.216135 0.779186
Si Si8 0.568118 0.217572 0.391087
O O1 0.092194 0.500000 0.536657
O O2 0.203475 0.273637 0.402419
O O3 0.139972 0.203621 0.595702
O O4 0.000000 0.218081 0.500000
O O5 0.621930 0.500000 0.976863
O O6 0.585398 0.717750 0.122697
O O7 0.500000 0.782956 0.000000
O O8 0.725779 0.797822 0.942429
O O9 0.925896 0.342931 0.891833
O O10 0.099639 0.341912 0.768302
O O11 0.160679 0.272156 0.236466
O O12 0.106819 0.000000 0.149970
O O13 0.367985 0.275335 0.231234
O O14 0.241860 0.000000 0.288860
O O15 0.696639 0.265714 0.350628
O O16 0.830206 0.000000 0.274149
O O17 0.487405 0.274047 0.684244
O O18 0.508049 0.000000 0.782447
O O19 0.500000 0.281825 0.500000
O O20 0.564813 0.000000 0.394128
#
# Coordination Sequence:
#
# PCOD9151127 Si02
#       8
#     4   4   2   4   4   4   4   4
#     4  11  23  36  54  83 123 167 212 262 312 374
#     4  11  22  38  61  93 137 174 210 263 329 391
#     4  12  24  42  61  91 122 164 219 269 317 385
#     4  11  23  39  63  92 127 170 209 258 318 388
#     4  10  21  34  56  88 122 166 212 252 313 386
#     4  11  23  42  66  89 125 171 215 270 326 380
#     4  10  20  37  63  95 128 165 213 263 319 393
#     4   9  19  39  68  98 129 170 217 266 323 384
#
# _framework density 22.472539999999999
#
# number of rings (size 3 to 8) (size 9 to 14) (size 15 to 20)
#    0.000    1.467    2.667    2.800    2.800    5.333 
#    1.200    0.333    0.000    1.600    0.000    3.733 
#    0.000    0.000    0.000    0.000    0.000    0.000 
#
# Total GULP energy -167297.296939 kJ/mol
# GULP energy per Si atom -5576.576565 kJ/mol
# Density = 2.242139 g / cm^3
# Si number density = 22.472540 Si / 1000 Ang^3
#
#
#
# Elastic Constant Matrix: (Units=GPa)
#
#
# Indices 1 2 3 4 5 6 
#
# 1 31.1842 9.5123 10.9122 0.0000 -22.5270 0.0000
# 2 9.5123 115.1481 1.7475 0.0000 -11.2595 0.0000
# 3 10.9122 1.7475 65.1705 0.0000 -18.2906 0.0000
# 4 0.0000 0.0000 0.0000 20.4007 0.0000 -21.4124
# 5 -22.5270 -11.2595 -18.2906 0.0000 37.8666 0.0000
# 6 0.0000 0.0000 0.0000 -21.4124 0.0000 6.7054
#
#
#
# Elastic Compliance Matrix: (Units=1/GPa)
#
#
# Indices 1 2 3 4 5 6 
#
# 1 0.056460 -0.001425 -0.000125 0.000000 0.033104 0.000000
# 2 -0.001425 0.009000 0.000590 0.000000 0.002113 0.000000
# 3 -0.000125 0.000590 0.017790 0.000000 0.008694 0.000000
# 4 0.000000 0.000000 0.000000 -0.020844 0.000000 -0.066561
# 5 0.033104 0.002113 0.008694 0.000000 0.050930 0.000000
# 6 0.000000 0.000000 0.000000 -0.066561 0.000000 -0.063416
#
#
# Mechanical properties :
#
#
# Convention : Reuss Voigt Hill
#
# Bulk Modulus (GPa) = 12.29545 28.42742 20.36144
# Shear Modulus (GPa) = 63.33196 25.61660 44.47428
#
# Velocity S-wave (km/s) = 5.31442 3.37991 4.45348
# Velocity P-wave (km/s) = 6.56816 5.28290 5.96027
#
# Compressibility (1/GPa) = 0.08133088
#
# Stress axis : x y z
#
# Youngs Moduli (GPa) = 17.71166 111.11238 56.21293
#
# Poissons Ratio (x) = 0.15836 0.00700
# Poissons Ratio (y) = 0.02524 -0.03319
# Poissons Ratio (z) = 0.00221 -0.06561
#
# Static dielectric constant tensor:
#      x y z
#    x 1.843330 0.000000 0.017730 
#    y 0.000000 1.841350 0.000000 
#    z 0.017730 0.000000 1.826190 
# 
# From -- ./inp_files/63732.got.cif
#   From: 2010.05.17/outbox.cif.g08.bks.cpg/sg10_32_cif.got.tgz:63732.got - 2010.06.03 11:33:40.
