data_PCOD9151415
_publ_section_title
;
Structure prediction by ZEFSAII (Michael W. Deem and Ramdas Pophale) SiO2 
 PCOD9151415
Probable space group: P 2/M
;
_chemical_formula_sum "Si O2"
_cell_formula_units_Z 32
_cell_length_a 14.057666
_cell_length_b 17.493390
_cell_length_c 11.224967
_cell_angle_alpha 90.000000
_cell_angle_beta 30.722372
_cell_angle_gamma 90.000000
_cell_volume 1410.230168
_symmetry_space_group_name_H-M "P 2/M"
_symmetry_group_IT_number 10
_symmetry_cell_setting 'monoclinic'
loop_
_space_group_symop_operation_xyz
x,y,z
-x,y,-z
-x,-y,-z
x,-y,z
loop_
_atom_site_type_symbol
_atom_site_label
_atom_site_fract_x
_atom_site_fract_y
_atom_site_fract_z
Si Si1 0.046450 0.168925 0.087905
Si Si2 0.639197 0.586163 0.448109
Si Si3 0.940403 0.661568 0.276810
Si Si4 0.219902 0.088414 0.244282
Si Si5 0.654520 0.364684 0.062479
Si Si6 0.726231 0.913658 0.539253
Si Si7 0.793858 0.413081 0.663601
Si Si8 0.600119 0.186464 0.159079
O O1 0.976161 0.249243 0.218887
O O2 0.938079 0.102862 0.275160
O O3 0.264972 0.167326 0.877079
O O4 0.000000 0.165341 0.000000
O O5 0.500000 0.622991 0.500000
O O6 0.686135 0.500000 0.358605
O O7 0.825785 0.629004 0.287714
O O8 0.501939 0.584589 0.708606
O O9 0.816108 0.642088 0.526732
O O10 0.144144 0.625543 0.087842
O O11 0.301108 0.095940 0.289740
O O12 0.303836 0.146534 0.059259
O O13 0.000000 0.101357 0.500000
O O14 0.247245 0.000000 0.176155
O O15 0.672303 0.383421 0.904240
O O16 0.596209 0.276754 0.143567
O O17 0.674582 0.000000 0.563423
O O18 0.599513 0.851410 0.611710
O O19 0.745255 0.500000 0.680596
O O20 0.000000 0.415949 0.500000
#
# Coordination Sequence:
#
# PCOD9151415 Si02
#       8
#     4   4   4   4   4   4   4   4
#     4  11  26  44  66  94 126 173 225 272 323 388
#     4  11  25  42  63  93 128 170 223 269 309 376
#     4  10  23  42  67  89 126 171 210 263 328 384
#     4  10  20  38  67  98 135 173 209 262 325 391
#     4  10  23  40  64  96 130 170 208 267 325 384
#     4  11  24  43  68  98 132 172 213 267 329 388
#     4   9  18  36  64  95 126 160 205 259 323 391
#     4  11  23  40  66  97 131 172 218 268 325 390
#
# _framework density 22.691331000000002
#
# number of rings (size 3 to 8) (size 9 to 14) (size 15 to 20)
#    0.000    1.625    1.250    2.250    5.250    4.750 
#    2.250    3.125    0.000    0.000    0.000    0.000 
#    0.000    0.000    0.000    0.000    0.000    0.000 
#
# Total GULP energy -179026.287680 kJ/mol
# GULP energy per Si atom -5594.571490 kJ/mol
# Density = 2.263968 g / cm^3
# Si number density = 22.691331 Si / 1000 Ang^3
#
#
#
# Elastic Constant Matrix: (Units=GPa)
#
#
# Indices 1 2 3 4 5 6 
#
# 1 102.8868 18.3973 5.2320 0.0000 -17.5107 0.0000
# 2 18.3973 54.7750 4.1976 0.0000 -9.5179 0.0000
# 3 5.2320 4.1976 40.0377 0.0000 -6.8816 0.0000
# 4 0.0000 0.0000 0.0000 18.6117 0.0000 -2.8489
# 5 -17.5107 -9.5179 -6.8816 0.0000 39.6724 0.0000
# 6 0.0000 0.0000 0.0000 -2.8489 0.0000 26.0351
#
#
#
# Elastic Compliance Matrix: (Units=1/GPa)
#
#
# Indices 1 2 3 4 5 6 
#
# 1 0.010958 -0.002943 -0.000426 0.000000 0.004057 0.000000
# 2 -0.002943 0.019902 -0.001139 0.000000 0.003278 0.000000
# 3 -0.000426 -0.001139 0.025843 0.000000 0.004021 0.000000
# 4 0.000000 0.000000 0.000000 0.054645 0.000000 0.005980
# 5 0.004057 0.003278 0.004021 0.000000 0.028481 0.000000
# 6 0.000000 0.000000 0.000000 0.005980 0.000000 0.039064
#
#
# Mechanical properties :
#
#
# Convention : Reuss Voigt Hill
#
# Bulk Modulus (GPa) = 20.96995 28.15036 24.56015
# Shear Modulus (GPa) = 24.53348 28.18866 26.36107
#
# Velocity S-wave (km/s) = 3.29170 3.52840 3.41211
# Velocity P-wave (km/s) = 4.86914 5.38815 5.13521
#
# Compressibility (1/GPa) = 0.04768730
#
# Stress axis : x y z
#
# Youngs Moduli (GPa) = 91.26001 50.24670 38.69559
#
# Poissons Ratio (x) = 0.14787 0.01649
# Poissons Ratio (y) = 0.26856 0.04406
# Poissons Ratio (z) = 0.03889 0.05721
#
# Static dielectric constant tensor:
#      x y z
#    x 1.889190 0.000000 -0.032470 
#    y 0.000000 1.781790 0.000000 
#    z -0.032470 0.000000 1.845950 
# 
# From -- ./inp_files/51930.got.cif
#   From: 2010.05.17/outbox.cif.g08.bks.cpg/sg10_26_cif.got.tgz:51930.got - 2010.06.03 11:33:40.
