data_PCOD9151912
_publ_section_title
;
Structure prediction by ZEFSAII (Michael W. Deem and Ramdas Pophale) SiO2 
 PCOD9151912
Probable space group: P 2/M
;
_chemical_formula_sum "Si O2"
_cell_formula_units_Z 29
_cell_length_a 20.197359
_cell_length_b 7.758625
_cell_length_c 14.523671
_cell_angle_alpha 90.000000
_cell_angle_beta 145.127631
_cell_angle_gamma 90.000000
_cell_volume 1301.254188
_symmetry_space_group_name_H-M "P 2/M"
_symmetry_group_IT_number 10
_symmetry_cell_setting 'monoclinic'
loop_
_space_group_symop_operation_xyz
x,y,z
-x,y,-z
-x,-y,-z
x,-y,z
loop_
_atom_site_type_symbol
_atom_site_label
_atom_site_fract_x
_atom_site_fract_y
_atom_site_fract_z
Si Si1 0.615562 0.294561 0.541185
Si Si2 0.332799 0.799035 0.015698
Si Si3 0.249866 0.697262 0.122522
Si Si4 0.012783 0.201128 0.794570
Si Si5 0.550401 0.298273 0.152776
Si Si6 0.912647 0.789402 0.322336
Si Si7 0.249856 0.294430 0.494643
Si Si8 0.500000 0.000000 0.500000
O O1 0.585656 0.500000 0.513187
O O2 0.698828 0.241641 0.721980
O O3 0.680648 0.267687 0.520252
O O4 0.515423 0.154945 0.439302
O O5 0.293469 0.781917 0.077323
O O6 0.450731 0.711722 0.117251
O O7 0.348330 0.000000 0.013582
O O8 0.221257 0.732995 0.830181
O O9 0.285880 0.500000 0.154512
O O10 0.110601 0.709169 0.967124
O O11 0.035143 0.262878 0.716155
O O12 0.878598 0.222802 0.661844
O O13 0.042671 0.000000 0.832699
O O14 0.573798 0.500000 0.161635
O O15 0.669579 0.224505 0.330639
O O16 0.500000 0.223125 0.000000
O O17 0.000000 0.728597 0.500000
O O18 0.910492 0.000000 0.323060
O O19 0.237509 0.500000 0.492911
#
# Coordination Sequence:
#
# PCOD9151912 Si02
#       8
#     4   4   4   4   4   4   4   1
#     4  10  25  43  65  99 129 171 218 261 319 380
#     4  10  21  35  59  89 119 154 202 257 309 367
#     4  10  21  40  64  90 126 165 204 252 314 374
#     4  10  21  36  61  91 123 158 207 260 305 376
#     4  10  23  41  60  83 118 165 207 249 309 380
#     4   8  16  32  53  81 116 152 192 251 316 363
#     4  10  23  43  61  85 127 166 207 257 315 379
#     4  12  26  40  72  92 134 172 210 276 312 374
#
# _framework density 22.286190000000001
#
# number of rings (size 3 to 8) (size 9 to 14) (size 15 to 20)
#    0.000    2.207    0.000    2.276    6.759    1.379 
#    0.000    2.759    0.000    2.483    0.000    0.000 
#    0.000    0.000    0.000    0.000    0.000    0.000 
#
# Total GULP energy -161655.052921 kJ/mol
# GULP energy per Si atom -5574.312170 kJ/mol
# Density = 2.223547 g / cm^3
# Si number density = 22.286190 Si / 1000 Ang^3
#
#
#
# Elastic Constant Matrix: (Units=GPa)
#
#
# Indices 1 2 3 4 5 6 
#
# 1 51.2685 8.1725 27.3045 0.0000 7.3322 0.0000
# 2 8.1725 35.7769 1.5039 0.0000 -6.8821 0.0000
# 3 27.3045 1.5039 151.0330 0.0000 -10.0523 0.0000
# 4 0.0000 0.0000 0.0000 -19.4536 0.0000 4.8653
# 5 7.3322 -6.8821 -10.0523 0.0000 32.2936 0.0000
# 6 0.0000 0.0000 0.0000 4.8653 0.0000 31.1015
#
#
#
# Elastic Compliance Matrix: (Units=1/GPa)
#
#
# Indices 1 2 3 4 5 6 
#
# 1 0.024480 -0.007038 -0.004927 0.000000 -0.008592 0.000000
# 2 -0.007038 0.031171 0.001542 0.000000 0.008721 0.000000
# 3 -0.004927 0.001542 0.007753 0.000000 0.003861 0.000000
# 4 0.000000 0.000000 0.000000 -0.049469 0.000000 0.007739
# 5 -0.008592 0.008721 0.003861 0.000000 0.035977 0.000000
# 6 0.000000 0.000000 0.000000 0.007739 0.000000 0.030942
#
#
# Mechanical properties :
#
#
# Convention : Reuss Voigt Hill
#
# Bulk Modulus (GPa) = 23.49646 34.67113 29.08379
# Shear Modulus (GPa) = 43.14564 22.19480 32.67022
#
# Velocity S-wave (km/s) = 4.40475 3.15921 3.83291
# Velocity P-wave (km/s) = 6.03615 5.37573 5.71549
#
# Compressibility (1/GPa) = 0.04255961
#
# Stress axis : x y z
#
# Youngs Moduli (GPa) = 40.84980 32.08073 128.97450
#
# Poissons Ratio (x) = 0.22577 0.63550
# Poissons Ratio (y) = 0.28748 -0.19892
# Poissons Ratio (z) = 0.20128 -0.04948
#
# Static dielectric constant tensor:
#      x y z
#    x 1.793410 0.000000 0.000520 
#    y 0.000000 1.820930 0.000000 
#    z 0.000520 0.000000 1.913380 
# 
# From -- ./inp_files/70329.got.cif
#   From: 2010.05.17/outbox.cif.g08.bks.cpg/sg10_36_cif.got.tgz:70329.got - 2010.06.03 11:33:40.
