data_PCOD9151215
_publ_section_title
;
Structure prediction by ZEFSAII (Michael W. Deem and Ramdas Pophale) SiO2 
 PCOD9151215
Probable space group: P 2/M
;
_chemical_formula_sum "Si O2"
_cell_formula_units_Z 32
_cell_length_a 11.401864
_cell_length_b 14.604312
_cell_length_c 16.272500
_cell_angle_alpha 90.000000
_cell_angle_beta 147.228483
_cell_angle_gamma 90.000000
_cell_volume 1466.700591
_symmetry_space_group_name_H-M "P 2/M"
_symmetry_group_IT_number 10
_symmetry_cell_setting 'monoclinic'
loop_
_space_group_symop_operation_xyz
x,y,z
-x,y,-z
-x,-y,-z
x,-y,z
loop_
_atom_site_type_symbol
_atom_site_label
_atom_site_fract_x
_atom_site_fract_y
_atom_site_fract_z
Si Si1 0.389053 0.390632 0.845297
Si Si2 0.258382 0.718404 0.047605
Si Si3 0.632388 0.895920 0.433124
Si Si4 0.533875 0.290848 0.659826
Si Si5 0.081367 0.111040 0.636057
Si Si6 0.467048 0.104111 0.143818
Si Si7 0.858736 0.396651 0.751188
Si Si8 0.890791 0.605053 0.572995
O O1 0.398265 0.500000 0.834998
O O2 0.538637 0.336052 0.871165
O O3 0.134123 0.364671 0.692722
O O4 0.500000 0.376438 0.000000
O O5 0.293721 0.716631 0.165498
O O6 0.277704 0.822822 0.028942
O O7 0.043779 0.669163 0.893366
O O8 0.508075 0.810961 0.398809
O O9 0.559650 0.896103 0.292970
O O10 0.888759 0.872156 0.585838
O O11 0.597516 0.000000 0.442097
O O12 0.632719 0.359919 0.652578
O O13 0.309314 0.329395 0.565794
O O14 0.330832 0.136923 0.793425
O O15 0.000000 0.147829 0.500000
O O16 0.089847 0.000000 0.633564
O O17 0.407140 0.000000 0.088212
O O18 0.893683 0.500000 0.801529
O O19 0.880434 0.397311 0.665987
O O20 0.857860 0.500000 0.523702
#
# Coordination Sequence:
#
# PCOD9151215 Si02
#       8
#     4   4   4   4   4   4   4   4
#     4  10  20  38  60  82 112 153 192 224 283 366
#     4  11  22  35  59  89 116 148 188 238 292 337
#     4   8  15  29  48  75 114 151 181 219 279 347
#     4  11  23  35  57  92 116 140 193 250 287 316
#     4   7  10  20  40  64  96 139 174 204 253 321
#     4   8  15  28  48  78 114 147 182 225 277 338
#     4  11  23  42  61  77 110 160 200 229 280 356
#     4  10  22  40  61  82 109 150 193 234 285 346
#
# _framework density 21.817678999999998
#
# number of rings (size 3 to 8) (size 9 to 14) (size 15 to 20)
#    0.000    2.500    1.250    3.000    1.750    4.000 
#    0.000    1.875    0.000    5.625    0.000    0.000 
#    0.000    0.000    0.000    0.000    0.000    0.000 
#
# Total GULP energy -178637.773579 kJ/mol
# GULP energy per Si atom -5582.430424 kJ/mol
# Density = 2.176802 g / cm^3
# Si number density = 21.817679 Si / 1000 Ang^3
#
#
#
# Elastic Constant Matrix: (Units=GPa)
#
#
# Indices 1 2 3 4 5 6 
#
# 1 44.7885 14.6232 1.8326 0.0000 11.9673 0.0000
# 2 14.6232 95.9774 38.6866 0.0000 10.3046 0.0000
# 3 1.8326 38.6866 68.1913 0.0000 11.8670 0.0000
# 4 0.0000 0.0000 0.0000 39.7218 0.0000 8.4345
# 5 11.9673 10.3046 11.8670 0.0000 23.6682 0.0000
# 6 0.0000 0.0000 0.0000 8.4345 0.0000 24.6196
#
#
#
# Elastic Compliance Matrix: (Units=1/GPa)
#
#
# Indices 1 2 3 4 5 6 
#
# 1 0.027316 -0.004336 0.004164 0.000000 -0.014012 0.000000
# 2 -0.004336 0.014305 -0.007994 0.000000 -0.000027 0.000000
# 3 0.004164 -0.007994 0.020651 0.000000 -0.008979 0.000000
# 4 0.000000 0.000000 0.000000 0.027150 0.000000 -0.009301
# 5 -0.014012 -0.000027 -0.008979 0.000000 0.053850 0.000000
# 6 0.000000 0.000000 0.000000 -0.009301 0.000000 0.043805
#
#
# Mechanical properties :
#
#
# Convention : Reuss Voigt Hill
#
# Bulk Modulus (GPa) = 21.76754 35.47133 28.61944
# Shear Modulus (GPa) = 22.86005 27.85624 25.35815
#
# Velocity S-wave (km/s) = 3.24045 3.57707 3.41291
# Velocity P-wave (km/s) = 4.89891 5.77529 5.35506
#
# Compressibility (1/GPa) = 0.04593997
#
# Stress axis : x y z
#
# Youngs Moduli (GPa) = 36.60796 69.90531 48.42458
#
# Poissons Ratio (x) = 0.30312 -0.20166
# Poissons Ratio (y) = 0.15874 0.38712
# Poissons Ratio (z) = -0.15245 0.55885
#
# Static dielectric constant tensor:
#      x y z
#    x 1.818610 0.000000 -0.007860 
#    y 0.000000 1.802900 0.000000 
#    z -0.007860 0.000000 1.789780 
# 
# From -- ./inp_files/77028.got.cif
#   From: 2010.05.17/outbox.cif.g08.bks.cpg/sg10_39_cif.got.tgz:77028.got - 2010.06.03 11:33:40.
