data_PCOD9151831
_publ_section_title
;
Structure prediction by ZEFSAII (Michael W. Deem and Ramdas Pophale) SiO2 
 PCOD9151831
Probable space group: P 2/M
;
_chemical_formula_sum "Si O2"
_cell_formula_units_Z 32
_cell_length_a 30.890876
_cell_length_b 11.393740
_cell_length_c 10.070952
_cell_angle_alpha 90.000000
_cell_angle_beta 27.752099
_cell_angle_gamma 90.000000
_cell_volume 1650.531470
_symmetry_space_group_name_H-M "P 2/M"
_symmetry_group_IT_number 10
_symmetry_cell_setting 'monoclinic'
loop_
_space_group_symop_operation_xyz
x,y,z
-x,y,-z
-x,-y,-z
x,-y,z
loop_
_atom_site_type_symbol
_atom_site_label
_atom_site_fract_x
_atom_site_fract_y
_atom_site_fract_z
Si Si1 0.192813 0.363467 0.872892
Si Si2 0.684579 0.370546 0.981030
Si Si3 0.717303 0.740767 0.626365
Si Si4 0.410574 0.865733 0.647925
Si Si5 0.983693 0.201058 0.687192
Si Si6 0.151505 0.630624 0.271036
Si Si7 0.525660 0.860300 0.076549
Si Si8 0.088967 0.132295 0.839658
O O1 0.185866 0.500000 0.860692
O O2 0.258110 0.305190 0.586820
O O3 0.092882 0.301729 0.131598
O O4 0.216463 0.350954 0.964515
O O5 0.642561 0.500000 0.129009
O O6 0.642149 0.249202 0.153871
O O7 0.690618 0.356576 0.806748
O O8 0.786911 0.371614 0.766142
O O9 0.625786 0.819353 0.857788
O O10 0.811658 0.802281 0.426461
O O11 0.500000 0.875014 0.500000
O O12 0.367829 0.000000 0.764809
O O13 0.447216 0.837593 0.400417
O O14 0.000000 0.141509 0.500000
O O15 0.077007 0.267099 0.476682
O O16 0.944681 0.129281 0.916016
O O17 0.108555 0.500000 0.369421
O O18 0.531307 0.000000 0.049754
O O19 0.500000 0.812061 0.000000
O O20 0.103622 0.000000 0.748977
O O21 0.000000 0.183642 0.000000
#
# Coordination Sequence:
#
# PCOD9151831 Si02
#       8
#     4   4   4   4   4   4   4   4
#     4   9  18  32  52  77 108 145 187 230 279 341
#     4  11  23  37  58  88 121 151 189 241 292 343
#     4  11  21  36  57  82 113 151 188 234 290 344
#     4  10  21  41  64  85 111 147 193 237 285 347
#     4   9  17  32  53  75 103 143 187 233 281 337
#     4   9  18  33  53  78 110 148 188 232 282 342
#     4  10  22  40  62  85 110 147 195 244 286 342
#     4  10  21  35  53  79 112 149 188 232 284 343
#
# _framework density 19.387692999999999
#
# number of rings (size 3 to 8) (size 9 to 14) (size 15 to 20)
#    0.000    2.125    1.250    1.875    1.750    2.500 
#    0.000    0.625    0.000    7.875    0.000    0.000 
#    0.000    0.000    0.000    0.000    0.000    0.000 
#
# Total GULP energy -178161.859746 kJ/mol
# GULP energy per Si atom -5567.558117 kJ/mol
# Density = 1.934357 g / cm^3
# Si number density = 19.387693 Si / 1000 Ang^3
#
#
#
# Elastic Constant Matrix: (Units=GPa)
#
#
# Indices 1 2 3 4 5 6 
#
# 1 59.7738 -5.0554 11.6380 0.0000 5.3018 0.0000
# 2 -5.0554 78.1122 37.9671 0.0000 -5.1772 0.0000
# 3 11.6380 37.9671 62.5498 0.0000 8.2311 0.0000
# 4 0.0000 0.0000 0.0000 11.7156 0.0000 16.8194
# 5 5.3018 -5.1772 8.2311 0.0000 29.3116 0.0000
# 6 0.0000 0.0000 0.0000 16.8194 0.0000 16.3002
#
#
#
# Elastic Compliance Matrix: (Units=1/GPa)
#
#
# Indices 1 2 3 4 5 6 
#
# 1 0.018231 0.003817 -0.005569 0.000000 -0.001060 0.000000
# 2 0.003817 0.020254 -0.013898 0.000000 0.006790 0.000000
# 3 -0.005569 -0.013898 0.026634 0.000000 -0.008927 0.000000
# 4 0.000000 0.000000 0.000000 -0.177318 0.000000 0.182967
# 5 -0.001060 0.006790 -0.008927 0.000000 0.038014 0.000000
# 6 0.000000 0.000000 0.000000 0.182967 0.000000 -0.127446
#
#
# Mechanical properties :
#
#
# Convention : Reuss Voigt Hill
#
# Bulk Modulus (GPa) = 29.56977 32.17059 30.87018
# Shear Modulus (GPa) = -31.43497 21.85789 -4.78854
#
# Velocity S-wave (km/s) = -4.03101 3.36134 -1.57329
# Velocity P-wave (km/s) = 2.52597 5.62975 3.55764
#
# Compressibility (1/GPa) = 0.03381833
#
# Stress axis : x y z
#
# Youngs Moduli (GPa) = 54.85204 49.37242 37.54613
#
# Poissons Ratio (x) = -0.18844 0.20911
# Poissons Ratio (y) = -0.20935 0.52181
# Poissons Ratio (z) = 0.30549 0.68616
#
# Static dielectric constant tensor:
#      x y z
#    x 1.686520 0.000000 0.031320 
#    y 0.000000 1.706960 0.000000 
#    z 0.031320 0.000000 1.689590 
# 
# From -- ./inp_files/38217.got.cif
#   From: 2010.05.17/outbox.cif.g08.bks.cpg/sg10_20_cif.got.tgz:38217.got - 2010.06.03 11:33:40.
