data_PCOD9151735
_publ_section_title
;
Structure prediction by ZEFSAII (Michael W. Deem and Ramdas Pophale) SiO2 
 PCOD9151735
Probable space group: P 2/M
;
_chemical_formula_sum "Si O2"
_cell_formula_units_Z 28
_cell_length_a 20.088577
_cell_length_b 14.855151
_cell_length_c 20.414926
_cell_angle_alpha 90.000000
_cell_angle_beta 165.819999
_cell_angle_gamma 90.000000
_cell_volume 1492.399731
_symmetry_space_group_name_H-M "P 2/M"
_symmetry_group_IT_number 10
_symmetry_cell_setting 'monoclinic'
loop_
_space_group_symop_operation_xyz
x,y,z
-x,y,-z
-x,-y,-z
x,-y,z
loop_
_atom_site_type_symbol
_atom_site_label
_atom_site_fract_x
_atom_site_fract_y
_atom_site_fract_z
Si Si1 0.278258 0.500000 0.017787
Si Si2 0.859841 0.210914 0.607485
Si Si3 0.534543 0.802983 0.105350
Si Si4 0.955940 0.348983 0.111868
Si Si5 0.609639 0.896044 0.899045
Si Si6 0.999783 0.306242 0.607423
Si Si7 0.857414 0.500000 0.498216
Si Si8 0.535042 0.603825 0.608681
O O1 0.566089 0.500000 0.255966
O O2 0.216860 0.413186 0.004127
O O3 0.065048 0.500000 0.756290
O O4 0.940644 0.261686 0.750615
O O5 0.563187 0.169137 0.313650
O O6 0.906682 0.281613 0.592779
O O7 0.076208 0.131253 0.804292
O O8 0.482737 0.871675 0.115116
O O9 0.825341 0.759095 0.395308
O O10 0.500000 0.841743 0.000000
O O11 0.312644 0.722428 0.900732
O O12 0.237833 0.394109 0.357987
O O13 0.753801 0.338215 0.857647
O O14 0.564309 0.000000 0.841183
O O15 0.920147 0.408869 0.518886
O O16 0.500000 0.631884 0.500000
O O17 0.635699 0.500000 0.705553
#
# Coordination Sequence:
#
# PCOD9151735 Si02
#       8
#     2   4   4   4   4   4   2   4
#     4  12  22  30  53  80 109 144 186 237 249 324
#     4  10  21  34  56  81 110 137 172 225 277 323
#     4  10  21  38  56  76 104 141 179 216 267 330
#     4  12  21  35  53  81 112 148 196 222 265 310
#     4  10  21  38  58  83 110 134 164 218 287 345
#     4  10  21  35  52  76 107 138 179 231 269 308
#     4  12  22  34  51  76 109 142 190 227 273 308
#     4  11  22  35  50  75 117 163 196 226 255 291
#
# _framework density 18.761728999999999
#
# number of rings (size 3 to 8) (size 9 to 14) (size 15 to 20)
#    0.000    1.286    2.857    3.857    4.000    1.429 
#    0.000    2.143    0.000    5.143    0.000    0.000 
#    0.000   40.000    0.000    0.000    0.000    0.000 
#
# Total GULP energy -156389.945811 kJ/mol
# GULP energy per Si atom -5585.355208 kJ/mol
# Density = 1.871903 g / cm^3
# Si number density = 18.761729 Si / 1000 Ang^3
#
#
#
# Elastic Constant Matrix: (Units=GPa)
#
#
# Indices 1 2 3 4 5 6 
#
# 1 51.6666 7.1596 12.9205 0.0000 -22.4818 0.0000
# 2 7.1596 56.3821 -2.6515 0.0000 -2.3297 0.0000
# 3 12.9205 -2.6515 94.3705 0.0000 -12.0916 0.0000
# 4 0.0000 0.0000 0.0000 9.1970 0.0000 -1.6981
# 5 -22.4818 -2.3297 -12.0916 0.0000 37.5269 0.0000
# 6 0.0000 0.0000 0.0000 -1.6981 0.0000 4.7810
#
#
#
# Elastic Compliance Matrix: (Units=1/GPa)
#
#
# Indices 1 2 3 4 5 6 
#
# 1 0.026878 -0.002863 -0.001794 0.000000 0.015346 0.000000
# 2 -0.002863 0.018127 0.000861 0.000000 -0.000312 0.000000
# 3 -0.001794 0.000861 0.011198 0.000000 0.002587 0.000000
# 4 0.000000 0.000000 0.000000 0.116362 0.000000 0.041329
# 5 0.015346 -0.000312 0.002587 0.000000 0.036655 0.000000
# 6 0.000000 0.000000 0.000000 0.041329 0.000000 0.223842
#
#
# Mechanical properties :
#
#
# Convention : Reuss Voigt Hill
#
# Bulk Modulus (GPa) = 20.57150 26.36405 23.46778
# Shear Modulus (GPa) = 10.94432 22.63368 16.78900
#
# Velocity S-wave (km/s) = 2.41785 3.47706 2.99466
# Velocity P-wave (km/s) = 4.33394 5.49568 4.94902
#
# Compressibility (1/GPa) = 0.04861094
#
# Stress axis : x y z
#
# Youngs Moduli (GPa) = 37.20517 55.16541 89.30333
#
# Poissons Ratio (x) = 0.15796 0.16022
# Poissons Ratio (y) = 0.10653 -0.07692
# Poissons Ratio (z) = 0.06675 -0.04751
#
# Static dielectric constant tensor:
#      x y z
#    x 1.674360 0.000000 -0.007310 
#    y 0.000000 1.655060 0.000000 
#    z -0.007310 0.000000 1.638120 
# 
# From -- ./inp_files/90980.got.cif
#   From: 2010.05.17/outbox.cif.g08.bks.cpg/sg10_46_cif.got.tgz:90980.got - 2010.06.03 11:33:40.
