data_PCOD9151479
_publ_section_title
;
Structure prediction by ZEFSAII (Michael W. Deem and Ramdas Pophale) SiO2 
 PCOD9151479
Probable space group: P 2/M
;
_chemical_formula_sum "Si O2"
_cell_formula_units_Z 32
_cell_length_a 22.753144
_cell_length_b 8.732135
_cell_length_c 15.276422
_cell_angle_alpha 90.000000
_cell_angle_beta 32.060334
_cell_angle_gamma 90.000000
_cell_volume 1611.106412
_symmetry_space_group_name_H-M "P 2/M"
_symmetry_group_IT_number 10
_symmetry_cell_setting 'monoclinic'
loop_
_space_group_symop_operation_xyz
x,y,z
-x,y,-z
-x,-y,-z
x,-y,z
loop_
_atom_site_type_symbol
_atom_site_label
_atom_site_fract_x
_atom_site_fract_y
_atom_site_fract_z
Si Si1 0.741929 0.683274 0.515395
Si Si2 0.409936 0.681330 0.759116
Si Si3 0.368458 0.316952 0.161387
Si Si4 0.219774 0.184268 0.875980
Si Si5 0.692516 0.182587 0.946515
Si Si6 0.978983 0.185379 0.247243
Si Si7 0.054824 0.814095 0.341469
Si Si8 0.643276 0.182693 0.464877
O O1 0.738292 0.500000 0.516692
O O2 0.689742 0.731542 0.674712
O O3 0.673718 0.749326 0.520389
O O4 0.867680 0.741986 0.351195
O O5 0.415231 0.500000 0.745945
O O6 0.306362 0.743818 0.834624
O O7 0.525278 0.753530 0.582714
O O8 0.391451 0.732665 0.882951
O O9 0.351541 0.500000 0.171843
O O10 0.321975 0.231099 0.135394
O O11 0.500000 0.289516 0.000000
O O12 0.263076 0.222654 0.724633
O O13 0.225443 0.000000 0.880154
O O14 0.093212 0.229023 0.054769
O O15 0.816123 0.225654 0.821349
O O16 0.679153 0.000000 0.972626
O O17 0.994617 0.234307 0.328870
O O18 0.969528 0.000000 0.255815
O O19 0.000000 0.756959 0.500000
O O20 0.049662 0.000000 0.349153
O O21 0.636638 0.000000 0.479160
#
# Coordination Sequence:
#
# PCOD9151479 Si02
#       8
#     4   4   4   4   4   4   4   4
#     4  11  24  41  61  90 129 166 206 256 314 373
#     4  12  24  39  62  93 131 164 197 250 318 381
#     4  10  22  40  59  83 121 166 206 251 310 369
#     4  10  22  42  66  92 121 160 209 262 311 363
#     4  11  21  36  61  90 120 157 205 252 300 359
#     4  10  20  39  63  86 123 164 206 255 306 365
#     4   9  17  31  55  86 116 150 195 248 297 347
#     4  11  24  42  66  91 118 158 213 264 310 367
#
# _framework density 19.862127000000001
#
# number of rings (size 3 to 8) (size 9 to 14) (size 15 to 20)
#    0.000    1.500    1.250    4.125    0.000    6.750 
#    0.000    2.500    0.000    2.625    0.000    0.000 
#    0.000    0.000    0.000    0.000    0.000    0.000 
#
# Total GULP energy -178918.554300 kJ/mol
# GULP energy per Si atom -5591.204822 kJ/mol
# Density = 1.981692 g / cm^3
# Si number density = 19.862127 Si / 1000 Ang^3
#
#
#
# Elastic Constant Matrix: (Units=GPa)
#
#
# Indices 1 2 3 4 5 6 
#
# 1 68.2820 17.1037 13.8023 0.0000 -4.4755 0.0000
# 2 17.1037 25.2189 24.8478 0.0000 0.3758 0.0000
# 3 13.8023 24.8478 107.8104 0.0000 -3.9245 0.0000
# 4 0.0000 0.0000 0.0000 -16.4141 0.0000 11.7724
# 5 -4.4755 0.3758 -3.9245 0.0000 35.6277 0.0000
# 6 0.0000 0.0000 0.0000 11.7724 0.0000 13.3599
#
#
#
# Elastic Compliance Matrix: (Units=1/GPa)
#
#
# Indices 1 2 3 4 5 6 
#
# 1 0.017890 -0.012941 0.000782 0.000000 0.002470 0.000000
# 2 -0.012941 0.060786 -0.012486 0.000000 -0.003642 0.000000
# 3 0.000782 -0.012486 0.012110 0.000000 0.001564 0.000000
# 4 0.000000 0.000000 0.000000 -0.037331 0.000000 0.032895
# 5 0.002470 -0.003642 0.001564 0.000000 0.028589 0.000000
# 6 0.000000 0.000000 0.000000 0.032895 0.000000 0.045865
#
#
# Mechanical properties :
#
#
# Convention : Reuss Voigt Hill
#
# Bulk Modulus (GPa) = 24.09791 34.75766 29.42779
# Shear Modulus (GPa) = 26.17382 16.21853 21.19617
#
# Velocity S-wave (km/s) = 3.63406 2.86064 3.27029
# Velocity P-wave (km/s) = 5.45595 5.33371 5.39518
#
# Compressibility (1/GPa) = 0.04149737
#
# Stress axis : x y z
#
# Youngs Moduli (GPa) = 55.89561 16.45125 82.57661
#
# Poissons Ratio (x) = 0.21289 -0.06458
# Poissons Ratio (y) = 0.72334 1.03101
# Poissons Ratio (z) = -0.04372 0.20540
#
# Static dielectric constant tensor:
#      x y z
#    x 1.674250 0.000000 0.010590 
#    y 0.000000 1.665820 0.000000 
#    z 0.010590 0.000000 1.718260 
# 
# From -- ./inp_files/71508.got.cif
#   From: 2010.05.17/outbox.cif.g08.bks.cpg/sg10_36_cif.got.tgz:71508.got - 2010.06.03 11:33:40.
