data_PCOD9151996
_publ_section_title
;
Structure prediction by ZEFSAII (Michael W. Deem and Ramdas Pophale) SiO2 
 PCOD9151996
Probable space group: P 2/M
;
_chemical_formula_sum "Si O2"
_cell_formula_units_Z 24
_cell_length_a 12.599144
_cell_length_b 9.235618
_cell_length_c 23.771490
_cell_angle_alpha 90.000000
_cell_angle_beta 154.539526
_cell_angle_gamma 90.000000
_cell_volume 1189.101889
_symmetry_space_group_name_H-M "P 2/M"
_symmetry_group_IT_number 10
_symmetry_cell_setting 'monoclinic'
loop_
_space_group_symop_operation_xyz
x,y,z
-x,y,-z
-x,-y,-z
x,-y,z
loop_
_atom_site_type_symbol
_atom_site_label
_atom_site_fract_x
_atom_site_fract_y
_atom_site_fract_z
Si Si1 0.072778 0.174977 0.973398
Si Si2 0.570314 0.831009 0.151256
Si Si3 0.862743 0.331954 0.199244
Si Si4 0.054006 0.167221 0.461522
Si Si5 0.656047 0.666857 0.489877
Si Si6 0.164501 0.171573 0.254681
O O1 0.872847 0.203113 0.829316
O O2 0.095386 0.000000 0.989219
O O3 0.333386 0.224309 0.072143
O O4 0.000000 0.231395 0.000000
O O5 0.649078 0.739709 0.134521
O O6 0.802046 0.827615 0.304960
O O7 0.529315 0.000000 0.115756
O O8 0.813296 0.500000 0.163488
O O9 0.111118 0.324080 0.356759
O O10 0.939646 0.242588 0.181232
O O11 0.000000 0.205631 0.500000
O O12 0.245752 0.270371 0.522110
O O13 0.144342 0.000000 0.503312
O O14 0.580154 0.500000 0.449824
O O15 0.422915 0.760559 0.396888
O O16 0.161978 0.000000 0.262248
#
# Coordination Sequence:
#
# PCOD9151996 Si02
#       6
#     4   4   4   4   4   4
#     4   9  20  37  58  83 112 147 184 228 280 328
#     4   9  18  35  58  82 111 144 184 232 276 327
#     4  10  21  38  58  81 114 149 183 227 283 337
#     4   9  18  31  54  85 110 141 186 233 277 323
#     4  10  21  36  54  80 115 151 183 223 280 338
#     4  11  22  35  58  86 112 145 189 233 274 327
#
# _framework density 20.183299999999999
#
# number of rings (size 3 to 8) (size 9 to 14) (size 15 to 20)
#    0.000    2.333    0.000    2.000    2.333    5.000 
#    0.000    5.000    0.000    2.500    0.000    0.000 
#    0.000    0.000    0.000    0.000    0.000    0.000 
#
# Total GULP energy -134060.111133 kJ/mol
# GULP energy per Si atom -5585.837964 kJ/mol
# Density = 2.013736 g / cm^3
# Si number density = 20.183300 Si / 1000 Ang^3
#
#
#
# Elastic Constant Matrix: (Units=GPa)
#
#
# Indices 1 2 3 4 5 6 
#
# 1 138.4299 58.8579 33.6962 0.0000 0.2412 0.0000
# 2 58.8579 85.3748 33.8608 0.0000 0.6256 0.0000
# 3 33.6962 33.8608 52.3666 0.0000 19.3639 0.0000
# 4 0.0000 0.0000 0.0000 10.5723 0.0000 -1.0026
# 5 0.2412 0.6256 19.3639 0.0000 28.8269 0.0000
# 6 0.0000 0.0000 0.0000 -1.0026 0.0000 1.6269
#
#
#
# Elastic Compliance Matrix: (Units=1/GPa)
#
#
# Indices 1 2 3 4 5 6 
#
# 1 0.010676 -0.005692 -0.004260 0.000000 0.002896 0.000000
# 2 -0.005692 0.020594 -0.012648 0.000000 0.008097 0.000000
# 3 -0.004260 -0.012648 0.039782 0.000000 -0.026413 0.000000
# 4 0.000000 0.000000 0.000000 0.100458 0.000000 0.061909
# 5 0.002896 0.008097 -0.026413 0.000000 0.052232 0.000000
# 6 0.000000 0.000000 0.000000 0.061909 0.000000 0.652811
#
#
# Mechanical properties :
#
#
# Convention : Reuss Voigt Hill
#
# Bulk Modulus (GPa) = 38.68004 58.77792 48.72898
# Shear Modulus (GPa) = 5.37421 18.18899 11.78160
#
# Velocity S-wave (km/s) = 1.63355 3.00524 2.41867
# Velocity P-wave (km/s) = 4.77116 6.42084 5.65646
#
# Compressibility (1/GPa) = 0.02585313
#
# Stress axis : x y z
#
# Youngs Moduli (GPa) = 93.67030 48.55832 25.13675
#
# Poissons Ratio (x) = 0.27637 0.10708
# Poissons Ratio (y) = 0.53313 0.31792
# Poissons Ratio (z) = 0.39904 0.61415
#
# Static dielectric constant tensor:
#      x y z
#    x 1.703780 0.000000 -0.007700 
#    y 0.000000 1.677030 0.000000 
#    z -0.007700 0.000000 1.745710 
# 
# From -- ./inp_files/45162.got.cif
#   From: 2010.05.17/outbox.cif.g08.bks.cpg/sg10_23_cif.got.tgz:45162.got - 2010.06.03 11:33:40.
