data_PCOD9151830
_publ_section_title
;
Structure prediction by ZEFSAII (Michael W. Deem and Ramdas Pophale) SiO2 
 PCOD9151830
Probable space group: P 2/M
;
_chemical_formula_sum "Si O2"
_cell_formula_units_Z 24
_cell_length_a 24.025446
_cell_length_b 9.290851
_cell_length_c 17.469075
_cell_angle_alpha 90.000000
_cell_angle_beta 20.176135
_cell_angle_gamma 90.000000
_cell_volume 1344.928528
_symmetry_space_group_name_H-M "P 2/M"
_symmetry_group_IT_number 10
_symmetry_cell_setting 'monoclinic'
loop_
_space_group_symop_operation_xyz
x,y,z
-x,y,-z
-x,-y,-z
x,-y,z
loop_
_atom_site_type_symbol
_atom_site_label
_atom_site_fract_x
_atom_site_fract_y
_atom_site_fract_z
Si Si1 0.764728 0.330148 0.603664
Si Si2 0.321313 0.172410 0.702612
Si Si3 0.749324 0.829123 0.382836
Si Si4 0.163999 0.172185 0.330356
Si Si5 0.513149 0.829865 0.826335
Si Si6 0.007479 0.669800 0.149297
O O1 0.741805 0.500000 0.644702
O O2 0.810940 0.252585 0.622207
O O3 0.605674 0.260048 0.771592
O O4 0.905096 0.308762 0.359087
O O5 0.500000 0.211504 0.500000
O O6 0.297139 0.205485 0.643893
O O7 0.302641 0.000000 0.736482
O O8 0.180029 0.254188 0.929265
O O9 0.600974 0.800202 0.632393
O O10 0.901320 0.742234 0.219103
O O11 0.786184 0.000000 0.339310
O O12 0.000000 0.216297 0.500000
O O13 0.155975 0.000000 0.354445
O O14 0.323307 0.200081 0.073829
O O15 0.535790 0.000000 0.813364
O O16 0.023882 0.500000 0.114627
#
# Coordination Sequence:
#
# PCOD9151830 Si02
#       6
#     4   4   4   4   4   4
#     4  10  21  36  54  77 104 136 175 216 258 305
#     4  10  21  35  53  79 108 138 172 211 258 310
#     4   9  18  34  55  77 102 134 173 216 260 307
#     4  10  21  35  53  79 108 138 172 211 258 310
#     4   9  18  34  55  77 102 134 173 216 260 307
#     4  10  21  36  54  77 104 136 175 216 258 305
#
# _framework density 17.844815000000001
#
# number of rings (size 3 to 8) (size 9 to 14) (size 15 to 20)
#    0.000    2.333    0.000    2.000    0.000    9.333 
#    0.000    3.333    0.000    4.000    0.000    0.000 
#    0.000    0.000    0.000    0.000    0.000    0.000 
#
# Total GULP energy -133994.891003 kJ/mol
# GULP energy per Si atom -5583.120458 kJ/mol
# Density = 1.780420 g / cm^3
# Si number density = 17.844815 Si / 1000 Ang^3
#
#
#
# Elastic Constant Matrix: (Units=GPa)
#
#
# Indices 1 2 3 4 5 6 
#
# 1 21.2186 13.9485 29.5025 0.0000 -5.8590 0.0000
# 2 13.9485 26.7856 48.9852 0.0000 -4.2063 0.0000
# 3 29.5025 48.9852 129.5359 0.0000 -26.8484 0.0000
# 4 0.0000 0.0000 0.0000 18.6142 0.0000 15.9580
# 5 -5.8590 -4.2063 -26.8484 0.0000 20.4178 0.0000
# 6 0.0000 0.0000 0.0000 15.9580 0.0000 -4.7046
#
#
#
# Elastic Compliance Matrix: (Units=1/GPa)
#
#
# Indices 1 2 3 4 5 6 
#
# 1 0.075387 -0.034477 -0.001540 0.000000 0.012505 0.000000
# 2 -0.034477 0.185819 -0.077713 0.000000 -0.073802 0.000000
# 3 -0.001540 -0.077713 0.046805 0.000000 0.045095 0.000000
# 4 0.000000 0.000000 0.000000 0.013747 0.000000 0.046629
# 5 0.012505 -0.073802 0.045095 0.000000 0.096659 0.000000
# 6 0.000000 0.000000 0.000000 0.046629 0.000000 -0.054391
#
#
# Mechanical properties :
#
#
# Convention : Reuss Voigt Hill
#
# Bulk Modulus (GPa) = 12.41470 40.26804 26.34137
# Shear Modulus (GPa) = 8.08620 12.53908 10.31264
#
# Velocity S-wave (km/s) = 2.13102 2.65368 2.40658
# Velocity P-wave (km/s) = 3.60931 5.65721 4.74506
#
# Compressibility (1/GPa) = 0.08054967
#
# Stress axis : x y z
#
# Youngs Moduli (GPa) = 13.26492 5.38158 21.36512
#
# Poissons Ratio (x) = 0.18554 0.03290
# Poissons Ratio (y) = 0.45734 1.66036
# Poissons Ratio (z) = 0.02043 0.41822
#
# Static dielectric constant tensor:
#      x y z
#    x 1.574760 0.000000 0.018930 
#    y 0.000000 1.592590 0.000000 
#    z 0.018930 0.000000 1.616680 
# 
# From -- ./inp_files/27215.got.cif
#   From: 2010.05.17/outbox.cif.g08.bks.cpg/sg10_14_cif.got.tgz:27215.got - 2010.06.03 11:33:40.
