data_PCOD9151446
_publ_section_title
;
Structure prediction by ZEFSAII (Michael W. Deem and Ramdas Pophale) SiO2 
 PCOD9151446
Probable space group: P 2/M
;
_chemical_formula_sum "Si O2"
_cell_formula_units_Z 28
_cell_length_a 26.996182
_cell_length_b 7.706057
_cell_length_c 10.283204
_cell_angle_alpha 90.000000
_cell_angle_beta 141.579944
_cell_angle_gamma 90.000000
_cell_volume 1329.381677
_symmetry_space_group_name_H-M "P 2/M"
_symmetry_group_IT_number 10
_symmetry_cell_setting 'monoclinic'
loop_
_space_group_symop_operation_xyz
x,y,z
-x,y,-z
-x,-y,-z
x,-y,z
loop_
_atom_site_type_symbol
_atom_site_label
_atom_site_fract_x
_atom_site_fract_y
_atom_site_fract_z
Si Si1 0.862772 0.800323 0.989407
Si Si2 0.255523 0.204366 0.037918
Si Si3 0.256297 0.704552 0.479906
Si Si4 0.977577 0.702260 0.812579
Si Si5 0.565186 0.790057 0.237153
Si Si6 0.433578 0.212554 0.465540
Si Si7 0.806357 0.710178 0.371542
O O1 0.811902 0.722315 0.003920
O O2 0.945708 0.713851 0.121147
O O3 0.882235 0.000000 0.059298
O O4 0.804515 0.792478 0.744977
O O5 0.230216 0.223117 0.837194
O O6 0.259700 0.000000 0.079848
O O7 0.344376 0.273070 0.246385
O O8 0.237772 0.500000 0.436155
O O9 0.346286 0.734851 0.620615
O O10 0.242039 0.761987 0.598712
O O11 0.958958 0.500000 0.799063
O O12 0.897046 0.772341 0.582591
O O13 0.000000 0.779906 0.000000
O O14 0.547726 0.734254 0.348568
O O15 0.564041 0.000000 0.233661
O O16 0.500000 0.727408 0.000000
O O17 0.500000 0.270973 0.500000
O O18 0.433457 0.000000 0.461805
O O19 0.804904 0.500000 0.359141
#
# Coordination Sequence:
#
# PCOD9151446 Si02
#       7
#     4   4   4   4   4   4   4
#     4  11  22  38  61  89 119 152 196 244 292 349
#     4  10  22  39  59  85 120 154 191 243 292 346
#     4  11  22  39  61  85 119 160 197 240 292 347
#     4  10  20  39  61  84 118 155 195 241 293 347
#     4  10  21  37  60  90 119 149 194 246 291 343
#     4   9  18  35  57  83 116 152 189 232 289 346
#     4  10  23  40  59  85 117 154 198 242 285 350
#
# _framework density 21.062422000000002
#
# number of rings (size 3 to 8) (size 9 to 14) (size 15 to 20)
#    0.000    1.857    2.857    0.857    2.000    4.000 
#    0.000    2.857    0.000    0.857    0.000    0.000 
#    0.000    0.000    0.000    0.000    0.000    0.000 
#
# Total GULP energy -156440.595775 kJ/mol
# GULP energy per Si atom -5587.164135 kJ/mol
# Density = 2.101448 g / cm^3
# Si number density = 21.062422 Si / 1000 Ang^3
#
#
#
# Elastic Constant Matrix: (Units=GPa)
#
#
# Indices 1 2 3 4 5 6 
#
# 1 176.7813 -5.5851 64.2882 0.0000 -9.6382 0.0000
# 2 -5.5851 32.4117 -4.4613 0.0000 1.2705 0.0000
# 3 64.2882 -4.4613 116.4992 0.0000 -10.3864 0.0000
# 4 0.0000 0.0000 0.0000 34.7092 0.0000 4.8839
# 5 -9.6382 1.2705 -10.3864 0.0000 36.1056 0.0000
# 6 0.0000 0.0000 0.0000 4.8839 0.0000 21.5072
#
#
#
# Elastic Compliance Matrix: (Units=1/GPa)
#
#
# Indices 1 2 3 4 5 6 
#
# 1 0.007113 0.000668 -0.003831 0.000000 0.000773 0.000000
# 2 0.000668 0.031100 0.000760 0.000000 -0.000697 0.000000
# 3 -0.003831 0.000760 0.010913 0.000000 0.002090 0.000000
# 4 0.000000 0.000000 0.000000 0.029762 0.000000 -0.006758
# 5 0.000773 -0.000697 0.002090 0.000000 0.028529 0.000000
# 6 0.000000 0.000000 0.000000 -0.006758 0.000000 0.048031
#
#
# Mechanical properties :
#
#
# Convention : Reuss Voigt Hill
#
# Bulk Modulus (GPa) = 22.56252 48.24177 35.40214
# Shear Modulus (GPa) = 28.56713 36.56109 32.56411
#
# Velocity S-wave (km/s) = 3.68680 4.17087 3.93628
# Velocity P-wave (km/s) = 5.37204 6.79329 6.12403
#
# Compressibility (1/GPa) = 0.04432129
#
# Stress axis : x y z
#
# Youngs Moduli (GPa) = 140.58677 32.15424 91.63297
#
# Poissons Ratio (x) = -0.02148 0.35102
# Poissons Ratio (y) = -0.09393 -0.06965
# Poissons Ratio (z) = 0.53854 -0.02444
#
# Static dielectric constant tensor:
#      x y z
#    x 1.737240 0.000000 -0.002850 
#    y 0.000000 1.799550 0.000000 
#    z -0.002850 0.000000 1.714940 
# 
# From -- ./inp_files/37238.got.cif
#   From: 2010.05.17/outbox.cif.g08.bks.cpg/sg10_19_cif.got.tgz:37238.got - 2010.06.03 11:33:40.
