data_PCOD9151011
_publ_section_title
;
Structure prediction by ZEFSAII (Michael W. Deem and Ramdas Pophale) SiO2 
 PCOD9151011
Probable space group: P 2/M
;
_chemical_formula_sum "Si O2"
_cell_formula_units_Z 32
_cell_length_a 24.110805
_cell_length_b 8.671480
_cell_length_c 15.082176
_cell_angle_alpha 90.000000
_cell_angle_beta 150.494533
_cell_angle_gamma 90.000000
_cell_volume 1553.034133
_symmetry_space_group_name_H-M "P 2/M"
_symmetry_group_IT_number 10
_symmetry_cell_setting 'monoclinic'
loop_
_space_group_symop_operation_xyz
x,y,z
-x,y,-z
-x,-y,-z
x,-y,z
loop_
_atom_site_type_symbol
_atom_site_label
_atom_site_fract_x
_atom_site_fract_y
_atom_site_fract_z
Si Si1 0.426092 0.675843 0.985125
Si Si2 0.871193 0.685874 0.020657
Si Si3 0.118330 0.317642 0.298518
Si Si4 0.251122 0.815280 0.318331
Si Si5 0.500405 0.815186 0.729469
Si Si6 0.120058 0.677258 0.621531
Si Si7 0.736035 0.313965 0.006324
Si Si8 0.784200 0.176986 0.399923
O O1 0.395325 0.500000 0.966520
O O2 0.320742 0.775427 0.806575
O O3 0.500000 0.669706 0.000000
O O4 0.487315 0.750630 0.153832
O O5 0.877925 0.500000 0.034608
O O6 0.788321 0.737637 0.827258
O O7 0.817729 0.738144 0.039898
O O8 0.996628 0.738432 0.165651
O O9 0.111291 0.500000 0.271410
O O10 0.165049 0.235868 0.276059
O O11 0.204420 0.281893 0.498040
O O12 0.378895 0.769017 0.521608
O O13 0.247877 0.000000 0.305434
O O14 0.610088 0.753657 0.829589
O O15 0.504750 0.000000 0.737649
O O16 0.142790 0.500000 0.624082
O O17 0.116736 0.784060 0.530914
O O18 0.000000 0.677185 0.500000
O O19 0.208114 0.723611 0.820770
O O20 0.729368 0.500000 0.992656
O O21 0.780298 0.000000 0.421327
#
# Coordination Sequence:
#
# PCOD9151011 Si02
#       8
#     4   4   4   4   4   4   4   4
#     4  11  23  39  61  88 119 161 210 255 304 366
#     4  10  23  43  67  95 123 162 213 265 319 374
#     4  11  23  42  67  94 126 164 211 264 317 379
#     4  11  25  43  64  93 128 166 207 262 328 381
#     4  11  24  41  61  89 128 168 208 259 318 376
#     4  10  20  37  61  88 122 164 208 254 302 359
#     4  10  21  39  64  91 124 166 213 261 310 370
#     4  12  24  37  58  91 127 162 200 245 306 373
#
# _framework density 20.604827
#
# number of rings (size 3 to 8) (size 9 to 14) (size 15 to 20)
#    0.000    1.250    1.250    4.500    0.000   10.750 
#    0.000    3.750    0.000    0.000    0.000    0.000 
#    0.000    0.000    0.000    0.000    0.000    0.000 
#
# Total GULP energy -178838.484592 kJ/mol
# GULP energy per Si atom -5588.702643 kJ/mol
# Density = 2.055793 g / cm^3
# Si number density = 20.604827 Si / 1000 Ang^3
#
#
#
# Elastic Constant Matrix: (Units=GPa)
#
#
# Indices 1 2 3 4 5 6 
#
# 1 94.8088 4.8886 11.7986 0.0000 6.7464 0.0000
# 2 4.8886 12.1472 -3.9077 0.0000 11.4869 0.0000
# 3 11.7986 -3.9077 69.4338 0.0000 9.2032 0.0000
# 4 0.0000 0.0000 0.0000 12.4979 0.0000 -12.6842
# 5 6.7464 11.4869 9.2032 0.0000 32.1441 0.0000
# 6 0.0000 0.0000 0.0000 -12.6842 0.0000 -75.6931
#
#
#
# Elastic Compliance Matrix: (Units=1/GPa)
#
#
# Indices 1 2 3 4 5 6 
#
# 1 0.011085 -0.005401 -0.002219 0.000000 0.000239 0.000000
# 2 -0.005401 0.140240 0.015907 0.000000 -0.053536 0.000000
# 3 -0.002219 0.015907 0.017012 0.000000 -0.010089 0.000000
# 4 0.000000 0.000000 0.000000 0.068384 0.000000 -0.011459
# 5 0.000239 -0.053536 -0.010089 0.000000 0.053080 0.000000
# 6 0.000000 0.000000 0.000000 -0.011459 0.000000 -0.011291
#
#
# Mechanical properties :
#
#
# Convention : Reuss Voigt Hill
#
# Bulk Modulus (GPa) = 5.40805 22.43876 13.92341
# Shear Modulus (GPa) = 15.45240 4.69714 10.07477
#
# Velocity S-wave (km/s) = 2.74148 1.51148 2.21362
# Velocity P-wave (km/s) = 3.55686 3.73628 3.64767
#
# Compressibility (1/GPa) = 0.18490954
#
# Stress axis : x y z
#
# Youngs Moduli (GPa) = 90.21021 7.13061 58.78267
#
# Poissons Ratio (x) = 0.03851 0.13046
# Poissons Ratio (y) = 0.48724 -0.93503
# Poissons Ratio (z) = 0.20021 -0.11342
#
# Static dielectric constant tensor:
#      x y z
#    x 1.778980 0.000000 0.056920 
#    y 0.000000 1.707610 0.000000 
#    z 0.056920 0.000000 1.762070 
# 
# From -- ./inp_files/71679.got.cif
#   From: 2010.05.17/outbox.cif.g08.bks.cpg/sg10_36_cif.got.tgz:71679.got - 2010.06.03 11:33:40.
