data_PCOD9151152
_publ_section_title
;
Structure prediction by ZEFSAII (Michael W. Deem and Ramdas Pophale) SiO2 
 PCOD9151152
Probable space group: P 2/M
;
_chemical_formula_sum "Si O2"
_cell_formula_units_Z 28
_cell_length_a 8.456658
_cell_length_b 14.110788
_cell_length_c 12.159565
_cell_angle_alpha 90.000000
_cell_angle_beta 109.125911
_cell_angle_gamma 90.000000
_cell_volume 1370.908100
_symmetry_space_group_name_H-M "P 2/M"
_symmetry_group_IT_number 10
_symmetry_cell_setting 'monoclinic'
loop_
_space_group_symop_operation_xyz
x,y,z
-x,y,-z
-x,-y,-z
x,-y,z
loop_
_atom_site_type_symbol
_atom_site_label
_atom_site_fract_x
_atom_site_fract_y
_atom_site_fract_z
Si Si1 0.391210 0.392615 0.631048
Si Si2 0.436601 0.780721 0.228705
Si Si3 0.870292 0.608604 0.224623
Si Si4 0.130628 0.708429 0.429495
Si Si5 0.176033 0.256946 0.979825
Si Si6 0.341595 0.108046 0.879188
Si Si7 0.681677 0.892520 0.599959
O O1 0.455073 0.500000 0.634528
O O2 0.519963 0.308200 0.684400
O O3 0.267696 0.390529 0.709603
O O4 0.278682 0.361601 0.501847
O O5 0.599605 0.829307 0.211048
O O6 0.346960 0.860605 0.280863
O O7 0.320087 0.745822 0.103742
O O8 0.918185 0.500000 0.216972
O O9 0.801529 0.656864 0.099398
O O10 0.029748 0.668011 0.302929
O O11 0.201871 0.812666 0.425962
O O12 0.000000 0.710323 0.500000
O O13 0.196187 0.162277 0.910728
O O14 0.000000 0.262280 0.000000
O O15 0.302828 0.000000 0.840512
O O16 0.500000 0.106318 0.000000
O O17 0.500000 0.888065 0.500000
O O18 0.743870 0.000000 0.605409
#
# Coordination Sequence:
#
# PCOD9151152 Si02
#       7
#     4   4   4   4   4   4   4
#     4  10  20  37  65  94 119 159 209 255 305 362
#     4  11  21  40  62  89 125 160 205 258 302 364
#     4  10  21  39  63  91 125 166 205 249 309 366
#     4  10  21  41  65  91 127 161 202 256 304 365
#     4  11  23  38  59  88 126 161 201 255 308 363
#     4   9  19  37  61  85 114 160 208 250 304 363
#     4  11  23  40  64  92 124 164 203 254 314 362
#
# _framework density 20.424419
#
# number of rings (size 3 to 8) (size 9 to 14) (size 15 to 20)
#    0.000    1.714    2.857    1.714    0.000    3.714 
#    0.000    7.143    0.000    0.000    0.000    0.000 
#    0.000    0.000    0.000    0.000    0.000    0.000 
#
# Total GULP energy -156490.837865 kJ/mol
# GULP energy per Si atom -5588.958495 kJ/mol
# Density = 2.037793 g / cm^3
# Si number density = 20.424419 Si / 1000 Ang^3
#
#
#
# Elastic Constant Matrix: (Units=GPa)
#
#
# Indices 1 2 3 4 5 6 
#
# 1 17.1330 8.0558 -2.3456 0.0000 -5.4520 0.0000
# 2 8.0558 144.3634 20.1157 0.0000 5.4109 0.0000
# 3 -2.3456 20.1157 80.9122 0.0000 1.8275 0.0000
# 4 0.0000 0.0000 0.0000 29.6689 0.0000 -2.1209
# 5 -5.4520 5.4109 1.8275 0.0000 23.3548 0.0000
# 6 0.0000 0.0000 0.0000 -2.1209 0.0000 13.7207
#
#
#
# Elastic Compliance Matrix: (Units=1/GPa)
#
#
# Indices 1 2 3 4 5 6 
#
# 1 0.066128 -0.004679 0.002712 0.000000 0.016309 0.000000
# 2 -0.004679 0.007561 -0.001955 0.000000 -0.002691 0.000000
# 3 0.002712 -0.001955 0.012922 0.000000 0.000075 0.000000
# 4 0.000000 0.000000 0.000000 0.034082 0.000000 0.005268
# 5 0.016309 -0.002691 0.000075 0.000000 0.047243 0.000000
# 6 0.000000 0.000000 0.000000 0.005268 0.000000 0.073697
#
#
# Mechanical properties :
#
#
# Convention : Reuss Voigt Hill
#
# Bulk Modulus (GPa) = 12.69556 32.67339 22.68447
# Shear Modulus (GPa) = 18.13347 27.78772 22.96059
#
# Velocity S-wave (km/s) = 2.98288 3.69252 3.35651
# Velocity P-wave (km/s) = 4.25357 5.84906 5.11392
#
# Compressibility (1/GPa) = 0.07876768
#
# Stress axis : x y z
#
# Youngs Moduli (GPa) = 15.12209 132.25203 77.38758
#
# Poissons Ratio (x) = 0.61885 -0.20987
# Poissons Ratio (y) = 0.07076 0.15127
# Poissons Ratio (z) = -0.04101 0.25851
#
# Static dielectric constant tensor:
#      x y z
#    x 1.725220 0.000000 0.010240 
#    y 0.000000 1.693180 0.000000 
#    z 0.010240 0.000000 1.691580 
# 
# From -- ./inp_files/25225.got.cif
#   From: 2010.05.17/outbox.cif.g08.bks.cpg/sg10_13_cif.got.tgz:25225.got - 2010.06.03 11:33:40.
