data_PCOD9151771
_publ_section_title
;
Structure prediction by ZEFSAII (Michael W. Deem and Ramdas Pophale) SiO2 
 PCOD9151771
Probable space group: P 2/M
;
_chemical_formula_sum "Si O2"
_cell_formula_units_Z 32
_cell_length_a 24.526350
_cell_length_b 8.521608
_cell_length_c 18.261594
_cell_angle_alpha 90.000000
_cell_angle_beta 149.121783
_cell_angle_gamma 90.000000
_cell_volume 1958.810806
_symmetry_space_group_name_H-M "P 2/M"
_symmetry_group_IT_number 10
_symmetry_cell_setting 'monoclinic'
loop_
_space_group_symop_operation_xyz
x,y,z
-x,y,-z
-x,-y,-z
x,-y,z
loop_
_atom_site_type_symbol
_atom_site_label
_atom_site_fract_x
_atom_site_fract_y
_atom_site_fract_z
Si Si1 0.408007 0.188013 0.734431
Si Si2 0.375368 0.182671 0.379807
Si Si3 0.637158 0.689771 0.045612
Si Si4 0.681695 0.190247 0.841001
Si Si5 0.191160 0.312302 0.879551
Si Si6 0.250859 0.312222 0.673857
Si Si7 0.557385 0.808192 0.390182
Si Si8 0.981713 0.812159 0.562797
O O1 0.521881 0.240195 0.897491
O O2 0.315447 0.256523 0.677795
O O3 0.403957 0.241403 0.644985
O O4 0.402258 0.000000 0.728877
O O5 0.500000 0.183509 0.500000
O O6 0.314582 0.248460 0.239001
O O7 0.375917 0.249901 0.462471
O O8 0.343396 0.000000 0.348968
O O9 0.628802 0.500000 0.035036
O O10 0.719973 0.738381 0.077761
O O11 0.684848 0.737925 0.178951
O O12 0.565992 0.237025 0.739998
O O13 0.683693 0.000000 0.842115
O O14 0.771085 0.251694 0.998200
O O15 0.188874 0.500000 0.876852
O O16 0.078010 0.249291 0.723050
O O17 0.245606 0.500000 0.668855
O O18 0.132453 0.245741 0.541950
O O19 0.559097 0.000000 0.394486
O O20 0.000000 0.756743 0.500000
O O21 0.983403 0.000000 0.564732
#
# Coordination Sequence:
#
# PCOD9151771 Si02
#       8
#     4   4   4   4   4   4   4   4
#     4  11  21  32  50  76 104 132 170 213 249 287
#     4   7  11  21  41  67  96 129 163 198 240 292
#     4  10  21  35  50  69  98 137 172 201 242 301
#     4   9  15  27  47  72  99 129 168 207 243 286
#     4  11  21  33  51  74 102 135 167 200 249 304
#     4  11  23  39  54  69  97 135 173 206 248 303
#     4   8  14  25  43  70 101 132 163 201 247 291
#     4  11  23  38  57  77  96 121 164 217 258 291
#
# _framework density 16.336442000000002
#
# number of rings (size 3 to 8) (size 9 to 14) (size 15 to 20)
#    0.000    2.250    2.500    3.375    0.000    3.500 
#    0.000    0.000    0.000    4.875    0.000    0.875 
#    0.000    7.000    0.000    0.000    0.000    0.000 
#
# Total GULP energy -178438.537683 kJ/mol
# GULP energy per Si atom -5576.204303 kJ/mol
# Density = 1.629926 g / cm^3
# Si number density = 16.336442 Si / 1000 Ang^3
#
#
#
# Elastic Constant Matrix: (Units=GPa)
#
#
# Indices 1 2 3 4 5 6 
#
# 1 100.5366 20.7649 96.2667 0.0000 -12.3598 0.0000
# 2 20.7649 21.9838 28.8731 0.0000 -2.5100 0.0000
# 3 96.2667 28.8731 137.8128 0.0000 -23.0563 0.0000
# 4 0.0000 0.0000 0.0000 21.8804 0.0000 1.7988
# 5 -12.3598 -2.5100 -23.0563 0.0000 31.3171 0.0000
# 6 0.0000 0.0000 0.0000 1.7988 0.0000 22.3492
#
#
#
# Elastic Compliance Matrix: (Units=1/GPa)
#
#
# Indices 1 2 3 4 5 6 
#
# 1 0.030511 -0.000542 -0.021888 0.000000 -0.004116 0.000000
# 2 -0.000542 0.063548 -0.013821 0.000000 -0.005296 0.000000
# 3 -0.021888 -0.013821 0.027156 0.000000 0.010246 0.000000
# 4 0.000000 0.000000 0.000000 0.046007 0.000000 -0.003703
# 5 -0.004116 -0.005296 0.010246 0.000000 0.037426 0.000000
# 6 0.000000 0.000000 0.000000 -0.003703 0.000000 0.045042
#
#
# Mechanical properties :
#
#
# Convention : Reuss Voigt Hill
#
# Bulk Modulus (GPa) = 20.52891 61.34919 40.93905
# Shear Modulus (GPa) = 14.77412 22.73791 18.75602
#
# Velocity S-wave (km/s) = 3.01053 3.73480 3.39205
# Velocity P-wave (km/s) = 4.96770 7.49889 6.36048
#
# Compressibility (1/GPa) = 0.04871180
#
# Stress axis : x y z
#
# Youngs Moduli (GPa) = 32.77527 15.73616 36.82493
#
# Poissons Ratio (x) = 0.00853 0.80602
# Poissons Ratio (y) = 0.01777 0.50897
# Poissons Ratio (z) = 0.71738 0.21749
#
# Static dielectric constant tensor:
#      x y z
#    x 1.554530 0.000000 -0.038820 
#    y 0.000000 1.555350 0.000000 
#    z -0.038820 0.000000 1.534730 
# 
# From -- ./inp_files/79963.got.cif
#   From: 2010.05.17/outbox.cif.g08.bks.cpg/sg10_40_cif.got.tgz:79963.got - 2010.06.03 11:33:40.
