data_PCOD9151785
_publ_section_title
;
Structure prediction by ZEFSAII (Michael W. Deem and Ramdas Pophale) SiO2 
 PCOD9151785
Probable space group: P 2/M
;
_chemical_formula_sum "Si O2"
_cell_formula_units_Z 28
_cell_length_a 30.073153
_cell_length_b 8.957776
_cell_length_c 17.933804
_cell_angle_alpha 90.000000
_cell_angle_beta 21.620271
_cell_angle_gamma 90.000000
_cell_volume 1780.058374
_symmetry_space_group_name_H-M "P 2/M"
_symmetry_group_IT_number 10
_symmetry_cell_setting 'monoclinic'
loop_
_space_group_symop_operation_xyz
x,y,z
-x,y,-z
-x,-y,-z
x,-y,z
loop_
_atom_site_type_symbol
_atom_site_label
_atom_site_fract_x
_atom_site_fract_y
_atom_site_fract_z
Si Si1 0.534096 0.825827 0.723291
Si Si2 0.466435 0.818729 0.670243
Si Si3 0.582728 0.678045 0.800341
Si Si4 0.844506 0.821861 0.379858
Si Si5 0.915747 0.676616 0.950949
Si Si6 0.179119 0.828029 0.754241
Si Si7 0.696549 0.180473 0.211005
O O1 0.464410 0.768007 0.758831
O O2 0.523177 0.735062 0.816301
O O3 0.675826 0.822652 0.479633
O O4 0.503746 0.000000 0.784185
O O5 0.357281 0.776597 0.785756
O O6 0.591457 0.776494 0.434106
O O7 0.468351 0.000000 0.669504
O O8 0.598176 0.500000 0.773113
O O9 0.713841 0.754386 0.601503
O O10 0.500000 0.715923 0.000000
O O11 0.868354 0.791758 0.254382
O O12 0.952241 0.749966 0.258458
O O13 0.841037 0.000000 0.393705
O O14 0.923084 0.500000 0.932230
O O15 0.864332 0.722435 0.112495
O O16 0.820960 0.744981 0.040304
O O17 0.145565 0.000000 0.825275
O O18 0.707929 0.000000 0.196306
#
# Coordination Sequence:
#
# PCOD9151785 Si02
#       7
#     4   4   4   4   4   4   4
#     4   9  16  29  50  73  95 123 163 201 233 273
#     4   8  14  27  48  69  89 124 168 204 232 265
#     4  10  21  36  52  73 100 124 148 187 242 295
#     4  10  21  35  51  67  87 121 164 201 232 276
#     4  12  22  29  41  66  99 131 160 193 236 281
#     4   9  17  30  46  64  90 125 163 197 229 271
#     4   9  16  29  47  64  91 130 169 200 229 268
#
# _framework density 15.729820999999999
#
# number of rings (size 3 to 8) (size 9 to 14) (size 15 to 20)
#    0.000    2.429    1.429    4.286    0.000    5.714 
#    0.000    2.143    0.000    0.000    0.000    1.000 
#    0.000    8.000    0.000    0.000    0.000    0.000 
#
# Total GULP energy -156140.055536 kJ/mol
# GULP energy per Si atom -5576.430555 kJ/mol
# Density = 1.569402 g / cm^3
# Si number density = 15.729821 Si / 1000 Ang^3
#
#
#
# Elastic Constant Matrix: (Units=GPa)
#
#
# Indices 1 2 3 4 5 6 
#
# 1 143.2078 50.4133 63.0609 0.0000 -18.6618 0.0000
# 2 50.4133 53.0674 37.7676 0.0000 -3.9164 0.0000
# 3 63.0609 37.7676 61.4016 0.0000 -4.6166 0.0000
# 4 0.0000 0.0000 0.0000 19.9141 0.0000 4.6401
# 5 -18.6618 -3.9164 -4.6166 0.0000 25.7024 0.0000
# 6 0.0000 0.0000 0.0000 4.6401 0.0000 11.8794
#
#
#
# Elastic Compliance Matrix: (Units=1/GPa)
#
#
# Indices 1 2 3 4 5 6 
#
# 1 0.014989 -0.005552 -0.011379 0.000000 0.007994 0.000000
# 2 -0.005552 0.035623 -0.016325 0.000000 -0.001535 0.000000
# 3 -0.011379 -0.016325 0.037715 0.000000 -0.003975 0.000000
# 4 0.000000 0.000000 0.000000 0.055244 0.000000 -0.021578
# 5 0.007994 -0.001535 -0.003975 0.000000 0.043763 0.000000
# 6 0.000000 0.000000 0.000000 -0.021578 0.000000 0.092608
#
#
# Mechanical properties :
#
#
# Convention : Reuss Voigt Hill
#
# Bulk Modulus (GPa) = 45.83697 62.24004 54.03851
# Shear Modulus (GPa) = 14.13526 18.59485 16.36505
#
# Velocity S-wave (km/s) = 3.00096 3.44196 3.22900
# Velocity P-wave (km/s) = 6.41959 7.44649 6.95203
#
# Compressibility (1/GPa) = 0.02181645
#
# Stress axis : x y z
#
# Youngs Moduli (GPa) = 66.71352 28.07154 26.51459
#
# Poissons Ratio (x) = 0.15585 0.30170
# Poissons Ratio (y) = 0.37038 0.43286
# Poissons Ratio (z) = 0.75911 0.45828
#
# Static dielectric constant tensor:
#      x y z
#    x 1.551940 0.000000 -0.019960 
#    y 0.000000 1.518970 0.000000 
#    z -0.019960 0.000000 1.508830 
# 
# From -- ./inp_files/80631.got.cif
#   From: 2010.05.17/outbox.cif.g08.bks.cpg/sg10_41_cif.got.tgz:80631.got - 2010.06.03 11:33:40.
