data_PCOD9151639
_publ_section_title
;
Structure prediction by ZEFSAII (Michael W. Deem and Ramdas Pophale) SiO2 
 PCOD9151639
Probable space group: P 2/M
;
_chemical_formula_sum "Si O2"
_cell_formula_units_Z 32
_cell_length_a 23.889785
_cell_length_b 7.362524
_cell_length_c 12.749137
_cell_angle_alpha 90.000000
_cell_angle_beta 46.284127
_cell_angle_gamma 90.000000
_cell_volume 1620.777156
_symmetry_space_group_name_H-M "P 2/M"
_symmetry_group_IT_number 10
_symmetry_cell_setting 'monoclinic'
loop_
_space_group_symop_operation_xyz
x,y,z
-x,y,-z
-x,-y,-z
x,-y,z
loop_
_atom_site_type_symbol
_atom_site_label
_atom_site_fract_x
_atom_site_fract_y
_atom_site_fract_z
Si Si1 0.713673 0.717690 0.559513
Si Si2 0.153245 0.277303 0.458276
Si Si3 0.014955 0.709658 0.354914
Si Si4 0.508420 0.293387 0.324763
Si Si5 0.339985 0.721805 0.596983
Si Si6 0.320058 0.721771 0.853576
Si Si7 0.540990 0.214271 0.842497
Si Si8 0.181956 0.277622 0.181533
O O1 0.720592 0.500000 0.545039
O O2 0.786680 0.783686 0.531312
O O3 0.702126 0.783108 0.454907
O O4 0.633173 0.757801 0.722988
O O5 0.151539 0.500000 0.460452
O O6 0.064582 0.214187 0.588886
O O7 0.180859 0.224298 0.305410
O O8 0.019171 0.500000 0.314613
O O9 0.000000 0.709606 0.500000
O O10 0.101301 0.785555 0.232915
O O11 0.512967 0.500000 0.358396
O O12 0.429778 0.214904 0.476040
O O13 0.592811 0.213619 0.235011
O O14 0.491626 0.296426 0.222364
O O15 0.342515 0.500000 0.589390
O O16 0.302773 0.772278 0.755648
O O17 0.320417 0.500000 0.858630
O O18 0.256403 0.781745 0.019762
O O19 0.525490 0.000000 0.855516
O O20 0.500000 0.284594 0.000000
O O21 0.180157 0.500000 0.183581
#
# Coordination Sequence:
#
# PCOD9151639 Si02
#       8
#     4   4   4   4   4   4   4   4
#     4   9  17  28  45  63  79 105 141 174 197 232
#     4   8  13  21  35  56  80 104 134 168 200 239
#     4   7  10  18  30  46  77 112 131 153 199 250
#     4   9  17  28  44  62  77 104 143 177 202 230
#     4   8  14  25  37  54  79 106 135 168 211 242
#     4   9  15  22  37  59  82 105 135 175 207 239
#     4  10  21  33  42  56  85 116 133 158 207 254
#     4   8  13  19  30  54  82 107 132 163 206 244
#
# _framework density 19.743615999999999
#
# number of rings (size 3 to 8) (size 9 to 14) (size 15 to 20)
#    0.000    3.500    0.000    3.000    1.750    2.500 
#    0.000    0.000    0.000    6.750    0.000    5.250 
#    0.000    5.500    0.000    4.500    0.000    5.000 
#
# Total GULP energy -178340.713761 kJ/mol
# GULP energy per Si atom -5573.147305 kJ/mol
# Density = 1.969868 g / cm^3
# Si number density = 19.743616 Si / 1000 Ang^3
#
#
#
# Elastic Constant Matrix: (Units=GPa)
#
#
# Indices 1 2 3 4 5 6 
#
# 1 141.7012 6.3293 58.0520 0.0000 -18.4607 0.0000
# 2 6.3293 73.6655 5.2550 0.0000 -1.5701 0.0000
# 3 58.0520 5.2550 81.3699 0.0000 -5.3347 0.0000
# 4 0.0000 0.0000 0.0000 -43.4626 0.0000 -3.5967
# 5 -18.4607 -1.5701 -5.3347 0.0000 11.2418 0.0000
# 6 0.0000 0.0000 0.0000 -3.5967 0.0000 -28.0072
#
#
#
# Elastic Compliance Matrix: (Units=1/GPa)
#
#
# Indices 1 2 3 4 5 6 
#
# 1 0.012414 -0.000158 -0.007752 0.000000 0.016684 0.000000
# 2 -0.000158 0.013665 -0.000683 0.000000 0.001325 0.000000
# 3 -0.007752 -0.000683 0.017570 0.000000 -0.004488 0.000000
# 4 0.000000 0.000000 0.000000 -0.023255 0.000000 0.002987
# 5 0.016684 0.001325 -0.004488 0.000000 0.114407 0.000000
# 6 0.000000 0.000000 0.000000 0.002987 0.000000 -0.036089
#
#
# Mechanical properties :
#
#
# Convention : Reuss Voigt Hill
#
# Bulk Modulus (GPa) = 37.78887 48.44546 43.11717
# Shear Modulus (GPa) = 40.08999 3.09442 21.59221
#
# Velocity S-wave (km/s) = 4.51103 1.25328 3.31060
# Velocity P-wave (km/s) = 6.80543 5.16574 6.04147
#
# Compressibility (1/GPa) = 0.02646282
#
# Stress axis : x y z
#
# Youngs Moduli (GPa) = 80.55602 73.17742 56.91463
#
# Poissons Ratio (x) = 0.01156 0.44122
# Poissons Ratio (y) = 0.01273 0.03887
# Poissons Ratio (z) = 0.62450 0.04998
#
# Static dielectric constant tensor:
#      x y z
#    x 1.699120 0.000000 -0.011340 
#    y 0.000000 1.731200 0.000000 
#    z -0.011340 0.000000 1.668740 
# 
# From -- ./inp_files/56427.got.cif
#   From: 2010.05.17/outbox.cif.g08.bks.cpg/sg10_29_cif.got.tgz:56427.got - 2010.06.03 11:33:40.
