data_PCOD9151288
_publ_section_title
;
Structure prediction by ZEFSAII (Michael W. Deem and Ramdas Pophale) SiO2 
 PCOD9151288
Probable space group: P 2/M
;
_chemical_formula_sum "Si O2"
_cell_formula_units_Z 24
_cell_length_a 18.642106
_cell_length_b 15.369493
_cell_length_c 10.409406
_cell_angle_alpha 90.000000
_cell_angle_beta 26.090052
_cell_angle_gamma 90.000000
_cell_volume 1311.653552
_symmetry_space_group_name_H-M "P 2/M"
_symmetry_group_IT_number 10
_symmetry_cell_setting 'monoclinic'
loop_
_space_group_symop_operation_xyz
x,y,z
-x,y,-z
-x,-y,-z
x,-y,z
loop_
_atom_site_type_symbol
_atom_site_label
_atom_site_fract_x
_atom_site_fract_y
_atom_site_fract_z
Si Si1 0.508237 0.897908 0.334517
Si Si2 0.149534 0.902625 0.357432
Si Si3 0.873513 0.397771 0.589733
Si Si4 0.053044 0.754294 0.712517
Si Si5 0.268827 0.245383 0.619283
Si Si6 0.502433 0.602446 0.841123
O O1 0.500000 0.878085 0.500000
O O2 0.389026 0.834535 0.450196
O O3 0.464652 0.000000 0.390178
O O4 0.687551 0.885584 0.986397
O O5 0.109864 0.828979 0.523855
O O6 0.000000 0.903821 0.500000
O O7 0.164255 0.000000 0.391718
O O8 0.895963 0.500000 0.527487
O O9 0.913225 0.338568 0.405018
O O10 0.000000 0.373813 0.500000
O O11 0.679736 0.384757 0.923714
O O12 0.161827 0.765181 0.663702
O O13 0.862842 0.755718 0.054608
O O14 0.373343 0.333168 0.429806
O O15 0.545075 0.500000 0.759694
O O16 0.500000 0.621264 0.000000
#
# Coordination Sequence:
#
# PCOD9151288 Si02
#       6
#     4   4   4   4   4   4
#     4  10  22  40  62  88 118 154 198 249 302 357
#     4  10  21  38  61  84 112 154 197 239 296 361
#     4  10  21  38  61  87 117 156 201 248 299 356
#     4  11  23  38  56  86 121 157 197 245 301 354
#     4  11  24  37  58  88 119 156 201 248 296 358
#     4  10  20  38  62  86 116 157 201 245 296 354
#
# _framework density 18.297515000000001
#
# number of rings (size 3 to 8) (size 9 to 14) (size 15 to 20)
#    0.000    1.667    1.667    2.500    0.000    4.667 
#    0.000    5.000    0.000    3.500    0.000    0.000 
#    0.000    0.000    0.000    0.000    0.000    0.000 
#
# Total GULP energy -133947.267246 kJ/mol
# GULP energy per Si atom -5581.136135 kJ/mol
# Density = 1.825587 g / cm^3
# Si number density = 18.297515 Si / 1000 Ang^3
#
#
#
# Elastic Constant Matrix: (Units=GPa)
#
#
# Indices 1 2 3 4 5 6 
#
# 1 66.7645 41.8822 43.3032 0.0000 -8.5203 0.0000
# 2 41.8822 67.3225 76.2859 0.0000 0.6531 0.0000
# 3 43.3032 76.2859 143.5233 0.0000 -5.9294 0.0000
# 4 0.0000 0.0000 0.0000 25.4073 0.0000 -2.4010
# 5 -8.5203 0.6531 -5.9294 0.0000 32.8246 0.0000
# 6 0.0000 0.0000 0.0000 -2.4010 0.0000 35.2967
#
#
#
# Elastic Compliance Matrix: (Units=1/GPa)
#
#
# Indices 1 2 3 4 5 6 
#
# 1 0.026566 -0.019828 0.002846 0.000000 0.007804 0.000000
# 2 -0.019828 0.052777 -0.022494 0.000000 -0.010260 0.000000
# 3 0.002846 -0.022494 0.018250 0.000000 0.004483 0.000000
# 4 0.000000 0.000000 0.000000 0.039613 0.000000 0.002695
# 5 0.007804 -0.010260 0.004483 0.000000 0.033505 0.000000
# 6 0.000000 0.000000 0.000000 0.002695 0.000000 0.028515
#
#
# Mechanical properties :
#
#
# Convention : Reuss Voigt Hill
#
# Bulk Modulus (GPa) = 53.64177 66.72808 60.18493
# Shear Modulus (GPa) = 17.58140 26.44833 22.01487
#
# Velocity S-wave (km/s) = 3.10314 3.80605 3.47242
# Velocity P-wave (km/s) = 6.49764 7.47410 7.00291
#
# Compressibility (1/GPa) = 0.01864219
#
# Stress axis : x y z
#
# Youngs Moduli (GPa) = 37.64159 18.94762 54.79442
#
# Poissons Ratio (x) = 0.37569 -0.15593
# Poissons Ratio (y) = 0.74635 1.23253
# Poissons Ratio (z) = -0.10712 0.42620
#
# Static dielectric constant tensor:
#      x y z
#    x 1.611820 0.000000 0.001120 
#    y 0.000000 1.622040 0.000000 
#    z 0.001120 0.000000 1.630290 
# 
# From -- ./inp_files/29311.got.cif
#   From: 2010.05.17/outbox.cif.g08.bks.cpg/sg10_15_cif.got.tgz:29311.got - 2010.06.03 11:33:40.
