data_PCOD9151256
_publ_section_title
;
Structure prediction by ZEFSAII (Michael W. Deem and Ramdas Pophale) SiO2 
 PCOD9151256
Probable space group: P 2/M
;
_chemical_formula_sum "Si O2"
_cell_formula_units_Z 30
_cell_length_a 5.223298
_cell_length_b 19.300673
_cell_length_c 15.438072
_cell_angle_alpha 90.000000
_cell_angle_beta 59.264154
_cell_angle_gamma 90.000000
_cell_volume 1337.743096
_symmetry_space_group_name_H-M "P 2/M"
_symmetry_group_IT_number 10
_symmetry_cell_setting 'monoclinic'
loop_
_space_group_symop_operation_xyz
x,y,z
-x,y,-z
-x,-y,-z
x,-y,z
loop_
_atom_site_type_symbol
_atom_site_label
_atom_site_fract_x
_atom_site_fract_y
_atom_site_fract_z
Si Si1 0.850096 0.000000 0.933712
Si Si2 0.021511 0.149390 0.835711
Si Si3 0.646074 0.077208 0.567756
Si Si4 0.159658 0.579485 0.188002
Si Si5 0.414941 0.323426 0.282399
Si Si6 0.311333 0.826758 0.273833
Si Si7 0.955026 0.706062 0.904910
Si Si8 0.491453 0.425073 0.604589
O O1 0.938868 0.072436 0.876286
O O2 0.500000 0.000000 0.000000
O O3 0.000000 0.000000 0.000000
O O4 0.351067 0.162517 0.820159
O O5 0.834676 0.217351 0.900827
O O6 0.945719 0.147218 0.745726
O O7 0.500000 0.095382 0.500000
O O8 0.632712 0.134189 0.645230
O O9 0.000000 0.069551 0.500000
O O10 0.524288 0.000000 0.613315
O O11 0.228439 0.500000 0.153566
O O12 0.368767 0.613930 0.223710
O O13 0.188933 0.634481 0.104416
O O14 0.835789 0.578256 0.293203
O O15 0.232392 0.254050 0.299348
O O16 0.746996 0.297581 0.205622
O O17 0.352001 0.357828 0.384734
O O18 0.000000 0.702917 0.000000
O O19 0.500000 0.423131 0.500000
O O20 0.623536 0.500000 0.608114
#
# Coordination Sequence:
#
# PCOD9151256 Si02
#       8
#     2   4   4   4   4   4   4   4
#     4  12  26  44  66 102 134 160 210 272 324 386
#     4  11  24  42  66  96 125 172 212 262 324 392
#     4  10  22  40  62  92 126 166 212 262 317 377
#     4  10  20  38  61  87 123 160 210 266 318 386
#     4  10  21  38  57  88 122 159 211 262 315 382
#     4  11  23  41  65  90 130 168 219 259 320 385
#     4  10  22  41  61  86 122 168 209 263 326 386
#     4   9  19  36  59  87 120 161 205 256 322 385
#
# _framework density 22.425830999999999
#
# number of rings (size 3 to 8) (size 9 to 14) (size 15 to 20)
#    0.000    1.733    1.333    2.400    1.867    3.467 
#    2.400    2.667    0.000    0.000    0.000    0.000 
#    0.000    0.000    0.000    0.000    0.000    0.000 
#
# Total GULP energy -167065.226749 kJ/mol
# GULP energy per Si atom -5568.840892 kJ/mol
# Density = 2.237479 g / cm^3
# Si number density = 22.425831 Si / 1000 Ang^3
#
#
#
# Elastic Constant Matrix: (Units=GPa)
#
#
# Indices 1 2 3 4 5 6 
#
# 1 77.7792 17.3423 15.5698 0.0000 18.2870 0.0000
# 2 17.3423 187.5790 55.0141 0.0000 18.3162 0.0000
# 3 15.5698 55.0141 79.5651 0.0000 30.7827 0.0000
# 4 0.0000 0.0000 0.0000 37.8145 0.0000 23.4737
# 5 18.2870 18.3162 30.7827 0.0000 37.5455 0.0000
# 6 0.0000 0.0000 0.0000 23.4737 0.0000 18.9331
#
#
#
# Elastic Compliance Matrix: (Units=1/GPa)
#
#
# Indices 1 2 3 4 5 6 
#
# 1 0.014612 -0.000783 0.000421 0.000000 -0.007080 0.000000
# 2 -0.000783 0.006745 -0.004957 0.000000 0.001155 0.000000
# 3 0.000421 -0.004957 0.022052 0.000000 -0.015867 0.000000
# 4 0.000000 0.000000 0.000000 0.114795 0.000000 -0.142326
# 5 -0.007080 0.001155 -0.015867 0.000000 0.042528 0.000000
# 6 0.000000 0.000000 0.000000 -0.142326 0.000000 0.229276
#
#
# Mechanical properties :
#
#
# Convention : Reuss Voigt Hill
#
# Bulk Modulus (GPa) = 30.51501 57.86397 44.18949
# Shear Modulus (GPa) = 11.07250 35.99177 23.53213
#
# Velocity S-wave (km/s) = 2.22443 4.01050 3.24285
# Velocity P-wave (km/s) = 4.49823 6.87778 5.81111
#
# Compressibility (1/GPa) = 0.03277076
#
# Stress axis : x y z
#
# Youngs Moduli (GPa) = 68.43761 148.26815 45.34703
#
# Poissons Ratio (x) = 0.11612 -0.01911
# Poissons Ratio (y) = 0.05360 0.22479
# Poissons Ratio (z) = -0.02884 0.73499
#
# Static dielectric constant tensor:
#      x y z
#    x 1.988570 0.000000 -0.004440 
#    y 0.000000 2.032260 0.000000 
#    z -0.004440 0.000000 1.971150 
# 
# From -- ./inp_files/9841.got.cif
#   From: 2010.05.17/outbox.cif.g08.bks.cpg/sg10_5_cif.got.tgz:9841.got - 2010.06.03 11:33:40.
