data_PCOD9151886
_publ_section_title
;
Structure prediction by ZEFSAII (Michael W. Deem and Ramdas Pophale) SiO2 
 PCOD9151886
Probable space group: P 2/M
;
_chemical_formula_sum "Si O2"
_cell_formula_units_Z 28
_cell_length_a 9.837586
_cell_length_b 7.517998
_cell_length_c 31.003457
_cell_angle_alpha 90.000000
_cell_angle_beta 143.335905
_cell_angle_gamma 90.000000
_cell_volume 1369.192054
_symmetry_space_group_name_H-M "P 2/M"
_symmetry_group_IT_number 10
_symmetry_cell_setting 'monoclinic'
loop_
_space_group_symop_operation_xyz
x,y,z
-x,y,-z
-x,-y,-z
x,-y,z
loop_
_atom_site_type_symbol
_atom_site_label
_atom_site_fract_x
_atom_site_fract_y
_atom_site_fract_z
Si Si1 0.503892 0.298133 0.183762
Si Si2 0.730380 0.000000 0.929820
Si Si3 0.386424 0.000000 0.923635
Si Si4 0.003431 0.293371 0.188456
Si Si5 0.998740 0.784977 0.282681
Si Si6 0.237673 0.782778 0.431763
Si Si7 0.943927 0.208547 0.438405
Si Si8 0.516050 0.285828 0.723870
O O1 0.418956 0.500000 0.164233
O O2 0.745637 0.289317 0.222111
O O3 0.545913 0.232661 0.243220
O O4 0.342294 0.171142 0.116193
O O5 0.583273 0.000000 0.936871
O O6 0.000000 0.000000 0.000000
O O7 0.216406 0.168951 0.874173
O O8 0.500000 0.000000 0.000000
O O9 0.953608 0.500000 0.165685
O O10 0.087101 0.278856 0.259283
O O11 0.224487 0.229807 0.218343
O O12 0.132398 0.727718 0.359251
O O13 0.988536 0.000000 0.279320
O O14 0.500000 0.728740 0.500000
O O15 0.090896 0.718778 0.435454
O O16 0.230726 0.000000 0.430356
O O17 0.678563 0.221945 0.358207
O O18 0.000000 0.284282 0.500000
O O19 0.004468 0.000000 0.455863
O O20 0.512487 0.500000 0.720225
#
# Coordination Sequence:
#
# PCOD9151886 Si02
#       8
#     4   2   2   4   4   4   4   4
#     4  11  22  42  69  95 128 165 211 266 313 368
#     4  12  28  46  70 104 129 164 210 248 315 385
#     4  12  28  48  68 102 131 168 207 245 318 386
#     4  11  24  44  67  96 130 167 213 262 311 374
#     4  11  19  37  66  94 122 170 220 265 319 367
#     4   9  19  33  53  86 126 164 214 270 316 373
#     4  10  21  35  56  87 122 166 211 262 324 372
#     4  10  24  40  62  93 123 169 217 260 321 372
#
# _framework density 20.450018
#
# number of rings (size 3 to 8) (size 9 to 14) (size 15 to 20)
#    0.000    1.429    4.286    0.429    6.000    0.857 
#    0.000    0.000    0.000    2.143    0.000    0.000 
#    0.000    0.000    0.000    0.000    0.000    0.000 
#
# Total GULP energy -156411.078502 kJ/mol
# GULP energy per Si atom -5586.109947 kJ/mol
# Density = 2.040347 g / cm^3
# Si number density = 20.450018 Si / 1000 Ang^3
#
#
#
# Elastic Constant Matrix: (Units=GPa)
#
#
# Indices 1 2 3 4 5 6 
#
# 1 48.3895 4.3269 7.9767 0.0000 -1.1872 0.0000
# 2 4.3269 81.9606 28.8211 0.0000 -0.4061 0.0000
# 3 7.9767 28.8211 120.0660 0.0000 -2.5499 0.0000
# 4 0.0000 0.0000 0.0000 -8.2233 0.0000 -11.9512
# 5 -1.1872 -0.4061 -2.5499 0.0000 40.2208 0.0000
# 6 0.0000 0.0000 0.0000 -11.9512 0.0000 5.9188
#
#
#
# Elastic Compliance Matrix: (Units=1/GPa)
#
#
# Indices 1 2 3 4 5 6 
#
# 1 0.020940 -0.000675 -0.001218 0.000000 0.000534 0.000000
# 2 -0.000675 0.013348 -0.003161 0.000000 -0.000086 0.000000
# 3 -0.001218 -0.003161 0.009179 0.000000 0.000514 0.000000
# 4 0.000000 0.000000 0.000000 -0.030907 0.000000 -0.062407
# 5 0.000534 -0.000086 0.000514 0.000000 0.024910 0.000000
# 6 0.000000 0.000000 0.000000 -0.062407 0.000000 0.042941
#
#
# Mechanical properties :
#
#
# Convention : Reuss Voigt Hill
#
# Bulk Modulus (GPa) = 29.97608 36.96284 33.46946
# Shear Modulus (GPa) = 49.19422 21.53601 35.36511
#
# Velocity S-wave (km/s) = 4.91000 3.24868 4.16305
# Velocity P-wave (km/s) = 6.84355 5.67326 6.28570
#
# Compressibility (1/GPa) = 0.03335994
#
# Stress axis : x y z
#
# Youngs Moduli (GPa) = 47.75593 74.91901 108.93989
#
# Poissons Ratio (x) = 0.05054 0.13268
# Poissons Ratio (y) = 0.03221 0.34436
# Poissons Ratio (z) = 0.05816 0.23682
#
# Static dielectric constant tensor:
#      x y z
#    x 1.714280 0.000000 -0.010810 
#    y 0.000000 1.772970 0.000000 
#    z -0.010810 0.000000 1.695300 
# 
# From -- ./inp_files/92143.got.cif
#   From: 2010.05.17/outbox.cif.g08.bks.cpg/sg10_47_cif.got.tgz:92143.got - 2010.06.03 11:33:40.
