data_PCOD9151811
_publ_section_title
;
Structure prediction by ZEFSAII (Michael W. Deem and Ramdas Pophale) SiO2 
 PCOD9151811
Probable space group: P 2/M
;
_chemical_formula_sum "Si O2"
_cell_formula_units_Z 32
_cell_length_a 25.516365
_cell_length_b 8.991578
_cell_length_c 15.842288
_cell_angle_alpha 90.000000
_cell_angle_beta 149.106345
_cell_angle_gamma 90.000000
_cell_volume 1866.240422
_symmetry_space_group_name_H-M "P 2/M"
_symmetry_group_IT_number 10
_symmetry_cell_setting 'monoclinic'
loop_
_space_group_symop_operation_xyz
x,y,z
-x,y,-z
-x,-y,-z
x,-y,z
loop_
_atom_site_type_symbol
_atom_site_label
_atom_site_fract_x
_atom_site_fract_y
_atom_site_fract_z
Si Si1 0.190399 0.822817 0.088367
Si Si2 0.933041 0.678325 0.326510
Si Si3 0.445009 0.822186 0.835756
Si Si4 0.237072 0.321078 0.498334
Si Si5 0.013455 0.321892 0.251943
Si Si6 0.271371 0.822110 0.014298
Si Si7 0.303747 0.322858 0.401254
Si Si8 0.524411 0.321628 0.775010
O O1 0.246776 0.784161 0.078059
O O2 0.251970 0.760545 0.252626
O O3 0.183135 0.000000 0.082952
O O4 0.077391 0.754106 0.925463
O O5 0.915287 0.500000 0.304915
O O6 0.992844 0.711244 0.322074
O O7 0.000000 0.719965 0.500000
O O8 0.825204 0.761130 0.171649
O O9 0.330055 0.759203 0.673834
O O10 0.503408 0.746262 0.838288
O O11 0.443849 0.000000 0.822455
O O12 0.500000 0.788402 0.000000
O O13 0.248712 0.500000 0.524363
O O14 0.250034 0.288523 0.416649
O O15 0.126130 0.276810 0.378576
O O16 0.005451 0.500000 0.230030
O O17 0.374745 0.746544 0.126089
O O18 0.278274 0.000000 0.016243
O O19 0.295376 0.500000 0.375905
O O20 0.423119 0.286497 0.580090
O O21 0.531784 0.500000 0.791400
#
# Coordination Sequence:
#
# PCOD9151811 Si02
#       8
#     4   4   4   4   4   4   4   4
#     4  10  21  35  52  76 105 137 172 210 259 316
#     4   9  18  33  53  78 105 135 175 217 256 304
#     4  10  21  36  54  79 110 141 172 210 259 310
#     4   9  19  35  54  77 103 137 179 217 258 306
#     4   9  18  34  54  74 102 137 172 214 258 303
#     4  10  21  36  53  76 107 139 171 212 262 314
#     4   9  19  35  53  74 101 133 172 217 262 308
#     4  10  21  37  57  79 103 136 177 217 257 305
#
# _framework density 17.146773
#
# number of rings (size 3 to 8) (size 9 to 14) (size 15 to 20)
#    0.000    2.500    0.000    2.250    0.000    7.750 
#    0.000    6.250    0.000    0.000    0.000    0.000 
#    0.000    0.000    0.000    0.000    0.000    0.000 
#
# Total GULP energy -178560.574385 kJ/mol
# GULP energy per Si atom -5580.017950 kJ/mol
# Density = 1.710775 g / cm^3
# Si number density = 17.146773 Si / 1000 Ang^3
#
#
#
# Elastic Constant Matrix: (Units=GPa)
#
#
# Indices 1 2 3 4 5 6 
#
# 1 104.2798 56.1889 114.7810 0.0000 22.6045 0.0000
# 2 56.1889 50.0202 76.4332 0.0000 1.9508 0.0000
# 3 114.7810 76.4332 178.4170 0.0000 0.7923 0.0000
# 4 0.0000 0.0000 0.0000 2.9450 0.0000 -12.3667
# 5 22.6045 1.9508 0.7923 0.0000 37.0347 0.0000
# 6 0.0000 0.0000 0.0000 -12.3667 0.0000 20.7391
#
#
#
# Elastic Compliance Matrix: (Units=1/GPa)
#
#
# Indices 1 2 3 4 5 6 
#
# 1 0.066122 -0.023271 -0.032398 0.000000 -0.038439 0.000000
# 2 -0.023271 0.066308 -0.013484 0.000000 0.011000 0.000000
# 3 -0.032398 -0.013484 0.032136 0.000000 0.019797 0.000000
# 4 0.000000 0.000000 0.000000 -0.225770 0.000000 -0.134627
# 5 -0.038439 0.011000 0.019797 0.000000 0.049460 0.000000
# 6 0.000000 0.000000 0.000000 -0.134627 0.000000 -0.032060
#
#
# Mechanical properties :
#
#
# Convention : Reuss Voigt Hill
#
# Bulk Modulus (GPa) = 38.08149 91.94701 65.01425
# Shear Modulus (GPa) = 48.42259 17.83134 33.12697
#
# Velocity S-wave (km/s) = 5.31990 3.22828 4.40018
# Velocity P-wave (km/s) = 7.74548 8.22409 7.98837
#
# Compressibility (1/GPa) = 0.02625948
#
# Stress axis : x y z
#
# Youngs Moduli (GPa) = 15.12356 15.08105 31.11762
#
# Poissons Ratio (x) = 0.35096 1.00816
# Poissons Ratio (y) = 0.35195 0.41959
# Poissons Ratio (z) = 0.48998 0.20335
#
# Static dielectric constant tensor:
#      x y z
#    x 1.567390 0.000000 0.001270 
#    y 0.000000 1.569010 0.000000 
#    z 0.001270 0.000000 1.550330 
# 
# From -- ./inp_files/71422.got.cif
#   From: 2010.05.17/outbox.cif.g08.bks.cpg/sg10_36_cif.got.tgz:71422.got - 2010.06.03 11:33:40.
