data_PCOD9151680
_publ_section_title
;
Structure prediction by ZEFSAII (Michael W. Deem and Ramdas Pophale) SiO2 
 PCOD9151680
Probable space group: P 2/M
;
_chemical_formula_sum "Si O2"
_cell_formula_units_Z 28
_cell_length_a 9.787811
_cell_length_b 7.550580
_cell_length_c 28.323674
_cell_angle_alpha 90.000000
_cell_angle_beta 46.073785
_cell_angle_gamma 90.000000
_cell_volume 1507.609831
_symmetry_space_group_name_H-M "P 2/M"
_symmetry_group_IT_number 10
_symmetry_cell_setting 'monoclinic'
loop_
_space_group_symop_operation_xyz
x,y,z
-x,y,-z
-x,-y,-z
x,-y,z
loop_
_atom_site_type_symbol
_atom_site_label
_atom_site_fract_x
_atom_site_fract_y
_atom_site_fract_z
Si Si1 0.455880 0.205204 0.561555
Si Si2 0.541319 0.500000 0.935092
Si Si3 0.559512 0.791035 0.174966
Si Si4 0.186982 0.783635 0.705803
Si Si5 0.757931 0.208284 0.827939
Si Si6 0.786268 0.707404 0.553577
Si Si7 0.490755 0.786345 0.298668
Si Si8 0.781116 0.500000 0.066570
O O1 0.500000 0.285922 0.500000
O O2 0.284986 0.281213 0.634044
O O3 0.639915 0.209857 0.551272
O O4 0.404262 0.000000 0.565357
O O5 0.662294 0.328790 0.890491
O O6 0.351793 0.500000 0.948251
O O7 0.500000 0.500000 0.000000
O O8 0.373540 0.772688 0.186818
O O9 0.511020 0.731537 0.239681
O O10 0.719171 0.670402 0.112429
O O11 0.611506 0.000000 0.163372
O O12 0.326023 0.729064 0.714938
O O13 0.971253 0.731948 0.765647
O O14 0.190224 0.000000 0.703875
O O15 0.760641 0.000000 0.840116
O O16 0.793756 0.500000 0.539871
O O17 0.692243 0.726890 0.627757
O O18 0.000000 0.778730 0.500000
O O19 0.485764 0.000000 0.300199
O O20 0.000000 0.500000 0.000000
#
# Coordination Sequence:
#
# PCOD9151680 Si02
#       8
#     4   2   4   4   4   4   4   2
#     4   9  18  33  53  74  99 134 177 224 267 313
#     4  10  22  38  54  80 109 132 175 210 243 314
#     4   9  19  35  56  80 106 139 176 213 259 311
#     4   8  15  30  50  74 102 128 166 215 259 306
#     4   9  18  35  55  76 107 139 168 212 260 302
#     4  10  21  34  47  70 106 142 175 218 267 317
#     4   9  18  33  53  76 100 131 174 220 260 307
#     4  10  22  38  56  80 111 142 169 212 257 302
#
# _framework density 18.572444000000001
#
# number of rings (size 3 to 8) (size 9 to 14) (size 15 to 20)
#    0.000    2.857    0.000    1.286    1.000    4.286 
#    5.143    2.857    0.000    0.000    0.000    0.000 
#    0.000    0.000    0.000    0.000    0.000    0.000 
#
# Total GULP energy -156135.291165 kJ/mol
# GULP energy per Si atom -5576.260399 kJ/mol
# Density = 1.853017 g / cm^3
# Si number density = 18.572444 Si / 1000 Ang^3
#
#
#
# Elastic Constant Matrix: (Units=GPa)
#
#
# Indices 1 2 3 4 5 6 
#
# 1 64.9256 28.4757 102.4317 0.0000 9.4595 0.0000
# 2 28.4757 63.1845 45.7242 0.0000 2.5053 0.0000
# 3 102.4317 45.7242 200.6250 0.0000 1.0287 0.0000
# 4 0.0000 0.0000 0.0000 226.5074 0.0000 -365.0751
# 5 9.4595 2.5053 1.0287 0.0000 45.7362 0.0000
# 6 0.0000 0.0000 0.0000 -365.0751 0.0000 662.8381
#
#
#
# Elastic Compliance Matrix: (Units=1/GPa)
#
#
# Indices 1 2 3 4 5 6 
#
# 1 0.095556 -0.008506 -0.046755 0.000000 -0.018246 0.000000
# 2 -0.008506 0.019750 -0.000162 0.000000 0.000681 0.000000
# 3 -0.046755 -0.000162 0.028846 0.000000 0.009030 0.000000
# 4 0.000000 0.000000 0.000000 0.039319 0.000000 0.021656
# 5 -0.018246 0.000681 0.009030 0.000000 0.025398 0.000000
# 6 0.000000 0.000000 0.000000 0.021656 0.000000 0.013436
#
#
# Mechanical properties :
#
#
# Convention : Reuss Voigt Hill
#
# Bulk Modulus (GPa) = 30.02443 75.77758 52.90101
# Shear Modulus (GPa) = 14.52417 197.15658 105.84037
#
# Velocity S-wave (km/s) = 2.79951 10.31435 7.55722
# Velocity P-wave (km/s) = 5.16245 13.51804 10.23202
#
# Compressibility (1/GPa) = 0.03330621
#
# Stress axis : x y z
#
# Youngs Moduli (GPa) = 10.46510 50.63216 34.66642
#
# Poissons Ratio (x) = 0.43070 1.62083
# Poissons Ratio (y) = 0.08902 0.00561
# Poissons Ratio (z) = 0.48930 0.00819
#
# Static dielectric constant tensor:
#      x y z
#    x 1.619240 0.000000 0.003340 
#    y 0.000000 1.687700 0.000000 
#    z 0.003340 0.000000 1.613340 
# 
# From -- ./inp_files/92037.got.cif
#   From: 2010.05.17/outbox.cif.g08.bks.cpg/sg10_47_cif.got.tgz:92037.got - 2010.06.03 11:33:40.
