data_PCOD9151401
_publ_section_title
;
Structure prediction by ZEFSAII (Michael W. Deem and Ramdas Pophale) SiO2 
 PCOD9151401
Probable space group: P 2/M
;
_chemical_formula_sum "Si O2"
_cell_formula_units_Z 25
_cell_length_a 15.405393
_cell_length_b 7.653702
_cell_length_c 15.070308
_cell_angle_alpha 90.000000
_cell_angle_beta 38.887721
_cell_angle_gamma 90.000000
_cell_volume 1115.540089
_symmetry_space_group_name_H-M "P 2/M"
_symmetry_group_IT_number 10
_symmetry_cell_setting 'monoclinic'
loop_
_space_group_symop_operation_xyz
x,y,z
-x,y,-z
-x,-y,-z
x,-y,z
loop_
_atom_site_type_symbol
_atom_site_label
_atom_site_fract_x
_atom_site_fract_y
_atom_site_fract_z
Si Si1 0.600130 0.791612 0.685016
Si Si2 0.820685 0.295098 0.861184
Si Si3 0.698802 0.299114 0.139715
Si Si4 0.127139 0.203392 0.842296
Si Si5 0.131836 0.211963 0.638075
Si Si6 0.766488 0.800316 0.716318
Si Si7 0.000000 0.500000 0.500000
O O1 0.461022 0.710935 0.758272
O O2 0.736577 0.731474 0.523529
O O3 0.633164 0.760549 0.761931
O O4 0.586060 0.000000 0.683012
O O5 0.785224 0.500000 0.888730
O O6 0.745622 0.206778 0.838506
O O7 0.985576 0.277076 0.717414
O O8 0.781484 0.222708 0.989283
O O9 0.741126 0.500000 0.115220
O O10 0.740675 0.214023 0.199141
O O11 0.144479 0.275113 0.729808
O O12 0.093407 0.000000 0.854875
O O13 0.000000 0.280846 0.000000
O O14 0.128699 0.000000 0.637383
O O15 0.880456 0.654419 0.605017
O O16 0.809886 0.000000 0.657443
#
# Coordination Sequence:
#
# PCOD9151401 Si02
#       7
#     4   4   4   4   4   4   1
#     4  10  24  43  63  93 131 174 218 270 328 398
#     4  11  23  40  63  96 128 175 221 276 330 391
#     4  11  25  41  64  92 132 174 219 270 335 399
#     4  10  20  38  66  95 123 165 215 275 333 392
#     4  10  21  39  65  94 126 164 217 274 332 398
#     4  11  24  41  66  99 136 178 226 274 330 394
#     4  12  22  40  68  96 136 176 220 276 332 382
#
# _framework density 22.410667
#
# number of rings (size 3 to 8) (size 9 to 14) (size 15 to 20)
#    0.000    1.440    2.400    2.160    1.120    6.080 
#    0.000    6.400    0.000    0.000    0.000    0.000 
#    0.000    0.000    0.000    0.000    0.000    0.000 
#
# Total GULP energy -139500.780458 kJ/mol
# GULP energy per Si atom -5580.031218 kJ/mol
# Density = 2.235966 g / cm^3
# Si number density = 22.410667 Si / 1000 Ang^3
#
#
#
# Elastic Constant Matrix: (Units=GPa)
#
#
# Indices 1 2 3 4 5 6 
#
# 1 152.7089 1.0621 31.6427 0.0000 13.2015 0.0000
# 2 1.0621 80.6891 -5.9587 0.0000 4.8005 0.0000
# 3 31.6427 -5.9587 52.7524 0.0000 -1.8235 0.0000
# 4 0.0000 0.0000 0.0000 20.1472 0.0000 8.2360
# 5 13.2015 4.8005 -1.8235 0.0000 22.0235 0.0000
# 6 0.0000 0.0000 0.0000 8.2360 0.0000 -25.6013
#
#
#
# Elastic Compliance Matrix: (Units=1/GPa)
#
#
# Indices 1 2 3 4 5 6 
#
# 1 0.008039 -0.000167 -0.005021 0.000000 -0.005198 0.000000
# 2 -0.000167 0.012653 0.001442 0.000000 -0.002538 0.000000
# 3 -0.005021 0.001442 0.022288 0.000000 0.004541 0.000000
# 4 0.000000 0.000000 0.000000 0.043866 0.000000 0.014112
# 5 -0.005198 -0.002538 0.004541 0.000000 0.049451 0.000000
# 6 0.000000 0.000000 0.000000 0.014112 0.000000 -0.034521
#
#
# Mechanical properties :
#
#
# Convention : Reuss Voigt Hill
#
# Bulk Modulus (GPa) = 28.17884 37.73804 32.95844
# Shear Modulus (GPa) = 41.28864 20.60750 30.94807
#
# Velocity S-wave (km/s) = 4.29694 3.03568 3.72015
# Velocity P-wave (km/s) = 6.10077 5.40028 5.76118
#
# Compressibility (1/GPa) = 0.03548762
#
# Stress axis : x y z
#
# Youngs Moduli (GPa) = 124.38867 79.03299 44.86723
#
# Poissons Ratio (x) = 0.01322 0.22527
# Poissons Ratio (y) = 0.02081 -0.06469
# Poissons Ratio (z) = 0.62454 -0.11395
#
# Static dielectric constant tensor:
#      x y z
#    x 1.823090 0.000000 0.046400 
#    y 0.000000 1.959010 0.000000 
#    z 0.046400 0.000000 1.834880 
# 
# From -- ./inp_files/66346.got.cif
#   From: 2010.05.17/outbox.cif.g08.bks.cpg/sg10_34_cif.got.tgz:66346.got - 2010.06.03 11:33:40.
