data_PCOD9151618
_publ_section_title
;
Structure prediction by ZEFSAII (Michael W. Deem and Ramdas Pophale) SiO2 
 PCOD9151618
Probable space group: P 2/M
;
_chemical_formula_sum "Si O2"
_cell_formula_units_Z 14
_cell_length_a 7.305423
_cell_length_b 9.878913
_cell_length_c 10.412879
_cell_angle_alpha 90.000000
_cell_angle_beta 133.735676
_cell_angle_gamma 90.000000
_cell_volume 542.981875
_symmetry_space_group_name_H-M "P 2/M"
_symmetry_group_IT_number 10
_symmetry_cell_setting 'monoclinic'
loop_
_space_group_symop_operation_xyz
x,y,z
-x,y,-z
-x,-y,-z
x,-y,z
loop_
_atom_site_type_symbol
_atom_site_label
_atom_site_fract_x
_atom_site_fract_y
_atom_site_fract_z
Si Si1 0.824941 0.000000 0.540374
Si Si2 0.328183 0.295486 0.046795
Si Si3 0.756561 0.000000 0.039171
Si Si4 0.003746 0.500000 0.256830
Si Si5 0.346646 0.303859 0.551801
O O1 0.679019 0.858292 0.464332
O O2 0.000000 0.000000 0.500000
O O3 0.003906 0.000000 0.751155
O O4 0.500422 0.344087 0.247588
O O5 0.500000 0.302967 0.000000
O O6 0.253750 0.140947 0.039136
O O7 0.088645 0.383294 0.891831
O O8 0.500000 0.000000 0.000000
O O9 0.085218 0.380271 0.399950
O O10 0.500000 0.350015 0.500000
#
# Coordination Sequence:
#
# PCOD9151618 Si02
#       5
#     2   4   2   2   4
#     4  12  23  48  78 105 140 188 242 303 360 415
#     4  11  24  45  71 105 143 188 244 304 349 419
#     4  10  20  42  69 102 134 176 238 295 348 410
#     4  12  26  46  72 104 153 191 242 282 371 429
#     4  12  28  47  72 108 148 189 240 295 358 431
#
# _framework density 25.783550000000002
#
# number of rings (size 3 to 8) (size 9 to 14) (size 15 to 20)
#    0.000    0.571    2.857    6.429    0.000    3.429 
#    0.000    1.429    0.000    0.000    0.000    0.000 
#    0.000    0.000    0.000    0.000    0.000    0.000 
#
# Total GULP energy -77976.237781 kJ/mol
# GULP energy per Si atom -5569.731270 kJ/mol
# Density = 2.572487 g / cm^3
# Si number density = 25.783550 Si / 1000 Ang^3
#
#
#
# Elastic Constant Matrix: (Units=GPa)
#
#
# Indices 1 2 3 4 5 6 
#
# 1 84.8889 -12.0925 12.9621 0.0000 -24.0893 0.0000
# 2 -12.0925 246.6821 80.1553 0.0000 -11.8918 0.0000
# 3 12.9621 80.1553 304.3824 0.0000 -44.7547 0.0000
# 4 0.0000 0.0000 0.0000 70.5492 0.0000 -3.3290
# 5 -24.0893 -11.8918 -44.7547 0.0000 32.2142 0.0000
# 6 0.0000 0.0000 0.0000 -3.3290 0.0000 -45.9297
#
#
#
# Elastic Compliance Matrix: (Units=1/GPa)
#
#
# Indices 1 2 3 4 5 6 
#
# 1 0.015610 0.001079 0.001038 0.000000 0.013514 0.000000
# 2 0.001079 0.004508 -0.001093 0.000000 0.000953 0.000000
# 3 0.001038 -0.001093 0.004504 0.000000 0.006630 0.000000
# 4 0.000000 0.000000 0.000000 0.014126 0.000000 -0.001024
# 5 0.013514 0.000953 0.006630 0.000000 0.050710 0.000000
# 6 0.000000 0.000000 0.000000 -0.001024 0.000000 -0.021698
#
#
# Mechanical properties :
#
#
# Convention : Reuss Voigt Hill
#
# Bulk Modulus (GPa) = 37.49459 88.66702 63.08080
# Shear Modulus (GPa) = 67.02343 48.36196 57.69269
#
# Velocity S-wave (km/s) = 5.10403 4.33562 4.73544
# Velocity P-wave (km/s) = 7.02199 7.71538 7.37684
#
# Compressibility (1/GPa) = 0.02667051
#
# Stress axis : x y z
#
# Youngs Moduli (GPa) = 64.06083 221.83877 222.03735
#
# Poissons Ratio (x) = -0.23945 -0.23046
# Poissons Ratio (y) = -0.06915 0.24267
# Poissons Ratio (z) = -0.06649 0.24246
#
# Static dielectric constant tensor:
#      x y z
#    x 2.254930 0.000000 0.100020 
#    y 0.000000 2.017260 0.000000 
#    z 0.100020 0.000000 1.955100 
# 
# From -- ./inp_files/41031.got.cif
#   From: 2010.05.17/outbox.cif.g08.bks.cpg/sg10_21_cif.got.tgz:41031.got - 2010.06.03 11:33:40.
