data_PCOD9151204
_publ_section_title
;
Structure prediction by ZEFSAII (Michael W. Deem and Ramdas Pophale) SiO2 
 PCOD9151204
Probable space group: P 2/M
;
_chemical_formula_sum "Si O2"
_cell_formula_units_Z 32
_cell_length_a 15.600950
_cell_length_b 14.066414
_cell_length_c 21.919422
_cell_angle_alpha 90.000000
_cell_angle_beta 159.510832
_cell_angle_gamma 90.000000
_cell_volume 1683.717284
_symmetry_space_group_name_H-M "P 2/M"
_symmetry_group_IT_number 10
_symmetry_cell_setting 'monoclinic'
loop_
_space_group_symop_operation_xyz
x,y,z
-x,y,-z
-x,-y,-z
x,-y,z
loop_
_atom_site_type_symbol
_atom_site_label
_atom_site_fract_x
_atom_site_fract_y
_atom_site_fract_z
Si Si1 0.895173 0.111902 0.158550
Si Si2 0.929510 0.782842 0.608633
Si Si3 0.963285 0.391589 0.718969
Si Si4 0.382437 0.606526 0.327384
Si Si5 0.457303 0.310673 0.246730
Si Si6 0.291981 0.606857 0.702357
Si Si7 0.414415 0.224795 0.873630
Si Si8 0.007084 0.728245 0.864246
O O1 0.042571 0.143462 0.317491
O O2 0.014915 0.170647 0.183174
O O3 0.893122 0.000000 0.149099
O O4 0.617734 0.152677 0.982880
O O5 0.998231 0.679926 0.685434
O O6 0.659319 0.766519 0.402530
O O7 0.134376 0.809743 0.695625
O O8 0.040743 0.500000 0.759635
O O9 0.669838 0.391698 0.534753
O O10 0.072566 0.344555 0.852564
O O11 0.287140 0.500000 0.276689
O O12 0.374344 0.629959 0.250248
O O13 0.230973 0.685111 0.262413
O O14 0.590879 0.375856 0.285776
O O15 0.222817 0.268211 0.057032
O O16 0.340844 0.500000 0.756103
O O17 0.393607 0.683817 0.817168
O O18 0.000000 0.619059 0.500000
O O19 0.500000 0.245119 0.000000
#
# Coordination Sequence:
#
# PCOD9151204 Si02
#       8
#     4   4   4   4   4   4   4   4
#     4  10  22  42  65  88 110 145 199 259 316 360
#     4   9  20  36  59  82 118 155 191 240 293 353
#     4   9  19  35  56  84 120 160 200 239 285 344
#     4  10  21  36  57  86 123 164 206 240 280 346
#     4  11  21  37  55  82 126 162 195 234 285 344
#     4  11  22  35  55  84 126 171 196 222 276 350
#     4  10  20  38  59  86 113 152 194 248 291 345
#     4  11  21  35  58  86 114 153 193 254 300 343
#
# _framework density 19.005565000000001
#
# number of rings (size 3 to 8) (size 9 to 14) (size 15 to 20)
#    0.000    1.875    2.500    1.500    0.000    7.000 
#    0.000    0.625    0.000   16.125    0.000    0.000 
#    0.000    0.000    0.000    0.000    0.000    0.000 
#
# Total GULP energy -178651.998926 kJ/mol
# GULP energy per Si atom -5582.874966 kJ/mol
# Density = 1.896231 g / cm^3
# Si number density = 19.005565 Si / 1000 Ang^3
#
#
#
# Elastic Constant Matrix: (Units=GPa)
#
#
# Indices 1 2 3 4 5 6 
#
# 1 75.9938 45.3226 12.6336 0.0000 0.6521 0.0000
# 2 45.3226 138.3565 30.8120 0.0000 -1.0812 0.0000
# 3 12.6336 30.8120 59.4602 0.0000 -2.3894 0.0000
# 4 0.0000 0.0000 0.0000 16.6653 0.0000 1.1066
# 5 0.6521 -1.0812 -2.3894 0.0000 30.6028 0.0000
# 6 0.0000 0.0000 0.0000 1.1066 0.0000 4.7014
#
#
#
# Elastic Compliance Matrix: (Units=1/GPa)
#
#
# Indices 1 2 3 4 5 6 
#
# 1 0.016398 -0.005194 -0.000816 0.000000 -0.000597 0.000000
# 2 -0.005194 0.009816 -0.003977 0.000000 0.000147 0.000000
# 3 -0.000816 -0.003977 0.019107 0.000000 0.001369 0.000000
# 4 0.000000 0.000000 0.000000 0.060958 0.000000 -0.014349
# 5 -0.000597 0.000147 0.001369 0.000000 0.032802 0.000000
# 6 0.000000 0.000000 0.000000 -0.014349 0.000000 0.216082
#
#
# Mechanical properties :
#
#
# Convention : Reuss Voigt Hill
#
# Bulk Modulus (GPa) = 39.45467 50.14965 44.80216
# Shear Modulus (GPa) = 13.03488 22.73005 17.88247
#
# Velocity S-wave (km/s) = 2.62171 3.46203 3.07075
# Velocity P-wave (km/s) = 5.47440 6.51345 6.01640
#
# Compressibility (1/GPa) = 0.02534554
#
# Stress axis : x y z
#
# Youngs Moduli (GPa) = 60.98399 101.87318 52.33597
#
# Poissons Ratio (x) = 0.52917 0.04272
# Poissons Ratio (y) = 0.31678 0.20814
# Poissons Ratio (z) = 0.04978 0.40516
#
# Static dielectric constant tensor:
#      x y z
#    x 1.684240 0.000000 0.013340 
#    y 0.000000 1.626280 0.000000 
#    z 0.013340 0.000000 1.708300 
# 
# From -- ./inp_files/85419.got.cif
#   From: 2010.05.17/outbox.cif.g08.bks.cpg/sg10_43_cif.got.tgz:85419.got - 2010.06.03 11:33:40.
