data_PCOD9151839
_publ_section_title
;
Structure prediction by ZEFSAII (Michael W. Deem and Ramdas Pophale) SiO2 
 PCOD9151839
Probable space group: P 2/M
;
_chemical_formula_sum "Si O2"
_cell_formula_units_Z 20
_cell_length_a 7.627374
_cell_length_b 9.077208
_cell_length_c 15.654419
_cell_angle_alpha 90.000000
_cell_angle_beta 75.857384
_cell_angle_gamma 90.000000
_cell_volume 1050.987246
_symmetry_space_group_name_H-M "P 2/M"
_symmetry_group_IT_number 10
_symmetry_cell_setting 'monoclinic'
loop_
_space_group_symop_operation_xyz
x,y,z
-x,y,-z
-x,-y,-z
x,-y,z
loop_
_atom_site_type_symbol
_atom_site_label
_atom_site_fract_x
_atom_site_fract_y
_atom_site_fract_z
Si Si1 0.090683 0.175229 0.223293
Si Si2 0.321976 0.828436 0.786491
Si Si3 0.638735 0.832915 0.405990
Si Si4 0.437040 0.324454 0.103037
Si Si5 0.010359 0.672792 0.596408
O O1 0.248062 0.247839 0.149287
O O2 0.888723 0.205676 0.209856
O O3 0.099253 0.240559 0.318239
O O4 0.113307 0.000000 0.223217
O O5 0.427583 0.814805 0.683187
O O6 0.413497 0.729977 0.847057
O O7 0.331369 0.000000 0.811372
O O8 0.500000 0.828324 0.500000
O O9 0.783450 0.706216 0.403511
O O10 0.722393 0.000000 0.397101
O O11 0.415995 0.500000 0.111310
O O12 0.500000 0.286321 0.000000
O O13 0.965948 0.500000 0.604346
O O14 0.000000 0.726086 0.500000
#
# Coordination Sequence:
#
# PCOD9151839 Si02
#       5
#     4   4   4   4   4
#     4  10  22  41  64  88 118 157 201 250 299 352
#     4   9  20  39  61  88 119 156 201 248 298 349
#     4   9  19  35  55  83 116 154 198 239 287 347
#     4  11  25  42  62  90 122 158 198 245 306 365
#     4  10  21  35  53  84 120 155 195 237 290 352
#
# _framework density 19.029727000000001
#
# number of rings (size 3 to 8) (size 9 to 14) (size 15 to 20)
#    0.000    2.200    0.000    3.000    2.800    8.400 
#    0.000    4.000    0.000    0.000    0.000    0.000 
#    0.000    0.000    0.000    0.000    0.000    0.000 
#
# Total GULP energy -111555.529949 kJ/mol
# GULP energy per Si atom -5577.776497 kJ/mol
# Density = 1.898641 g / cm^3
# Si number density = 19.029727 Si / 1000 Ang^3
#
#
#
# Elastic Constant Matrix: (Units=GPa)
#
#
# Indices 1 2 3 4 5 6 
#
# 1 67.9897 41.3442 68.2300 0.0000 -11.0023 0.0000
# 2 41.3442 56.1123 74.5577 0.0000 -6.8810 0.0000
# 3 68.2300 74.5577 176.7914 0.0000 -13.9556 0.0000
# 4 0.0000 0.0000 0.0000 71.4636 0.0000 0.2321
# 5 -11.0023 -6.8810 -13.9556 0.0000 31.6114 0.0000
# 6 0.0000 0.0000 0.0000 0.2321 0.0000 28.5142
#
#
#
# Elastic Compliance Matrix: (Units=1/GPa)
#
#
# Indices 1 2 3 4 5 6 
#
# 1 0.029073 -0.014617 -0.004671 0.000000 0.004875 0.000000
# 2 -0.014617 0.047939 -0.014665 0.000000 -0.001127 0.000000
# 3 -0.004671 -0.014665 0.013742 0.000000 0.001249 0.000000
# 4 0.000000 0.000000 0.000000 0.013993 0.000000 -0.000114
# 5 0.004875 -0.001127 0.001249 0.000000 0.033637 0.000000
# 6 0.000000 0.000000 0.000000 -0.000114 0.000000 0.035071
#
#
# Mechanical properties :
#
#
# Convention : Reuss Voigt Hill
#
# Bulk Modulus (GPa) = 43.76699 74.35079 59.05889
# Shear Modulus (GPa) = 20.08214 34.10194 27.09204
#
# Velocity S-wave (km/s) = 3.25207 4.23784 3.77725
# Velocity P-wave (km/s) = 6.09512 7.94364 7.07997
#
# Compressibility (1/GPa) = 0.02284827
#
# Stress axis : x y z
#
# Youngs Moduli (GPa) = 34.39601 20.86004 72.76840
#
# Poissons Ratio (x) = 0.30491 0.33991
# Poissons Ratio (y) = 0.50277 1.06713
# Poissons Ratio (z) = 0.16067 0.30591
#
# Static dielectric constant tensor:
#      x y z
#    x 1.673150 0.000000 -0.000360 
#    y 0.000000 1.647860 0.000000 
#    z -0.000360 0.000000 1.672940 
# 
# From -- ./inp_files/26748.got.cif
#   From: 2010.05.17/outbox.cif.g08.bks.cpg/sg10_14_cif.got.tgz:26748.got - 2010.06.03 11:33:40.
