data_PCOD9151663
_publ_section_title
;
Structure prediction by ZEFSAII (Michael W. Deem and Ramdas Pophale) SiO2 
 PCOD9151663
Probable space group: P 2/M
;
_chemical_formula_sum "Si O2"
_cell_formula_units_Z 24
_cell_length_a 11.232682
_cell_length_b 16.489379
_cell_length_c 12.354179
_cell_angle_alpha 90.000000
_cell_angle_beta 32.811158
_cell_angle_gamma 90.000000
_cell_volume 1239.933176
_symmetry_space_group_name_H-M "P 2/M"
_symmetry_group_IT_number 10
_symmetry_cell_setting 'monoclinic'
loop_
_space_group_symop_operation_xyz
x,y,z
-x,y,-z
-x,-y,-z
x,-y,z
loop_
_atom_site_type_symbol
_atom_site_label
_atom_site_fract_x
_atom_site_fract_y
_atom_site_fract_z
Si Si1 0.090538 0.094371 0.554435
Si Si2 0.999941 0.341979 0.618430
Si Si3 0.708196 0.194490 0.908163
Si Si4 0.332443 0.652748 0.710921
Si Si5 0.931985 0.591499 0.900054
Si Si6 0.431167 0.763721 0.324341
O O1 0.296672 0.152261 0.421442
O O2 0.000000 0.106041 0.500000
O O3 0.889745 0.125331 0.782414
O O4 0.139999 0.000000 0.530347
O O5 0.832134 0.265521 0.747076
O O6 0.000000 0.381009 0.500000
O O7 0.922917 0.394545 0.779303
O O8 0.241857 0.304501 0.453658
O O9 0.500000 0.163565 0.000000
O O10 0.610202 0.231712 0.092129
O O11 0.500000 0.611388 0.500000
O O12 0.108168 0.654630 0.814218
O O13 0.439006 0.737133 0.667612
O O14 0.280663 0.606194 0.862634
O O15 0.009310 0.500000 0.861909
#
# Coordination Sequence:
#
# PCOD9151663 Si02
#       6
#     4   4   4   4   4   4
#     4  10  21  33  52  90 128 154 192 242 293 348
#     4  11  21  36  59  86 121 156 201 242 286 357
#     4  11  18  33  57  84 117 160 198 236 283 345
#     4  11  22  40  64  85 112 156 200 249 292 348
#     4  11  25  40  58  91 122 146 196 254 302 354
#     4  11  20  36  59  85 114 157 201 240 284 347
#
# _framework density 19.355882000000001
#
# number of rings (size 3 to 8) (size 9 to 14) (size 15 to 20)
#    0.000    1.167    6.667    2.000    0.000    2.667 
#    0.000    0.000    0.000    2.000    0.000    3.500 
#    0.000    0.000    0.000    0.000    0.000    0.000 
#
# Total GULP energy -133797.132620 kJ/mol
# GULP energy per Si atom -5574.880526 kJ/mol
# Density = 1.931183 g / cm^3
# Si number density = 19.355882 Si / 1000 Ang^3
#
#
#
# Elastic Constant Matrix: (Units=GPa)
#
#
# Indices 1 2 3 4 5 6 
#
# 1 77.9991 41.6110 38.3900 0.0000 17.6321 0.0000
# 2 41.6110 71.0712 21.4304 0.0000 1.9280 0.0000
# 3 38.3900 21.4304 143.9846 0.0000 23.8005 0.0000
# 4 0.0000 0.0000 0.0000 9.9322 0.0000 3.1837
# 5 17.6321 1.9280 23.8005 0.0000 40.9766 0.0000
# 6 0.0000 0.0000 0.0000 3.1837 0.0000 -3.9319
#
#
#
# Elastic Compliance Matrix: (Units=1/GPa)
#
#
# Indices 1 2 3 4 5 6 
#
# 1 0.022323 -0.011979 -0.002958 0.000000 -0.007323 0.000000
# 2 -0.011979 0.021175 -0.000714 0.000000 0.004573 0.000000
# 3 -0.002958 -0.000714 0.008434 0.000000 -0.003592 0.000000
# 4 0.000000 0.000000 0.000000 0.079936 0.000000 0.064725
# 5 -0.007323 0.004573 -0.003592 0.000000 0.029427 0.000000
# 6 0.000000 0.000000 0.000000 0.064725 0.000000 -0.201924
#
#
# Mechanical properties :
#
#
# Convention : Reuss Voigt Hill
#
# Bulk Modulus (GPa) = 48.47314 55.10196 51.78755
# Shear Modulus (GPa) = -2038.75966 22.17031 -1008.29468
#
# Velocity S-wave (km/s) = -32.48983 3.38805 -22.84852
# Velocity P-wave (km/s) = 37.18003 6.62079 25.87006
#
# Compressibility (1/GPa) = 0.02062998
#
# Stress axis : x y z
#
# Youngs Moduli (GPa) = 44.79750 47.22565 118.56843
#
# Poissons Ratio (x) = 0.56571 0.35076
# Poissons Ratio (y) = 0.53662 0.08461
# Poissons Ratio (z) = 0.13253 0.03370
#
# Static dielectric constant tensor:
#      x y z
#    x 1.703470 0.000000 0.010300 
#    y 0.000000 1.663890 0.000000 
#    z 0.010300 0.000000 1.744600 
# 
# From -- ./inp_files/47861.got.cif
#   From: 2010.05.17/outbox.cif.g08.bks.cpg/sg10_24_cif.got.tgz:47861.got - 2010.06.03 11:33:40.
