data_PCOD9151976
_publ_section_title
;
Structure prediction by ZEFSAII (Michael W. Deem and Ramdas Pophale) SiO2 
 PCOD9151976
Probable space group: P 2/M
;
_chemical_formula_sum "Si O2"
_cell_formula_units_Z 32
_cell_length_a 10.717837
_cell_length_b 13.109335
_cell_length_c 25.111679
_cell_angle_alpha 90.000000
_cell_angle_beta 31.393107
_cell_angle_gamma 90.000000
_cell_volume 1837.907734
_symmetry_space_group_name_H-M "P 2/M"
_symmetry_group_IT_number 10
_symmetry_cell_setting 'monoclinic'
loop_
_space_group_symop_operation_xyz
x,y,z
-x,y,-z
-x,-y,-z
x,-y,z
loop_
_atom_site_type_symbol
_atom_site_label
_atom_site_fract_x
_atom_site_fract_y
_atom_site_fract_z
Si Si1 0.808775 0.294810 0.526500
Si Si2 0.162437 0.750000 0.250000
Si Si3 0.146216 0.120912 0.361374
Si Si4 0.577043 0.750000 0.250000
Si Si5 0.591711 0.620912 0.138626
Si Si6 0.464838 0.886512 0.075564
Si Si7 0.767095 0.613488 0.424436
Si Si8 0.085223 0.205190 0.026500
O O1 0.553058 0.285790 0.648764
O O2 0.789949 0.355648 0.478248
O O3 0.000000 0.339022 0.500000
O O4 0.929713 0.185376 0.467179
O O5 0.156329 0.837341 0.297467
O O6 0.346198 0.662658 0.202532
O O7 0.265489 0.803298 0.161117
O O8 0.909955 0.696702 0.338884
O O9 0.395885 0.161531 0.295473
O O10 0.119495 0.000000 0.375514
O O11 0.577775 0.661532 0.204528
O O12 0.851884 0.785790 0.148764
O O13 0.621551 0.500000 0.124486
O O14 0.798430 0.685376 0.032821
O O15 0.392470 0.000000 0.118945
O O16 0.500000 0.887101 0.000000
O O17 0.702939 0.855648 0.021753
O O18 0.500000 0.612898 0.500000
O O19 0.868249 0.500000 0.381055
O O20 0.000000 0.160978 0.000000
#
# Coordination Sequence:
#
# PCOD9151976 Si02
#       8
#     4   4   4   4   4   4   4   4
#     4   9  19  33  50  76 105 133 168 209 250 294
#     4   9  18  33  54  74  98 134 170 204 242 294
#     4   9  17  31  51  74 101 135 172 205 243 298
#     4   9  18  29  46  76 106 132 164 208 260 294
#     4   9  17  31  51  74 101 135 172 205 243 298
#     4  10  21  36  54  76 101 132 168 205 250 300
#     4  10  21  36  54  76 101 132 168 205 250 300
#     4   9  19  33  50  76 105 133 168 209 250 294
#
# _framework density 17.411104000000002
#
# number of rings (size 3 to 8) (size 9 to 14) (size 15 to 20)
#    0.000    2.750    0.000    2.250    0.000    7.000 
#    0.000    0.000    0.000   21.750    0.000    0.000 
#    0.000    0.000    0.000    0.000    0.000    0.000 
#
# Total GULP energy -178222.796302 kJ/mol
# GULP energy per Si atom -5569.462384 kJ/mol
# Density = 1.737148 g / cm^3
# Si number density = 17.411104 Si / 1000 Ang^3
#
#
#
# Elastic Constant Matrix: (Units=GPa)
#
#
# Indices 1 2 3 4 5 6 
#
# 1 53.9130 32.1957 11.0521 0.0000 0.1572 0.0000
# 2 32.1957 98.1348 21.6908 0.0000 0.2304 0.0000
# 3 11.0521 21.6908 104.8625 0.0000 -1.2756 0.0000
# 4 0.0000 0.0000 0.0000 15.4738 0.0000 0.2304
# 5 0.1572 0.2304 -1.2756 0.0000 17.8752 0.0000
# 6 0.0000 0.0000 0.0000 0.2304 0.0000 25.9722
#
#
#
# Elastic Compliance Matrix: (Units=1/GPa)
#
#
# Indices 1 2 3 4 5 6 
#
# 1 0.023151 -0.007393 -0.000913 0.000000 -0.000173 0.000000
# 2 -0.007393 0.013041 -0.001921 0.000000 -0.000240 0.000000
# 3 -0.000913 -0.001921 0.010039 0.000000 0.000749 0.000000
# 4 0.000000 0.000000 0.000000 0.064634 0.000000 -0.000573
# 5 -0.000173 -0.000240 0.000749 0.000000 0.056002 0.000000
# 6 0.000000 0.000000 0.000000 -0.000573 0.000000 0.038508
#
#
# Mechanical properties :
#
#
# Convention : Reuss Voigt Hill
#
# Bulk Modulus (GPa) = 38.79512 42.97642 40.88577
# Shear Modulus (GPa) = 21.32918 24.66235 22.99576
#
# Velocity S-wave (km/s) = 3.50384 3.76769 3.63816
# Velocity P-wave (km/s) = 6.22089 6.60789 6.41731
#
# Compressibility (1/GPa) = 0.02577644
#
# Stress axis : x y z
#
# Youngs Moduli (GPa) = 43.19455 76.68247 99.61126
#
# Poissons Ratio (x) = 0.56692 0.09093
# Poissons Ratio (y) = 0.31934 0.19137
# Poissons Ratio (z) = 0.03943 0.14732
#
# Static dielectric constant tensor:
#      x y z
#    x 1.583140 0.000000 -0.000990 
#    y 0.000000 1.572350 0.000000 
#    z -0.000990 0.000000 1.628440 
# 
# From -- ./inp_files/76536.got.cif
#   From: 2010.05.17/outbox.cif.g08.bks.cpg/sg10_39_cif.got.tgz:76536.got - 2010.06.03 11:33:40.
