data_PCOD9151358
_publ_section_title
;
Structure prediction by ZEFSAII (Michael W. Deem and Ramdas Pophale) SiO2 
 PCOD9151358
Probable space group: P 2/M
;
_chemical_formula_sum "Si O2"
_cell_formula_units_Z 28
_cell_length_a 11.306430
_cell_length_b 8.485147
_cell_length_c 15.761273
_cell_angle_alpha 90.000000
_cell_angle_beta 63.101612
_cell_angle_gamma 90.000000
_cell_volume 1348.492775
_symmetry_space_group_name_H-M "P 2/M"
_symmetry_group_IT_number 10
_symmetry_cell_setting 'monoclinic'
loop_
_space_group_symop_operation_xyz
x,y,z
-x,y,-z
-x,-y,-z
x,-y,z
loop_
_atom_site_type_symbol
_atom_site_label
_atom_site_fract_x
_atom_site_fract_y
_atom_site_fract_z
Si Si1 0.826323 0.314526 0.403988
Si Si2 0.091913 0.687673 0.051945
Si Si3 0.639534 0.691699 0.119308
Si Si4 0.656910 0.314444 0.793378
Si Si5 0.070790 0.182115 0.237294
Si Si6 0.659746 0.183911 0.606207
Si Si7 0.376106 0.309565 0.679474
O O1 0.806353 0.500000 0.425322
O O2 0.773952 0.222307 0.502363
O O3 0.735672 0.267844 0.352319
O O4 0.977189 0.280530 0.330156
O O5 0.096048 0.500000 0.069867
O O6 0.037265 0.774488 0.151597
O O7 0.238915 0.743352 0.978088
O O8 0.000000 0.708149 0.000000
O O9 0.641040 0.500000 0.117908
O O10 0.492822 0.740671 0.137849
O O11 0.658051 0.736749 0.212294
O O12 0.666387 0.500000 0.809489
O O13 0.775832 0.225841 0.799942
O O14 0.672874 0.285141 0.687524
O O15 0.048098 0.000000 0.261933
O O16 0.517685 0.232651 0.612844
O O17 0.659230 0.000000 0.628751
O O18 0.391125 0.500000 0.673446
#
# Coordination Sequence:
#
# PCOD9151358 Si02
#       7
#     4   4   4   4   4   4   4
#     4  11  22  38  60  84 113 156 204 242 283 342
#     4  10  20  38  64  91 118 152 193 233 280 344
#     4   8  16  33  60  88 112 145 192 242 281 323
#     4  10  21  41  63  83 111 152 203 245 281 338
#     4  12  26  41  57  84 120 152 189 243 303 352
#     4  11  22  36  57  88 123 154 187 236 297 349
#     4   9  18  35  59  87 117 152 197 241 280 336
#
# _framework density 20.763922999999998
#
# number of rings (size 3 to 8) (size 9 to 14) (size 15 to 20)
#    0.000    1.857    0.000    5.571    0.000    6.571 
#    0.000    9.286    0.000    0.000    0.000    0.000 
#    0.000    0.000    0.000    0.000    0.000    0.000 
#
# Total GULP energy -156518.493822 kJ/mol
# GULP energy per Si atom -5589.946208 kJ/mol
# Density = 2.071666 g / cm^3
# Si number density = 20.763923 Si / 1000 Ang^3
#
#
#
# Elastic Constant Matrix: (Units=GPa)
#
#
# Indices 1 2 3 4 5 6 
#
# 1 41.9033 3.2042 -2.1268 0.0000 -5.2822 0.0000
# 2 3.2042 17.7176 -7.2729 0.0000 2.0509 0.0000
# 3 -2.1268 -7.2729 56.9837 0.0000 -26.4987 0.0000
# 4 0.0000 0.0000 0.0000 -5.5322 0.0000 6.2906
# 5 -5.2822 2.0509 -26.4987 0.0000 24.4821 0.0000
# 6 0.0000 0.0000 0.0000 6.2906 0.0000 -26.4554
#
#
#
# Elastic Compliance Matrix: (Units=1/GPa)
#
#
# Indices 1 2 3 4 5 6 
#
# 1 0.026119 -0.003525 0.006610 0.000000 0.013085 0.000000
# 2 -0.003525 0.060559 0.009835 0.000000 0.004812 0.000000
# 3 0.006610 0.009835 0.038921 0.000000 0.042729 0.000000
# 4 0.000000 0.000000 0.000000 -0.247745 0.000000 -0.058909
# 5 0.013085 0.004812 0.042729 0.000000 0.089514 0.000000
# 6 0.000000 0.000000 0.000000 -0.058909 0.000000 -0.051807
#
#
# Mechanical properties :
#
#
# Convention : Reuss Voigt Hill
#
# Bulk Modulus (GPa) = 6.60335 11.57927 9.09131
# Shear Modulus (GPa) = -83.61194 6.68558 -38.46318
#
# Velocity S-wave (km/s) = -6.35258 1.79633 -4.30863
# Velocity P-wave (km/s) = 7.11477 3.14502 4.51270
#
# Compressibility (1/GPa) = 0.15143834
#
# Stress axis : x y z
#
# Youngs Moduli (GPa) = 38.28640 16.51286 25.69330
#
# Poissons Ratio (x) = 0.05821 -0.16982
# Poissons Ratio (y) = 0.13496 -0.25270
# Poissons Ratio (z) = -0.25306 -0.16241
#
# Static dielectric constant tensor:
#      x y z
#    x 1.757220 0.000000 0.003410 
#    y 0.000000 1.711950 0.000000 
#    z 0.003410 0.000000 1.722130 
# 
# From -- ./inp_files/63640.got.cif
#   From: 2010.05.17/outbox.cif.g08.bks.cpg/sg10_32_cif.got.tgz:63640.got - 2010.06.03 11:33:40.
