data_PCOD9151351
_publ_section_title
;
Structure prediction by ZEFSAII (Michael W. Deem and Ramdas Pophale) SiO2 
 PCOD9151351
Probable space group: P 2/M
;
_chemical_formula_sum "Si O2"
_cell_formula_units_Z 28
_cell_length_a 12.347068
_cell_length_b 11.409158
_cell_length_c 23.831102
_cell_angle_alpha 90.000000
_cell_angle_beta 29.993148
_cell_angle_gamma 90.000000
_cell_volume 1678.191797
_symmetry_space_group_name_H-M "P 2/M"
_symmetry_group_IT_number 10
_symmetry_cell_setting 'monoclinic'
loop_
_space_group_symop_operation_xyz
x,y,z
-x,y,-z
-x,-y,-z
x,-y,z
loop_
_atom_site_type_symbol
_atom_site_label
_atom_site_fract_x
_atom_site_fract_y
_atom_site_fract_z
Si Si1 0.631241 0.638619 0.617510
Si Si2 0.808462 0.000000 0.414352
Si Si3 0.892782 0.362176 0.987412
Si Si4 0.193552 0.748248 0.762290
Si Si5 0.609653 0.363976 0.761590
Si Si6 0.746635 0.638839 0.381524
Si Si7 0.971210 0.247405 0.385755
Si Si8 0.704857 0.000000 0.329832
O O1 0.652770 0.500000 0.594085
O O2 0.412848 0.689244 0.688015
O O3 0.617061 0.649281 0.690877
O O4 0.830447 0.710677 0.502374
O O5 0.918946 0.115320 0.390683
O O6 0.809178 0.000000 0.345790
O O7 0.554522 0.000000 0.544827
O O8 0.935560 0.500000 0.955182
O O9 0.005373 0.283190 0.890134
O O10 0.635815 0.345589 0.108084
O O11 0.000000 0.339517 0.000000
O O12 0.154988 0.691259 0.718915
O O13 0.229847 0.884595 0.733690
O O14 0.670092 0.500000 0.746602
O O15 0.781131 0.277590 0.712654
O O16 0.500000 0.685929 0.500000
O O17 0.733728 0.500000 0.381961
O O18 0.882774 0.674480 0.374223
#
# Coordination Sequence:
#
# PCOD9151351 Si02
#       8
#     4   2   4   4   4   4   4   2
#     4  11  20  34  60  91 123 153 186 244 307 360
#     4  11  22  40  59  82 118 168 196 236 297 350
#     4  10  20  38  64  89 118 156 196 244 295 349
#     4  12  21  36  60  89 118 150 203 243 291 348
#     4  10  22  39  60  88 124 160 192 237 302 359
#     4  11  20  31  54  88 118 143 186 251 303 351
#     4  12  22  37  57  87 123 158 197 239 294 362
#     4  11  22  40  59  85 118 159 200 248 291 340
#
# _framework density 16.684625
#
# number of rings (size 3 to 8) (size 9 to 14) (size 15 to 20)
#    0.000    1.000    5.714    3.000    0.000    1.143 
#    0.000    3.929    0.000    3.429    0.000    0.000 
#    0.000    0.000    0.000    0.000    0.000    0.000 
#
# Total GULP energy -156434.401818 kJ/mol
# GULP energy per Si atom -5586.942922 kJ/mol
# Density = 1.664665 g / cm^3
# Si number density = 16.684625 Si / 1000 Ang^3
#
#
#
# Elastic Constant Matrix: (Units=GPa)
#
#
# Indices 1 2 3 4 5 6 
#
# 1 54.4422 36.0354 43.5696 0.0000 0.1359 0.0000
# 2 36.0354 100.0151 52.1464 0.0000 1.1459 0.0000
# 3 43.5696 52.1464 102.5115 0.0000 6.1781 0.0000
# 4 0.0000 0.0000 0.0000 21.4820 0.0000 -10.2377
# 5 0.1359 1.1459 6.1781 0.0000 24.5422 0.0000
# 6 0.0000 0.0000 0.0000 -10.2377 0.0000 -1.2386
#
#
#
# Elastic Compliance Matrix: (Units=1/GPa)
#
#
# Indices 1 2 3 4 5 6 
#
# 1 0.030193 -0.005627 -0.010129 0.000000 0.002645 0.000000
# 2 -0.005627 0.014687 -0.005118 0.000000 0.000634 0.000000
# 3 -0.010129 -0.005118 0.016902 0.000000 -0.003960 0.000000
# 4 0.000000 0.000000 0.000000 0.009425 0.000000 -0.077902
# 5 0.002645 0.000634 -0.003960 0.000000 0.041699 0.000000
# 6 0.000000 0.000000 0.000000 -0.077902 0.000000 -0.163464
#
#
# Mechanical properties :
#
#
# Convention : Reuss Voigt Hill
#
# Bulk Modulus (GPa) = 49.91724 57.83018 53.87371
# Shear Modulus (GPa) = -2345.39686 17.30494 -1164.04596
#
# Velocity S-wave (km/s) = -37.53365 3.22402 -26.44221
# Velocity P-wave (km/s) = 42.99283 6.97102 29.99824
#
# Compressibility (1/GPa) = 0.02003316
#
# Stress axis : x y z
#
# Youngs Moduli (GPa) = 33.12052 68.08747 59.16435
#
# Poissons Ratio (x) = 0.38316 0.59930
# Poissons Ratio (y) = 0.18638 0.30277
# Poissons Ratio (z) = 0.33549 0.34844
#
# Static dielectric constant tensor:
#      x y z
#    x 1.547490 0.000000 -0.001000 
#    y 0.000000 1.559090 0.000000 
#    z -0.001000 0.000000 1.555090 
# 
# From -- ./inp_files/83958.got.cif
#   From: 2010.05.17/outbox.cif.g08.bks.cpg/sg10_42_cif.got.tgz:83958.got - 2010.06.03 11:33:40.
