data_PCOD9151951
_publ_section_title
;
Structure prediction by ZEFSAII (Michael W. Deem and Ramdas Pophale) SiO2 
 PCOD9151951
Probable space group: P 2/M
;
_chemical_formula_sum "Si O2"
_cell_formula_units_Z 24
_cell_length_a 10.354438
_cell_length_b 25.395767
_cell_length_c 13.528611
_cell_angle_alpha 90.000000
_cell_angle_beta 160.566248
_cell_angle_gamma 90.000000
_cell_volume 1183.629252
_symmetry_space_group_name_H-M "P 2/M"
_symmetry_group_IT_number 10
_symmetry_cell_setting 'monoclinic'
loop_
_space_group_symop_operation_xyz
x,y,z
-x,y,-z
-x,-y,-z
x,-y,z
loop_
_atom_site_type_symbol
_atom_site_label
_atom_site_fract_x
_atom_site_fract_y
_atom_site_fract_z
Si Si1 0.040972 0.167896 0.643808
Si Si2 0.040123 0.443444 0.147255
Si Si3 0.078243 0.779540 0.245424
Si Si4 0.039717 0.670471 0.146554
Si Si5 0.959185 0.890931 0.855907
Si Si6 0.075612 0.056913 0.741521
O O1 0.884870 0.108824 0.555248
O O2 0.000000 0.181048 0.500000
O O3 0.876492 0.207643 0.606504
O O4 0.500000 0.166224 0.000000
O O5 0.500000 0.443700 0.500000
O O6 0.881225 0.500000 0.069652
O O7 0.877466 0.386589 0.063085
O O8 0.000000 0.443259 0.000000
O O9 0.500000 0.775932 0.500000
O O10 0.881114 0.723501 0.082596
O O11 0.889903 0.831733 0.060286
O O12 0.500000 0.667890 0.500000
O O13 0.000000 0.676062 0.000000
O O14 0.500000 0.889599 0.500000
O O15 0.120161 0.930414 0.889721
O O16 0.000000 0.903984 0.000000
O O17 0.881347 0.000000 0.586917
O O18 0.500000 0.053826 0.000000
#
# Coordination Sequence:
#
# PCOD9151951 Si02
#       6
#     4   4   4   4   4   4
#     4  10  22  38  54  73  99 128 157 194 240 286
#     4   8  13  21  33  52  83 120 151 182 226 274
#     4   9  19  33  52  74  98 126 161 197 236 283
#     4   9  16  25  40  64  91 120 155 193 231 273
#     4  10  21  36  53  74 100 128 157 193 238 284
#     4   9  20  37  56  76  98 126 160 196 235 283
#
# _framework density 20.276620000000001
#
# number of rings (size 3 to 8) (size 9 to 14) (size 15 to 20)
#    0.000    2.833    0.000    0.500    0.000   15.667 
#    0.000    3.333    0.000    0.000    0.000    0.000 
#    0.000    1.333    0.000    0.000    0.000    3.667 
#
# Total GULP energy -133810.831516 kJ/mol
# GULP energy per Si atom -5575.451313 kJ/mol
# Density = 2.023047 g / cm^3
# Si number density = 20.276620 Si / 1000 Ang^3
#
#
#
# Elastic Constant Matrix: (Units=GPa)
#
#
# Indices 1 2 3 4 5 6 
#
# 1 137.1890 58.3122 30.9661 0.0000 -27.0090 0.0000
# 2 58.3122 188.3734 6.3498 0.0000 -7.6616 0.0000
# 3 30.9661 6.3498 74.2524 0.0000 -31.6699 0.0000
# 4 0.0000 0.0000 0.0000 13.7790 0.0000 -7.1620
# 5 -27.0090 -7.6616 -31.6699 0.0000 30.9716 0.0000
# 6 0.0000 0.0000 0.0000 -7.1620 0.0000 1.2956
#
#
#
# Elastic Compliance Matrix: (Units=1/GPa)
#
#
# Indices 1 2 3 4 5 6 
#
# 1 0.010101 -0.002804 -0.000907 0.000000 0.007187 0.000000
# 2 -0.002804 0.006142 0.000442 0.000000 -0.000474 0.000000
# 3 -0.000907 0.000442 0.023973 0.000000 0.023831 0.000000
# 4 0.000000 0.000000 0.000000 -0.038740 0.000000 -0.214159
# 5 0.007187 -0.000474 0.023831 0.000000 0.062807 0.000000
# 6 0.000000 0.000000 0.000000 -0.214159 0.000000 -0.412021
#
#
# Mechanical properties :
#
#
# Convention : Reuss Voigt Hill
#
# Bulk Modulus (GPa) = 29.69328 65.67454 47.68391
# Shear Modulus (GPa) = -15.15266 29.48836 7.16785
#
# Velocity S-wave (km/s) = -2.73664 3.81767 1.88221
# Velocity P-wave (km/s) = 2.16571 7.20364 5.31896
#
# Compressibility (1/GPa) = 0.03367766
#
# Stress axis : x y z
#
# Youngs Moduli (GPa) = 99.00281 162.80316 41.71444
#
# Poissons Ratio (x) = 0.45647 0.03784
# Poissons Ratio (y) = 0.27759 -0.01844
# Poissons Ratio (z) = 0.08981 -0.07196
#
# Static dielectric constant tensor:
#      x y z
#    x 1.679510 0.000000 0.019450 
#    y 0.000000 1.847200 0.000000 
#    z 0.019450 0.000000 1.768150 
# 
# From -- ./inp_files/15661.got.cif
#   From: 2010.05.17/outbox.cif.g08.bks.cpg/sg10_8_cif.got.tgz:15661.got - 2010.06.03 11:33:40.
