data_PCOD9151095
_publ_section_title
;
Structure prediction by ZEFSAII (Michael W. Deem and Ramdas Pophale) SiO2 
 PCOD9151095
Probable space group: P 2/M
;
_chemical_formula_sum "Si O2"
_cell_formula_units_Z 32
_cell_length_a 21.559691
_cell_length_b 13.953005
_cell_length_c 15.109258
_cell_angle_alpha 90.000000
_cell_angle_beta 156.726149
_cell_angle_gamma 90.000000
_cell_volume 1795.929778
_symmetry_space_group_name_H-M "P 2/M"
_symmetry_group_IT_number 10
_symmetry_cell_setting 'monoclinic'
loop_
_space_group_symop_operation_xyz
x,y,z
-x,y,-z
-x,-y,-z
x,-y,z
loop_
_atom_site_type_symbol
_atom_site_label
_atom_site_fract_x
_atom_site_fract_y
_atom_site_fract_z
Si Si1 0.524382 0.113890 0.261814
Si Si2 0.740938 0.741996 0.125432
Si Si3 0.039624 0.218603 0.950287
Si Si4 0.515680 0.614178 0.123705
Si Si5 0.173667 0.888892 0.451859
Si Si6 0.953148 0.266816 0.576937
Si Si7 0.123243 0.389033 0.369934
Si Si8 0.639834 0.113601 0.612082
O O1 0.652997 0.138574 0.355146
O O2 0.583762 0.138841 0.438698
O O3 0.507113 0.000000 0.238009
O O4 0.362496 0.164607 0.027317
O O5 0.863282 0.731104 0.205762
O O6 0.850803 0.745355 0.355365
O O7 0.613375 0.661021 0.981910
O O8 0.218089 0.183557 0.175212
O O9 0.981926 0.314060 0.823218
O O10 0.000000 0.233280 0.000000
O O11 0.935330 0.131486 0.775642
O O12 0.493118 0.500000 0.091148
O O13 0.690189 0.631742 0.391106
O O14 0.500000 0.649064 0.000000
O O15 0.102232 0.820083 0.432639
O O16 0.172141 0.000000 0.475523
O O17 0.913462 0.364594 0.576057
O O18 0.095004 0.500000 0.311236
O O19 0.500000 0.122427 0.500000
O O20 0.687016 0.000000 0.672952
#
# Coordination Sequence:
#
# PCOD9151095 Si02
#       8
#     4   4   4   4   4   4   4   4
#     4  10  22  37  57  86 118 155 195 240 287 341
#     4  11  22  37  58  84 120 152 196 238 291 349
#     4  11  21  36  61  84 111 148 191 240 291 341
#     4  10  20  37  63  87 109 144 188 239 291 343
#     4  10  21  37  57  83 114 151 197 240 285 341
#     4  10  23  37  56  86 115 159 191 237 293 344
#     4  10  22  40  60  86 116 148 192 238 290 351
#     4  10  22  38  58  87 119 153 192 236 288 342
#
# _framework density 17.818069000000001
#
# number of rings (size 3 to 8) (size 9 to 14) (size 15 to 20)
#    0.000    1.750    2.500    1.875    3.500    2.250 
#    0.000    3.750    0.000    0.375    0.000    0.000 
#    0.000    0.000    0.000    0.000    0.000    0.000 
#
# Total GULP energy -178416.941698 kJ/mol
# GULP energy per Si atom -5575.529428 kJ/mol
# Density = 1.777751 g / cm^3
# Si number density = 17.818069 Si / 1000 Ang^3
#
#
#
# Elastic Constant Matrix: (Units=GPa)
#
#
# Indices 1 2 3 4 5 6 
#
# 1 88.0048 33.7561 43.1198 0.0000 24.2024 0.0000
# 2 33.7561 77.8314 39.2910 0.0000 17.3684 0.0000
# 3 43.1198 39.2910 104.4872 0.0000 26.7909 0.0000
# 4 0.0000 0.0000 0.0000 19.5587 0.0000 -10.3152
# 5 24.2024 17.3684 26.7909 0.0000 33.0827 0.0000
# 6 0.0000 0.0000 0.0000 -10.3152 0.0000 10.9045
#
#
#
# Elastic Compliance Matrix: (Units=1/GPa)
#
#
# Indices 1 2 3 4 5 6 
#
# 1 0.016540 -0.003763 -0.003552 0.000000 -0.007248 0.000000
# 2 -0.003763 0.017242 -0.004185 0.000000 -0.002911 0.000000
# 3 -0.003552 -0.004185 0.014363 0.000000 -0.006835 0.000000
# 4 0.000000 0.000000 0.000000 0.102030 0.000000 0.096516
# 5 -0.007248 -0.002911 -0.006835 0.000000 0.042593 0.000000
# 6 0.000000 0.000000 0.000000 0.096516 0.000000 0.183006
#
#
# Mechanical properties :
#
#
# Convention : Reuss Voigt Hill
#
# Bulk Modulus (GPa) = 39.76846 55.85080 47.80963
# Shear Modulus (GPa) = 12.28031 22.98630 17.63330
#
# Velocity S-wave (km/s) = 2.62812 3.59563 3.14925
# Velocity P-wave (km/s) = 5.61934 6.97504 6.33357
#
# Compressibility (1/GPa) = 0.02514555
#
# Stress axis : x y z
#
# Youngs Moduli (GPa) = 60.45868 57.99713 69.62467
#
# Poissons Ratio (x) = 0.21823 0.24734
# Poissons Ratio (y) = 0.22750 0.29135
# Poissons Ratio (z) = 0.21478 0.24269
#
# Static dielectric constant tensor:
#      x y z
#    x 1.643940 0.000000 -0.001430 
#    y 0.000000 1.600590 0.000000 
#    z -0.001430 0.000000 1.620240 
# 
# From -- ./inp_files/25298.got.cif
#   From: 2010.05.17/outbox.cif.g08.bks.cpg/sg10_13_cif.got.tgz:25298.got - 2010.06.03 11:33:40.
