data_PCOD9151915
_publ_section_title
;
Structure prediction by ZEFSAII (Michael W. Deem and Ramdas Pophale) SiO2 
 PCOD9151915
Probable space group: P 2/M
;
_chemical_formula_sum "Si O2"
_cell_formula_units_Z 32
_cell_length_a 15.228516
_cell_length_b 13.375662
_cell_length_c 22.020192
_cell_angle_alpha 90.000000
_cell_angle_beta 19.938253
_cell_angle_gamma 90.000000
_cell_volume 1529.528530
_symmetry_space_group_name_H-M "P 2/M"
_symmetry_group_IT_number 10
_symmetry_cell_setting 'monoclinic'
loop_
_space_group_symop_operation_xyz
x,y,z
-x,y,-z
-x,-y,-z
x,-y,z
loop_
_atom_site_type_symbol
_atom_site_label
_atom_site_fract_x
_atom_site_fract_y
_atom_site_fract_z
Si Si1 0.768448 0.703314 0.810907
Si Si2 0.002299 0.214233 0.087261
Si Si3 0.001382 0.802803 0.770417
Si Si4 0.131259 0.618454 0.473945
Si Si5 0.437317 0.115512 0.138363
Si Si6 0.465209 0.794506 0.384979
Si Si7 0.450320 0.883636 0.268110
Si Si8 0.654689 0.381295 0.191391
O O1 0.685238 0.806682 0.829722
O O2 0.900797 0.718874 0.789562
O O3 0.967102 0.651288 0.637995
O O4 0.500000 0.649611 0.000000
O O5 0.947407 0.229171 0.194113
O O6 0.752769 0.170758 0.215822
O O7 0.245382 0.140410 0.926749
O O8 0.104825 0.317356 0.990109
O O9 0.269069 0.830226 0.563963
O O10 0.751257 0.875772 0.932325
O O11 0.109311 0.500000 0.485507
O O12 0.434404 0.636542 0.283484
O O13 0.000000 0.663006 0.500000
O O14 0.364709 0.143984 0.255311
O O15 0.364519 0.000000 0.174088
O O16 0.354102 0.832167 0.392510
O O17 0.528091 0.676362 0.331601
O O18 0.397752 0.000000 0.307865
O O19 0.695720 0.500000 0.172969
#
# Coordination Sequence:
#
# PCOD9151915 Si02
#       8
#     4   4   4   4   4   4   4   4
#     4  10  21  35  60  82 113 157 188 232 286 345
#     4  10  22  37  59  82 114 156 194 238 287 341
#     4  10  21  37  55  82 117 154 188 234 287 338
#     4  10  22  37  58  87 116 150 191 237 288 345
#     4   9  20  38  60  86 117 153 190 233 287 350
#     4  11  21  36  59  88 114 148 195 242 291 335
#     4   9  19  36  58  84 113 146 186 234 286 341
#     4  10  21  39  61  85 115 150 194 241 288 342
#
# _framework density 20.921479999999999
#
# number of rings (size 3 to 8) (size 9 to 14) (size 15 to 20)
#    0.000    2.125    1.250    1.875    7.000    5.000 
#    0.000    1.250    0.000    7.125    0.000    0.000 
#    0.000    0.000    0.000    0.000    0.000    0.000 
#
# Total GULP energy -178282.025581 kJ/mol
# GULP energy per Si atom -5571.313299 kJ/mol
# Density = 2.087386 g / cm^3
# Si number density = 20.921480 Si / 1000 Ang^3
#
#
#
# Elastic Constant Matrix: (Units=GPa)
#
#
# Indices 1 2 3 4 5 6 
#
# 1 98.6732 2.9114 24.8723 0.0000 25.5331 0.0000
# 2 2.9114 44.5779 4.7391 0.0000 5.3185 0.0000
# 3 24.8723 4.7391 92.0491 0.0000 8.7360 0.0000
# 4 0.0000 0.0000 0.0000 4.8610 0.0000 -0.1374
# 5 25.5331 5.3185 8.7360 0.0000 40.2659 0.0000
# 6 0.0000 0.0000 0.0000 -0.1374 0.0000 9.7888
#
#
#
# Elastic Compliance Matrix: (Units=1/GPa)
#
#
# Indices 1 2 3 4 5 6 
#
# 1 0.012771 0.000359 -0.002753 0.000000 -0.007548 0.000000
# 2 0.000359 0.022876 -0.000987 0.000000 -0.003035 0.000000
# 3 -0.002753 -0.000987 0.011722 0.000000 -0.000667 0.000000
# 4 0.000000 0.000000 0.000000 0.205803 0.000000 0.002890
# 5 -0.007548 -0.003035 -0.000667 0.000000 0.030167 0.000000
# 6 0.000000 0.000000 0.000000 0.002890 0.000000 0.102198
#
#
# Mechanical properties :
#
#
# Convention : Reuss Voigt Hill
#
# Bulk Modulus (GPa) = 24.62570 33.37176 28.99873
# Shear Modulus (GPa) = 12.32031 24.50163 18.41097
#
# Velocity S-wave (km/s) = 2.42932 3.42588 2.96970
# Velocity P-wave (km/s) = 4.43451 5.62445 5.06455
#
# Compressibility (1/GPa) = 0.04060799
#
# Stress axis : x y z
#
# Youngs Moduli (GPa) = 78.30208 43.71351 85.31159
#
# Poissons Ratio (x) = -0.01570 0.23486
# Poissons Ratio (y) = -0.02812 0.08418
# Poissons Ratio (z) = 0.21556 0.04313
#
# Static dielectric constant tensor:
#      x y z
#    x 1.820220 0.000000 -0.039720 
#    y 0.000000 1.756520 0.000000 
#    z -0.039720 0.000000 1.864430 
# 
# From -- ./inp_files/42969.got.cif
#   From: 2010.05.17/outbox.cif.g08.bks.cpg/sg10_22_cif.got.tgz:42969.got - 2010.06.03 11:33:40.
