data_PCOD9151266
_publ_section_title
;
Structure prediction by ZEFSAII (Michael W. Deem and Ramdas Pophale) SiO2 
 PCOD9151266
Probable space group: P 2/M
;
_chemical_formula_sum "Si O2"
_cell_formula_units_Z 18
_cell_length_a 9.725695
_cell_length_b 20.518599
_cell_length_c 8.329864
_cell_angle_alpha 90.000000
_cell_angle_beta 30.678798
_cell_angle_gamma 90.000000
_cell_volume 848.140377
_symmetry_space_group_name_H-M "P 2/M"
_symmetry_group_IT_number 10
_symmetry_cell_setting 'monoclinic'
loop_
_space_group_symop_operation_xyz
x,y,z
-x,y,-z
-x,-y,-z
x,-y,z
loop_
_atom_site_type_symbol
_atom_site_label
_atom_site_fract_x
_atom_site_fract_y
_atom_site_fract_z
Si Si1 0.631499 0.576748 0.194048
Si Si2 0.750452 0.000000 0.129318
Si Si3 0.373782 0.858626 0.805518
Si Si4 0.133229 0.360199 0.540192
Si Si5 0.121938 0.207435 0.554228
O O1 0.500000 0.588096 0.500000
O O2 0.687079 0.500000 0.120819
O O3 0.406464 0.600478 0.294252
O O4 0.906021 0.615768 0.892121
O O5 0.500000 0.000000 0.500000
O O6 0.728952 0.932132 0.057087
O O7 0.000000 0.000000 0.000000
O O8 0.500000 0.856212 0.500000
O O9 0.613112 0.834847 0.679746
O O10 0.115325 0.812744 0.085773
O O11 0.000000 0.370796 0.500000
O O12 0.191082 0.283569 0.500976
O O13 0.000000 0.196755 0.500000
#
# Coordination Sequence:
#
# PCOD9151266 Si02
#       5
#     4   2   4   4   4
#     4  11  24  41  62  90 122 154 196 253 305 349
#     4  10  20  38  61  90 123 154 197 252 297 344
#     4  11  22  39  64  90 116 158 206 245 292 357
#     4  11  24  41  62  87 120 162 201 242 297 361
#     4  11  24  41  59  88 127 158 194 250 305 350
#
# _framework density 21.222902000000001
#
# number of rings (size 3 to 8) (size 9 to 14) (size 15 to 20)
#    0.000    1.111    0.000    7.333    0.000   13.333 
#    0.000    3.333    0.000    0.000    0.000    0.000 
#    0.000    0.000    0.000    0.000    0.000    0.000 
#
# Total GULP energy -100723.698728 kJ/mol
# GULP energy per Si atom -5595.761040 kJ/mol
# Density = 2.117460 g / cm^3
# Si number density = 21.222902 Si / 1000 Ang^3
#
#
#
# Elastic Constant Matrix: (Units=GPa)
#
#
# Indices 1 2 3 4 5 6 
#
# 1 74.7874 64.4122 21.6586 0.0000 -16.6176 0.0000
# 2 64.4122 74.1131 12.1899 0.0000 -3.6598 0.0000
# 3 21.6586 12.1899 78.5602 0.0000 -22.0716 0.0000
# 4 0.0000 0.0000 0.0000 -71.7638 0.0000 -116.8567
# 5 -16.6176 -3.6598 -22.0716 0.0000 39.7059 0.0000
# 6 0.0000 0.0000 0.0000 -116.8567 0.0000 7.9930
#
#
#
# Elastic Compliance Matrix: (Units=1/GPa)
#
#
# Indices 1 2 3 4 5 6 
#
# 1 0.071327 -0.060224 -0.004139 0.000000 0.022000 0.000000
# 2 -0.060224 0.064695 0.001373 0.000000 -0.018478 0.000000
# 3 -0.004139 0.001373 0.015650 0.000000 0.007094 0.000000
# 4 0.000000 0.000000 0.000000 -0.000562 0.000000 -0.008213
# 5 0.022000 -0.018478 0.007094 0.000000 0.036633 0.000000
# 6 0.000000 0.000000 0.000000 -0.008213 0.000000 0.005043
#
#
# Mechanical properties :
#
#
# Convention : Reuss Voigt Hill
#
# Bulk Modulus (GPa) = 38.91948 47.10912 43.01430
# Shear Modulus (GPa) = 15.27507 3.80034 9.53771
#
# Velocity S-wave (km/s) = 2.68572 1.33961 2.12222
# Velocity P-wave (km/s) = 5.29109 4.96369 5.13001
#
# Compressibility (1/GPa) = 0.02569408
#
# Stress axis : x y z
#
# Youngs Moduli (GPa) = 14.01989 15.45705 63.89735
#
# Poissons Ratio (x) = 0.93088 0.26446
# Poissons Ratio (y) = 0.84433 -0.08775
# Poissons Ratio (z) = 0.05803 -0.02123
#
# Static dielectric constant tensor:
#      x y z
#    x 1.773100 0.000000 0.030180 
#    y 0.000000 1.776300 0.000000 
#    z 0.030180 0.000000 1.757180 
# 
# From -- ./inp_files/20035.got.cif
#   From: 2010.05.17/outbox.cif.g08.bks.cpg/sg10_11_cif.got.tgz:20035.got - 2010.06.03 11:33:40.
