data_PCOD9151665
_publ_section_title
;
Structure prediction by ZEFSAII (Michael W. Deem and Ramdas Pophale) SiO2 
 PCOD9151665
Probable space group: P 2/M
;
_chemical_formula_sum "Si O2"
_cell_formula_units_Z 24
_cell_length_a 9.868432
_cell_length_b 15.493470
_cell_length_c 18.400906
_cell_angle_alpha 90.000000
_cell_angle_beta 23.367208
_cell_angle_gamma 90.000000
_cell_volume 1115.869682
_symmetry_space_group_name_H-M "P 2/M"
_symmetry_group_IT_number 10
_symmetry_cell_setting 'monoclinic'
loop_
_space_group_symop_operation_xyz
x,y,z
-x,y,-z
-x,-y,-z
x,-y,z
loop_
_atom_site_type_symbol
_atom_site_label
_atom_site_fract_x
_atom_site_fract_y
_atom_site_fract_z
Si Si1 0.279020 0.763356 0.461813
Si Si2 0.446067 0.592238 0.611724
Si Si3 0.741174 0.902138 0.986084
Si Si4 0.048818 0.097919 0.681142
Si Si5 0.500854 0.752849 0.195377
Si Si6 0.368278 0.398784 0.982612
O O1 0.328103 0.670240 0.472574
O O2 0.525442 0.757080 0.270410
O O3 0.288789 0.836805 0.518973
O O4 0.894040 0.776222 0.624038
O O5 0.500000 0.586674 0.500000
O O6 0.540782 0.500000 0.599553
O O7 0.042092 0.605349 0.818515
O O8 0.343726 0.902178 0.155315
O O9 0.745087 0.825271 0.041174
O O10 0.815797 0.000000 0.974849
O O11 0.980471 0.882360 0.799357
O O12 0.175006 0.000000 0.610818
O O13 0.531974 0.664742 0.132755
O O14 0.472060 0.500000 0.921934
O O15 0.500000 0.372950 0.000000
#
# Coordination Sequence:
#
# PCOD9151665 Si02
#       6
#     4   4   4   4   4   4
#     4  10  21  35  53  86 122 152 187 231 285 330
#     4  10  22  39  59  83 112 147 187 235 287 338
#     4   8  15  28  50  82 113 149 196 237 274 323
#     4   8  15  29  52  80 113 152 193 235 277 327
#     4  10  21  33  55  86 118 155 190 231 277 331
#     4  10  22  39  61  85 108 143 190 235 284 343
#
# _framework density 21.507887
#
# number of rings (size 3 to 8) (size 9 to 14) (size 15 to 20)
#    0.000    2.667    0.000    2.000    7.000    4.000 
#    0.000    6.667    0.000    1.500    0.000    2.333 
#    0.000    0.000    0.000    0.000    0.000    0.333 
#
# Total GULP energy -133737.024395 kJ/mol
# GULP energy per Si atom -5572.376016 kJ/mol
# Density = 2.145893 g / cm^3
# Si number density = 21.507887 Si / 1000 Ang^3
#
#
#
# Elastic Constant Matrix: (Units=GPa)
#
#
# Indices 1 2 3 4 5 6 
#
# 1 48.1865 61.0719 46.1614 0.0000 18.1351 0.0000
# 2 61.0719 144.6589 73.7913 0.0000 45.6493 0.0000
# 3 46.1614 73.7913 73.6683 0.0000 31.0612 0.0000
# 4 0.0000 0.0000 0.0000 57.0530 0.0000 -5.4305
# 5 18.1351 45.6493 31.0612 0.0000 52.1478 0.0000
# 6 0.0000 0.0000 0.0000 -5.4305 0.0000 -9.4959
#
#
#
# Elastic Compliance Matrix: (Units=1/GPa)
#
#
# Indices 1 2 3 4 5 6 
#
# 1 0.064020 -0.015020 -0.028346 0.000000 0.007768 0.000000
# 2 -0.015020 0.018830 -0.006279 0.000000 -0.007520 0.000000
# 3 -0.028346 -0.006279 0.041599 0.000000 -0.009424 0.000000
# 4 0.000000 0.000000 0.000000 0.016623 0.000000 -0.009506
# 5 0.007768 -0.007520 -0.009424 0.000000 0.028671 0.000000
# 6 0.000000 0.000000 0.000000 -0.009506 0.000000 -0.099872
#
#
# Mechanical properties :
#
#
# Convention : Reuss Voigt Hill
#
# Bulk Modulus (GPa) = 39.74686 69.84033 54.79360
# Shear Modulus (GPa) = 28.16147 25.64024 26.90085
#
# Velocity S-wave (km/s) = 3.62243 3.45647 3.54042
# Velocity P-wave (km/s) = 6.00135 6.96219 6.49955
#
# Compressibility (1/GPa) = 0.02515922
#
# Stress axis : x y z
#
# Youngs Moduli (GPa) = 15.62007 53.10703 24.03882
#
# Poissons Ratio (x) = 0.79766 0.68141
# Poissons Ratio (y) = 0.23461 0.15094
# Poissons Ratio (z) = 0.44277 0.33346
#
# Static dielectric constant tensor:
#      x y z
#    x 1.841240 0.000000 0.010250 
#    y 0.000000 1.796940 0.000000 
#    z 0.010250 0.000000 1.810070 
# 
# From -- ./inp_files/84130.got.cif
#   From: 2010.05.17/outbox.cif.g08.bks.cpg/sg10_43_cif.got.tgz:84130.got - 2010.06.03 11:33:40.
