data_PCOD9151874
_publ_section_title
;
Structure prediction by ZEFSAII (Michael W. Deem and Ramdas Pophale) SiO2 
 PCOD9151874
Probable space group: P 2/M
;
_chemical_formula_sum "Si O2"
_cell_formula_units_Z 26
_cell_length_a 7.241384
_cell_length_b 20.090080
_cell_length_c 10.085086
_cell_angle_alpha 90.000000
_cell_angle_beta 128.900909
_cell_angle_gamma 90.000000
_cell_volume 1141.806725
_symmetry_space_group_name_H-M "P 2/M"
_symmetry_group_IT_number 10
_symmetry_cell_setting 'monoclinic'
loop_
_space_group_symop_operation_xyz
x,y,z
-x,y,-z
-x,-y,-z
x,-y,z
loop_
_atom_site_type_symbol
_atom_site_label
_atom_site_fract_x
_atom_site_fract_y
_atom_site_fract_z
Si Si1 0.204209 0.217747 0.694796
Si Si2 0.272440 0.928150 0.161068
Si Si3 0.658601 0.357576 0.205265
Si Si4 0.500000 0.127678 0.000000
Si Si5 0.788728 0.500000 0.793593
Si Si6 0.649320 0.500000 0.204472
Si Si7 0.356918 0.213402 0.302590
Si Si8 0.214087 0.644120 0.198813
O O1 0.167222 0.295233 0.711350
O O2 0.456733 0.218540 0.733365
O O3 0.000000 0.194637 0.500000
O O4 0.272554 0.172794 0.852144
O O5 0.272419 0.862372 0.251790
O O6 0.350286 0.000000 0.253369
O O7 0.423102 0.913830 0.094781
O O8 0.000000 0.934036 0.000000
O O9 0.779299 0.429705 0.264402
O O10 0.467747 0.356452 0.238199
O O11 0.500000 0.351786 0.000000
O O12 0.545469 0.500000 0.767717
O O13 0.794281 0.573107 0.726810
O O14 0.000000 0.500000 0.000000
O O15 0.500000 0.500000 0.000000
O O16 0.500000 0.218938 0.500000
O O17 0.192492 0.278719 0.233505
O O18 0.000000 0.637005 0.000000
#
# Coordination Sequence:
#
# PCOD9151874 Si02
#       8
#     4   4   4   2   2   2   4   4
#     4  10  21  35  56  82 111 150 190 236 289 343
#     4  10  22  40  65  91 116 155 195 237 295 348
#     4   9  16  29  47  73 104 138 187 232 284 342
#     4  10  21  40  64  89 122 152 192 241 288 348
#     4   8  14  26  45  70 102 134 182 230 274 336
#     4   8  14  24  43  66  98 139 175 232 285 331
#     4  10  22  36  53  82 116 146 190 235 287 349
#     4   9  17  30  50  76 103 143 185 230 283 336
#
# _framework density 22.770931000000001
#
# number of rings (size 3 to 8) (size 9 to 14) (size 15 to 20)
#    0.000    2.615    0.769    0.692    2.154    1.538 
#    0.000    0.769    0.000    2.308    0.000    0.000 
#    0.000    0.000    0.000    0.000    0.000    0.000 
#
# Total GULP energy -144757.888084 kJ/mol
# GULP energy per Si atom -5567.611080 kJ/mol
# Density = 2.271910 g / cm^3
# Si number density = 22.770931 Si / 1000 Ang^3
#
#
#
# Elastic Constant Matrix: (Units=GPa)
#
#
# Indices 1 2 3 4 5 6 
#
# 1 77.1736 2.4275 -23.5121 0.0000 6.0469 0.0000
# 2 2.4275 217.8349 35.9457 0.0000 8.2206 0.0000
# 3 -23.5121 35.9457 53.8437 0.0000 7.5199 0.0000
# 4 0.0000 0.0000 0.0000 -2.5056 0.0000 20.8844
# 5 6.0469 8.2206 7.5199 0.0000 15.3418 0.0000
# 6 0.0000 0.0000 0.0000 20.8844 0.0000 2.5174
#
#
#
# Elastic Compliance Matrix: (Units=1/GPa)
#
#
# Indices 1 2 3 4 5 6 
#
# 1 0.016811 -0.001396 0.009762 0.000000 -0.010663 0.000000
# 2 -0.001396 0.005294 -0.004105 0.000000 -0.000274 0.000000
# 3 0.009762 -0.004105 0.027702 0.000000 -0.015226 0.000000
# 4 0.000000 0.000000 0.000000 -0.005690 0.000000 0.047200
# 5 -0.010663 -0.000274 -0.015226 0.000000 0.076995 0.000000
# 6 0.000000 0.000000 0.000000 0.047200 0.000000 0.005663
#
#
# Mechanical properties :
#
#
# Convention : Reuss Voigt Hill
#
# Bulk Modulus (GPa) = 17.14394 42.06380 29.60387
# Shear Modulus (GPa) = 36.31151 25.33678 30.82414
#
# Velocity S-wave (km/s) = 3.99763 3.33931 3.68321
# Velocity P-wave (km/s) = 5.37152 5.77760 5.57826
#
# Compressibility (1/GPa) = 0.05832966
#
# Stress axis : x y z
#
# Youngs Moduli (GPa) = 59.48338 188.89338 36.09787
#
# Poissons Ratio (x) = 0.26366 -0.35239
# Poissons Ratio (y) = 0.08303 0.14820
# Poissons Ratio (z) = -0.58069 0.77549
#
# Static dielectric constant tensor:
#      x y z
#    x 1.605170 0.000000 -0.058540 
#    y 0.000000 2.104950 0.000000 
#    z -0.058540 0.000000 1.780950 
# 
# From -- ./inp_files/43340.got.cif
#   From: 2010.05.17/outbox.cif.g08.bks.cpg/sg10_22_cif.got.tgz:43340.got - 2010.06.03 11:33:40.
