data_PCOD9151899
_publ_section_title
;
Structure prediction by ZEFSAII (Michael W. Deem and Ramdas Pophale) SiO2 
 PCOD9151899
Probable space group: P 2/M
;
_chemical_formula_sum "Si O2"
_cell_formula_units_Z 30
_cell_length_a 5.779400
_cell_length_b 13.797326
_cell_length_c 17.035890
_cell_angle_alpha 90.000000
_cell_angle_beta 121.110842
_cell_angle_gamma 90.000000
_cell_volume 1163.060138
_symmetry_space_group_name_H-M "P 2/M"
_symmetry_group_IT_number 10
_symmetry_cell_setting 'monoclinic'
loop_
_space_group_symop_operation_xyz
x,y,z
-x,y,-z
-x,-y,-z
x,-y,z
loop_
_atom_site_type_symbol
_atom_site_label
_atom_site_fract_x
_atom_site_fract_y
_atom_site_fract_z
Si Si1 0.791708 0.384583 0.697098
Si Si2 0.361310 0.393440 0.056718
Si Si3 0.068416 0.112344 0.156293
Si Si4 0.762682 0.750683 0.189284
Si Si5 0.554229 0.886998 0.620953
Si Si6 0.079178 0.880516 0.636881
Si Si7 0.842087 0.383484 0.396169
Si Si8 0.000000 0.775309 0.000000
O O1 0.815796 0.500000 0.718335
O O2 0.476469 0.355444 0.650879
O O3 0.965993 0.312817 0.780557
O O4 0.956638 0.367920 0.643318
O O5 0.274718 0.500000 0.074176
O O6 0.541336 0.334234 0.150631
O O7 0.179226 0.306573 0.991633
O O8 0.500000 0.414950 0.000000
O O9 0.268585 0.120053 0.266667
O O10 0.157742 0.161055 0.090780
O O11 0.787246 0.165428 0.128765
O O12 0.026570 0.000000 0.135997
O O13 0.781423 0.815317 0.271061
O O14 0.763978 0.852663 0.591366
O O15 0.254990 0.855155 0.591758
O O16 0.518312 0.000000 0.597104
O O17 0.099290 0.000000 0.652690
O O18 0.824204 0.500000 0.397034
O O19 0.000000 0.348142 0.500000
#
# Coordination Sequence:
#
# PCOD9151899 Si02
#       8
#     4   4   4   4   4   4   4   2
#     4  10  21  35  57  92 124 162 206 243 297 364
#     4  11  24  42  57  77 107 152 211 261 310 373
#     4  10  21  37  58  84 112 144 195 260 328 391
#     4  11  21  38  57  80 118 154 198 260 314 363
#     4   8  15  28  45  67  93 126 164 217 284 352
#     4   9  17  30  50  73 103 139 181 232 296 361
#     4   9  18  36  61  90 128 164 195 238 295 364
#     4  12  22  40  62  82 100 148 206 268 332 390
#
# _framework density 25.794025000000001
#
# number of rings (size 3 to 8) (size 9 to 14) (size 15 to 20)
#    0.000    2.133    1.333    3.200    0.000    4.800 
#    0.000    4.000    0.000    0.000    0.000    0.000 
#    0.000   12.800    0.000    0.000    0.000    0.000 
#
# Total GULP energy -167058.147122 kJ/mol
# GULP energy per Si atom -5568.604904 kJ/mol
# Density = 2.573532 g / cm^3
# Si number density = 25.794025 Si / 1000 Ang^3
#
#
#
# Elastic Constant Matrix: (Units=GPa)
#
#
# Indices 1 2 3 4 5 6 
#
# 1 183.2652 41.8599 41.3344 0.0000 0.1073 0.0000
# 2 41.8599 189.4088 42.7113 0.0000 4.6517 0.0000
# 3 41.3344 42.7113 80.9230 0.0000 2.4394 0.0000
# 4 0.0000 0.0000 0.0000 16.0752 0.0000 -3.6034
# 5 0.1073 4.6517 2.4394 0.0000 32.1159 0.0000
# 6 0.0000 0.0000 0.0000 -3.6034 0.0000 35.5793
#
#
#
# Elastic Compliance Matrix: (Units=1/GPa)
#
#
# Indices 1 2 3 4 5 6 
#
# 1 0.006263 -0.000758 -0.002808 0.000000 0.000302 0.000000
# 2 -0.000758 0.006097 -0.002811 0.000000 -0.000667 0.000000
# 3 -0.002808 -0.002811 0.015298 0.000000 -0.000745 0.000000
# 4 0.000000 0.000000 0.000000 0.063653 0.000000 0.006447
# 5 0.000302 -0.000667 -0.000745 0.000000 0.031289 0.000000
# 6 0.000000 0.000000 0.000000 0.006447 0.000000 0.028759
#
#
# Mechanical properties :
#
#
# Convention : Reuss Voigt Hill
#
# Bulk Modulus (GPa) = 67.09608 78.37870 72.73739
# Shear Modulus (GPa) = 29.57158 38.60017 34.08587
#
# Velocity S-wave (km/s) = 3.38960 3.87263 3.63914
# Velocity P-wave (km/s) = 6.43334 7.10272 6.77630
#
# Compressibility (1/GPa) = 0.01490400
#
# Stress axis : x y z
#
# Youngs Moduli (GPa) = 159.67007 164.00462 65.36961
#
# Poissons Ratio (x) = 0.12438 0.18355
# Poissons Ratio (y) = 0.12109 0.18374
# Poissons Ratio (z) = 0.44833 0.46097
#
# Static dielectric constant tensor:
#      x y z
#    x 2.055970 0.000000 -0.003080 
#    y 0.000000 1.961980 0.000000 
#    z -0.003080 0.000000 2.120330 
# 
# From -- ./inp_files/81377.got.cif
#   From: 2010.05.17/outbox.cif.g08.bks.cpg/sg10_41_cif.got.tgz:81377.got - 2010.06.03 11:33:40.
