data_PCOD9151857
_publ_section_title
;
Structure prediction by ZEFSAII (Michael W. Deem and Ramdas Pophale) SiO2 
 PCOD9151857
Probable space group: P 2/M
;
_chemical_formula_sum "Si O2"
_cell_formula_units_Z 28
_cell_length_a 7.249628
_cell_length_b 15.825732
_cell_length_c 10.884756
_cell_angle_alpha 90.000000
_cell_angle_beta 75.798845
_cell_angle_gamma 90.000000
_cell_volume 1210.652055
_symmetry_space_group_name_H-M "P 2/M"
_symmetry_group_IT_number 10
_symmetry_cell_setting 'monoclinic'
loop_
_space_group_symop_operation_xyz
x,y,z
-x,y,-z
-x,-y,-z
x,-y,z
loop_
_atom_site_type_symbol
_atom_site_label
_atom_site_fract_x
_atom_site_fract_y
_atom_site_fract_z
Si Si1 0.788952 0.719179 0.470813
Si Si2 0.735206 0.592737 0.065088
Si Si3 0.323698 0.239783 0.092065
Si Si4 0.374252 0.638459 0.280531
Si Si5 0.047283 0.407444 0.734811
Si Si6 0.957641 0.090811 0.860556
Si Si7 0.823286 0.907197 0.430445
O O1 0.652829 0.659121 0.573222
O O2 0.834677 0.670275 0.338473
O O3 0.726645 0.816206 0.468696
O O4 0.000000 0.719872 0.500000
O O5 0.727229 0.500000 0.004669
O O6 0.554956 0.594206 0.190230
O O7 0.915202 0.596367 0.126524
O O8 0.712158 0.675309 0.983555
O O9 0.380062 0.269548 0.217064
O O10 0.152010 0.177776 0.133495
O O11 0.500000 0.193986 0.000000
O O12 0.172375 0.600157 0.268717
O O13 0.114609 0.500000 0.680191
O O14 0.110158 0.094457 0.724132
O O15 0.856683 0.000000 0.852948
O O16 0.000000 0.088672 0.000000
O O17 0.000000 0.906999 0.500000
O O18 0.730633 0.000000 0.464531
#
# Coordination Sequence:
#
# PCOD9151857 Si02
#       7
#     4   4   4   4   4   4   4
#     4   9  18  32  54  82 111 143 189 236 285 342
#     4  10  23  39  55  82 116 154 199 238 286 349
#     4  10  22  37  56  80 112 151 192 235 291 339
#     4  10  21  37  56  81 114 150 188 241 287 340
#     4  10  21  35  55  81 107 147 190 233 290 345
#     4  10  21  35  58  90 118 150 192 240 297 348
#     4   9  17  32  55  85 116 149 190 234 286 353
#
# _framework density 23.128032999999999
#
# number of rings (size 3 to 8) (size 9 to 14) (size 15 to 20)
#    0.000    2.286    0.000    3.000    4.000    7.143 
#    0.000    2.857    0.000    0.857    0.000    1.000 
#    0.000    0.571    0.000    0.000    0.000    0.000 
#
# Total GULP energy -156089.309527 kJ/mol
# GULP energy per Si atom -5574.618197 kJ/mol
# Density = 2.307539 g / cm^3
# Si number density = 23.128033 Si / 1000 Ang^3
#
#
#
# Elastic Constant Matrix: (Units=GPa)
#
#
# Indices 1 2 3 4 5 6 
#
# 1 57.3532 10.4808 12.7689 0.0000 0.4139 0.0000
# 2 10.4808 118.7430 22.0218 0.0000 -12.0721 0.0000
# 3 12.7689 22.0218 94.0523 0.0000 8.3346 0.0000
# 4 0.0000 0.0000 0.0000 24.1903 0.0000 -11.0664
# 5 0.4139 -12.0721 8.3346 0.0000 26.2369 0.0000
# 6 0.0000 0.0000 0.0000 -11.0664 0.0000 4.3335
#
#
#
# Elastic Compliance Matrix: (Units=1/GPa)
#
#
# Indices 1 2 3 4 5 6 
#
# 1 0.018141 -0.001216 -0.002164 0.000000 -0.000158 0.000000
# 2 -0.001216 0.009527 -0.002527 0.000000 0.005205 0.000000
# 3 -0.002164 -0.002527 0.011954 0.000000 -0.004926 0.000000
# 4 0.000000 0.000000 0.000000 -0.245716 0.000000 -0.627478
# 5 -0.000158 0.005205 -0.004926 0.000000 0.042077 0.000000
# 6 0.000000 0.000000 0.000000 -0.627478 0.000000 -1.371615
#
#
# Mechanical properties :
#
#
# Convention : Reuss Voigt Hill
#
# Bulk Modulus (GPa) = 35.96060 40.07684 38.01872
# Shear Modulus (GPa) = -3.30131 25.94395 11.32132
#
# Velocity S-wave (km/s) = -1.19604 3.35289 2.21488
# Velocity P-wave (km/s) = 3.69796 5.68815 4.79739
#
# Compressibility (1/GPa) = 0.02780821
#
# Stress axis : x y z
#
# Youngs Moduli (GPa) = 55.12384 104.96829 83.65145
#
# Poissons Ratio (x) = 0.12763 0.18104
# Poissons Ratio (y) = 0.06703 0.21137
# Poissons Ratio (z) = 0.11930 0.26524
#
# Static dielectric constant tensor:
#      x y z
#    x 1.985250 0.000000 -0.076960 
#    y 0.000000 1.843620 0.000000 
#    z -0.076960 0.000000 1.963380 
# 
# From -- ./inp_files/42676.got.cif
#   From: 2010.05.17/outbox.cif.g08.bks.cpg/sg10_22_cif.got.tgz:42676.got - 2010.06.03 11:33:40.
