data_PCOD9151718
_publ_section_title
;
Structure prediction by ZEFSAII (Michael W. Deem and Ramdas Pophale) SiO2 
 PCOD9151718
Probable space group: P 2/M
;
_chemical_formula_sum "Si O2"
_cell_formula_units_Z 32
_cell_length_a 24.940918
_cell_length_b 14.278236
_cell_length_c 9.510474
_cell_angle_alpha 90.000000
_cell_angle_beta 149.930116
_cell_angle_gamma 90.000000
_cell_volume 1696.974649
_symmetry_space_group_name_H-M "P 2/M"
_symmetry_group_IT_number 10
_symmetry_cell_setting 'monoclinic'
loop_
_space_group_symop_operation_xyz
x,y,z
-x,y,-z
-x,-y,-z
x,-y,z
loop_
_atom_site_type_symbol
_atom_site_label
_atom_site_fract_x
_atom_site_fract_y
_atom_site_fract_z
Si Si1 0.838221 0.710736 0.363289
Si Si2 0.329911 0.894785 0.279337
Si Si3 0.727246 0.891886 0.168067
Si Si4 0.390077 0.612561 0.672293
Si Si5 0.187440 0.610697 0.400371
Si Si6 0.946195 0.389306 0.171518
Si Si7 0.259058 0.695898 0.142522
Si Si8 0.540148 0.111614 0.940361
O O1 0.824390 0.821080 0.361189
O O2 0.821401 0.660600 0.472519
O O3 0.952290 0.674931 0.566426
O O4 0.750144 0.683314 0.045913
O O5 0.255460 0.808304 0.156294
O O6 0.443578 0.879199 0.611056
O O7 0.292734 0.000000 0.233515
O O8 0.336914 0.892146 0.125924
O O9 0.757762 0.000000 0.264704
O O10 0.649425 0.854764 0.115133
O O11 0.385574 0.500000 0.643525
O O12 0.292807 0.640737 0.553794
O O13 0.363254 0.658840 0.461283
O O14 0.500000 0.635170 0.000000
O O15 0.196114 0.500000 0.445073
O O16 0.088341 0.624231 0.069437
O O17 0.968426 0.500000 0.244487
O O18 0.841947 0.358105 0.021319
O O19 0.558171 0.000000 0.000775
O O20 0.500000 0.149006 0.000000
#
# Coordination Sequence:
#
# PCOD9151718 Si02
#       8
#     4   4   4   4   4   4   4   4
#     4  11  21  33  54  81 105 134 178 228 268 306
#     4   9  18  33  51  73 106 144 177 214 264 318
#     4   9  19  35  51  72 108 147 178 212 261 319
#     4   9  19  37  56  74 105 146 176 206 264 334
#     4   9  19  35  55  78 102 132 170 212 265 326
#     4  10  21  38  58  79 106 139 174 220 279 330
#     4  10  21  34  53  81 106 135 179 224 266 313
#     4   9  17  30  51  77 101 132 178 224 260 300
#
# _framework density 18.857087
#
# number of rings (size 3 to 8) (size 9 to 14) (size 15 to 20)
#    0.000    2.500    0.000    2.625    0.000    8.500 
#    0.000    2.500    0.000    6.750    0.000    0.000 
#    0.000    0.000    0.000    0.000    0.000    0.000 
#
# Total GULP energy -178342.302938 kJ/mol
# GULP energy per Si atom -5573.196967 kJ/mol
# Density = 1.881417 g / cm^3
# Si number density = 18.857087 Si / 1000 Ang^3
#
#
#
# Elastic Constant Matrix: (Units=GPa)
#
#
# Indices 1 2 3 4 5 6 
#
# 1 49.8961 35.1148 22.8085 0.0000 -9.2070 0.0000
# 2 35.1148 78.9695 40.0638 0.0000 -2.2562 0.0000
# 3 22.8085 40.0638 86.0869 0.0000 -6.8889 0.0000
# 4 0.0000 0.0000 0.0000 133.7573 0.0000 -62.9423
# 5 -9.2070 -2.2562 -6.8889 0.0000 26.4553 0.0000
# 6 0.0000 0.0000 0.0000 -62.9423 0.0000 59.9802
#
#
#
# Elastic Compliance Matrix: (Units=1/GPa)
#
#
# Indices 1 2 3 4 5 6 
#
# 1 0.031674 -0.013013 -0.001575 0.000000 0.009503 0.000000
# 2 -0.013013 0.021933 -0.007121 0.000000 -0.004513 0.000000
# 3 -0.001575 -0.007121 0.015580 0.000000 0.002901 0.000000
# 4 0.000000 0.000000 0.000000 0.014770 0.000000 0.015499
# 5 0.009503 -0.004513 0.002901 0.000000 0.041478 0.000000
# 6 0.000000 0.000000 0.000000 0.015499 0.000000 0.032937
#
#
# Mechanical properties :
#
#
# Convention : Reuss Voigt Hill
#
# Bulk Modulus (GPa) = 38.80792 45.65853 42.23323
# Shear Modulus (GPa) = 23.76671 51.83624 37.80147
#
# Velocity S-wave (km/s) = 3.55401 5.24868 4.48217
# Velocity P-wave (km/s) = 6.12095 7.81006 7.01652
#
# Compressibility (1/GPa) = 0.02576794
#
# Stress axis : x y z
#
# Youngs Moduli (GPa) = 31.57207 45.59252 64.18657
#
# Poissons Ratio (x) = 0.59332 0.10110
# Poissons Ratio (y) = 0.41086 0.45706
# Poissons Ratio (z) = 0.04973 0.32465
#
# Static dielectric constant tensor:
#      x y z
#    x 1.671180 0.000000 -0.015640 
#    y 0.000000 1.673010 0.000000 
#    z -0.015640 0.000000 1.666970 
# 
# From -- ./inp_files/36410.got.cif
#   From: 2010.05.17/outbox.cif.g08.bks.cpg/sg10_19_cif.got.tgz:36410.got - 2010.06.03 11:33:40.
