data_PCOD9151324
_publ_section_title
;
Structure prediction by ZEFSAII (Michael W. Deem and Ramdas Pophale) SiO2 
 PCOD9151324
Probable space group: P 2/M
;
_chemical_formula_sum "Si O2"
_cell_formula_units_Z 15
_cell_length_a 9.617401
_cell_length_b 14.117426
_cell_length_c 5.520903
_cell_angle_alpha 90.000000
_cell_angle_beta 55.120556
_cell_angle_gamma 90.000000
_cell_volume 614.930874
_symmetry_space_group_name_H-M "P 2/M"
_symmetry_group_IT_number 10
_symmetry_cell_setting 'monoclinic'
loop_
_space_group_symop_operation_xyz
x,y,z
-x,y,-z
-x,-y,-z
x,-y,z
loop_
_atom_site_type_symbol
_atom_site_label
_atom_site_fract_x
_atom_site_fract_y
_atom_site_fract_z
Si Si1 0.093138 0.639079 0.657104
Si Si2 0.435597 0.193643 0.819733
Si Si3 0.500000 0.000000 0.000000
Si Si4 0.396954 0.500000 0.352684
Si Si5 0.961214 0.154129 0.788672
O O1 0.273585 0.590811 0.477789
O O2 0.082809 0.753399 0.667228
O O3 0.000000 0.610662 0.500000
O O4 0.000000 0.610896 0.000000
O O5 0.500000 0.231404 0.500000
O O6 0.500000 0.244724 0.000000
O O7 0.232488 0.187963 0.021680
O O8 0.501705 0.085777 0.793867
O O9 0.500000 0.500000 0.500000
O O10 0.500000 0.500000 0.000000
O O11 0.000000 0.102476 0.500000
O O12 0.000000 0.103268 0.000000
#
# Coordination Sequence:
#
# PCOD9151324 Si02
#       5
#     4   4   1   2   4
#     4  10  21  41  63  86 124 165 198 249 307 359
#     4  10  20  38  63  88 120 159 201 251 300 358
#     4   8  22  36  66  86 130 146 206 242 322 328
#     4  12  24  40  64  94 122 158 208 254 304 360
#     4  10  21  39  60  88 124 162 203 244 307 357
#
# _framework density 24.392984999999999
#
# number of rings (size 3 to 8) (size 9 to 14) (size 15 to 20)
#    0.800    1.067    0.000    4.400    0.000    0.000 
#    0.000   33.333    0.000    0.000    0.000    0.000 
#    0.000    0.000    0.000    0.000    0.000    0.000 
#
# Total GULP energy -83600.312711 kJ/mol
# GULP energy per Si atom -5573.354181 kJ/mol
# Density = 2.433747 g / cm^3
# Si number density = 24.392985 Si / 1000 Ang^3
#
#
#
# Elastic Constant Matrix: (Units=GPa)
#
#
# Indices 1 2 3 4 5 6 
#
# 1 213.9467 19.2283 111.1711 0.0000 52.4698 0.0000
# 2 19.2283 120.7941 24.7384 0.0000 5.3561 0.0000
# 3 111.1711 24.7384 247.9616 0.0000 49.1895 0.0000
# 4 0.0000 0.0000 0.0000 5.9636 0.0000 -17.3606
# 5 52.4698 5.3561 49.1895 0.0000 59.0660 0.0000
# 6 0.0000 0.0000 0.0000 -17.3606 0.0000 13.8351
#
#
#
# Elastic Compliance Matrix: (Units=1/GPa)
#
#
# Indices 1 2 3 4 5 6 
#
# 1 0.006905 -0.000459 -0.002206 0.000000 -0.004255 0.000000
# 2 -0.000459 0.008482 -0.000681 0.000000 0.000206 0.000000
# 3 -0.002206 -0.000681 0.005617 0.000000 -0.002656 0.000000
# 4 0.000000 0.000000 0.000000 -0.063208 0.000000 -0.079315
# 5 -0.004255 0.000206 -0.002656 0.000000 0.022904 0.000000
# 6 0.000000 0.000000 0.000000 -0.079315 0.000000 -0.027246
#
#
# Mechanical properties :
#
#
# Convention : Reuss Voigt Hill
#
# Bulk Modulus (GPa) = 69.87214 99.21976 84.54595
# Shear Modulus (GPa) = -142.51887 44.27726 -49.12080
#
# Velocity S-wave (km/s) = -7.65199 4.26510 -4.49232
# Velocity P-wave (km/s) = 7.02596 8.06341 2.79772
#
# Compressibility (1/GPa) = 0.01431186
#
# Stress axis : x y z
#
# Youngs Moduli (GPa) = 144.81956 117.89689 178.03732
#
# Poissons Ratio (x) = 0.05408 0.39274
# Poissons Ratio (y) = 0.06643 0.12131
# Poissons Ratio (z) = 0.31946 0.08033
#
# Static dielectric constant tensor:
#      x y z
#    x 1.998280 0.000000 0.069560 
#    y 0.000000 1.888840 0.000000 
#    z 0.069560 0.000000 1.991300 
# 
# From -- ./inp_files/3917.got.cif
#   From: 2010.05.17/outbox.cif.g08.bks.cpg/sg10_2_cif.got.tgz:3917.got - 2010.06.03 11:33:40.
