data_PCOD9151722
_publ_section_title
;
Structure prediction by ZEFSAII (Michael W. Deem and Ramdas Pophale) SiO2 
 PCOD9151722
Probable space group: P 2/M
;
_chemical_formula_sum "Si O2"
_cell_formula_units_Z 30
_cell_length_a 11.412462
_cell_length_b 14.556488
_cell_length_c 13.358660
_cell_angle_alpha 90.000000
_cell_angle_beta 128.771914
_cell_angle_gamma 90.000000
_cell_volume 1730.197824
_symmetry_space_group_name_H-M "P 2/M"
_symmetry_group_IT_number 10
_symmetry_cell_setting 'monoclinic'
loop_
_space_group_symop_operation_xyz
x,y,z
-x,y,-z
-x,-y,-z
x,-y,z
loop_
_atom_site_type_symbol
_atom_site_label
_atom_site_fract_x
_atom_site_fract_y
_atom_site_fract_z
Si Si1 0.663040 0.892435 0.138496
Si Si2 0.747823 0.396243 0.396745
Si Si3 0.959283 0.396841 0.314160
Si Si4 0.677396 0.102009 0.763903
Si Si5 0.000000 0.160878 0.000000
Si Si6 0.400873 0.796329 0.685977
Si Si7 0.931045 0.786601 0.181338
Si Si8 0.227662 0.891351 0.409984
O O1 0.656788 0.839108 0.240652
O O2 0.783706 0.843969 0.131450
O O3 0.700461 0.000000 0.173703
O O4 0.500000 0.887650 0.000000
O O5 0.684919 0.500000 0.370625
O O6 0.873368 0.384931 0.550603
O O7 0.633338 0.311945 0.336732
O O8 0.844405 0.391322 0.346041
O O9 0.948622 0.500000 0.266601
O O10 0.923479 0.315244 0.220655
O O11 0.574215 0.176165 0.762982
O O12 0.682698 0.117250 0.647223
O O13 0.614472 0.000000 0.750369
O O14 0.849242 0.105204 0.892785
O O15 0.961469 0.215601 0.079686
O O16 0.313723 0.845248 0.547839
O O17 0.070071 0.840246 0.307409
O O18 0.205214 0.000000 0.415318
#
# Coordination Sequence:
#
# PCOD9151722 Si02
#       8
#     4   4   4   4   2   4   4   4
#     4  11  24  37  52  79 115 153 187 223 271 330
#     4   9  18  33  57  88 114 143 179 219 280 349
#     4   9  17  34  58  83 113 145 182 225 277 340
#     4  10  21  37  56  79 111 155 197 225 263 325
#     4  10  23  38  59  76 104 156 203 230 259 320
#     4  12  20  34  58  84 117 142 177 232 289 329
#     4  11  20  37  56  81 111 145 189 233 277 327
#     4  10  21  34  53  83 115 149 185 226 273 330
#
# _framework density 17.339058000000001
#
# number of rings (size 3 to 8) (size 9 to 14) (size 15 to 20)
#    0.000    1.733    2.667    3.800    0.000    4.267 
#    0.000    1.667    0.000    8.800    0.000    0.000 
#    0.000    0.000    0.000    0.000    0.000    0.000 
#
# Total GULP energy -167448.192522 kJ/mol
# GULP energy per Si atom -5581.606417 kJ/mol
# Density = 1.729959 g / cm^3
# Si number density = 17.339058 Si / 1000 Ang^3
#
#
#
# Elastic Constant Matrix: (Units=GPa)
#
#
# Indices 1 2 3 4 5 6 
#
# 1 78.9048 51.6472 24.7595 0.0000 8.7105 0.0000
# 2 51.6472 155.8176 35.5869 0.0000 0.7149 0.0000
# 3 24.7595 35.5869 74.0027 0.0000 -8.5014 0.0000
# 4 0.0000 0.0000 0.0000 4.4900 0.0000 -1.6952
# 5 8.7105 0.7149 -8.5014 0.0000 24.9898 0.0000
# 6 0.0000 0.0000 0.0000 -1.6952 0.0000 22.5271
#
#
#
# Elastic Compliance Matrix: (Units=1/GPa)
#
#
# Indices 1 2 3 4 5 6 
#
# 1 0.018218 -0.004950 -0.004608 0.000000 -0.007776 0.000000
# 2 -0.004950 0.008605 -0.002406 0.000000 0.000661 0.000000
# 3 -0.004608 -0.002406 0.017071 0.000000 0.007483 0.000000
# 4 0.000000 0.000000 0.000000 0.229230 0.000000 0.017250
# 5 -0.007776 0.000661 0.007483 0.000000 0.045253 0.000000
# 6 0.000000 0.000000 0.000000 0.017250 0.000000 0.045689
#
#
# Mechanical properties :
#
#
# Convention : Reuss Voigt Hill
#
# Bulk Modulus (GPa) = 50.08560 59.19025 54.63792
# Shear Modulus (GPa) = 12.66940 23.51683 18.09312
#
# Velocity S-wave (km/s) = 2.70605 3.68678 3.23381
# Velocity P-wave (km/s) = 6.22192 7.23424 6.74709
#
# Compressibility (1/GPa) = 0.01996582
#
# Stress axis : x y z
#
# Youngs Moduli (GPa) = 54.89002 116.21053 58.57778
#
# Poissons Ratio (x) = 0.57530 0.26993
# Poissons Ratio (y) = 0.27173 0.14093
# Poissons Ratio (z) = 0.25294 0.27958
#
# Static dielectric constant tensor:
#      x y z
#    x 1.587760 0.000000 0.009310 
#    y 0.000000 1.568130 0.000000 
#    z 0.009310 0.000000 1.592050 
# 
# From -- ./inp_files/47643.got.cif
#   From: 2010.05.17/outbox.cif.g08.bks.cpg/sg10_24_cif.got.tgz:47643.got - 2010.06.03 11:33:40.
