data_PCOD9151200
_publ_section_title
;
Structure prediction by ZEFSAII (Michael W. Deem and Ramdas Pophale) SiO2 
 PCOD9151200
Probable space group: P 2/M
;
_chemical_formula_sum "Si O2"
_cell_formula_units_Z 20
_cell_length_a 9.355591
_cell_length_b 12.965389
_cell_length_c 6.844296
_cell_angle_alpha 90.000000
_cell_angle_beta 115.322242
_cell_angle_gamma 90.000000
_cell_volume 750.436443
_symmetry_space_group_name_H-M "P 2/M"
_symmetry_group_IT_number 10
_symmetry_cell_setting 'monoclinic'
loop_
_space_group_symop_operation_xyz
x,y,z
-x,y,-z
-x,-y,-z
x,-y,z
loop_
_atom_site_type_symbol
_atom_site_label
_atom_site_fract_x
_atom_site_fract_y
_atom_site_fract_z
Si Si1 0.808850 0.334845 0.206545
Si Si2 0.485735 0.107425 0.260968
Si Si3 0.872357 0.113067 0.098333
Si Si4 0.844500 0.386678 0.675369
Si Si5 0.580576 0.674845 0.746842
O O1 0.852184 0.212308 0.225183
O O2 0.801060 0.374138 0.422436
O O3 0.967654 0.381321 0.205274
O O4 0.656283 0.368097 0.990616
O O5 0.500000 0.103789 0.500000
O O6 0.524817 0.227168 0.245334
O O7 0.564123 0.000000 0.233636
O O8 0.304005 0.103695 0.092030
O O9 0.912044 0.000000 0.209864
O O10 0.000000 0.129289 0.000000
O O11 0.792369 0.500000 0.713844
O O12 0.751664 0.300793 0.743754
O O13 0.500000 0.629590 0.500000
#
# Coordination Sequence:
#
# PCOD9151200 Si02
#       5
#     4   4   4   4   4
#     4  10  20  38  59  81 112 147 184 225 270 330
#     4   8  14  27  49  76 106 140 173 205 252 319
#     4   9  16  28  51  82 113 143 175 217 269 322
#     4  11  24  40  58  79 105 145 194 236 277 329
#     4  10  21  37  59  86 113 143 181 229 283 331
#
# _framework density 26.651157999999999
#
# number of rings (size 3 to 8) (size 9 to 14) (size 15 to 20)
#    0.000    2.400    0.000    4.200    0.000    3.600 
#    0.000    4.000    0.000    0.000    0.000   14.000 
#    0.000    0.000    0.000    0.000    0.000    0.000 
#
# Total GULP energy -111446.450328 kJ/mol
# GULP energy per Si atom -5572.322516 kJ/mol
# Density = 2.659050 g / cm^3
# Si number density = 26.651158 Si / 1000 Ang^3
#
#
#
# Elastic Constant Matrix: (Units=GPa)
#
#
# Indices 1 2 3 4 5 6 
#
# 1 109.0879 15.3713 1.5694 0.0000 -8.4839 0.0000
# 2 15.3713 169.0399 13.8249 0.0000 -0.2580 0.0000
# 3 1.5694 13.8249 156.4624 0.0000 6.4844 0.0000
# 4 0.0000 0.0000 0.0000 42.9243 0.0000 8.4652
# 5 -8.4839 -0.2580 6.4844 0.0000 41.5772 0.0000
# 6 0.0000 0.0000 0.0000 8.4652 0.0000 9.3940
#
#
#
# Elastic Compliance Matrix: (Units=1/GPa)
#
#
# Indices 1 2 3 4 5 6 
#
# 1 0.009438 -0.000847 -0.000100 0.000000 0.001936 0.000000
# 2 -0.000847 0.006035 -0.000523 0.000000 -0.000054 0.000000
# 3 -0.000100 -0.000523 0.006481 0.000000 -0.001034 0.000000
# 4 0.000000 0.000000 0.000000 0.028332 0.000000 -0.025531
# 5 0.001936 -0.000054 -0.001034 0.000000 0.024608 0.000000
# 6 0.000000 0.000000 0.000000 -0.025531 0.000000 0.129457
#
#
# Mechanical properties :
#
#
# Convention : Reuss Voigt Hill
#
# Bulk Modulus (GPa) = 52.58829 55.12461 53.85645
# Shear Modulus (GPa) = 23.40497 45.70074 34.55285
#
# Velocity S-wave (km/s) = 2.96665 4.14548 3.60458
# Velocity P-wave (km/s) = 5.61334 6.60621 6.12991
#
# Compressibility (1/GPa) = 0.01901564
#
# Stress axis : x y z
#
# Youngs Moduli (GPa) = 105.95113 165.68771 154.28852
#
# Poissons Ratio (x) = 0.14036 0.01544
# Poissons Ratio (y) = 0.08975 0.08062
# Poissons Ratio (z) = 0.01060 0.08658
#
# Static dielectric constant tensor:
#      x y z
#    x 2.034520 0.000000 0.036030 
#    y 0.000000 2.325030 0.000000 
#    z 0.036030 0.000000 2.090770 
# 
# From -- ./inp_files/24744.got.cif
#   From: 2010.05.17/outbox.cif.g08.bks.cpg/sg10_13_cif.got.tgz:24744.got - 2010.06.03 11:33:40.
