data_PCOD9151958
_publ_section_title
;
Structure prediction by ZEFSAII (Michael W. Deem and Ramdas Pophale) SiO2 
 PCOD9151958
Probable space group: P 2/M
;
_chemical_formula_sum "Si O2"
_cell_formula_units_Z 32
_cell_length_a 9.437350
_cell_length_b 13.729744
_cell_length_c 22.658247
_cell_angle_alpha 90.000000
_cell_angle_beta 142.946619
_cell_angle_gamma 90.000000
_cell_volume 1769.042486
_symmetry_space_group_name_H-M "P 2/M"
_symmetry_group_IT_number 10
_symmetry_cell_setting 'monoclinic'
loop_
_space_group_symop_operation_xyz
x,y,z
-x,y,-z
-x,-y,-z
x,-y,z
loop_
_atom_site_type_symbol
_atom_site_label
_atom_site_fract_x
_atom_site_fract_y
_atom_site_fract_z
Si Si1 0.565551 0.387819 0.624503
Si Si2 0.552727 0.888251 0.437323
Si Si3 0.890919 0.885829 0.900049
Si Si4 0.948563 0.885796 0.701381
Si Si5 0.490457 0.209223 0.302948
Si Si6 0.239058 0.115539 0.907047
Si Si7 0.126774 0.609806 0.386949
Si Si8 0.942449 0.202672 0.375895
O O1 0.581272 0.500000 0.651846
O O2 0.551769 0.307246 0.671794
O O3 0.773508 0.372103 0.645713
O O4 0.337701 0.384451 0.505456
O O5 0.322657 0.850503 0.396462
O O6 0.460234 0.878479 0.339679
O O7 0.793259 0.827508 0.517161
O O8 0.607513 0.000000 0.471021
O O9 0.687742 0.813772 0.809457
O O10 0.096159 0.877628 0.919727
O O11 0.811498 0.000000 0.874675
O O12 0.000000 0.863267 0.000000
O O13 0.083413 0.842216 0.801974
O O14 0.098370 0.869812 0.692412
O O15 0.914050 0.000000 0.700322
O O16 0.751996 0.203304 0.363434
O O17 0.266563 0.000000 0.902328
O O18 0.500000 0.157201 0.000000
O O19 0.034941 0.500000 0.358410
O O20 0.949097 0.691735 0.348187
#
# Coordination Sequence:
#
# PCOD9151958 Si02
#       8
#     4   4   4   4   4   4   4   4
#     4   9  19  37  60  81 106 144 185 228 277 328
#     4  11  22  37  51  71 111 158 193 221 261 319
#     4  10  22  39  57  78 111 150 184 229 283 328
#     4  10  21  36  53  75 106 148 193 231 270 318
#     4  12  23  36  54  82 115 146 186 225 277 335
#     4   9  18  34  56  77  98 134 189 241 276 310
#     4   9  19  36  57  80 107 143 187 230 270 318
#     4  12  24  32  51  82 114 151 183 224 270 323
#
# _framework density 18.088882000000002
#
# number of rings (size 3 to 8) (size 9 to 14) (size 15 to 20)
#    0.000    1.750    2.500    3.000    3.500    4.000 
#    0.000    1.250    0.000    0.375    0.000    0.000 
#    0.000    3.000    0.000    0.000    0.000    0.000 
#
# Total GULP energy -178373.864178 kJ/mol
# GULP energy per Si atom -5574.183256 kJ/mol
# Density = 1.804771 g / cm^3
# Si number density = 18.088882 Si / 1000 Ang^3
#
#
#
# Elastic Constant Matrix: (Units=GPa)
#
#
# Indices 1 2 3 4 5 6 
#
# 1 89.6454 30.4828 33.8556 0.0000 -4.0580 0.0000
# 2 30.4828 90.6960 27.1331 0.0000 1.5652 0.0000
# 3 33.8556 27.1331 99.8366 0.0000 -12.8256 0.0000
# 4 0.0000 0.0000 0.0000 15.5069 0.0000 -9.2433
# 5 -4.0580 1.5652 -12.8256 0.0000 30.4386 0.0000
# 6 0.0000 0.0000 0.0000 -9.2433 0.0000 16.4166
#
#
#
# Elastic Compliance Matrix: (Units=1/GPa)
#
#
# Indices 1 2 3 4 5 6 
#
# 1 0.013756 -0.003543 -0.003640 0.000000 0.000482 0.000000
# 2 -0.003543 0.013043 -0.002633 0.000000 -0.002252 0.000000
# 3 -0.003640 -0.002633 0.012604 0.000000 0.004961 0.000000
# 4 0.000000 0.000000 0.000000 0.097064 0.000000 0.054651
# 5 0.000482 -0.002252 0.004961 0.000000 0.035123 0.000000
# 6 0.000000 0.000000 0.000000 0.054651 0.000000 0.091685
#
#
# Mechanical properties :
#
#
# Convention : Reuss Voigt Hill
#
# Bulk Modulus (GPa) = 50.57741 51.45788 51.01764
# Shear Modulus (GPa) = 17.27135 25.05285 21.16210
#
# Velocity S-wave (km/s) = 3.09334 3.72558 3.42408
# Velocity P-wave (km/s) = 6.38589 6.85679 6.62552
#
# Compressibility (1/GPa) = 0.01977167
#
# Stress axis : x y z
#
# Youngs Moduli (GPa) = 72.69388 76.66903 79.34278
#
# Poissons Ratio (x) = 0.27162 0.28881
# Poissons Ratio (y) = 0.25754 0.20889
# Poissons Ratio (z) = 0.26461 0.20185
#
# Static dielectric constant tensor:
#      x y z
#    x 1.631450 0.000000 -0.002840 
#    y 0.000000 1.640370 0.000000 
#    z -0.002840 0.000000 1.684360 
# 
# From -- ./inp_files/82801.got.cif
#   From: 2010.05.17/outbox.cif.g08.bks.cpg/sg10_42_cif.got.tgz:82801.got - 2010.06.03 11:33:40.
