data_PCOD9151031
_publ_section_title
;
Structure prediction by ZEFSAII (Michael W. Deem and Ramdas Pophale) SiO2 
 PCOD9151031
Probable space group: P 2/M
;
_chemical_formula_sum "Si O2"
_cell_formula_units_Z 28
_cell_length_a 14.247580
_cell_length_b 8.597242
_cell_length_c 20.128003
_cell_angle_alpha 90.000000
_cell_angle_beta 147.546435
_cell_angle_gamma 90.000000
_cell_volume 1323.014152
_symmetry_space_group_name_H-M "P 2/M"
_symmetry_group_IT_number 10
_symmetry_cell_setting 'monoclinic'
loop_
_space_group_symop_operation_xyz
x,y,z
-x,y,-z
-x,-y,-z
x,-y,z
loop_
_atom_site_type_symbol
_atom_site_label
_atom_site_fract_x
_atom_site_fract_y
_atom_site_fract_z
Si Si1 0.766202 0.000000 0.211977
Si Si2 0.845931 0.326773 0.450917
Si Si3 0.480501 0.313032 0.276952
Si Si4 0.418376 0.817513 0.521851
Si Si5 0.198464 0.327621 0.931091
Si Si6 0.969468 0.739569 0.667483
Si Si7 0.605289 0.000000 0.968630
Si Si8 0.120290 0.817537 0.008652
O O1 0.603646 0.000000 0.164425
O O2 0.897832 0.857893 0.288633
O O3 0.671170 0.000000 0.083943
O O4 0.822428 0.500000 0.407119
O O5 0.654230 0.254144 0.342073
O O6 0.899975 0.344767 0.560320
O O7 0.000000 0.249858 0.500000
O O8 0.468204 0.500000 0.262255
O O9 0.503387 0.272501 0.368292
O O10 0.313189 0.229196 0.147447
O O11 0.500000 0.765955 0.500000
O O12 0.207118 0.801413 0.402099
O O13 0.461491 0.000000 0.555174
O O14 0.281721 0.500000 0.988081
O O15 0.088299 0.329026 0.797249
O O16 0.073196 0.292272 0.918734
O O17 0.320293 0.171771 0.007628
O O18 0.108360 0.000000 0.983063
O O19 0.000000 0.791550 0.000000
#
# Coordination Sequence:
#
# PCOD9151031 Si02
#       8
#     2   4   4   4   4   4   2   4
#     4   9  18  36  60  82 130 172 202 269 321 368
#     4   9  19  38  62  90 128 167 205 261 325 383
#     4  10  22  40  61  91 131 165 211 271 321 389
#     4  10  21  37  62  91 124 166 210 259 324 388
#     4  11  23  41  67  95 130 172 219 273 329 388
#     4  10  20  37  61  94 127 165 214 269 315 389
#     4   9  20  40  59  90 128 168 215 267 318 379
#     4  11  25  44  65  90 127 173 221 273 331 392
#
# _framework density 21.163793999999999
#
# number of rings (size 3 to 8) (size 9 to 14) (size 15 to 20)
#    0.000    2.000    1.429    1.286    2.000    3.143 
#    0.000    8.214    0.000    0.000    0.000    0.000 
#    0.000    0.000    0.000    0.000    0.000    0.000 
#
# Total GULP energy -155890.033085 kJ/mol
# GULP energy per Si atom -5567.501182 kJ/mol
# Density = 2.111562 g / cm^3
# Si number density = 21.163794 Si / 1000 Ang^3
#
#
#
# Elastic Constant Matrix: (Units=GPa)
#
#
# Indices 1 2 3 4 5 6 
#
# 1 119.2850 30.3545 40.3198 0.0000 5.9074 0.0000
# 2 30.3545 85.1767 17.3866 0.0000 3.0653 0.0000
# 3 40.3198 17.3866 75.9887 0.0000 8.3690 0.0000
# 4 0.0000 0.0000 0.0000 13.0241 0.0000 -36.8763
# 5 5.9074 3.0653 8.3690 0.0000 28.9768 0.0000
# 6 0.0000 0.0000 0.0000 -36.8763 0.0000 3.3260
#
#
#
# Elastic Compliance Matrix: (Units=1/GPa)
#
#
# Indices 1 2 3 4 5 6 
#
# 1 0.010829 -0.002811 -0.005053 0.000000 -0.000451 0.000000
# 2 -0.002811 0.013053 -0.001452 0.000000 -0.000388 0.000000
# 3 -0.005053 -0.001452 0.016570 0.000000 -0.003602 0.000000
# 4 0.000000 0.000000 0.000000 -0.002526 0.000000 -0.028010
# 5 -0.000451 -0.000388 -0.003602 0.000000 0.035684 0.000000
# 6 0.000000 0.000000 0.000000 -0.028010 0.000000 -0.009893
#
#
# Mechanical properties :
#
#
# Convention : Reuss Voigt Hill
#
# Bulk Modulus (GPa) = 45.83234 50.73026 48.28130
# Shear Modulus (GPa) = 55.78995 21.89135 38.84065
#
# Velocity S-wave (km/s) = 5.13987 3.21966 4.28862
# Velocity P-wave (km/s) = 7.54502 6.15175 6.88373
#
# Compressibility (1/GPa) = 0.02181865
#
# Stress axis : x y z
#
# Youngs Moduli (GPa) = 92.34452 76.61312 60.35051
#
# Poissons Ratio (x) = 0.21540 0.30495
# Poissons Ratio (y) = 0.25963 0.08763
# Poissons Ratio (z) = 0.46661 0.11124
#
# Static dielectric constant tensor:
#      x y z
#    x 1.835010 0.000000 0.022850 
#    y 0.000000 1.787720 0.000000 
#    z 0.022850 0.000000 1.752880 
# 
# From -- ./inp_files/85007.got.cif
#   From: 2010.05.17/outbox.cif.g08.bks.cpg/sg10_43_cif.got.tgz:85007.got - 2010.06.03 11:33:40.
