data_PCOD9151417
_publ_section_title
;
Structure prediction by ZEFSAII (Michael W. Deem and Ramdas Pophale) SiO2 
 PCOD9151417
Probable space group: P 2/M
;
_chemical_formula_sum "Si O2"
_cell_formula_units_Z 22
_cell_length_a 12.233714
_cell_length_b 15.419070
_cell_length_c 6.504295
_cell_angle_alpha 90.000000
_cell_angle_beta 118.717760
_cell_angle_gamma 90.000000
_cell_volume 1076.006695
_symmetry_space_group_name_H-M "P 2/M"
_symmetry_group_IT_number 10
_symmetry_cell_setting 'monoclinic'
loop_
_space_group_symop_operation_xyz
x,y,z
-x,y,-z
-x,-y,-z
x,-y,z
loop_
_atom_site_type_symbol
_atom_site_label
_atom_site_fract_x
_atom_site_fract_y
_atom_site_fract_z
Si Si1 0.308793 0.805722 0.515972
Si Si2 0.143323 0.099916 0.063940
Si Si3 0.500000 0.243873 0.000000
Si Si4 0.382805 0.656340 0.272004
Si Si5 0.110269 0.595867 0.931420
Si Si6 0.874123 0.230478 0.305367
O O1 0.236037 0.882701 0.338285
O O2 0.421603 0.817211 0.776218
O O3 0.354645 0.740898 0.383105
O O4 0.210318 0.757529 0.573004
O O5 0.148143 0.000000 0.004043
O O6 0.179445 0.165757 0.914531
O O7 0.000000 0.120236 0.000000
O O8 0.422485 0.308175 0.082165
O O9 0.500000 0.613811 0.500000
O O10 0.252413 0.605060 0.144584
O O11 0.098683 0.500000 0.826341
O O12 0.097091 0.677705 0.770890
O O13 0.000000 0.603370 0.000000
O O14 0.000000 0.187542 0.500000
#
# Coordination Sequence:
#
# PCOD9151417 Si02
#       6
#     4   4   2   4   4   4
#     4  11  20  38  64  93 124 166 213 265 319 382
#     4  11  23  38  60  96 132 167 216 268 321 388
#     4  10  20  38  68  92 120 172 222 264 316 390
#     4  10  21  39  67  94 125 168 220 270 321 378
#     4  11  23  41  64  96 134 172 217 263 319 388
#     4  12  22  38  66  90 128 173 209 260 328 382
#
# _framework density 20.445969000000002
#
# number of rings (size 3 to 8) (size 9 to 14) (size 15 to 20)
#    0.000    1.091    5.455    1.636    0.000    1.818 
#    0.000    1.818    0.000   10.364    0.000    0.000 
#    0.000    0.000    0.000    0.000    0.000    0.000 
#
# Total GULP energy -122697.664280 kJ/mol
# GULP energy per Si atom -5577.166558 kJ/mol
# Density = 2.039943 g / cm^3
# Si number density = 20.445969 Si / 1000 Ang^3
#
#
#
# Elastic Constant Matrix: (Units=GPa)
#
#
# Indices 1 2 3 4 5 6 
#
# 1 114.3168 23.2281 37.0807 0.0000 -11.9139 0.0000
# 2 23.2281 86.3800 32.4106 0.0000 -16.0254 0.0000
# 3 37.0807 32.4106 115.1787 0.0000 8.7567 0.0000
# 4 0.0000 0.0000 0.0000 -28.4179 0.0000 -2.9411
# 5 -11.9139 -16.0254 8.7567 0.0000 51.0712 0.0000
# 6 0.0000 0.0000 0.0000 -2.9411 0.0000 -0.5623
#
#
#
# Elastic Compliance Matrix: (Units=1/GPa)
#
#
# Indices 1 2 3 4 5 6 
#
# 1 0.010278 -0.001078 -0.003204 0.000000 0.002609 0.000000
# 2 -0.001078 0.014302 -0.004052 0.000000 0.004931 0.000000
# 3 -0.003204 -0.004052 0.011153 0.000000 -0.003931 0.000000
# 4 0.000000 0.000000 0.000000 -0.076723 0.000000 0.401311
# 5 0.002609 0.004931 -0.003931 0.000000 0.022410 0.000000
# 6 0.000000 0.000000 0.000000 0.401311 0.000000 -3.877601
#
#
# Mechanical properties :
#
#
# Convention : Reuss Voigt Hill
#
# Bulk Modulus (GPa) = 52.45350 55.70159 54.07754
# Shear Modulus (GPa) = -1.29094 19.29527 9.00217
#
# Velocity S-wave (km/s) = -0.79546 3.07534 2.10059
# Velocity P-wave (km/s) = 4.98665 6.31765 5.69120
#
# Compressibility (1/GPa) = 0.01906451
#
# Stress axis : x y z
#
# Youngs Moduli (GPa) = 97.29795 69.92080 89.66319
#
# Poissons Ratio (x) = 0.07535 0.28727
# Poissons Ratio (y) = 0.10485 0.36336
# Poissons Ratio (z) = 0.31173 0.28335
#
# Static dielectric constant tensor:
#      x y z
#    x 1.801440 0.000000 0.069670 
#    y 0.000000 1.671000 0.000000 
#    z 0.069670 0.000000 1.772350 
# 
# From -- ./inp_files/7275.got.cif
#   From: 2010.05.17/outbox.cif.g08.bks.cpg/sg10_4_cif.got.tgz:7275.got - 2010.06.03 11:33:40.
