data_PCOD9151657
_publ_section_title
;
Structure prediction by ZEFSAII (Michael W. Deem and Ramdas Pophale) SiO2 
 PCOD9151657
Probable space group: P 2/M
;
_chemical_formula_sum "Si O2"
_cell_formula_units_Z 32
_cell_length_a 10.467601
_cell_length_b 15.286826
_cell_length_c 12.941145
_cell_angle_alpha 90.000000
_cell_angle_beta 143.984904
_cell_angle_gamma 90.000000
_cell_volume 1217.624340
_symmetry_space_group_name_H-M "P 2/M"
_symmetry_group_IT_number 10
_symmetry_cell_setting 'monoclinic'
loop_
_space_group_symop_operation_xyz
x,y,z
-x,y,-z
-x,-y,-z
x,-y,z
loop_
_atom_site_type_symbol
_atom_site_label
_atom_site_fract_x
_atom_site_fract_y
_atom_site_fract_z
Si Si1 0.748023 0.339667 0.818217
Si Si2 0.388412 0.839667 0.318217
Si Si3 0.198671 0.098678 0.513618
Si Si4 0.671434 0.401322 0.986382
Si Si5 0.484698 0.107023 0.871237
Si Si6 0.242224 0.607023 0.628763
Si Si7 0.030294 0.894660 0.838833
Si Si8 0.852628 0.605340 0.661167
O O1 0.622663 0.250000 0.750000
O O2 0.697666 0.405086 0.878100
O O3 0.737499 0.370640 0.693102
O O4 0.000000 0.318162 0.000000
O O5 0.500000 0.818162 0.500000
O O6 0.558535 0.905086 0.378100
O O7 0.148705 0.870640 0.193102
O O8 0.268993 0.138875 0.669512
O O9 0.052403 0.139636 0.327665
O O10 0.116575 0.000000 0.475172
O O11 0.666231 0.500000 0.024828
O O12 0.429969 0.361125 0.830488
O O13 0.897073 0.360364 0.172335
O O14 0.469789 0.000000 0.859731
O O15 0.500000 0.133664 0.000000
O O16 0.721332 0.130892 0.979581
O O17 0.250328 0.500000 0.640269
O O18 0.000000 0.633664 0.500000
O O19 0.262170 0.630892 0.520419
O O20 0.026723 0.000000 0.829812
O O21 0.867098 0.500000 0.670188
#
# Coordination Sequence:
#
# PCOD9151657 Si02
#       8
#     4   4   4   4   4   4   4   4
#     4  10  21  33  50  78 102 134 167 207 256 308
#     4  10  21  33  50  78 102 134 167 207 256 308
#     4   9  18  33  52  75 104 134 166 207 252 300
#     4   9  18  33  52  75 104 134 166 207 252 300
#     4   9  18  31  51  79 103 130 169 208 250 297
#     4   9  18  31  51  79 103 130 169 208 250 297
#     4   9  18  33  52  75 104 134 166 207 252 300
#     4   9  18  33  52  75 104 134 166 207 252 300
#
# _framework density 26.280684000000001
#
# number of rings (size 3 to 8) (size 9 to 14) (size 15 to 20)
#    0.000    2.750    0.000    0.750    3.500    4.000 
#    0.000    8.750    0.000    1.500    0.000    0.000 
#    0.000    0.000    0.000    0.000    0.000    0.000 
#
# Total GULP energy -178774.342534 kJ/mol
# GULP energy per Si atom -5586.698204 kJ/mol
# Density = 2.622087 g / cm^3
# Si number density = 26.280684 Si / 1000 Ang^3
#
#
#
# Elastic Constant Matrix: (Units=GPa)
#
#
# Indices 1 2 3 4 5 6 
#
# 1 59.5237 21.9612 -6.0769 0.0000 -1.7155 0.0000
# 2 21.9612 52.6459 20.7347 0.0000 0.0751 0.0000
# 3 -6.0769 20.7347 168.9755 0.0000 -4.9911 0.0000
# 4 0.0000 0.0000 0.0000 15.4204 0.0000 -2.3948
# 5 -1.7155 0.0751 -4.9911 0.0000 46.9995 0.0000
# 6 0.0000 0.0000 0.0000 -2.3948 0.0000 -23.6611
#
#
#
# Elastic Compliance Matrix: (Units=1/GPa)
#
#
# Indices 1 2 3 4 5 6 
#
# 1 0.020446 -0.009280 0.001902 0.000000 0.000963 0.000000
# 2 -0.009280 0.024175 -0.003322 0.000000 -0.000730 0.000000
# 3 0.001902 -0.003322 0.006416 0.000000 0.000756 0.000000
# 4 0.000000 0.000000 0.000000 0.063846 0.000000 -0.006462
# 5 0.000963 -0.000730 0.000756 0.000000 0.021393 0.000000
# 6 0.000000 0.000000 0.000000 -0.006462 0.000000 -0.041610
#
#
# Mechanical properties :
#
#
# Convention : Reuss Voigt Hill
#
# Bulk Modulus (GPa) = 33.73891 39.37590 36.55740
# Shear Modulus (GPa) = 39.70005 24.05351 31.87678
#
# Velocity S-wave (km/s) = 3.89088 3.02860 3.48650
# Velocity P-wave (km/s) = 5.74901 5.21970 5.49073
#
# Compressibility (1/GPa) = 0.02963937
#
# Stress axis : x y z
#
# Youngs Moduli (GPa) = 48.91006 41.36481 155.85116
#
# Poissons Ratio (x) = 0.38385 -0.29649
# Poissons Ratio (y) = 0.45386 0.51770
# Poissons Ratio (z) = -0.09305 0.13740
#
# Static dielectric constant tensor:
#      x y z
#    x 2.186490 0.000000 0.004360 
#    y 0.000000 2.021520 0.000000 
#    z 0.004360 0.000000 2.115420 
# 
# From -- ./inp_files/65425.got.cif
#   From: 2010.05.17/outbox.cif.g08.bks.cpg/sg10_33_cif.got.tgz:65425.got - 2010.06.03 11:33:40.
