data_PCOD9151723
_publ_section_title
;
Structure prediction by ZEFSAII (Michael W. Deem and Ramdas Pophale) SiO2 
 PCOD9151723
Probable space group: P 2/M
;
_chemical_formula_sum "Si O2"
_cell_formula_units_Z 24
_cell_length_a 9.924395
_cell_length_b 7.569946
_cell_length_c 24.428136
_cell_angle_alpha 90.000000
_cell_angle_beta 134.782822
_cell_angle_gamma 90.000000
_cell_volume 1302.603110
_symmetry_space_group_name_H-M "P 2/M"
_symmetry_group_IT_number 10
_symmetry_cell_setting 'monoclinic'
loop_
_space_group_symop_operation_xyz
x,y,z
-x,y,-z
-x,-y,-z
x,-y,z
loop_
_atom_site_type_symbol
_atom_site_label
_atom_site_fract_x
_atom_site_fract_y
_atom_site_fract_z
Si Si1 0.920322 0.206018 0.772017
Si Si2 0.593689 0.789601 0.191033
Si Si3 0.036622 0.212645 0.337963
Si Si4 0.430366 0.785216 0.257393
Si Si5 0.883744 0.500000 0.553110
Si Si6 0.351463 0.297423 0.914819
Si Si7 0.296111 0.500000 0.613576
O O1 0.898334 0.276033 0.703875
O O2 0.770149 0.270053 0.773562
O O3 0.139834 0.220577 0.851809
O O4 0.878838 0.000000 0.754362
O O5 0.454523 0.738613 0.200270
O O6 0.568108 0.709526 0.123858
O O7 0.809188 0.752659 0.272478
O O8 0.581840 0.000000 0.179811
O O9 0.129054 0.327826 0.411960
O O10 0.063276 0.000000 0.351529
O O11 0.588999 0.673788 0.334801
O O12 0.456848 0.000000 0.268991
O O13 0.738944 0.500000 0.461371
O O14 0.092972 0.500000 0.585593
O O15 0.323346 0.500000 0.923162
O O16 0.500000 0.215938 0.000000
#
# Coordination Sequence:
#
# PCOD9151723 Si02
#       7
#     4   4   4   4   2   4   2
#     4   9  20  36  57  80 106 144 185 224 270 320
#     4   9  18  33  56  78 102 146 187 220 269 317
#     4   9  18  34  55  80 106 142 187 229 267 316
#     4  10  21  38  56  82 111 142 187 227 268 327
#     4  11  22  35  55  85 110 141 188 222 276 334
#     4  10  21  34  53  85 115 141 177 224 272 317
#     4  11  24  35  55  85 110 148 178 224 288 319
#
# _framework density 18.424643
#
# number of rings (size 3 to 8) (size 9 to 14) (size 15 to 20)
#    0.000    2.333    1.667    1.500    7.000    2.000 
#    0.000    4.167    0.000    8.000    0.000    0.000 
#    0.000    0.000    0.000    0.000    0.000    0.000 
#
# Total GULP energy -133757.606000 kJ/mol
# GULP energy per Si atom -5573.233583 kJ/mol
# Density = 1.838271 g / cm^3
# Si number density = 18.424643 Si / 1000 Ang^3
#
#
#
# Elastic Constant Matrix: (Units=GPa)
#
#
# Indices 1 2 3 4 5 6 
#
# 1 136.6481 17.0379 41.3625 0.0000 -14.4518 0.0000
# 2 17.0379 51.8313 22.7601 0.0000 -9.3748 0.0000
# 3 41.3625 22.7601 105.0177 0.0000 -19.8995 0.0000
# 4 0.0000 0.0000 0.0000 54.6805 0.0000 2.7487
# 5 -14.4518 -9.3748 -19.8995 0.0000 15.6161 0.0000
# 6 0.0000 0.0000 0.0000 2.7487 0.0000 8.3452
#
#
#
# Elastic Compliance Matrix: (Units=1/GPa)
#
#
# Indices 1 2 3 4 5 6 
#
# 1 0.008617 -0.001011 -0.002345 0.000000 0.004380 0.000000
# 2 -0.001011 0.022472 -0.002759 0.000000 0.009039 0.000000
# 3 -0.002345 -0.002759 0.013603 0.000000 0.013508 0.000000
# 4 0.000000 0.000000 0.000000 0.018596 0.000000 -0.006125
# 5 0.004380 0.009039 0.013508 0.000000 0.090729 0.000000
# 6 0.000000 0.000000 0.000000 -0.006125 0.000000 0.121847
#
#
# Mechanical properties :
#
#
# Convention : Reuss Voigt Hill
#
# Bulk Modulus (GPa) = 30.80486 50.64645 40.72566
# Shear Modulus (GPa) = 16.72713 29.88415 23.30564
#
# Velocity S-wave (km/s) = 3.01635 4.03173 3.56043
# Velocity P-wave (km/s) = 5.37465 7.01579 6.24932
#
# Compressibility (1/GPa) = 0.03246241
#
# Stress axis : x y z
#
# Youngs Moduli (GPa) = 116.04848 44.49931 73.51068
#
# Poissons Ratio (x) = 0.04498 0.17238
# Poissons Ratio (y) = 0.11729 0.20285
# Poissons Ratio (z) = 0.27214 0.12279
#
# Static dielectric constant tensor:
#      x y z
#    x 1.664960 0.000000 -0.013690 
#    y 0.000000 1.656650 0.000000 
#    z -0.013690 0.000000 1.624880 
# 
# From -- ./inp_files/33802.got.cif
#   From: 2010.05.17/outbox.cif.g08.bks.cpg/sg10_17_cif.got.tgz:33802.got - 2010.06.03 11:33:40.
