data_PCOD9151154
_publ_section_title
;
Structure prediction by ZEFSAII (Michael W. Deem and Ramdas Pophale) SiO2 
 PCOD9151154
Probable space group: P 2/M
;
_chemical_formula_sum "Si O2"
_cell_formula_units_Z 32
_cell_length_a 5.181265
_cell_length_b 19.022685
_cell_length_c 15.396669
_cell_angle_alpha 90.000000
_cell_angle_beta 82.690542
_cell_angle_gamma 90.000000
_cell_volume 1505.187705
_symmetry_space_group_name_H-M "P 2/M"
_symmetry_group_IT_number 10
_symmetry_cell_setting 'monoclinic'
loop_
_space_group_symop_operation_xyz
x,y,z
-x,y,-z
-x,-y,-z
x,-y,z
loop_
_atom_site_type_symbol
_atom_site_label
_atom_site_fract_x
_atom_site_fract_y
_atom_site_fract_z
Si Si1 0.466840 0.578512 0.347474
Si Si2 0.283605 0.281453 0.444351
Si Si3 0.988963 0.421416 0.771776
Si Si4 0.962319 0.813630 0.677987
Si Si5 0.418044 0.080130 0.235535
Si Si6 0.000271 0.728845 0.838132
Si Si7 0.457683 0.805022 0.902471
Si Si8 0.696534 0.922750 0.411468
O O1 0.432738 0.500000 0.386561
O O2 0.380321 0.641772 0.411721
O O3 0.764214 0.585741 0.303584
O O4 0.275805 0.582839 0.272401
O O5 0.500000 0.253177 0.500000
O O6 0.254571 0.231777 0.361890
O O7 0.000000 0.286937 0.500000
O O8 0.006218 0.500000 0.809718
O O9 0.998256 0.355001 0.834343
O O10 0.849505 0.878012 0.738800
O O11 0.093424 0.759768 0.739755
O O12 0.122558 0.854873 0.598318
O O13 0.565459 0.127194 0.158682
O O14 0.551127 0.080113 0.324727
O O15 0.383471 0.000000 0.209597
O O16 0.711070 0.759656 0.863548
O O17 0.201127 0.758798 0.899076
O O18 0.500000 0.825644 0.000000
O O19 0.500000 0.920479 0.500000
O O20 0.832153 0.000000 0.409919
#
# Coordination Sequence:
#
# PCOD9151154 Si02
#       8
#     4   4   4   4   4   4   4   4
#     4  10  21  39  60  86 125 170 221 275 328 384
#     4  12  28  39  58  89 126 173 223 277 337 386
#     4  10  20  37  65  95 124 166 218 267 319 388
#     4  11  24  39  62  88 128 172 218 278 325 394
#     4  10  23  41  64  93 127 172 218 266 329 396
#     4  11  22  41  71  95 130 172 213 268 324 392
#     4  11  24  43  69 103 135 168 210 266 333 399
#     4  10  22  40  63  90 126 172 223 275 327 386
#
# _framework density 21.259806999999999
#
# number of rings (size 3 to 8) (size 9 to 14) (size 15 to 20)
#    0.000    1.375    2.500    2.250    5.250    0.750 
#    0.000    1.875    0.000    5.625    0.000    0.000 
#    0.000    0.000    0.000    0.000    0.000    0.000 
#
# Total GULP energy -178924.203875 kJ/mol
# GULP energy per Si atom -5591.381371 kJ/mol
# Density = 2.121142 g / cm^3
# Si number density = 21.259807 Si / 1000 Ang^3
#
#
#
# Elastic Constant Matrix: (Units=GPa)
#
#
# Indices 1 2 3 4 5 6 
#
# 1 51.8609 11.6725 6.7408 0.0000 6.6243 0.0000
# 2 11.6725 161.1310 37.7868 0.0000 -3.1975 0.0000
# 3 6.7408 37.7868 84.9457 0.0000 14.5830 0.0000
# 4 0.0000 0.0000 0.0000 -7.2441 0.0000 6.1902
# 5 6.6243 -3.1975 14.5830 0.0000 31.2788 0.0000
# 6 0.0000 0.0000 0.0000 6.1902 0.0000 18.3062
#
#
#
# Elastic Compliance Matrix: (Units=1/GPa)
#
#
# Indices 1 2 3 4 5 6 
#
# 1 0.020201 -0.001506 -0.000187 0.000000 -0.004345 0.000000
# 2 -0.001506 0.007201 -0.003549 0.000000 0.002710 0.000000
# 3 -0.000187 -0.003549 0.014589 0.000000 -0.007125 0.000000
# 4 0.000000 0.000000 0.000000 -0.107097 0.000000 0.036215
# 5 -0.004345 0.002710 -0.007125 0.000000 0.036490 0.000000
# 6 0.000000 0.000000 0.000000 0.036215 0.000000 0.042380
#
#
# Mechanical properties :
#
#
# Convention : Reuss Voigt Hill
#
# Bulk Modulus (GPa) = 31.73932 45.59308 38.66620
# Shear Modulus (GPa) = 143.88515 24.58402 84.23459
#
# Velocity S-wave (km/s) = 8.23568 3.40422 6.30139
# Velocity P-wave (km/s) = 10.26629 6.07815 8.43625
#
# Compressibility (1/GPa) = 0.03150666
#
# Stress axis : x y z
#
# Youngs Moduli (GPa) = 49.50367 138.86450 68.54470
#
# Poissons Ratio (x) = 0.20908 0.01284
# Poissons Ratio (y) = 0.07453 0.24327
# Poissons Ratio (z) = 0.00928 0.49284
#
# Static dielectric constant tensor:
#      x y z
#    x 1.801680 0.000000 -0.017700 
#    y 0.000000 1.769150 0.000000 
#    z -0.017700 0.000000 1.781930 
# 
# From -- ./inp_files/59434.got.cif
#   From: 2010.05.17/outbox.cif.g08.bks.cpg/sg10_30_cif.got.tgz:59434.got - 2010.06.03 11:33:40.
