data_PCOD9151501
_publ_section_title
;
Structure prediction by ZEFSAII (Michael W. Deem and Ramdas Pophale) SiO2 
 PCOD9151501
Probable space group: P 2/M
;
_chemical_formula_sum "Si O2"
_cell_formula_units_Z 28
_cell_length_a 9.783692
_cell_length_b 9.015368
_cell_length_c 21.941262
_cell_angle_alpha 90.000000
_cell_angle_beta 46.149746
_cell_angle_gamma 90.000000
_cell_volume 1395.645671
_symmetry_space_group_name_H-M "P 2/M"
_symmetry_group_IT_number 10
_symmetry_cell_setting 'monoclinic'
loop_
_space_group_symop_operation_xyz
x,y,z
-x,y,-z
-x,-y,-z
x,-y,z
loop_
_atom_site_type_symbol
_atom_site_label
_atom_site_fract_x
_atom_site_fract_y
_atom_site_fract_z
Si Si1 0.093586 0.674470 0.065002
Si Si2 0.305009 0.175503 0.791135
Si Si3 0.190036 0.673004 0.173290
Si Si4 0.887412 0.676742 0.473894
Si Si5 0.880515 0.175527 0.350158
Si Si6 0.561272 0.676223 0.375443
Si Si7 0.429232 0.675875 0.869666
O O1 0.040661 0.500000 0.074934
O O2 0.195353 0.691309 0.099025
O O3 0.905707 0.771702 0.125523
O O4 0.239618 0.711214 0.966409
O O5 0.362539 0.256892 0.711256
O O6 0.436045 0.230732 0.806040
O O7 0.313447 0.000000 0.780370
O O8 0.138998 0.500000 0.200730
O O9 0.390517 0.701727 0.143033
O O10 0.030715 0.774525 0.252647
O O11 0.917180 0.500000 0.456062
O O12 0.947341 0.761274 0.394436
O O13 0.662979 0.702970 0.551212
O O14 0.000000 0.721346 0.500000
O O15 0.681915 0.249688 0.392009
O O16 0.861324 0.000000 0.357998
O O17 0.593957 0.500000 0.366738
O O18 0.424228 0.500000 0.856466
#
# Coordination Sequence:
#
# PCOD9151501 Si02
#       7
#     4   4   4   4   4   4   4
#     4  10  20  39  65  91 120 162 216 266 309 364
#     4  12  25  39  59  91 130 168 207 255 316 374
#     4  10  21  39  65  92 123 164 213 262 308 364
#     4  10  24  45  70  98 125 159 206 257 306 363
#     4  12  25  41  64  96 132 167 203 249 312 375
#     4  11  23  43  69  93 121 164 214 258 302 362
#     4  10  22  39  62  91 123 164 215 265 312 365
#
# _framework density 20.0624
#
# number of rings (size 3 to 8) (size 9 to 14) (size 15 to 20)
#    0.000    1.286    1.429    4.286    2.000    7.714 
#    0.000    0.000    0.000    2.571    0.000    0.000 
#    0.000    0.000    0.000    0.000    0.000    0.000 
#
# Total GULP energy -156665.183383 kJ/mol
# GULP energy per Si atom -5595.185121 kJ/mol
# Density = 2.001674 g / cm^3
# Si number density = 20.062400 Si / 1000 Ang^3
#
#
#
# Elastic Constant Matrix: (Units=GPa)
#
#
# Indices 1 2 3 4 5 6 
#
# 1 78.9864 16.2002 2.3852 0.0000 23.6181 0.0000
# 2 16.2002 46.2401 23.5904 0.0000 6.5357 0.0000
# 3 2.3852 23.5904 54.3376 0.0000 14.5912 0.0000
# 4 0.0000 0.0000 0.0000 -33.6952 0.0000 -10.8986
# 5 23.6181 6.5357 14.5912 0.0000 30.9301 0.0000
# 6 0.0000 0.0000 0.0000 -10.8986 0.0000 -27.8380
#
#
#
# Elastic Compliance Matrix: (Units=1/GPa)
#
#
# Indices 1 2 3 4 5 6 
#
# 1 0.018836 -0.007846 0.006866 0.000000 -0.015964 0.000000
# 2 -0.007846 0.031048 -0.014865 0.000000 0.006443 0.000000
# 3 0.006866 -0.014865 0.028764 0.000000 -0.015671 0.000000
# 4 0.000000 0.000000 0.000000 -0.033981 0.000000 0.013303
# 5 -0.015964 0.006443 -0.015671 0.000000 0.050553 0.000000
# 6 0.000000 0.000000 0.000000 0.013303 0.000000 -0.041130
#
#
# Mechanical properties :
#
#
# Convention : Reuss Voigt Hill
#
# Bulk Modulus (GPa) = 21.29536 29.32398 25.30967
# Shear Modulus (GPa) = 49.29471 3.03859 26.16665
#
# Velocity S-wave (km/s) = 4.96226 1.23201 3.61538
# Velocity P-wave (km/s) = 6.59315 4.08313 5.48368
#
# Compressibility (1/GPa) = 0.04695858
#
# Stress axis : x y z
#
# Youngs Moduli (GPa) = 53.09068 32.20818 34.76588
#
# Poissons Ratio (x) = 0.25269 -0.23871
# Poissons Ratio (y) = 0.41653 0.51680
# Poissons Ratio (z) = -0.36453 0.47878
#
# Static dielectric constant tensor:
#      x y z
#    x 1.715190 0.000000 -0.002050 
#    y 0.000000 1.669570 0.000000 
#    z -0.002050 0.000000 1.684620 
# 
# From -- ./inp_files/82173.got.cif
#   From: 2010.05.17/outbox.cif.g08.bks.cpg/sg10_42_cif.got.tgz:82173.got - 2010.06.03 11:33:40.
