data_PCOD9151225
_publ_section_title
;
Structure prediction by ZEFSAII (Michael W. Deem and Ramdas Pophale) SiO2 
 PCOD9151225
Probable space group: P 2/M
;
_chemical_formula_sum "Si O2"
_cell_formula_units_Z 32
_cell_length_a 20.981957
_cell_length_b 10.131003
_cell_length_c 26.527160
_cell_angle_alpha 90.000000
_cell_angle_beta 17.670502
_cell_angle_gamma 90.000000
_cell_volume 1711.625622
_symmetry_space_group_name_H-M "P 2/M"
_symmetry_group_IT_number 10
_symmetry_cell_setting 'monoclinic'
loop_
_space_group_symop_operation_xyz
x,y,z
-x,y,-z
-x,-y,-z
x,-y,z
loop_
_atom_site_type_symbol
_atom_site_label
_atom_site_fract_x
_atom_site_fract_y
_atom_site_fract_z
Si Si1 0.869820 0.845430 0.954845
Si Si2 0.948667 0.146998 0.612180
Si Si3 0.873388 0.347529 0.044913
Si Si4 0.406253 0.251673 0.278100
Si Si5 0.638149 0.654067 0.800358
Si Si6 0.296928 0.852605 0.097112
Si Si7 0.911027 0.150381 0.312796
Si Si8 0.380391 0.646582 0.409750
O O1 0.028367 0.814035 0.789789
O O2 0.889222 0.000000 0.952658
O O3 0.915177 0.752212 0.967935
O O4 0.629766 0.820147 0.117201
O O5 0.847792 0.264243 0.655799
O O6 0.835452 0.158502 0.751881
O O7 0.198325 0.162061 0.430275
O O8 0.901788 0.000000 0.627575
O O9 0.922632 0.500000 0.993787
O O10 0.623295 0.341993 0.242413
O O11 0.000000 0.315114 0.000000
O O12 0.411316 0.331684 0.221911
O O13 0.373995 0.332752 0.354128
O O14 0.650604 0.500000 0.804517
O O15 0.460786 0.735980 0.964511
O O16 0.129501 0.848058 0.178501
O O17 0.397045 0.000000 0.021095
O O18 0.754793 0.246425 0.459152
O O19 0.830558 0.000000 0.374878
O O20 0.302207 0.500000 0.480459
#
# Coordination Sequence:
#
# PCOD9151225 Si02
#       8
#     4   4   4   4   4   4   4   4
#     4  10  21  37  63  92 118 149 193 242 285 336
#     4  11  24  40  60  81 107 149 197 243 297 356
#     4   9  20  40  63  90 127 163 192 226 274 335
#     4  11  22  39  58  84 113 150 191 244 294 353
#     4  12  26  40  56  81 114 151 192 245 302 351
#     4  10  21  41  61  80 109 148 193 241 291 352
#     4  10  20  38  60  87 118 150 190 241 290 337
#     4  10  21  37  61  89 115 150 195 237 280 336
#
# _framework density 18.695677
#
# number of rings (size 3 to 8) (size 9 to 14) (size 15 to 20)
#    0.000    1.625    2.500    1.875    0.000    9.250 
#    0.000    0.625    0.000    3.750    0.000    0.000 
#    0.000    0.000    0.000    0.000    0.000    0.000 
#
# Total GULP energy -178684.773470 kJ/mol
# GULP energy per Si atom -5583.899171 kJ/mol
# Density = 1.865312 g / cm^3
# Si number density = 18.695677 Si / 1000 Ang^3
#
#
#
# Elastic Constant Matrix: (Units=GPa)
#
#
# Indices 1 2 3 4 5 6 
#
# 1 108.6693 52.8590 29.2568 0.0000 4.1087 0.0000
# 2 52.8590 120.6144 38.0230 0.0000 17.8419 0.0000
# 3 29.2568 38.0230 52.5720 0.0000 22.7891 0.0000
# 4 0.0000 0.0000 0.0000 13.0888 0.0000 2.3608
# 5 4.1087 17.8419 22.7891 0.0000 30.9588 0.0000
# 6 0.0000 0.0000 0.0000 2.3608 0.0000 22.3432
#
#
#
# Elastic Compliance Matrix: (Units=1/GPa)
#
#
# Indices 1 2 3 4 5 6 
#
# 1 0.012867 -0.004461 -0.006327 0.000000 0.005521 0.000000
# 2 -0.004461 0.012296 -0.005281 0.000000 -0.002607 0.000000
# 3 -0.006327 -0.005281 0.036244 0.000000 -0.022796 0.000000
# 4 0.000000 0.000000 0.000000 0.077885 0.000000 -0.008229
# 5 0.005521 -0.002607 -0.022796 0.000000 0.049852 0.000000
# 6 0.000000 0.000000 0.000000 -0.008229 0.000000 0.045626
#
#
# Mechanical properties :
#
#
# Convention : Reuss Voigt Hill
#
# Bulk Modulus (GPa) = 34.16545 58.01482 46.09014
# Shear Modulus (GPa) = 18.07249 24.05929 21.06589
#
# Velocity S-wave (km/s) = 3.11250 3.59122 3.36039
# Velocity P-wave (km/s) = 5.58848 6.94941 6.30577
#
# Compressibility (1/GPa) = 0.02926933
#
# Stress axis : x y z
#
# Youngs Moduli (GPa) = 77.71901 81.32587 27.59090
#
# Poissons Ratio (x) = 0.36279 0.17458
# Poissons Ratio (y) = 0.34670 0.14569
# Poissons Ratio (z) = 0.49176 0.42944
#
# Static dielectric constant tensor:
#      x y z
#    x 1.644930 0.000000 0.006350 
#    y 0.000000 1.640300 0.000000 
#    z 0.006350 0.000000 1.641310 
# 
# From -- ./inp_files/93567.got.cif
#   From: 2010.05.17/outbox.cif.g08.bks.cpg/sg10_47_cif.got.tgz:93567.got - 2010.06.03 11:33:40.
