data_PCOD9151784
_publ_section_title
;
Structure prediction by ZEFSAII (Michael W. Deem and Ramdas Pophale) SiO2 
 PCOD9151784
Probable space group: P 2/M
;
_chemical_formula_sum "Si O2"
_cell_formula_units_Z 28
_cell_length_a 15.362355
_cell_length_b 9.036272
_cell_length_c 12.713426
_cell_angle_alpha 90.000000
_cell_angle_beta 105.681886
_cell_angle_gamma 90.000000
_cell_volume 1699.164830
_symmetry_space_group_name_H-M "P 2/M"
_symmetry_group_IT_number 10
_symmetry_cell_setting 'monoclinic'
loop_
_space_group_symop_operation_xyz
x,y,z
-x,y,-z
-x,-y,-z
x,-y,z
loop_
_atom_site_type_symbol
_atom_site_label
_atom_site_fract_x
_atom_site_fract_y
_atom_site_fract_z
Si Si1 0.222365 0.176814 0.697532
Si Si2 0.098332 0.677517 0.486327
Si Si3 0.089100 0.677077 0.236773
Si Si4 0.103047 0.177299 0.863906
Si Si5 0.395455 0.322498 0.088811
Si Si6 0.601892 0.677330 0.158865
Si Si7 0.217848 0.176822 0.111096
O O1 0.174491 0.243703 0.579846
O O2 0.160746 0.217128 0.779104
O O3 0.321549 0.241537 0.750382
O O4 0.225701 0.000000 0.692612
O O5 0.107178 0.500000 0.501060
O O6 0.101520 0.713390 0.364065
O O7 0.000000 0.720128 0.500000
O O8 0.089794 0.500000 0.225785
O O9 0.166587 0.749111 0.191386
O O10 0.992283 0.740351 0.169184
O O11 0.087456 0.000000 0.857443
O O12 0.160616 0.212508 0.986654
O O13 0.385451 0.500000 0.096478
O O14 0.498425 0.283582 0.152766
O O15 0.318055 0.239619 0.126839
O O16 0.385444 0.287873 0.961077
O O17 0.611269 0.500000 0.172801
O O18 0.219477 0.000000 0.122849
#
# Coordination Sequence:
#
# PCOD9151784 Si02
#       7
#     4   4   4   4   4   4   4
#     4  11  21  33  54  82 111 141 177 217 265 320
#     4  10  21  38  56  76 103 138 182 228 269 310
#     4  11  23  37  55  77 103 141 187 226 263 314
#     4  10  21  35  50  76 112 146 175 212 264 318
#     4   9  18  33  54  80 108 141 180 217 260 315
#     4   9  18  33  54  80 110 141 175 220 266 310
#     4  11  22  36  53  77 113 148 176 215 267 320
#
# _framework density 16.478684999999999
#
# number of rings (size 3 to 8) (size 9 to 14) (size 15 to 20)
#    0.000    1.857    2.857    2.571    0.000    5.429 
#    0.000    1.429    0.000    0.857    0.000    6.000 
#    0.000    0.000    0.000    0.000    0.000    0.000 
#
# Total GULP energy -156354.225551 kJ/mol
# GULP energy per Si atom -5584.079484 kJ/mol
# Density = 1.644118 g / cm^3
# Si number density = 16.478685 Si / 1000 Ang^3
#
#
#
# Elastic Constant Matrix: (Units=GPa)
#
#
# Indices 1 2 3 4 5 6 
#
# 1 159.1885 60.3598 71.6612 0.0000 5.2195 0.0000
# 2 60.3598 35.7642 39.5702 0.0000 0.7638 0.0000
# 3 71.6612 39.5702 72.8813 0.0000 1.4551 0.0000
# 4 0.0000 0.0000 0.0000 24.3519 0.0000 7.1943
# 5 5.2195 0.7638 1.4551 0.0000 30.0830 0.0000
# 6 0.0000 0.0000 0.0000 7.1943 0.0000 67.8691
#
#
#
# Elastic Compliance Matrix: (Units=1/GPa)
#
#
# Indices 1 2 3 4 5 6 
#
# 1 0.017853 -0.026824 -0.002945 0.000000 -0.002274 0.000000
# 2 -0.026824 0.110330 -0.033597 0.000000 0.003478 0.000000
# 3 -0.002945 -0.033597 0.034864 0.000000 -0.000322 0.000000
# 4 0.000000 0.000000 0.000000 0.042392 0.000000 -0.004494
# 5 -0.002274 0.003478 -0.000322 0.000000 0.033563 0.000000
# 6 0.000000 0.000000 0.000000 -0.004494 0.000000 0.015211
#
#
# Mechanical properties :
#
#
# Convention : Reuss Voigt Hill
#
# Bulk Modulus (GPa) = 27.53658 67.89072 47.71365
# Shear Modulus (GPa) = 12.72099 30.87700 21.79899
#
# Velocity S-wave (km/s) = 2.78144 4.33338 3.64106
# Velocity P-wave (km/s) = 5.20211 8.14409 6.83330
#
# Compressibility (1/GPa) = 0.03631533
#
# Stress axis : x y z
#
# Youngs Moduli (GPa) = 56.01292 9.06369 28.68251
#
# Poissons Ratio (x) = 0.24312 0.08447
# Poissons Ratio (y) = 1.50248 0.96366
# Poissons Ratio (z) = 0.16496 0.30452
#
# Static dielectric constant tensor:
#      x y z
#    x 1.536750 0.000000 -0.003840 
#    y 0.000000 1.545120 0.000000 
#    z -0.003840 0.000000 1.531080 
# 
# From -- ./inp_files/49112.got.cif
#   From: 2010.05.17/outbox.cif.g08.bks.cpg/sg10_25_cif.got.tgz:49112.got - 2010.06.03 11:33:40.
