data_PCOD9151487
_publ_section_title
;
Structure prediction by ZEFSAII (Michael W. Deem and Ramdas Pophale) SiO2 
 PCOD9151487
Probable space group: P 2/M
;
_chemical_formula_sum "Si O2"
_cell_formula_units_Z 24
_cell_length_a 14.327510
_cell_length_b 14.715850
_cell_length_c 9.845068
_cell_angle_alpha 90.000000
_cell_angle_beta 140.733891
_cell_angle_gamma 90.000000
_cell_volume 1313.789208
_symmetry_space_group_name_H-M "P 2/M"
_symmetry_group_IT_number 10
_symmetry_cell_setting 'monoclinic'
loop_
_space_group_symop_operation_xyz
x,y,z
-x,y,-z
-x,-y,-z
x,-y,z
loop_
_atom_site_type_symbol
_atom_site_label
_atom_site_fract_x
_atom_site_fract_y
_atom_site_fract_z
Si Si1 0.642956 0.392440 0.068089
Si Si2 0.137060 0.759678 0.056817
Si Si3 0.563452 0.105765 0.920550
Si Si4 0.359520 0.603739 0.251320
Si Si5 0.145207 0.228650 0.749069
Si Si6 0.635663 0.103614 0.548626
O O1 0.678704 0.500000 0.134591
O O2 0.782016 0.322747 0.229285
O O3 0.500000 0.368867 0.000000
O O4 0.600549 0.383818 0.861598
O O5 0.233918 0.669627 0.159102
O O6 0.238598 0.838088 0.237402
O O7 0.097434 0.771506 0.853552
O O8 0.000000 0.749380 0.000000
O O9 0.439693 0.140706 0.674727
O O10 0.590337 0.000000 0.912950
O O11 0.500000 0.109057 0.000000
O O12 0.715590 0.160322 0.092649
O O13 0.500000 0.622512 0.500000
O O14 0.313439 0.500000 0.216799
O O15 0.000000 0.204457 0.500000
O O16 0.500000 0.101046 0.500000
O O17 0.687193 0.000000 0.581311
#
# Coordination Sequence:
#
# PCOD9151487 Si02
#       6
#     4   4   4   4   4   4
#     4   9  19  37  60  85 111 146 192 235 280 337
#     4  11  24  37  56  85 118 154 191 232 284 338
#     4  10  22  40  63  88 112 147 192 238 286 338
#     4   9  19  36  59  85 113 146 188 237 283 332
#     4  11  24  38  55  85 121 153 185 234 290 339
#     4  10  20  39  64  84 109 149 196 239 280 333
#
# _framework density 18.267771
#
# number of rings (size 3 to 8) (size 9 to 14) (size 15 to 20)
#    0.000    2.000    1.667    1.000    4.667    2.667 
#    0.000    0.000    0.000    0.000    0.000    0.000 
#    0.000    0.000    0.000    0.000    0.000    0.000 
#
# Total GULP energy -133775.552837 kJ/mol
# GULP energy per Si atom -5573.981368 kJ/mol
# Density = 1.822619 g / cm^3
# Si number density = 18.267771 Si / 1000 Ang^3
#
#
#
# Elastic Constant Matrix: (Units=GPa)
#
#
# Indices 1 2 3 4 5 6 
#
# 1 133.5714 47.1346 54.2387 0.0000 2.2481 0.0000
# 2 47.1346 80.8352 48.9395 0.0000 -3.4311 0.0000
# 3 54.2387 48.9395 137.9480 0.0000 -0.1179 0.0000
# 4 0.0000 0.0000 0.0000 17.9991 0.0000 1.3451
# 5 2.2481 -3.4311 -0.1179 0.0000 9.9589 0.0000
# 6 0.0000 0.0000 0.0000 1.3451 0.0000 7.8147
#
#
#
# Elastic Compliance Matrix: (Units=1/GPa)
#
#
# Indices 1 2 3 4 5 6 
#
# 1 0.010150 -0.004670 -0.002337 0.000000 -0.003928 0.000000
# 2 -0.004670 0.018195 -0.004613 0.000000 0.007268 0.000000
# 3 -0.002337 -0.004613 0.009804 0.000000 -0.000945 0.000000
# 4 0.000000 0.000000 0.000000 0.056282 0.000000 -0.009688
# 5 -0.003928 0.007268 -0.000945 0.000000 0.103793 0.000000
# 6 0.000000 0.000000 0.000000 -0.009688 0.000000 0.129632
#
#
# Mechanical properties :
#
#
# Convention : Reuss Voigt Hill
#
# Bulk Modulus (GPa) = 67.07514 72.55335 69.81425
# Shear Modulus (GPa) = 14.04240 20.62399 17.33320
#
# Velocity S-wave (km/s) = 2.77555 3.36368 3.08367
# Velocity P-wave (km/s) = 6.86069 7.40868 7.13994
#
# Compressibility (1/GPa) = 0.01490865
#
# Stress axis : x y z
#
# Youngs Moduli (GPa) = 98.52436 54.96028 102.00222
#
# Poissons Ratio (x) = 0.25666 0.23841
# Poissons Ratio (y) = 0.46010 0.47050
# Poissons Ratio (z) = 0.23028 0.25351
#
# Static dielectric constant tensor:
#      x y z
#    x 1.595830 0.000000 -0.025570 
#    y 0.000000 1.678760 0.000000 
#    z -0.025570 0.000000 1.594720 
# 
# From -- ./inp_files/29695.got.cif
#   From: 2010.05.17/outbox.cif.g08.bks.cpg/sg10_15_cif.got.tgz:29695.got - 2010.06.03 11:33:40.
