data_PCOD9151188
_publ_section_title
;
Structure prediction by ZEFSAII (Michael W. Deem and Ramdas Pophale) SiO2 
 PCOD9151188
Probable space group: P 2/M
;
_chemical_formula_sum "Si O2"
_cell_formula_units_Z 32
_cell_length_a 8.544430
_cell_length_b 11.864030
_cell_length_c 15.309650
_cell_angle_alpha 90.000000
_cell_angle_beta 88.655650
_cell_angle_gamma 90.000000
_cell_volume 1551.533074
_symmetry_space_group_name_H-M "P 2/M"
_symmetry_group_IT_number 10
_symmetry_cell_setting 'monoclinic'
loop_
_space_group_symop_operation_xyz
x,y,z
-x,y,-z
-x,-y,-z
x,-y,z
loop_
_atom_site_type_symbol
_atom_site_label
_atom_site_fract_x
_atom_site_fract_y
_atom_site_fract_z
Si Si1 0.285531 0.833426 0.442396
Si Si2 0.826355 0.626763 0.487155
Si Si3 0.369547 0.120821 0.630319
Si Si4 0.353907 0.870524 0.139821
Si Si5 0.343801 0.748354 0.808051
Si Si6 0.070237 0.130900 0.282418
Si Si7 0.832933 0.132040 0.035048
Si Si8 0.879200 0.373455 0.284949
O O1 0.291377 0.699197 0.454687
O O2 0.451893 0.873092 0.404881
O O3 0.266678 0.868947 0.543848
O O4 0.153213 0.867410 0.376349
O O5 0.827012 0.500000 0.519496
O O6 0.806265 0.627041 0.383730
O O7 0.000000 0.675471 0.500000
O O8 0.346713 0.202421 0.710261
O O9 0.341033 0.000000 0.669951
O O10 0.482717 0.776154 0.159616
O O11 0.208009 0.862748 0.208197
O O12 0.418257 0.000000 0.147655
O O13 0.288779 0.857925 0.042990
O O14 0.232556 0.811007 0.878109
O O15 0.254815 0.632663 0.787639
O O16 0.977804 0.253179 0.277029
O O17 0.003638 0.000000 0.273031
O O18 0.855292 0.000000 0.053606
O O19 0.000000 0.177489 0.000000
O O20 0.957421 0.500000 0.277893
#
# Coordination Sequence:
#
# PCOD9151188 Si02
#       8
#     4   4   4   4   4   4   4   4
#     4  11  20  36  55  85 122 167 209 260 315 376
#     4  10  20  38  58  78 113 166 221 263 307 369
#     4  11  22  35  54  84 128 169 202 255 325 383
#     4  10  21  38  63  98 134 168 209 263 324 387
#     4  12  22  38  63  90 122 168 219 259 316 380
#     4  11  22  38  63  95 129 167 219 273 323 379
#     4  10  21  38  63  97 134 168 207 260 320 386
#     4  11  25  44  62  88 130 176 220 268 322 381
#
# _framework density 20.624760999999999
#
# number of rings (size 3 to 8) (size 9 to 14) (size 15 to 20)
#    0.000    1.250    3.750    3.750    0.000    3.500 
#    0.000    3.125    0.000    4.875    0.000    0.000 
#    0.000    0.000    0.000    0.000    0.000    0.000 
#
# Total GULP energy -178252.278334 kJ/mol
# GULP energy per Si atom -5570.383698 kJ/mol
# Density = 2.057782 g / cm^3
# Si number density = 20.624761 Si / 1000 Ang^3
#
#
#
# Elastic Constant Matrix: (Units=GPa)
#
#
# Indices 1 2 3 4 5 6 
#
# 1 72.0603 36.2575 20.8293 0.0000 1.8522 0.0000
# 2 36.2575 116.6300 24.0931 0.0000 1.4562 0.0000
# 3 20.8293 24.0931 96.8899 0.0000 2.5328 0.0000
# 4 0.0000 0.0000 0.0000 15.9988 0.0000 1.8201
# 5 1.8522 1.4562 2.5328 0.0000 33.0448 0.0000
# 6 0.0000 0.0000 0.0000 1.8201 0.0000 22.2303
#
#
#
# Elastic Compliance Matrix: (Units=1/GPa)
#
#
# Indices 1 2 3 4 5 6 
#
# 1 0.017002 -0.004772 -0.002454 0.000000 -0.000555 0.000000
# 2 -0.004772 0.010379 -0.001553 0.000000 -0.000071 0.000000
# 3 -0.002454 -0.001553 0.011252 0.000000 -0.000656 0.000000
# 4 0.000000 0.000000 0.000000 0.063092 0.000000 -0.005166
# 5 -0.000555 -0.000071 -0.000656 0.000000 0.030346 0.000000
# 6 0.000000 0.000000 0.000000 -0.005166 0.000000 0.045407
#
#
# Mechanical properties :
#
#
# Convention : Reuss Voigt Hill
#
# Bulk Modulus (GPa) = 47.44919 49.77112 48.61015
# Shear Modulus (GPa) = 24.74500 27.88146 26.31323
#
# Velocity S-wave (km/s) = 3.46753 3.68073 3.57572
# Velocity P-wave (km/s) = 6.25200 6.49983 6.37712
#
# Compressibility (1/GPa) = 0.02107518
#
# Stress axis : x y z
#
# Youngs Moduli (GPa) = 58.81765 96.34605 88.87341
#
# Poissons Ratio (x) = 0.45972 0.21809
# Poissons Ratio (y) = 0.28065 0.13805
# Poissons Ratio (z) = 0.14434 0.14966
#
# Static dielectric constant tensor:
#      x y z
#    x 1.838510 0.000000 0.028160 
#    y 0.000000 1.809770 0.000000 
#    z 0.028160 0.000000 1.714140 
# 
# From -- ./inp_files/38236.got.cif
#   From: 2010.05.17/outbox.cif.g08.bks.cpg/sg10_20_cif.got.tgz:38236.got - 2010.06.03 11:33:40.
