data_PCOD9151146
_publ_section_title
;
Structure prediction by ZEFSAII (Michael W. Deem and Ramdas Pophale) SiO2 
 PCOD9151146
Probable space group: P 2/M
;
_chemical_formula_sum "Si O2"
_cell_formula_units_Z 26
_cell_length_a 8.470972
_cell_length_b 7.458810
_cell_length_c 17.829021
_cell_angle_alpha 90.000000
_cell_angle_beta 81.105270
_cell_angle_gamma 90.000000
_cell_volume 1112.950485
_symmetry_space_group_name_H-M "P 2/M"
_symmetry_group_IT_number 10
_symmetry_cell_setting 'monoclinic'
loop_
_space_group_symop_operation_xyz
x,y,z
-x,y,-z
-x,-y,-z
x,-y,z
loop_
_atom_site_type_symbol
_atom_site_label
_atom_site_fract_x
_atom_site_fract_y
_atom_site_fract_z
Si Si1 0.017583 0.293467 0.761052
Si Si2 0.657271 0.209347 0.759084
Si Si3 0.567228 0.297341 0.606672
Si Si4 0.800026 0.715012 0.398515
Si Si5 0.199632 0.000000 0.481544
Si Si6 0.455857 0.284041 0.920362
Si Si7 0.094106 0.719353 0.919326
O O1 0.067655 0.500000 0.765316
O O2 0.835609 0.285346 0.747629
O O3 0.129873 0.223314 0.686897
O O4 0.028844 0.216371 0.843936
O O5 0.559160 0.293190 0.697763
O O6 0.576437 0.234981 0.845583
O O7 0.668726 0.000000 0.743362
O O8 0.607749 0.500000 0.579867
O O9 0.391625 0.252457 0.587647
O O10 0.699415 0.157206 0.571179
O O11 0.828449 0.500000 0.405011
O O12 0.872189 0.843414 0.455856
O O13 0.455490 0.500000 0.923877
O O14 0.277983 0.226982 0.912345
O O15 0.500000 0.217968 0.000000
O O16 0.084721 0.500000 0.921238
O O17 0.000000 0.780508 0.000000
#
# Coordination Sequence:
#
# PCOD9151146 Si02
#       7
#     4   4   4   4   2   4   4
#     4  10  21  39  60  87 122 165 213 260 314 374
#     4  12  25  40  59  88 125 168 214 261 315 374
#     4  11  22  41  66  94 127 165 210 260 319 382
#     4  10  22  39  65  95 126 165 209 261 319 382
#     4  12  23  40  67 100 131 160 205 262 321 384
#     4  10  20  37  64  94 124 164 210 258 315 375
#     4   9  17  33  61  94 124 158 207 261 310 369
#
# _framework density 23.361328
#
# number of rings (size 3 to 8) (size 9 to 14) (size 15 to 20)
#    0.000    1.538    0.769    5.077    1.077    6.462 
#    0.000    2.308    0.000    4.615    0.000    0.000 
#    0.000    0.000    0.000    0.000    0.000    0.154 
#
# Total GULP energy -144981.043934 kJ/mol
# GULP energy per Si atom -5576.193997 kJ/mol
# Density = 2.330816 g / cm^3
# Si number density = 23.361328 Si / 1000 Ang^3
#
#
#
# Elastic Constant Matrix: (Units=GPa)
#
#
# Indices 1 2 3 4 5 6 
#
# 1 41.6633 -6.0516 23.7322 0.0000 0.4274 0.0000
# 2 -6.0516 95.7162 28.8485 0.0000 -2.4658 0.0000
# 3 23.7322 28.8485 142.5165 0.0000 -8.7563 0.0000
# 4 0.0000 0.0000 0.0000 -635.0080 0.0000 -520.5168
# 5 0.4274 -2.4658 -8.7563 0.0000 51.9248 0.0000
# 6 0.0000 0.0000 0.0000 -520.5168 0.0000 -313.0758
#
#
#
# Elastic Compliance Matrix: (Units=1/GPa)
#
#
# Indices 1 2 3 4 5 6 
#
# 1 0.027520 0.003317 -0.005313 0.000000 -0.000965 0.000000
# 2 0.003317 0.011527 -0.002884 0.000000 0.000034 0.000000
# 3 -0.005313 -0.002884 0.008568 0.000000 0.001352 0.000000
# 4 0.000000 0.000000 0.000000 0.004340 0.000000 -0.007216
# 5 -0.000965 0.000034 0.001352 0.000000 0.019496 0.000000
# 6 0.000000 0.000000 0.000000 -0.007216 0.000000 0.008803
#
#
# Mechanical properties :
#
#
# Convention : Reuss Voigt Hill
#
# Bulk Modulus (GPa) = 26.41668 41.43935 33.92801
# Shear Modulus (GPa) = 48.71654 -163.67402 -57.47874
#
# Velocity S-wave (km/s) = 4.57152 -8.37938 -4.96565
# Velocity P-wave (km/s) = 6.26079 8.70872 4.28044
#
# Compressibility (1/GPa) = 0.03785487
#
# Stress axis : x y z
#
# Youngs Moduli (GPa) = 36.33697 86.75132 116.70972
#
# Poissons Ratio (x) = -0.28771 0.62012
# Poissons Ratio (y) = -0.12051 0.33654
# Poissons Ratio (z) = 0.19307 0.25015
#
# Static dielectric constant tensor:
#      x y z
#    x 1.905240 0.000000 0.029220 
#    y 0.000000 1.896010 0.000000 
#    z 0.029220 0.000000 1.898440 
# 
# From -- ./inp_files/74337.got.cif
#   From: 2010.05.17/outbox.cif.g08.bks.cpg/sg10_38_cif.got.tgz:74337.got - 2010.06.03 11:33:40.
