data_PCOD9151383
_publ_section_title
;
Structure prediction by ZEFSAII (Michael W. Deem and Ramdas Pophale) SiO2 
 PCOD9151383
Probable space group: P 2/M
;
_chemical_formula_sum "Si O2"
_cell_formula_units_Z 26
_cell_length_a 17.810470
_cell_length_b 7.735911
_cell_length_c 22.573427
_cell_angle_alpha 90.000000
_cell_angle_beta 155.117452
_cell_angle_gamma 90.000000
_cell_volume 1308.634258
_symmetry_space_group_name_H-M "P 2/M"
_symmetry_group_IT_number 10
_symmetry_cell_setting 'monoclinic'
loop_
_space_group_symop_operation_xyz
x,y,z
-x,y,-z
-x,-y,-z
x,-y,z
loop_
_atom_site_type_symbol
_atom_site_label
_atom_site_fract_x
_atom_site_fract_y
_atom_site_fract_z
Si Si1 0.702408 0.500000 0.123228
Si Si2 0.482516 0.291168 0.353950
Si Si3 0.871090 0.697077 0.963903
Si Si4 0.962775 0.500000 0.543074
Si Si5 0.111938 0.200080 0.241390
Si Si6 0.199393 0.191912 0.505684
Si Si7 0.877087 0.806372 0.184997
Si Si8 0.500000 0.252917 0.500000
O O1 0.854914 0.500000 0.285242
O O2 0.736649 0.667170 0.106494
O O3 0.500000 0.500000 0.000000
O O4 0.468124 0.500000 0.355680
O O5 0.315488 0.235610 0.194339
O O6 0.655504 0.254281 0.438496
O O7 0.481819 0.198294 0.417293
O O8 0.841647 0.500000 0.964052
O O9 0.000000 0.691436 0.000000
O O10 0.976389 0.794437 0.089967
O O11 0.000000 0.500000 0.500000
O O12 0.843592 0.334054 0.475972
O O13 0.290815 0.309339 0.357388
O O14 0.997414 0.255195 0.215979
O O15 0.172435 0.000000 0.293375
O O16 0.016776 0.178673 0.338354
O O17 0.248081 0.000000 0.562412
O O18 0.808387 0.000000 0.122011
#
# Coordination Sequence:
#
# PCOD9151383 Si02
#       8
#     2   4   4   2   4   4   4   2
#     4  10  22  42  68  94 115 156 196 234 315 375
#     4  11  22  38  58  88 122 162 211 262 305 356
#     4  10  22  39  53  76 117 160 201 250 303 347
#     4  10  22  44  68  92 125 150 192 250 303 377
#     4  11  23  38  56  85 120 161 208 255 303 354
#     4  10  20  38  65  91 122 161 198 247 310 365
#     4   9  20  38  61  91 124 155 197 251 301 362
#     4  12  22  34  62  92 118 164 224 265 295 358
#
# _framework density 19.868040000000001
#
# number of rings (size 3 to 8) (size 9 to 14) (size 15 to 20)
#    0.000    1.692    3.846    0.462    1.077    2.769 
#    2.769    0.000    0.000    0.000    0.000    0.000 
#    0.000    0.000    0.000    0.000    0.000    0.000 
#
# Total GULP energy -144746.788503 kJ/mol
# GULP energy per Si atom -5567.184173 kJ/mol
# Density = 1.982282 g / cm^3
# Si number density = 19.868040 Si / 1000 Ang^3
#
#
#
# Elastic Constant Matrix: (Units=GPa)
#
#
# Indices 1 2 3 4 5 6 
#
# 1 159.4312 65.6748 36.3750 0.0000 19.8158 0.0000
# 2 65.6748 95.5928 37.2103 0.0000 15.9451 0.0000
# 3 36.3750 37.2103 96.1412 0.0000 13.5792 0.0000
# 4 0.0000 0.0000 0.0000 -3.6922 0.0000 -38.3939
# 5 19.8158 15.9451 13.5792 0.0000 39.3640 0.0000
# 6 0.0000 0.0000 0.0000 -38.3939 0.0000 -126.6246
#
#
#
# Elastic Compliance Matrix: (Units=1/GPa)
#
#
# Indices 1 2 3 4 5 6 
#
# 1 0.008996 -0.005458 -0.001013 0.000000 -0.001968 0.000000
# 2 -0.005458 0.016109 -0.003822 0.000000 -0.002459 0.000000
# 3 -0.001013 -0.003822 0.012587 0.000000 -0.002284 0.000000
# 4 0.000000 0.000000 0.000000 0.125798 0.000000 -0.038143
# 5 -0.001968 -0.002459 -0.002284 0.000000 0.028179 0.000000
# 6 0.000000 0.000000 0.000000 -0.038143 0.000000 0.003668
#
#
# Mechanical properties :
#
#
# Convention : Reuss Voigt Hill
#
# Bulk Modulus (GPa) = 58.46389 69.96506 64.21448
# Shear Modulus (GPa) = 22.56054 -4.06355 9.24849
#
# Velocity S-wave (km/s) = 3.37340 -1.43168 2.15988
# Velocity P-wave (km/s) = 6.68305 5.70600 6.21375
#
# Compressibility (1/GPa) = 0.01710457
#
# Stress axis : x y z
#
# Youngs Moduli (GPa) = 111.15446 62.07735 79.44889
#
# Poissons Ratio (x) = 0.33882 0.08051
# Poissons Ratio (y) = 0.60669 0.30369
# Poissons Ratio (z) = 0.11264 0.23728
#
# Static dielectric constant tensor:
#      x y z
#    x 1.650360 0.000000 -0.008200 
#    y 0.000000 1.824640 0.000000 
#    z -0.008200 0.000000 1.683160 
# 
# From -- ./inp_files/84822.got.cif
#   From: 2010.05.17/outbox.cif.g08.bks.cpg/sg10_43_cif.got.tgz:84822.got - 2010.06.03 11:33:40.
