data_PCOD9151900
_publ_section_title
;
Structure prediction by ZEFSAII (Michael W. Deem and Ramdas Pophale) SiO2 
 PCOD9151900
Probable space group: P 2/M
;
_chemical_formula_sum "Si O2"
_cell_formula_units_Z 30
_cell_length_a 6.004130
_cell_length_b 19.615516
_cell_length_c 15.373534
_cell_angle_alpha 90.000000
_cell_angle_beta 125.951117
_cell_angle_gamma 90.000000
_cell_volume 1465.717062
_symmetry_space_group_name_H-M "P 2/M"
_symmetry_group_IT_number 10
_symmetry_cell_setting 'monoclinic'
loop_
_space_group_symop_operation_xyz
x,y,z
-x,y,-z
-x,-y,-z
x,-y,z
loop_
_atom_site_type_symbol
_atom_site_label
_atom_site_fract_x
_atom_site_fract_y
_atom_site_fract_z
Si Si1 0.253472 0.668469 0.103380
Si Si2 0.674624 0.578808 0.130236
Si Si3 0.291151 0.888486 0.207921
Si Si4 0.149939 0.000000 0.936234
Si Si5 0.510751 0.798624 0.908093
Si Si6 0.037867 0.707927 0.229381
Si Si7 0.753754 0.811654 0.621947
Si Si8 0.102839 0.928272 0.622940
O O1 0.482491 0.611141 0.160558
O O2 0.309331 0.729424 0.047163
O O3 0.220575 0.709207 0.184698
O O4 0.000000 0.631462 0.000000
O O5 0.742781 0.500000 0.155915
O O6 0.923735 0.631667 0.192197
O O7 0.500000 0.586427 0.000000
O O8 0.358430 0.848652 0.133183
O O9 0.289905 0.838603 0.290282
O O10 0.570572 0.929906 0.290379
O O11 0.011286 0.933599 0.140555
O O12 0.500000 0.000000 0.000000
O O13 0.000000 0.000000 0.000000
O O14 0.214197 0.762659 0.825816
O O15 0.500000 0.832212 0.000000
O O16 0.191823 0.731466 0.351530
O O17 0.500000 0.823569 0.500000
O O18 0.994401 0.859422 0.640666
O O19 0.000000 0.926526 0.500000
O O20 0.989887 0.000000 0.635504
#
# Coordination Sequence:
#
# PCOD9151900 Si02
#       8
#     4   4   4   2   4   4   4   4
#     4  11  18  33  55  92 130 174 222 275 348 426
#     4  10  21  35  57  93 134 183 235 286 354 437
#     4  12  26  45  71  99 137 185 235 298 367 429
#     4  12  34  56  72 102 148 200 252 294 359 462
#     4  11  22  37  64  95 132 181 232 285 349 435
#     4  11  21  37  61  91 139 178 227 291 359 432
#     4  12  26  42  69 104 135 175 236 306 378 443
#     4  11  24  44  73 105 135 176 232 301 379 446
#
# _framework density 20.467798999999999
#
# number of rings (size 3 to 8) (size 9 to 14) (size 15 to 20)
#    0.000    0.800    7.333    0.800    2.800    3.200 
#    0.000    2.000    0.000    0.400    0.000    0.933 
#    0.000    0.000    0.000    0.000    0.000    0.000 
#
# Total GULP energy -167029.905688 kJ/mol
# GULP energy per Si atom -5567.663523 kJ/mol
# Density = 2.042121 g / cm^3
# Si number density = 20.467799 Si / 1000 Ang^3
#
#
#
# Elastic Constant Matrix: (Units=GPa)
#
#
# Indices 1 2 3 4 5 6 
#
# 1 82.6182 39.3055 37.8676 0.0000 0.0853 0.0000
# 2 39.3055 145.0478 53.7390 0.0000 -3.9029 0.0000
# 3 37.8676 53.7390 78.0681 0.0000 -0.5264 0.0000
# 4 0.0000 0.0000 0.0000 28.3884 0.0000 7.0846
# 5 0.0853 -3.9029 -0.5264 0.0000 31.0368 0.0000
# 6 0.0000 0.0000 0.0000 7.0846 0.0000 4.5220
#
#
#
# Elastic Compliance Matrix: (Units=1/GPa)
#
#
# Indices 1 2 3 4 5 6 
#
# 1 0.015972 -0.001970 -0.006394 0.000000 -0.000400 0.000000
# 2 -0.001970 0.009532 -0.005599 0.000000 0.001109 0.000000
# 3 -0.006394 -0.005599 0.019762 0.000000 -0.000351 0.000000
# 4 0.000000 0.000000 0.000000 0.057841 0.000000 -0.090620
# 5 -0.000400 0.001109 -0.000351 0.000000 0.032354 0.000000
# 6 0.000000 0.000000 0.000000 -0.090620 0.000000 0.363116
#
#
# Mechanical properties :
#
#
# Convention : Reuss Voigt Hill
#
# Bulk Modulus (GPa) = 57.66538 63.06203 60.36370
# Shear Modulus (GPa) = 9.39349 24.44424 16.91887
#
# Velocity S-wave (km/s) = 2.14461 3.45958 2.87820
# Velocity P-wave (km/s) = 5.86237 6.84365 6.37193
#
# Compressibility (1/GPa) = 0.01734143
#
# Stress axis : x y z
#
# Youngs Moduli (GPa) = 62.60882 104.90793 50.60158
#
# Poissons Ratio (x) = 0.20667 0.32355
# Poissons Ratio (y) = 0.12334 0.28329
# Poissons Ratio (z) = 0.40032 0.58733
#
# Static dielectric constant tensor:
#      x y z
#    x 1.890800 0.000000 0.017920 
#    y 0.000000 1.773370 0.000000 
#    z 0.017920 0.000000 1.785990 
# 
# From -- ./inp_files/59642.got.cif
#   From: 2010.05.17/outbox.cif.g08.bks.cpg/sg10_30_cif.got.tgz:59642.got - 2010.06.03 11:33:40.
