data_PCOD9151614
_publ_section_title
;
Structure prediction by ZEFSAII (Michael W. Deem and Ramdas Pophale) SiO2 
 PCOD9151614
Probable space group: P 2/M
;
_chemical_formula_sum "Si O2"
_cell_formula_units_Z 19
_cell_length_a 5.108755
_cell_length_b 19.740985
_cell_length_c 9.823230
_cell_angle_alpha 90.000000
_cell_angle_beta 103.529741
_cell_angle_gamma 90.000000
_cell_volume 963.197927
_symmetry_space_group_name_H-M "P 2/M"
_symmetry_group_IT_number 10
_symmetry_cell_setting 'monoclinic'
loop_
_space_group_symop_operation_xyz
x,y,z
-x,y,-z
-x,-y,-z
x,-y,z
loop_
_atom_site_type_symbol
_atom_site_label
_atom_site_fract_x
_atom_site_fract_y
_atom_site_fract_z
Si Si1 0.580190 0.339007 0.669182
Si Si2 0.968936 0.115779 0.188403
Si Si3 0.533347 0.205026 0.842998
Si Si4 0.205801 0.000000 0.403122
Si Si5 0.918758 0.423804 0.330457
Si Si6 0.000000 0.000000 0.000000
O O1 0.500000 0.327874 0.500000
O O2 0.538569 0.271403 0.750355
O O3 0.879921 0.369314 0.710076
O O4 0.382243 0.396021 0.705169
O O5 0.185913 0.166849 0.150809
O O6 0.722655 0.157071 0.223092
O O7 0.142880 0.066456 0.306779
O O8 0.850905 0.060405 0.069467
O O9 0.500000 0.220147 0.000000
O O10 0.500000 0.000000 0.500000
O O11 0.000000 0.000000 0.500000
O O12 0.945373 0.500000 0.278674
O O13 0.000000 0.426843 0.500000
#
# Coordination Sequence:
#
# PCOD9151614 Si02
#       6
#     4   4   4   2   4   1
#     4  10  21  35  56  86 120 155 192 244 299 355
#     4  11  24  39  64  84 112 155 198 248 291 358
#     4  12  23  40  59  89 120 159 200 241 301 355
#     4  11  24  43  60  89 120 147 189 247 311 359
#     4   9  17  33  58  86 114 151 201 247 289 342
#     4  10  20  42  60  86 104 136 206 248 280 326
#
# _framework density 19.725957000000001
#
# number of rings (size 3 to 8) (size 9 to 14) (size 15 to 20)
#    0.000    1.474    2.105    3.158    0.000    8.421 
#    0.000    0.000    0.000    3.789    0.000    0.000 
#    0.000    0.000    0.000    0.000    0.000    0.000 
#
# Total GULP energy -105769.841420 kJ/mol
# GULP energy per Si atom -5566.833759 kJ/mol
# Density = 1.968106 g / cm^3
# Si number density = 19.725957 Si / 1000 Ang^3
#
#
#
# Elastic Constant Matrix: (Units=GPa)
#
#
# Indices 1 2 3 4 5 6 
#
# 1 104.0142 27.9701 15.4339 0.0000 -15.0196 0.0000
# 2 27.9701 136.7317 37.7914 0.0000 -13.2898 0.0000
# 3 15.4339 37.7914 44.0684 0.0000 -7.0264 0.0000
# 4 0.0000 0.0000 0.0000 29.9448 0.0000 -14.5471
# 5 -15.0196 -13.2898 -7.0264 0.0000 28.0444 0.0000
# 6 0.0000 0.0000 0.0000 -14.5471 0.0000 29.2376
#
#
#
# Elastic Compliance Matrix: (Units=1/GPa)
#
#
# Indices 1 2 3 4 5 6 
#
# 1 0.010930 -0.001211 -0.002028 0.000000 0.004771 0.000000
# 2 -0.001211 0.009903 -0.007733 0.000000 0.002107 0.000000
# 3 -0.002028 -0.007733 0.030494 0.000000 0.002890 0.000000
# 4 0.000000 0.000000 0.000000 0.044039 0.000000 0.021912
# 5 0.004771 0.002107 0.002890 0.000000 0.039936 0.000000
# 6 0.000000 0.000000 0.000000 0.021912 0.000000 0.045105
#
#
# Mechanical properties :
#
#
# Convention : Reuss Voigt Hill
#
# Bulk Modulus (GPa) = 34.03342 49.68946 41.86144
# Shear Modulus (GPa) = 23.56870 31.01996 27.29433
#
# Velocity S-wave (km/s) = 3.46035 3.96984 3.72381
# Velocity P-wave (km/s) = 5.76679 6.80128 6.30529
#
# Compressibility (1/GPa) = 0.02938289
#
# Stress axis : x y z
#
# Youngs Moduli (GPa) = 91.49314 100.97537 32.79313
#
# Poissons Ratio (x) = 0.12233 0.06651
# Poissons Ratio (y) = 0.11084 0.25357
# Poissons Ratio (z) = 0.18557 0.78080
#
# Static dielectric constant tensor:
#      x y z
#    x 1.677980 0.000000 0.027010 
#    y 0.000000 1.670690 0.000000 
#    z 0.027010 0.000000 1.752430 
# 
# From -- ./inp_files/14731.got.cif
#   From: 2010.05.17/outbox.cif.g08.bks.cpg/sg10_8_cif.got.tgz:14731.got - 2010.06.03 11:33:40.
