data_PCOD9151687
_publ_section_title
;
Structure prediction by ZEFSAII (Michael W. Deem and Ramdas Pophale) SiO2 
 PCOD9151687
Probable space group: P 2/M
;
_chemical_formula_sum "Si O2"
_cell_formula_units_Z 24
_cell_length_a 11.395731
_cell_length_b 7.318145
_cell_length_c 22.153449
_cell_angle_alpha 90.000000
_cell_angle_beta 33.255620
_cell_angle_gamma 90.000000
_cell_volume 1013.123523
_symmetry_space_group_name_H-M "P 2/M"
_symmetry_group_IT_number 10
_symmetry_cell_setting 'monoclinic'
loop_
_space_group_symop_operation_xyz
x,y,z
-x,y,-z
-x,-y,-z
x,-y,z
loop_
_atom_site_type_symbol
_atom_site_label
_atom_site_fract_x
_atom_site_fract_y
_atom_site_fract_z
Si Si1 0.333716 0.212614 0.836320
Si Si2 0.913334 0.222502 0.171146
Si Si3 0.623278 0.223576 0.044612
Si Si4 0.842705 0.789501 0.754614
Si Si5 0.185623 0.719106 0.374853
Si Si6 0.719896 0.223191 0.376263
O O1 0.168969 0.288047 0.858396
O O2 0.343790 0.284956 0.899940
O O3 0.575968 0.226036 0.707420
O O4 0.277836 0.000000 0.867814
O O5 0.751841 0.276144 0.293119
O O6 0.913080 0.000000 0.169020
O O7 0.156473 0.276540 0.082013
O O8 0.388264 0.287483 0.126104
O O9 0.612745 0.000000 0.048324
O O10 0.842999 0.786296 0.681491
O O11 0.065770 0.712511 0.681956
O O12 0.841657 0.000000 0.775897
O O13 0.178376 0.500000 0.375721
O O14 0.000000 0.782209 0.500000
O O15 0.500000 0.286829 0.500000
O O16 0.716274 0.000000 0.380611
#
# Coordination Sequence:
#
# PCOD9151687 Si02
#       6
#     4   4   4   4   4   4
#     4   9  17  29  49  76  99 125 161 200 243 290
#     4   9  16  26  45  72 103 134 158 196 246 284
#     4   8  14  26  44  71 100 125 161 201 241 285
#     4   9  18  32  51  72  97 127 163 205 238 283
#     4  10  21  34  49  70  97 129 162 200 246 292
#     4   9  18  29  42  69 104 132 162 200 241 283
#
# _framework density 23.689117
#
# number of rings (size 3 to 8) (size 9 to 14) (size 15 to 20)
#    0.000    3.000    0.000    2.000    2.333    4.000 
#    0.000    3.333    0.000    9.500    0.000    4.667 
#    0.000    0.000    0.000    0.000    0.000    0.000 
#
# Total GULP energy -134021.739740 kJ/mol
# GULP energy per Si atom -5584.239156 kJ/mol
# Density = 2.363520 g / cm^3
# Si number density = 23.689117 Si / 1000 Ang^3
#
#
#
# Elastic Constant Matrix: (Units=GPa)
#
#
# Indices 1 2 3 4 5 6 
#
# 1 86.9883 0.0890 28.6931 0.0000 -33.1071 0.0000
# 2 0.0890 98.3762 -2.0338 0.0000 -3.5971 0.0000
# 3 28.6931 -2.0338 156.1600 0.0000 -21.3213 0.0000
# 4 0.0000 0.0000 0.0000 -77.1232 0.0000 -20.8525
# 5 -33.1071 -3.5971 -21.3213 0.0000 31.6703 0.0000
# 6 0.0000 0.0000 0.0000 -20.8525 0.0000 -78.4097
#
#
#
# Elastic Compliance Matrix: (Units=1/GPa)
#
#
# Indices 1 2 3 4 5 6 
#
# 1 0.019243 0.000683 -0.000848 0.000000 0.019623 0.000000
# 2 0.000683 0.010246 0.000291 0.000000 0.002073 0.000000
# 3 -0.000848 0.000291 0.007099 0.000000 0.003926 0.000000
# 4 0.000000 0.000000 0.000000 -0.013971 0.000000 0.003715
# 5 0.019623 0.002073 0.003926 0.000000 0.054967 0.000000
# 6 0.000000 0.000000 0.000000 0.003715 0.000000 -0.013742
#
#
# Mechanical properties :
#
#
# Convention : Reuss Voigt Hill
#
# Bulk Modulus (GPa) = 27.14391 43.89124 35.51758
# Shear Modulus (GPa) = 65.90079 -3.78744 31.05668
#
# Velocity S-wave (km/s) = 5.28010 -1.26581 3.62472
# Velocity P-wave (km/s) = 6.97537 4.05362 5.70472
#
# Compressibility (1/GPa) = 0.03684067
#
# Stress axis : x y z
#
# Youngs Moduli (GPa) = 51.96682 97.59647 140.85856
#
# Poissons Ratio (x) = -0.06662 0.11940
# Poissons Ratio (y) = -0.03547 -0.04100
# Poissons Ratio (z) = 0.04405 -0.02841
#
# Static dielectric constant tensor:
#      x y z
#    x 1.874650 0.000000 -0.004920 
#    y 0.000000 1.896730 0.000000 
#    z -0.004920 0.000000 1.880350 
# 
# From -- ./inp_files/45154.got.cif
#   From: 2010.05.17/outbox.cif.g08.bks.cpg/sg10_23_cif.got.tgz:45154.got - 2010.06.03 11:33:40.
