data_PCOD9151166
_publ_section_title
;
Structure prediction by ZEFSAII (Michael W. Deem and Ramdas Pophale) SiO2 
 PCOD9151166
Probable space group: P 2/M
;
_chemical_formula_sum "Si O2"
_cell_formula_units_Z 24
_cell_length_a 9.189862
_cell_length_b 14.997297
_cell_length_c 18.087267
_cell_angle_alpha 90.000000
_cell_angle_beta 149.474983
_cell_angle_gamma 90.000000
_cell_volume 1266.151185
_symmetry_space_group_name_H-M "P 2/M"
_symmetry_group_IT_number 10
_symmetry_cell_setting 'monoclinic'
loop_
_space_group_symop_operation_xyz
x,y,z
-x,y,-z
-x,-y,-z
x,-y,z
loop_
_atom_site_type_symbol
_atom_site_label
_atom_site_fract_x
_atom_site_fract_y
_atom_site_fract_z
Si Si1 0.081488 0.000000 0.657182
Si Si2 0.706125 0.656676 0.193462
Si Si3 0.202850 0.500000 0.657387
Si Si4 0.963680 0.154717 0.899467
Si Si5 0.427379 0.146457 0.881492
Si Si6 0.944904 0.657542 0.137974
Si Si7 0.802843 0.500000 0.841217
Si Si8 0.513229 0.000000 0.312584
O O1 0.168894 0.082316 0.747646
O O2 0.300434 0.000000 0.682174
O O3 0.759611 0.000000 0.484008
O O4 0.821280 0.588050 0.303219
O O5 0.657346 0.759802 0.192735
O O6 0.909328 0.654672 0.210508
O O7 0.377687 0.631355 0.029703
O O8 0.503200 0.500000 0.748808
O O9 0.000000 0.500000 0.500000
O O10 0.964193 0.243692 0.849339
O O11 0.698443 0.086402 0.775939
O O12 0.000000 0.184932 0.000000
O O13 0.270544 0.109414 0.016094
O O14 0.500000 0.162078 0.000000
O O15 0.145778 0.585665 0.187631
O O16 0.000000 0.500000 0.000000
#
# Coordination Sequence:
#
# PCOD9151166 Si02
#       8
#     2   4   2   4   4   4   2   2
#     4  11  24  41  60  91 130 175 206 250 331 385
#     4  10  20  42  64  93 128 161 203 259 317 364
#     4  12  27  43  61  95 134 171 203 246 317 384
#     4  11  20  37  65  95 125 159 216 266 307 361
#     4  11  21  41  67  95 121 163 218 262 312 373
#     4  10  20  37  67  97 118 155 211 266 309 351
#     4  12  21  35  65  99 118 154 213 258 292 359
#     4  11  24  40  58  92 132 168 203 260 323 371
#
# _framework density 18.955082999999998
#
# number of rings (size 3 to 8) (size 9 to 14) (size 15 to 20)
#    0.000    1.167    6.667    2.000    2.333    1.333 
#    6.000    3.333    0.000    0.000    0.000    0.000 
#    0.000    0.000    0.000    0.000    0.000    0.000 
#
# Total GULP energy -133788.626427 kJ/mol
# GULP energy per Si atom -5574.526101 kJ/mol
# Density = 1.891194 g / cm^3
# Si number density = 18.955083 Si / 1000 Ang^3
#
#
#
# Elastic Constant Matrix: (Units=GPa)
#
#
# Indices 1 2 3 4 5 6 
#
# 1 105.6574 53.9820 41.2029 0.0000 6.1150 0.0000
# 2 53.9820 136.9358 68.0846 0.0000 -15.3379 0.0000
# 3 41.2029 68.0846 117.4671 0.0000 -7.2312 0.0000
# 4 0.0000 0.0000 0.0000 -13.3077 0.0000 -4.1742
# 5 6.1150 -15.3379 -7.2312 0.0000 14.8595 0.0000
# 6 0.0000 0.0000 0.0000 -4.1742 0.0000 19.5341
#
#
#
# Elastic Compliance Matrix: (Units=1/GPa)
#
#
# Indices 1 2 3 4 5 6 
#
# 1 0.014128 -0.005850 -0.002366 0.000000 -0.013004 0.000000
# 2 -0.005850 0.013677 -0.005008 0.000000 0.014087 0.000000
# 3 -0.002366 -0.005008 0.012357 0.000000 0.001818 0.000000
# 4 0.000000 0.000000 0.000000 -0.070424 0.000000 -0.015049
# 5 -0.013004 0.014087 0.001818 0.000000 0.088074 0.000000
# 6 0.000000 0.000000 0.000000 -0.015049 0.000000 0.047977
#
#
# Mechanical properties :
#
#
# Convention : Reuss Voigt Hill
#
# Bulk Modulus (GPa) = 72.90998 76.28878 74.59938
# Shear Modulus (GPa) = 36.54772 17.33658 26.94215
#
# Velocity S-wave (km/s) = 4.39580 3.02754 3.77419
# Velocity P-wave (km/s) = 8.01949 7.24954 7.64421
#
# Compressibility (1/GPa) = 0.01371554
#
# Stress axis : x y z
#
# Youngs Moduli (GPa) = 70.77895 73.11726 80.92398
#
# Poissons Ratio (x) = 0.42774 0.19143
# Poissons Ratio (y) = 0.41406 0.40526
# Poissons Ratio (z) = 0.16743 0.36616
#
# Static dielectric constant tensor:
#      x y z
#    x 1.685580 0.000000 -0.002340 
#    y 0.000000 1.683220 0.000000 
#    z -0.002340 0.000000 1.628830 
# 
# From -- ./inp_files/75373.got.cif
#   From: 2010.05.17/outbox.cif.g08.bks.cpg/sg10_38_cif.got.tgz:75373.got - 2010.06.03 11:33:40.
