data_PCOD9151897
_publ_section_title
;
Structure prediction by ZEFSAII (Michael W. Deem and Ramdas Pophale) SiO2 
 PCOD9151897
Probable space group: P 2/M
;
_chemical_formula_sum "Si O2"
_cell_formula_units_Z 28
_cell_length_a 13.057288
_cell_length_b 15.314062
_cell_length_c 8.938124
_cell_angle_alpha 90.000000
_cell_angle_beta 129.659188
_cell_angle_gamma 90.000000
_cell_volume 1375.936310
_symmetry_space_group_name_H-M "P 2/M"
_symmetry_group_IT_number 10
_symmetry_cell_setting 'monoclinic'
loop_
_space_group_symop_operation_xyz
x,y,z
-x,y,-z
-x,-y,-z
x,-y,z
loop_
_atom_site_type_symbol
_atom_site_label
_atom_site_fract_x
_atom_site_fract_y
_atom_site_fract_z
Si Si1 0.316070 0.404136 0.129829
Si Si2 0.387117 0.780042 0.272685
Si Si3 0.875765 0.590821 0.775389
Si Si4 0.848557 0.211451 0.420092
Si Si5 0.157556 0.597431 0.682301
Si Si6 0.877731 0.785617 0.776246
Si Si7 0.636731 0.101927 0.035197
O O1 0.379193 0.500000 0.162838
O O2 0.400862 0.316024 0.209163
O O3 0.251433 0.406961 0.234632
O O4 0.199140 0.393730 0.896546
O O5 0.500000 0.791805 0.500000
O O6 0.248674 0.785225 0.233653
O O7 0.386456 0.852254 0.145017
O O8 0.872874 0.500000 0.683046
O O9 0.897288 0.686336 0.732661
O O10 0.000000 0.583520 0.000000
O O11 0.794523 0.312124 0.348963
O O12 0.852320 0.171118 0.591920
O O13 0.754154 0.152471 0.229720
O O14 0.000000 0.212042 0.500000
O O15 0.212332 0.500000 0.695545
O O16 0.000000 0.594548 0.500000
O O17 0.000000 0.809489 0.000000
O O18 0.669114 0.000000 0.048742
O O19 0.500000 0.109792 0.000000
#
# Coordination Sequence:
#
# PCOD9151897 Si02
#       7
#     4   4   4   4   4   4   4
#     4   9  17  32  51  81 120 163 205 247 297 357
#     4  11  22  40  64  90 122 160 204 257 308 365
#     4   8  15  24  42  70 110 155 198 240 280 331
#     4  11  22  38  64  94 130 167 205 256 310 366
#     4   9  18  29  52  87 125 167 212 252 294 351
#     4  10  21  35  57  89 123 160 201 246 302 362
#     4  11  25  46  70  93 119 156 203 256 319 384
#
# _framework density 20.349779000000002
#
# number of rings (size 3 to 8) (size 9 to 14) (size 15 to 20)
#    0.000    2.143    1.429    1.714   10.000    1.429 
#    0.000    0.714    0.000    5.143    0.000    0.000 
#    0.000    0.000    0.000    0.000    0.000    0.000 
#
# Total GULP energy -155926.135021 kJ/mol
# GULP energy per Si atom -5568.790536 kJ/mol
# Density = 2.030346 g / cm^3
# Si number density = 20.349779 Si / 1000 Ang^3
#
#
#
# Elastic Constant Matrix: (Units=GPa)
#
#
# Indices 1 2 3 4 5 6 
#
# 1 38.9377 31.6454 26.0979 0.0000 -1.3646 0.0000
# 2 31.6454 133.4109 64.3365 0.0000 4.8859 0.0000
# 3 26.0979 64.3365 161.7874 0.0000 -7.3854 0.0000
# 4 0.0000 0.0000 0.0000 16.3656 0.0000 -11.2277
# 5 -1.3646 4.8859 -7.3854 0.0000 29.5285 0.0000
# 6 0.0000 0.0000 0.0000 -11.2277 0.0000 -155.9680
#
#
#
# Elastic Compliance Matrix: (Units=1/GPa)
#
#
# Indices 1 2 3 4 5 6 
#
# 1 0.032862 -0.006624 -0.002577 0.000000 0.001970 0.000000
# 2 -0.006624 0.010793 -0.003357 0.000000 -0.002932 0.000000
# 3 -0.002577 -0.003357 0.008043 0.000000 0.002448 0.000000
# 4 0.000000 0.000000 0.000000 0.058228 0.000000 -0.004192
# 5 0.001970 -0.002932 0.002448 0.000000 0.035054 0.000000
# 6 0.000000 0.000000 0.000000 -0.004192 0.000000 -0.006110
#
#
# Mechanical properties :
#
#
# Convention : Reuss Voigt Hill
#
# Bulk Modulus (GPa) = 37.61983 64.25506 50.93745
# Shear Modulus (GPa) = 28.92700 -7.87771 10.52464
#
# Velocity S-wave (km/s) = 3.77435 -1.96966 2.27664
# Velocity P-wave (km/s) = 6.12544 5.14501 5.65651
#
# Compressibility (1/GPa) = 0.02658172
#
# Stress axis : x y z
#
# Youngs Moduli (GPa) = 30.43026 92.64905 124.32470
#
# Poissons Ratio (x) = 0.61375 0.32035
# Poissons Ratio (y) = 0.20159 0.41740
# Poissons Ratio (z) = 0.07841 0.31106
#
# Static dielectric constant tensor:
#      x y z
#    x 1.733590 0.000000 -0.023900 
#    y 0.000000 1.802470 0.000000 
#    z -0.023900 0.000000 1.709750 
# 
# From -- ./inp_files/29608.got.cif
#   From: 2010.05.17/outbox.cif.g08.bks.cpg/sg10_15_cif.got.tgz:29608.got - 2010.06.03 11:33:40.
