data_PCOD9151947
_publ_section_title
;
Structure prediction by ZEFSAII (Michael W. Deem and Ramdas Pophale) SiO2 
 PCOD9151947
Probable space group: P 2/M
;
_chemical_formula_sum "Si O2"
_cell_formula_units_Z 32
_cell_length_a 9.056579
_cell_length_b 21.889016
_cell_length_c 15.424115
_cell_angle_alpha 90.000000
_cell_angle_beta 148.379857
_cell_angle_gamma 90.000000
_cell_volume 1603.091683
_symmetry_space_group_name_H-M "P 2/M"
_symmetry_group_IT_number 10
_symmetry_cell_setting 'monoclinic'
loop_
_space_group_symop_operation_xyz
x,y,z
-x,y,-z
-x,-y,-z
x,-y,z
loop_
_atom_site_type_symbol
_atom_site_label
_atom_site_fract_x
_atom_site_fract_y
_atom_site_fract_z
Si Si1 0.828253 0.067198 0.769968
Si Si2 0.171749 0.932802 0.441717
Si Si3 0.835381 0.566745 0.827102
Si Si4 0.170021 0.183832 0.729594
Si Si5 0.181314 0.318299 0.943608
Si Si6 0.181314 0.318299 0.737706
Si Si7 0.835382 0.566745 0.508280
Si Si8 0.170022 0.183832 0.940427
O O1 0.840629 0.067587 0.670314
O O2 0.500001 0.072185 0.629176
O O3 0.997389 0.125841 0.886745
O O4 0.934248 0.000000 0.850473
O O5 0.002612 0.874159 0.389357
O O6 0.065754 0.000000 0.416226
O O7 0.882690 0.500000 0.807268
O O8 0.500000 0.573380 0.670369
O O9 0.970350 0.626146 0.851946
O O10 0.000000 0.563834 0.000000
O O11 0.082140 0.251742 0.655153
O O12 0.143696 0.182983 0.821848
O O13 0.500000 0.177295 0.874755
O O14 0.208652 0.311367 0.854326
O O15 0.082140 0.251742 0.926986
O O16 0.500000 0.331040 0.136967
O O17 0.970350 0.373854 0.618403
O O18 0.882691 0.500000 0.575423
O O19 0.000000 0.563833 0.500000
#
# Coordination Sequence:
#
# PCOD9151947 Si02
#       8
#     4   4   4   4   4   4   4   4
#     4   8  13  20  30  47  74 109 147 184 222 264
#     4   8  13  20  30  47  74 109 147 184 222 264
#     4  10  21  36  53  72  94 121 154 192 233 278
#     4   8  14  24  37  55  81 113 148 184 222 265
#     4   9  18  32  49  70  97 127 157 191 233 279
#     4   9  18  32  49  70  97 127 157 191 233 279
#     4  10  21  36  53  72  94 121 154 192 233 278
#     4   8  14  24  37  55  81 113 148 184 222 265
#
# _framework density 19.961428999999999
#
# number of rings (size 3 to 8) (size 9 to 14) (size 15 to 20)
#    0.000    3.250    0.000    3.000    0.000    4.000 
#    0.000    7.500    0.000    0.000    0.000    0.000 
#    0.000    1.000    0.000    3.250    0.000    7.250 
#
# Total GULP energy -178159.021117 kJ/mol
# GULP energy per Si atom -5567.469410 kJ/mol
# Density = 1.991600 g / cm^3
# Si number density = 19.961429 Si / 1000 Ang^3
#
#
#
# Elastic Constant Matrix: (Units=GPa)
#
#
# Indices 1 2 3 4 5 6 
#
# 1 22.0976 31.7431 9.6217 0.0000 8.7124 0.0000
# 2 31.7431 248.1912 96.3804 0.0000 36.4039 0.0000
# 3 9.6217 96.3804 69.1160 0.0000 17.7685 0.0000
# 4 0.0000 0.0000 0.0000 48.2346 0.0000 2.5968
# 5 8.7124 36.4039 17.7685 0.0000 19.0730 0.0000
# 6 0.0000 0.0000 0.0000 2.5968 0.0000 43.6248
#
#
#
# Elastic Compliance Matrix: (Units=1/GPa)
#
#
# Indices 1 2 3 4 5 6 
#
# 1 0.061068 -0.007789 0.007508 0.000000 -0.020023 0.000000
# 2 -0.007789 0.010565 -0.012333 0.000000 -0.005118 0.000000
# 3 0.007508 -0.012333 0.033466 0.000000 -0.011068 0.000000
# 4 0.000000 0.000000 0.000000 0.020799 0.000000 -0.001238
# 5 -0.020023 -0.005118 -0.011068 0.000000 0.081656 0.000000
# 6 0.000000 0.000000 0.000000 -0.001238 0.000000 0.022996
#
#
# Mechanical properties :
#
#
# Convention : Reuss Voigt Hill
#
# Bulk Modulus (GPa) = 12.52006 68.32169 40.42088
# Shear Modulus (GPa) = 17.70515 35.63047 26.66781
#
# Velocity S-wave (km/s) = 2.98143 4.22947 3.65905
# Velocity P-wave (km/s) = 4.25883 7.62577 6.17616
#
# Compressibility (1/GPa) = 0.07987180
#
# Stress axis : x y z
#
# Youngs Moduli (GPa) = 16.37509 94.64884 29.88066
#
# Poissons Ratio (x) = 0.73723 -0.22434
# Poissons Ratio (y) = 0.12755 0.36852
# Poissons Ratio (z) = -0.12294 1.16730
#
# Static dielectric constant tensor:
#      x y z
#    x 1.746840 0.000000 -0.030520 
#    y 0.000000 1.768530 0.000000 
#    z -0.030520 0.000000 1.692660 
# 
# From -- ./inp_files/84252.got.cif
#   From: 2010.05.17/outbox.cif.g08.bks.cpg/sg10_43_cif.got.tgz:84252.got - 2010.06.03 11:33:40.
