data_PCOD9151930
_publ_section_title
;
Structure prediction by ZEFSAII (Michael W. Deem and Ramdas Pophale) SiO2 
 PCOD9151930
Probable space group: P 2/M
;
_chemical_formula_sum "Si O2"
_cell_formula_units_Z 24
_cell_length_a 12.561000
_cell_length_b 7.585465
_cell_length_c 21.639564
_cell_angle_alpha 90.000000
_cell_angle_beta 141.654000
_cell_angle_gamma 90.000000
_cell_volume 1279.183779
_symmetry_space_group_name_H-M "P 2/M"
_symmetry_group_IT_number 10
_symmetry_cell_setting 'monoclinic'
loop_
_space_group_symop_operation_xyz
x,y,z
-x,y,-z
-x,-y,-z
x,-y,z
loop_
_atom_site_type_symbol
_atom_site_label
_atom_site_fract_x
_atom_site_fract_y
_atom_site_fract_z
Si Si1 0.173618 0.709180 0.269219
Si Si2 0.885616 0.715970 0.388050
Si Si3 0.862425 0.206653 0.889590
Si Si4 0.919998 0.715025 0.645956
Si Si5 0.471975 0.287860 0.725368
Si Si6 0.445054 0.285344 0.571237
O O1 0.186812 0.500000 0.284629
O O2 0.123278 0.730722 0.174813
O O3 0.054035 0.773077 0.271069
O O4 0.368447 0.779828 0.364425
O O5 0.888731 0.500000 0.390035
O O6 0.687906 0.772340 0.306376
O O7 0.000000 0.768854 0.500000
O O8 0.964088 0.776042 0.358513
O O9 0.667784 0.231950 0.825063
O O10 0.894562 0.000000 0.900175
O O11 0.000000 0.284906 0.000000
O O12 0.931141 0.500000 0.648616
O O13 0.724562 0.767871 0.541462
O O14 0.474010 0.500000 0.728238
O O15 0.427550 0.236107 0.634917
O O16 0.448823 0.500000 0.569653
#
# Coordination Sequence:
#
# PCOD9151930 Si02
#       6
#     4   4   4   4   4   4
#     4   9  17  27  44  71  95 118 151 189 229 270
#     4   9  14  22  40  71 105 131 154 180 211 256
#     4  10  21  36  52  66  83 113 153 200 250 288
#     4   9  14  21  38  67 103 131 149 176 215 264
#     4   9  16  27  47  74  97 120 154 190 222 261
#     4   8  12  20  36  63  96 124 149 177 210 254
#
# _framework density 18.761962
#
# number of rings (size 3 to 8) (size 9 to 14) (size 15 to 20)
#    0.000    3.000    1.667    2.000    0.000    3.333 
#    0.000    0.000    0.000   10.500    0.000    7.000 
#    0.000    0.000    0.000    0.000    0.000    0.000 
#
# Total GULP energy -133651.473991 kJ/mol
# GULP energy per Si atom -5568.811416 kJ/mol
# Density = 1.871926 g / cm^3
# Si number density = 18.761962 Si / 1000 Ang^3
#
#
#
# Elastic Constant Matrix: (Units=GPa)
#
#
# Indices 1 2 3 4 5 6 
#
# 1 186.1378 3.8783 67.2910 0.0000 -19.0262 0.0000
# 2 3.8783 32.0155 -11.0569 0.0000 -1.2145 0.0000
# 3 67.2910 -11.0569 88.0328 0.0000 -2.3688 0.0000
# 4 0.0000 0.0000 0.0000 18.6341 0.0000 0.4156
# 5 -19.0262 -1.2145 -2.3688 0.0000 8.0675 0.0000
# 6 0.0000 0.0000 0.0000 0.4156 0.0000 -9.9548
#
#
#
# Elastic Compliance Matrix: (Units=1/GPa)
#
#
# Indices 1 2 3 4 5 6 
#
# 1 0.010531 -0.003151 -0.007852 0.000000 0.022057 0.000000
# 2 -0.003151 0.033901 0.006656 0.000000 -0.000373 0.000000
# 3 -0.007852 0.006656 0.017867 0.000000 -0.012270 0.000000
# 4 0.000000 0.000000 0.000000 0.053615 0.000000 0.002238
# 5 0.022057 -0.000373 -0.012270 0.000000 0.172314 0.000000
# 6 0.000000 0.000000 0.000000 0.002238 0.000000 -0.100361
#
#
# Mechanical properties :
#
#
# Convention : Reuss Voigt Hill
#
# Bulk Modulus (GPa) = 18.65439 47.37899 33.01669
# Shear Modulus (GPa) = 23.31759 19.75427 21.53593
#
# Velocity S-wave (km/s) = 3.52918 3.24835 3.39167
# Velocity P-wave (km/s) = 5.15471 6.27507 5.74228
#
# Compressibility (1/GPa) = 0.05360669
#
# Stress axis : x y z
#
# Youngs Moduli (GPa) = 94.95578 29.49741 55.96799
#
# Poissons Ratio (x) = 0.09294 0.43947
# Poissons Ratio (y) = 0.29919 -0.37254
# Poissons Ratio (z) = 0.74561 -0.19635
#
# Static dielectric constant tensor:
#      x y z
#    x 1.694700 0.000000 -0.015280 
#    y 0.000000 1.702360 0.000000 
#    z -0.015280 0.000000 1.647610 
# 
# From -- ./inp_files/52873.got.cif
#   From: 2010.05.17/outbox.cif.g08.bks.cpg/sg10_27_cif.got.tgz:52873.got - 2010.06.03 11:33:40.
