data_PCOD9151923
_publ_section_title
;
Structure prediction by ZEFSAII (Michael W. Deem and Ramdas Pophale) SiO2 
 PCOD9151923
Probable space group: P 2/M
;
_chemical_formula_sum "Si O2"
_cell_formula_units_Z 28
_cell_length_a 16.294589
_cell_length_b 14.300290
_cell_length_c 12.583596
_cell_angle_alpha 90.000000
_cell_angle_beta 154.697644
_cell_angle_gamma 90.000000
_cell_volume 1253.206096
_symmetry_space_group_name_H-M "P 2/M"
_symmetry_group_IT_number 10
_symmetry_cell_setting 'monoclinic'
loop_
_space_group_symop_operation_xyz
x,y,z
-x,y,-z
-x,-y,-z
x,-y,z
loop_
_atom_site_type_symbol
_atom_site_label
_atom_site_fract_x
_atom_site_fract_y
_atom_site_fract_z
Si Si1 0.213287 0.805819 0.940816
Si Si2 0.269762 0.303767 0.709695
Si Si3 0.279688 0.894741 0.786292
Si Si4 0.412857 0.256759 0.496869
Si Si5 0.319732 0.604247 0.548023
Si Si6 0.153573 0.895258 0.084642
Si Si7 0.781198 0.396001 0.130033
O O1 0.427513 0.787128 0.239131
O O2 0.100685 0.855516 0.905740
O O3 0.249029 0.865237 0.874476
O O4 0.143921 0.699638 0.835774
O O5 0.192897 0.197074 0.626849
O O6 0.247061 0.354406 0.572648
O O7 0.205301 0.370843 0.729532
O O8 0.500000 0.293921 0.000000
O O9 0.202365 0.000000 0.678010
O O10 0.500000 0.899126 0.000000
O O11 0.500000 0.314914 0.500000
O O12 0.276899 0.322892 0.405482
O O13 0.306399 0.174224 0.313040
O O14 0.250379 0.500000 0.447198
O O15 0.553486 0.600998 0.833454
O O16 0.227038 0.000000 0.153170
O O17 0.000000 0.899206 0.000000
O O18 0.857922 0.500000 0.196374
#
# Coordination Sequence:
#
# PCOD9151923 Si02
#       7
#     4   4   4   4   4   4   4
#     4   9  17  29  47  71  96 120 151 190 228 267
#     4   8  13  21  33  57  92 124 151 176 213 268
#     4   9  15  22  36  63  98 126 146 180 229 271
#     4   9  18  30  45  68  92 115 149 192 232 269
#     4   9  15  24  40  62  91 123 150 181 223 268
#     4  10  21  36  51  65  85 118 156 191 230 274
#     4   8  13  22  39  65  95 123 148 178 220 267
#
# _framework density 22.342693000000001
#
# number of rings (size 3 to 8) (size 9 to 14) (size 15 to 20)
#    0.000    3.143    0.000    3.429    0.000    5.143 
#    0.000    2.857    0.000    1.714    0.000    9.000 
#    0.000   32.000    0.000    0.429    0.000    0.000 
#
# Total GULP energy -156129.038521 kJ/mol
# GULP energy per Si atom -5576.037090 kJ/mol
# Density = 2.229184 g / cm^3
# Si number density = 22.342693 Si / 1000 Ang^3
#
#
#
# Elastic Constant Matrix: (Units=GPa)
#
#
# Indices 1 2 3 4 5 6 
#
# 1 104.7968 54.8749 25.4443 0.0000 -15.9526 0.0000
# 2 54.8749 189.0226 26.8388 0.0000 -18.9488 0.0000
# 3 25.4443 26.8388 24.5818 0.0000 0.9288 0.0000
# 4 0.0000 0.0000 0.0000 19.2388 0.0000 3.8021
# 5 -15.9526 -18.9488 0.9288 0.0000 29.4919 0.0000
# 6 0.0000 0.0000 0.0000 3.8021 0.0000 15.9319
#
#
#
# Elastic Compliance Matrix: (Units=1/GPa)
#
#
# Indices 1 2 3 4 5 6 
#
# 1 0.014908 -0.001594 -0.013974 0.000000 0.007480 0.000000
# 2 -0.001594 0.007011 -0.006149 0.000000 0.003836 0.000000
# 3 -0.013974 -0.006149 0.062368 0.000000 -0.013474 0.000000
# 4 0.000000 0.000000 0.000000 0.054551 0.000000 -0.013018
# 5 0.007480 0.003836 -0.013474 0.000000 0.040843 0.000000
# 6 0.000000 0.000000 0.000000 -0.013018 0.000000 0.065874
#
#
# Mechanical properties :
#
#
# Convention : Reuss Voigt Hill
#
# Bulk Modulus (GPa) = 24.47831 59.19079 41.83455
# Shear Modulus (GPa) = 16.52313 27.01540 21.76926
#
# Velocity S-wave (km/s) = 2.72238 3.48104 3.12482
# Velocity P-wave (km/s) = 4.56743 6.53503 5.63773
#
# Compressibility (1/GPa) = 0.04085249
#
# Stress axis : x y z
#
# Youngs Moduli (GPa) = 67.07637 142.63631 16.03397
#
# Poissons Ratio (x) = 0.22738 0.22405
# Poissons Ratio (y) = 0.10693 0.09860
# Poissons Ratio (z) = 0.93730 0.87713
#
# Static dielectric constant tensor:
#      x y z
#    x 1.922250 0.000000 0.070500 
#    y 0.000000 1.821820 0.000000 
#    z 0.070500 0.000000 1.871660 
# 
# From -- ./inp_files/29212.got.cif
#   From: 2010.05.17/outbox.cif.g08.bks.cpg/sg10_15_cif.got.tgz:29212.got - 2010.06.03 11:33:40.
