data_PCOD9151564
_publ_section_title
;
Structure prediction by ZEFSAII (Michael W. Deem and Ramdas Pophale) SiO2 
 PCOD9151564
Probable space group: P 2/M
;
_chemical_formula_sum "Si O2"
_cell_formula_units_Z 28
_cell_length_a 14.102166
_cell_length_b 18.794608
_cell_length_c 8.962853
_cell_angle_alpha 90.000000
_cell_angle_beta 41.597514
_cell_angle_gamma 90.000000
_cell_volume 1577.117166
_symmetry_space_group_name_H-M "P 2/M"
_symmetry_group_IT_number 10
_symmetry_cell_setting 'monoclinic'
loop_
_space_group_symop_operation_xyz
x,y,z
-x,y,-z
-x,-y,-z
x,-y,z
loop_
_atom_site_type_symbol
_atom_site_label
_atom_site_fract_x
_atom_site_fract_y
_atom_site_fract_z
Si Si1 0.600093 0.793616 0.023739
Si Si2 0.852515 0.300686 0.587129
Si Si3 0.211916 0.917943 0.140857
Si Si4 0.860378 0.220917 0.264774
Si Si5 0.899668 0.917660 0.386769
Si Si6 0.412871 0.693770 0.456506
Si Si7 0.643238 0.583871 0.732794
O O1 0.508543 0.743802 0.238306
O O2 0.500000 0.811909 0.000000
O O3 0.737427 0.749918 0.803875
O O4 0.661180 0.863125 0.032684
O O5 0.880634 0.265462 0.393325
O O6 0.774313 0.376093 0.658127
O O7 0.000000 0.304887 0.500000
O O8 0.067935 0.901475 0.217417
O O9 0.170074 0.912008 0.366255
O O10 0.249208 0.000000 0.068694
O O11 0.727102 0.259275 0.343026
O O12 0.835973 0.139953 0.349097
O O13 0.000000 0.223107 0.000000
O O14 0.886526 0.000000 0.354378
O O15 0.500000 0.674443 0.500000
O O16 0.375096 0.625017 0.401949
O O17 0.664884 0.500000 0.690284
O O18 0.500000 0.595385 0.000000
#
# Coordination Sequence:
#
# PCOD9151564 Si02
#       7
#     4   4   4   4   4   4   4
#     4  12  19  37  59  83 115 150 195 243 288 334
#     4  11  21  36  62  89 115 151 189 239 281 331
#     4   9  18  30  54  84 110 144 194 246 290 336
#     4  11  23  36  55  87 113 151 194 239 285 336
#     4   9  17  33  53  79 111 148 193 239 290 340
#     4  11  24  39  58  86 119 152 187 236 287 339
#     4  10  20  40  65  89 117 148 187 230 282 345
#
# _framework density 17.753913000000001
#
# number of rings (size 3 to 8) (size 9 to 14) (size 15 to 20)
#    0.000    1.571    5.714    1.714    4.000    1.143 
#    0.000    0.714    0.000    7.714    0.000    0.000 
#    0.000    0.000    0.000    0.000    0.000    0.000 
#
# Total GULP energy -156334.650069 kJ/mol
# GULP energy per Si atom -5583.380360 kJ/mol
# Density = 1.771350 g / cm^3
# Si number density = 17.753913 Si / 1000 Ang^3
#
#
#
# Elastic Constant Matrix: (Units=GPa)
#
#
# Indices 1 2 3 4 5 6 
#
# 1 77.3544 28.0618 -3.8975 0.0000 -21.7303 0.0000
# 2 28.0618 109.9008 13.8918 0.0000 -18.5632 0.0000
# 3 -3.8975 13.8918 45.0888 0.0000 -8.2255 0.0000
# 4 0.0000 0.0000 0.0000 14.0159 0.0000 -13.7596
# 5 -21.7303 -18.5632 -8.2255 0.0000 18.0850 0.0000
# 6 0.0000 0.0000 0.0000 -13.7596 0.0000 12.7900
#
#
#
# Elastic Compliance Matrix: (Units=1/GPa)
#
#
# Indices 1 2 3 4 5 6 
#
# 1 0.021732 -0.001826 0.007484 0.000000 0.027642 0.000000
# 2 -0.001826 0.011249 -0.002091 0.000000 0.008401 0.000000
# 3 0.007484 -0.002091 0.026955 0.000000 0.019106 0.000000
# 4 0.000000 0.000000 0.000000 -1.271012 0.000000 -1.367364
# 5 0.027642 0.008401 0.019106 0.000000 0.105821 0.000000
# 6 0.000000 0.000000 0.000000 -1.367364 0.000000 -1.392834
#
#
# Mechanical properties :
#
#
# Convention : Reuss Voigt Hill
#
# Bulk Modulus (GPa) = 14.90987 34.27291 24.59139
# Shear Modulus (GPa) = -2.01380 21.93070 9.95845
#
# Velocity S-wave (km/s) = -1.06618 3.51844 2.37094
# Velocity P-wave (km/s) = 2.62691 5.98767 4.62347
#
# Compressibility (1/GPa) = 0.06706966
#
# Stress axis : x y z
#
# Youngs Moduli (GPa) = 46.01461 88.89947 37.09881
#
# Poissons Ratio (x) = 0.16233 -0.27764
# Poissons Ratio (y) = 0.08402 0.07757
# Poissons Ratio (z) = -0.34437 0.18589
#
# Static dielectric constant tensor:
#      x y z
#    x 1.612590 0.000000 -0.000680 
#    y 0.000000 1.605450 0.000000 
#    z -0.000680 0.000000 1.602660 
# 
# From -- ./inp_files/30091.got.cif
#   From: 2010.05.17/outbox.cif.g08.bks.cpg/sg10_16_cif.got.tgz:30091.got - 2010.06.03 11:33:40.
