data_PCOD9151980
_publ_section_title
;
Structure prediction by ZEFSAII (Michael W. Deem and Ramdas Pophale) SiO2 
 PCOD9151980
Probable space group: P 2/M
;
_chemical_formula_sum "Si O2"
_cell_formula_units_Z 24
_cell_length_a 21.712216
_cell_length_b 8.988483
_cell_length_c 10.229995
_cell_angle_alpha 90.000000
_cell_angle_beta 134.956652
_cell_angle_gamma 90.000000
_cell_volume 1412.795489
_symmetry_space_group_name_H-M "P 2/M"
_symmetry_group_IT_number 10
_symmetry_cell_setting 'monoclinic'
loop_
_space_group_symop_operation_xyz
x,y,z
-x,y,-z
-x,-y,-z
x,-y,z
loop_
_atom_site_type_symbol
_atom_site_label
_atom_site_fract_x
_atom_site_fract_y
_atom_site_fract_z
Si Si1 0.073129 0.321978 0.002419
Si Si2 0.397712 0.320411 0.696880
Si Si3 0.401585 0.321336 0.004996
Si Si4 0.260347 0.821588 0.295215
Si Si5 0.932525 0.179142 0.285096
Si Si6 0.267908 0.177781 0.004220
O O1 0.083034 0.500000 0.010083
O O2 0.165419 0.248380 0.176965
O O3 0.047785 0.258086 0.822432
O O4 0.000000 0.286951 0.000000
O O5 0.390460 0.500000 0.675296
O O6 0.497982 0.279166 0.817003
O O7 0.330526 0.242816 0.500027
O O8 0.381547 0.279893 0.824468
O O9 0.397499 0.500000 0.005669
O O10 0.334480 0.253188 0.005841
O O11 0.284654 0.783677 0.181297
O O12 0.254909 0.000000 0.296478
O O13 0.000000 0.218166 0.500000
O O14 0.935250 0.000000 0.269478
O O15 0.833046 0.217886 0.173635
O O16 0.275527 0.000000 0.002808
#
# Coordination Sequence:
#
# PCOD9151980 Si02
#       6
#     4   4   4   4   4   4
#     4  10  21  36  54  78 106 135 171 214 256 301
#     4   9  19  36  54  75 104 135 171 213 254 302
#     4   9  19  35  54  75 102 137 172 209 256 306
#     4  10  21  36  54  77 104 136 172 210 256 306
#     4   9  19  36  55  76 105 139 173 211 256 305
#     4   9  19  34  51  75 105 134 170 214 254 299
#
# _framework density 16.987596
#
# number of rings (size 3 to 8) (size 9 to 14) (size 15 to 20)
#    0.000    2.667    0.000    3.000    0.000    8.333 
#    0.000    8.333    0.000    0.000    0.000    0.000 
#    0.000    0.000    0.000    0.000    0.000    0.000 
#
# Total GULP energy -133872.055179 kJ/mol
# GULP energy per Si atom -5578.002299 kJ/mol
# Density = 1.694893 g / cm^3
# Si number density = 16.987596 Si / 1000 Ang^3
#
#
#
# Elastic Constant Matrix: (Units=GPa)
#
#
# Indices 1 2 3 4 5 6 
#
# 1 188.8600 68.5116 109.5359 0.0000 -6.3367 0.0000
# 2 68.5116 42.4731 64.4334 0.0000 -0.9398 0.0000
# 3 109.5359 64.4334 192.1211 0.0000 6.6935 0.0000
# 4 0.0000 0.0000 0.0000 33.3181 0.0000 -1.6061
# 5 -6.3367 -0.9398 6.6935 0.0000 6.1280 0.0000
# 6 0.0000 0.0000 0.0000 -1.6061 0.0000 45.4448
#
#
#
# Elastic Compliance Matrix: (Units=1/GPa)
#
#
# Indices 1 2 3 4 5 6 
#
# 1 0.013733 -0.018861 -0.001973 0.000000 0.013464 0.000000
# 2 -0.018861 0.078142 -0.015793 0.000000 0.009731 0.000000
# 3 -0.001973 -0.015793 0.012248 0.000000 -0.017841 0.000000
# 4 0.000000 0.000000 0.000000 0.030065 0.000000 0.001063
# 5 0.013464 0.009731 -0.017841 0.000000 0.198087 0.000000
# 6 0.000000 0.000000 0.000000 0.001063 0.000000 0.022042
#
#
# Mechanical properties :
#
#
# Convention : Reuss Voigt Hill
#
# Bulk Modulus (GPa) = 32.39485 100.93513 66.66499
# Shear Modulus (GPa) = 11.41913 29.04306 20.23109
#
# Velocity S-wave (km/s) = 2.59550 4.13929 3.45473
# Velocity P-wave (km/s) = 5.30031 9.07695 7.43250
#
# Compressibility (1/GPa) = 0.03086911
#
# Stress axis : x y z
#
# Youngs Moduli (GPa) = 72.81563 12.79726 81.64392
#
# Poissons Ratio (x) = 0.24137 0.16112
# Poissons Ratio (y) = 1.37337 1.28938
# Poissons Ratio (z) = 0.14370 0.20210
#
# Static dielectric constant tensor:
#      x y z
#    x 1.551030 0.000000 0.001690 
#    y 0.000000 1.567140 0.000000 
#    z 0.001690 0.000000 1.557380 
# 
# From -- ./inp_files/33735.got.cif
#   From: 2010.05.17/outbox.cif.g08.bks.cpg/sg10_17_cif.got.tgz:33735.got - 2010.06.03 11:33:40.
