data_PCOD9151254
_publ_section_title
;
Structure prediction by ZEFSAII (Michael W. Deem and Ramdas Pophale) SiO2 
 PCOD9151254
Probable space group: P 2/M
;
_chemical_formula_sum "Si O2"
_cell_formula_units_Z 32
_cell_length_a 15.269591
_cell_length_b 8.112710
_cell_length_c 11.999212
_cell_angle_alpha 90.000000
_cell_angle_beta 93.705904
_cell_angle_gamma 90.000000
_cell_volume 1483.327356
_symmetry_space_group_name_H-M "P 2/M"
_symmetry_group_IT_number 10
_symmetry_cell_setting 'monoclinic'
loop_
_space_group_symop_operation_xyz
x,y,z
-x,y,-z
-x,-y,-z
x,-y,z
loop_
_atom_site_type_symbol
_atom_site_label
_atom_site_fract_x
_atom_site_fract_y
_atom_site_fract_z
Si Si1 0.511854 0.696363 0.375104
Si Si2 0.345035 0.194589 0.223294
Si Si3 0.155557 0.697641 0.559243
Si Si4 0.314827 0.701138 0.737239
Si Si5 0.162476 0.192411 0.310473
Si Si6 0.971008 0.308721 0.264643
Si Si7 0.714120 0.305676 0.012373
Si Si8 0.092107 0.189735 0.963427
O O1 0.500000 0.762816 0.500000
O O2 0.525570 0.500000 0.387132
O O3 0.425951 0.725663 0.294110
O O4 0.597136 0.760777 0.316679
O O5 0.252317 0.257452 0.264861
O O6 0.341588 0.225360 0.090986
O O7 0.348945 0.000000 0.245357
O O8 0.159727 0.500000 0.538162
O O9 0.232133 0.742113 0.652666
O O10 0.166789 0.786958 0.443688
O O11 0.064681 0.731916 0.615684
O O12 0.316380 0.500000 0.742761
O O13 0.305446 0.758094 0.864275
O O14 0.074382 0.282051 0.264106
O O15 0.153397 0.000000 0.280226
O O16 0.948051 0.500000 0.241799
O O17 0.920127 0.201969 0.170022
O O18 0.696933 0.500000 0.008727
O O19 0.817419 0.275303 0.997725
O O20 0.097410 0.000000 0.001174
O O21 0.000000 0.262354 0.000000
#
# Coordination Sequence:
#
# PCOD9151254 Si02
#       8
#     4   4   4   4   4   4   4   4
#     4  10  21  40  69  97 120 155 201 246 301 368
#     4  11  25  43  60  86 126 162 199 250 305 360
#     4  10  20  38  61  87 120 155 198 250 302 361
#     4   9  19  38  63  92 123 153 195 254 307 355
#     4  11  24  39  56  83 121 162 201 249 308 362
#     4  11  22  37  59  87 117 156 204 252 301 356
#     4  11  22  40  64  89 120 159 206 253 300 358
#     4  11  23  38  57  84 122 164 205 252 302 356
#
# _framework density 21.573122000000001
#
# number of rings (size 3 to 8) (size 9 to 14) (size 15 to 20)
#    0.000    1.500    1.250    3.750    0.000   10.250 
#    0.000    4.375    0.000    0.000    0.000    0.000 
#    0.000    0.000    0.000    0.000    0.000    0.000 
#
# Total GULP energy -178929.304622 kJ/mol
# GULP energy per Si atom -5591.540769 kJ/mol
# Density = 2.152402 g / cm^3
# Si number density = 21.573122 Si / 1000 Ang^3
#
#
#
# Elastic Constant Matrix: (Units=GPa)
#
#
# Indices 1 2 3 4 5 6 
#
# 1 102.3824 -2.4488 24.1137 0.0000 -5.6438 0.0000
# 2 -2.4488 13.1178 -3.8547 0.0000 -8.3335 0.0000
# 3 24.1137 -3.8547 96.5024 0.0000 6.5808 0.0000
# 4 0.0000 0.0000 0.0000 13.6381 0.0000 -34.6994
# 5 -5.6438 -8.3335 6.5808 0.0000 31.9354 0.0000
# 6 0.0000 0.0000 0.0000 -34.6994 0.0000 -35.5667
#
#
#
# Elastic Compliance Matrix: (Units=1/GPa)
#
#
# Indices 1 2 3 4 5 6 
#
# 1 0.010679 0.003287 -0.002763 0.000000 0.003315 0.000000
# 2 0.003287 0.092796 0.001211 0.000000 0.024546 0.000000
# 3 -0.002763 0.001211 0.011271 0.000000 -0.002495 0.000000
# 4 0.000000 0.000000 0.000000 0.021056 0.000000 -0.020543
# 5 0.003315 0.024546 -0.002495 0.000000 0.038818 0.000000
# 6 0.000000 0.000000 0.000000 -0.020543 0.000000 -0.008074
#
#
# Mechanical properties :
#
#
# Convention : Reuss Voigt Hill
#
# Bulk Modulus (GPa) = 8.45899 27.51365 17.98632
# Shear Modulus (GPa) = 24.69352 14.94753 19.82052
#
# Velocity S-wave (km/s) = 3.38693 2.63511 3.03439
# Velocity P-wave (km/s) = 4.38459 4.69465 4.54227
#
# Compressibility (1/GPa) = 0.11821748
#
# Stress axis : x y z
#
# Youngs Moduli (GPa) = 93.63760 10.77636 88.71986
#
# Poissons Ratio (x) = -0.03543 0.24516
# Poissons Ratio (y) = -0.30782 -0.10747
# Poissons Ratio (z) = 0.25875 -0.01305
#
# Static dielectric constant tensor:
#      x y z
#    x 1.762890 0.000000 -0.032220 
#    y 0.000000 1.758510 0.000000 
#    z -0.032220 0.000000 1.787370 
# 
# From -- ./inp_files/49938.got.cif
#   From: 2010.05.17/outbox.cif.g08.bks.cpg/sg10_25_cif.got.tgz:49938.got - 2010.06.03 11:33:40.
