data_PCOD9151583
_publ_section_title
;
Structure prediction by ZEFSAII (Michael W. Deem and Ramdas Pophale) SiO2 
 PCOD9151583
Probable space group: P 2/M
;
_chemical_formula_sum "Si O2"
_cell_formula_units_Z 32
_cell_length_a 14.648329
_cell_length_b 8.766737
_cell_length_c 12.646092
_cell_angle_alpha 90.000000
_cell_angle_beta 90.974819
_cell_angle_gamma 90.000000
_cell_volume 1623.751406
_symmetry_space_group_name_H-M "P 2/M"
_symmetry_group_IT_number 10
_symmetry_cell_setting 'monoclinic'
loop_
_space_group_symop_operation_xyz
x,y,z
-x,y,-z
-x,-y,-z
x,-y,z
loop_
_atom_site_type_symbol
_atom_site_label
_atom_site_fract_x
_atom_site_fract_y
_atom_site_fract_z
Si Si1 0.048197 0.674169 0.613895
Si Si2 0.212617 0.817284 0.885201
Si Si3 0.521804 0.183204 0.621841
Si Si4 0.226144 0.821777 0.542967
Si Si5 0.996619 0.817424 0.179684
Si Si6 0.269272 0.817871 0.310919
Si Si7 0.176816 0.681091 0.102871
Si Si8 0.651116 0.679303 0.285836
O O1 0.077274 0.500000 0.638965
O O2 0.133482 0.786536 0.602474
O O3 0.987089 0.739207 0.706491
O O4 0.000000 0.672264 0.500000
O O5 0.107726 0.776715 0.851930
O O6 0.285721 0.756816 0.802071
O O7 0.217772 0.000000 0.889294
O O8 0.227180 0.745963 0.000742
O O9 0.500000 0.232183 0.500000
O O10 0.625290 0.217056 0.658777
O O11 0.450237 0.255422 0.701946
O O12 0.510788 0.000000 0.623239
O O13 0.216754 0.784313 0.419492
O O14 0.301461 0.720956 0.601677
O O15 0.251742 0.000000 0.551965
O O16 0.075795 0.755690 0.105801
O O17 0.003509 0.000000 0.185915
O O18 0.229664 0.730547 0.210061
O O19 0.261376 0.000000 0.290696
O O20 0.168615 0.500000 0.096903
O O21 0.649938 0.500000 0.268243
#
# Coordination Sequence:
#
# PCOD9151583 Si02
#       8
#     4   4   4   4   4   4   4   4
#     4  11  23  36  53  85 126 164 203 256 316 369
#     4  11  24  44  68  91 121 165 218 263 304 369
#     4  10  20  40  67  95 126 164 210 255 304 374
#     4  11  21  37  60  87 121 165 209 251 303 369
#     4  11  23  40  64  90 119 163 216 261 303 369
#     4  10  22  41  66  92 125 167 211 257 306 371
#     4  12  26  42  63  92 129 165 205 262 319 370
#     4  12  24  38  62  96 130 160 199 257 317 368
#
# _framework density 19.707450999999999
#
# number of rings (size 3 to 8) (size 9 to 14) (size 15 to 20)
#    0.000    1.000    2.500    4.875    0.000    7.750 
#    0.000    0.625    0.000    3.750    0.000    0.000 
#    0.000    0.000    0.000    0.000    0.000    0.000 
#
# Total GULP energy -178924.569954 kJ/mol
# GULP energy per Si atom -5591.392811 kJ/mol
# Density = 1.966260 g / cm^3
# Si number density = 19.707451 Si / 1000 Ang^3
#
#
#
# Elastic Constant Matrix: (Units=GPa)
#
#
# Indices 1 2 3 4 5 6 
#
# 1 74.0811 28.8412 32.9500 0.0000 -16.4426 0.0000
# 2 28.8412 69.4635 38.9562 0.0000 -7.0633 0.0000
# 3 32.9500 38.9562 115.4405 0.0000 -17.2659 0.0000
# 4 0.0000 0.0000 0.0000 14.7733 0.0000 -6.0108
# 5 -16.4426 -7.0633 -17.2659 0.0000 26.9614 0.0000
# 6 0.0000 0.0000 0.0000 -6.0108 0.0000 -14.8887
#
#
#
# Elastic Compliance Matrix: (Units=1/GPa)
#
#
# Indices 1 2 3 4 5 6 
#
# 1 0.018513 -0.005640 -0.002116 0.000000 0.008458 0.000000
# 2 -0.005640 0.019494 -0.005219 0.000000 -0.001675 0.000000
# 3 -0.002116 -0.005219 0.011756 0.000000 0.004871 0.000000
# 4 0.000000 0.000000 0.000000 0.058139 0.000000 -0.023472
# 5 0.008458 -0.001675 0.004871 0.000000 0.044929 0.000000
# 6 0.000000 0.000000 0.000000 -0.023472 0.000000 -0.057689
#
#
# Mechanical properties :
#
#
# Convention : Reuss Voigt Hill
#
# Bulk Modulus (GPa) = 41.99317 51.16446 46.57881
# Shear Modulus (GPa) = 38.75058 15.91838 27.33448
#
# Velocity S-wave (km/s) = 4.43910 2.84515 3.72830
# Velocity P-wave (km/s) = 6.90135 6.06725 6.49770
#
# Compressibility (1/GPa) = 0.02381340
#
# Stress axis : x y z
#
# Youngs Moduli (GPa) = 54.01680 51.29665 85.06149
#
# Poissons Ratio (x) = 0.28931 0.17998
# Poissons Ratio (y) = 0.30465 0.44396
# Poissons Ratio (z) = 0.11429 0.26773
#
# Static dielectric constant tensor:
#      x y z
#    x 1.705040 0.000000 0.014580 
#    y 0.000000 1.655210 0.000000 
#    z 0.014580 0.000000 1.687910 
# 
# From -- ./inp_files/49945.got.cif
#   From: 2010.05.17/outbox.cif.g08.bks.cpg/sg10_25_cif.got.tgz:49945.got - 2010.06.03 11:33:40.
