data_PCOD9151234
_publ_section_title
;
Structure prediction by ZEFSAII (Michael W. Deem and Ramdas Pophale) SiO2 
 PCOD9151234
Probable space group: P 2/M
;
_chemical_formula_sum "Si O2"
_cell_formula_units_Z 24
_cell_length_a 18.473483
_cell_length_b 12.032731
_cell_length_c 12.330257
_cell_angle_alpha 90.000000
_cell_angle_beta 151.738376
_cell_angle_gamma 90.000000
_cell_volume 1297.787570
_symmetry_space_group_name_H-M "P 2/M"
_symmetry_group_IT_number 10
_symmetry_cell_setting 'monoclinic'
loop_
_space_group_symop_operation_xyz
x,y,z
-x,y,-z
-x,-y,-z
x,-y,z
loop_
_atom_site_type_symbol
_atom_site_label
_atom_site_fract_x
_atom_site_fract_y
_atom_site_fract_z
Si Si1 0.719640 0.500000 0.691025
Si Si2 0.268586 0.129015 0.166031
Si Si3 0.739288 0.264380 0.621855
Si Si4 0.909680 0.127562 0.670054
Si Si5 0.353188 0.500000 0.160564
Si Si6 0.610090 0.263066 0.874569
Si Si7 0.830894 0.131800 0.321428
O O1 0.780587 0.387420 0.717915
O O2 0.535386 0.500000 0.428068
O O3 0.735389 0.500000 0.841857
O O4 0.273904 0.186607 0.289762
O O5 0.364705 0.197002 0.205065
O O6 0.314161 0.000000 0.230937
O O7 0.091837 0.133308 0.895079
O O8 0.856099 0.210976 0.691837
O O9 0.571204 0.268895 0.345916
O O10 0.831975 0.149891 0.451859
O O11 0.873524 0.000000 0.655359
O O12 0.325676 0.386859 0.059680
O O13 0.702886 0.199870 0.089440
O O14 0.000000 0.160221 0.500000
O O15 0.808697 0.000000 0.271636
#
# Coordination Sequence:
#
# PCOD9151234 Si02
#       7
#     2   4   4   4   2   4   4
#     4   9  18  36  57  78 116 156 181 222 290 343
#     4  11  21  35  57  84 117 151 182 228 287 342
#     4  11  22  36  57  87 115 145 188 237 283 333
#     4  10  22  39  57  80 118 157 182 223 288 342
#     4   9  18  36  57  83 112 149 187 231 288 326
#     4  11  21  36  61  85 110 146 196 237 272 330
#     4  10  20  38  61  81 110 154 192 225 278 343
#
# _framework density 18.493012
#
# number of rings (size 3 to 8) (size 9 to 14) (size 15 to 20)
#    0.000    1.667    3.333    2.000    0.000    5.333 
#    0.000    5.417    0.000    3.000    0.000    0.000 
#    0.000    0.000    0.000    0.000    0.000    0.000 
#
# Total GULP energy -134091.869447 kJ/mol
# GULP energy per Si atom -5587.161227 kJ/mol
# Density = 1.845092 g / cm^3
# Si number density = 18.493012 Si / 1000 Ang^3
#
#
#
# Elastic Constant Matrix: (Units=GPa)
#
#
# Indices 1 2 3 4 5 6 
#
# 1 45.0341 19.5849 -10.5271 0.0000 2.7760 0.0000
# 2 19.5849 94.2402 0.7910 0.0000 -6.0244 0.0000
# 3 -10.5271 0.7910 54.4767 0.0000 -14.4673 0.0000
# 4 0.0000 0.0000 0.0000 31.4121 0.0000 -7.1367
# 5 2.7760 -6.0244 -14.4673 0.0000 22.0309 0.0000
# 6 0.0000 0.0000 0.0000 -7.1367 0.0000 30.7519
#
#
#
# Elastic Compliance Matrix: (Units=1/GPa)
#
#
# Indices 1 2 3 4 5 6 
#
# 1 0.025783 -0.005508 0.004602 0.000000 -0.001733 0.000000
# 2 -0.005508 0.012003 -0.000221 0.000000 0.003831 0.000000
# 3 0.004602 -0.000221 0.023109 0.000000 0.014535 0.000000
# 4 0.000000 0.000000 0.000000 0.033607 0.000000 0.007799
# 5 -0.001733 0.003831 0.014535 0.000000 0.056202 0.000000
# 6 0.000000 0.000000 0.000000 0.007799 0.000000 0.034328
#
#
# Mechanical properties :
#
#
# Convention : Reuss Voigt Hill
#
# Bulk Modulus (GPa) = 17.05280 23.71652 20.38466
# Shear Modulus (GPa) = 24.17421 29.09913 26.63667
#
# Velocity S-wave (km/s) = 3.61946 3.97107 3.79933
# Velocity P-wave (km/s) = 5.16803 5.82050 5.50394
#
# Compressibility (1/GPa) = 0.05864138
#
# Stress axis : x y z
#
# Youngs Moduli (GPa) = 38.78491 83.31588 43.27310
#
# Poissons Ratio (x) = 0.45887 -0.19915
# Poissons Ratio (y) = 0.21361 0.00957
# Poissons Ratio (z) = -0.17849 0.01843
#
# Static dielectric constant tensor:
#      x y z
#    x 1.608630 0.000000 0.008870 
#    y 0.000000 1.628470 0.000000 
#    z 0.008870 0.000000 1.638730 
# 
# From -- ./inp_files/42110.got.cif
#   From: 2010.05.17/outbox.cif.g08.bks.cpg/sg10_22_cif.got.tgz:42110.got - 2010.06.03 11:33:40.
