data_PCOD9151120
_publ_section_title
;
Structure prediction by ZEFSAII (Michael W. Deem and Ramdas Pophale) SiO2 
 PCOD9151120
Probable space group: P 2/M
;
_chemical_formula_sum "Si O2"
_cell_formula_units_Z 15
_cell_length_a 12.459721
_cell_length_b 5.174623
_cell_length_c 16.674789
_cell_angle_alpha 90.000000
_cell_angle_beta 133.202323
_cell_angle_gamma 90.000000
_cell_volume 783.681657
_symmetry_space_group_name_H-M "P 2/M"
_symmetry_group_IT_number 10
_symmetry_cell_setting 'monoclinic'
loop_
_space_group_symop_operation_xyz
x,y,z
-x,y,-z
-x,-y,-z
x,-y,z
loop_
_atom_site_type_symbol
_atom_site_label
_atom_site_fract_x
_atom_site_fract_y
_atom_site_fract_z
Si Si1 0.500000 0.500000 0.500000
Si Si2 0.648141 0.000000 0.651011
Si Si3 0.152065 0.000000 0.623385
Si Si4 0.219953 0.500000 0.762514
Si Si5 0.535242 0.500000 0.857463
Si Si6 0.860638 0.500000 0.094992
Si Si7 0.976704 0.000000 0.891696
Si Si8 0.535888 0.000000 0.283391
O O1 0.617598 0.734730 0.586836
O O2 0.806965 0.000000 0.775964
O O3 0.527342 0.000000 0.660532
O O4 0.169628 0.249555 0.687918
O O5 0.000000 0.000000 0.500000
O O6 0.287592 0.000000 0.630374
O O7 0.398771 0.500000 0.850025
O O8 0.152952 0.500000 0.816168
O O9 0.517418 0.749484 0.792152
O O10 0.693157 0.500000 0.978269
O O11 0.943776 0.749662 0.104083
O O12 0.000000 0.000000 0.000000
#
# Coordination Sequence:
#
# PCOD9151120 Si02
#       8
#     1   2   2   2   2   2   2   2
#     4  10  24  42  66  82 126 162 212 272 298 360
#     4  11  22  45  61  93 123 162 218 254 314 372
#     4  10  21  41  60  92 117 158 204 263 307 369
#     4  10  22  39  61  89 127 157 205 254 306 375
#     4  10  20  37  63  92 125 155 206 247 299 386
#     4  12  23  40  62  97 123 173 195 250 333 357
#     4  12  26  42  65  94 133 167 211 266 313 378
#     4  10  21  38  65  87 117 161 206 254 304 366
#
# _framework density 19.140426000000001
#
# number of rings (size 3 to 8) (size 9 to 14) (size 15 to 20)
#    0.000    1.333    0.000    6.000    0.000    0.000 
#   14.400    5.333    0.000    0.000    0.000    0.000 
#    0.000    0.000    0.000    0.000    0.000    0.000 
#
# Total GULP energy -83564.700639 kJ/mol
# GULP energy per Si atom -5570.980043 kJ/mol
# Density = 1.909686 g / cm^3
# Si number density = 19.140426 Si / 1000 Ang^3
#
#
#
# Elastic Constant Matrix: (Units=GPa)
#
#
# Indices 1 2 3 4 5 6 
#
# 1 120.6346 66.6642 66.8210 0.0000 4.0160 0.0000
# 2 66.6642 212.4992 60.1209 0.0000 8.2395 0.0000
# 3 66.8210 60.1209 136.8938 0.0000 45.1274 0.0000
# 4 0.0000 0.0000 0.0000 11.7350 0.0000 11.7956
# 5 4.0160 8.2395 45.1274 0.0000 32.7136 0.0000
# 6 0.0000 0.0000 0.0000 11.7956 0.0000 30.0493
#
#
#
# Elastic Compliance Matrix: (Units=1/GPa)
#
#
# Indices 1 2 3 4 5 6 
#
# 1 0.015117 -0.002169 -0.010994 0.000000 0.013856 0.000000
# 2 -0.002169 0.005911 -0.002080 0.000000 0.001647 0.000000
# 3 -0.010994 -0.002080 0.023782 0.000000 -0.030933 0.000000
# 4 0.000000 0.000000 0.000000 0.140751 0.000000 -0.055250
# 5 0.013856 0.001647 -0.030933 0.000000 0.071124 0.000000
# 6 0.000000 0.000000 0.000000 -0.055250 0.000000 0.054967
#
#
# Mechanical properties :
#
#
# Convention : Reuss Voigt Hill
#
# Bulk Modulus (GPa) = 69.81622 95.24886 82.53254
# Shear Modulus (GPa) = 14.41291 33.32767 23.87029
#
# Velocity S-wave (km/s) = 2.74708 4.17732 3.53528
# Velocity P-wave (km/s) = 6.82766 8.55207 7.73805
#
# Compressibility (1/GPa) = 0.01432332
#
# Stress axis : x y z
#
# Youngs Moduli (GPa) = 66.15278 169.17471 42.04868
#
# Poissons Ratio (x) = 0.36696 0.46228
# Poissons Ratio (y) = 0.14349 0.08747
# Poissons Ratio (z) = 0.72727 0.35191
#
# Static dielectric constant tensor:
#      x y z
#    x 1.659710 0.000000 0.002040 
#    y 0.000000 1.629510 0.000000 
#    z 0.002040 0.000000 1.653250 
# 
# From -- ./inp_files/62767.got.cif
#   From: 2010.05.17/outbox.cif.g08.bks.cpg/sg10_32_cif.got.tgz:62767.got - 2010.06.03 11:33:40.
