data_PCOD9151821
_publ_section_title
;
Structure prediction by ZEFSAII (Michael W. Deem and Ramdas Pophale) SiO2 
 PCOD9151821
Probable space group: P 2/M
;
_chemical_formula_sum "Si O2"
_cell_formula_units_Z 32
_cell_length_a 20.679860
_cell_length_b 8.601100
_cell_length_c 25.662064
_cell_angle_alpha 90.000000
_cell_angle_beta 156.649464
_cell_angle_gamma 90.000000
_cell_volume 1809.164238
_symmetry_space_group_name_H-M "P 2/M"
_symmetry_group_IT_number 10
_symmetry_cell_setting 'monoclinic'
loop_
_space_group_symop_operation_xyz
x,y,z
-x,y,-z
-x,-y,-z
x,-y,z
loop_
_atom_site_type_symbol
_atom_site_label
_atom_site_fract_x
_atom_site_fract_y
_atom_site_fract_z
Si Si1 0.443710 0.313937 0.151463
Si Si2 0.259214 0.811073 0.181838
Si Si3 0.577664 0.186410 0.358919
Si Si4 0.236653 0.187184 0.814770
Si Si5 0.042524 0.812315 0.115294
Si Si6 0.461585 0.812416 0.887329
Si Si7 0.932613 0.312747 0.140769
Si Si8 0.932748 0.314005 0.647678
O O1 0.445229 0.500000 0.157572
O O2 0.521958 0.239996 0.260507
O O3 0.535591 0.263833 0.166895
O O4 0.255062 0.260863 0.005669
O O5 0.436397 0.758523 0.294469
O O6 0.191319 0.761970 0.187958
O O7 0.259666 0.000000 0.182657
O O8 0.122844 0.766062 0.038092
O O9 0.754098 0.250841 0.503566
O O10 0.582009 0.000000 0.363545
O O11 0.312702 0.232233 0.815236
O O12 0.065274 0.259108 0.703524
O O13 0.224513 0.000000 0.806458
O O14 0.372845 0.230783 0.958870
O O15 0.035542 0.744817 0.167652
O O16 0.043859 0.000000 0.119227
O O17 0.460708 0.000000 0.881683
O O18 0.931886 0.500000 0.140647
O O19 0.003523 0.258541 0.248485
O O20 0.928580 0.500000 0.645166
#
# Coordination Sequence:
#
# PCOD9151821 Si02
#       8
#     4   4   4   4   4   4   4   4
#     4  11  21  35  55  83 114 145 182 225 271 325
#     4   8  16  31  53  81 109 136 175 227 278 321
#     4  11  22  38  58  81 109 146 185 227 277 329
#     4   9  18  34  56  83 112 143 181 226 273 321
#     4   9  16  31  56  82 106 136 178 230 275 317
#     4   9  18  33  56  85 113 140 179 229 274 318
#     4  10  21  35  52  80 114 144 181 223 267 321
#     4  11  23  39  55  78 114 152 184 222 270 329
#
# _framework density 17.687725
#
# number of rings (size 3 to 8) (size 9 to 14) (size 15 to 20)
#    0.000    2.250    2.500    2.625    0.000    2.000 
#    0.000    5.000    0.000    7.500    0.000    0.000 
#    0.000    0.000    0.000    0.000    0.000    0.000 
#
# Total GULP energy -178540.597621 kJ/mol
# GULP energy per Si atom -5579.393676 kJ/mol
# Density = 1.764747 g / cm^3
# Si number density = 17.687725 Si / 1000 Ang^3
#
#
#
# Elastic Constant Matrix: (Units=GPa)
#
#
# Indices 1 2 3 4 5 6 
#
# 1 146.9028 24.5161 80.3891 0.0000 20.9974 0.0000
# 2 24.5161 21.0321 29.7518 0.0000 5.0633 0.0000
# 3 80.3891 29.7518 129.7235 0.0000 16.8773 0.0000
# 4 0.0000 0.0000 0.0000 -7.0218 0.0000 -48.0578
# 5 20.9974 5.0633 16.8773 0.0000 28.0500 0.0000
# 6 0.0000 0.0000 0.0000 -48.0578 0.0000 -78.3603
#
#
#
# Elastic Compliance Matrix: (Units=1/GPa)
#
#
# Indices 1 2 3 4 5 6 
#
# 1 0.011040 -0.004363 -0.005282 0.000000 -0.004299 0.000000
# 2 -0.004363 0.072377 -0.013693 0.000000 -0.001560 0.000000
# 3 -0.005282 -0.013693 0.014415 0.000000 -0.002248 0.000000
# 4 0.000000 0.000000 0.000000 0.044540 0.000000 -0.027316
# 5 -0.004299 -0.001560 -0.002248 0.000000 0.040503 0.000000
# 6 0.000000 0.000000 0.000000 -0.027316 0.000000 0.003991
#
#
# Mechanical properties :
#
#
# Convention : Reuss Voigt Hill
#
# Bulk Modulus (GPa) = 19.54752 62.99694 41.27223
# Shear Modulus (GPa) = 19.95267 -0.59967 9.67650
#
# Velocity S-wave (km/s) = 3.36229 -0.58290 2.34150
# Velocity P-wave (km/s) = 5.11359 5.93637 5.54027
#
# Compressibility (1/GPa) = 0.05115740
#
# Stress axis : x y z
#
# Youngs Moduli (GPa) = 90.58015 13.81646 69.37414
#
# Poissons Ratio (x) = 0.06028 0.36640
# Poissons Ratio (y) = 0.39516 0.94995
# Poissons Ratio (z) = 0.47841 0.18919
#
# Static dielectric constant tensor:
#      x y z
#    x 1.604700 0.000000 0.014950 
#    y 0.000000 1.597530 0.000000 
#    z 0.014950 0.000000 1.583240 
# 
# From -- ./inp_files/93755.got.cif
#   From: 2010.05.17/outbox.cif.g08.bks.cpg/sg10_47_cif.got.tgz:93755.got - 2010.06.03 11:33:40.
