data_PCOD9151428
_publ_section_title
;
Structure prediction by ZEFSAII (Michael W. Deem and Ramdas Pophale) SiO2 
 PCOD9151428
Probable space group: P 2/M
;
_chemical_formula_sum "Si O2"
_cell_formula_units_Z 28
_cell_length_a 25.771603
_cell_length_b 7.800685
_cell_length_c 9.506104
_cell_angle_alpha 90.000000
_cell_angle_beta 42.214156
_cell_angle_gamma 90.000000
_cell_volume 1284.055224
_symmetry_space_group_name_H-M "P 2/M"
_symmetry_group_IT_number 10
_symmetry_cell_setting 'monoclinic'
loop_
_space_group_symop_operation_xyz
x,y,z
-x,y,-z
-x,-y,-z
x,-y,z
loop_
_atom_site_type_symbol
_atom_site_label
_atom_site_fract_x
_atom_site_fract_y
_atom_site_fract_z
Si Si1 0.077472 0.801152 0.774510
Si Si2 0.760061 0.792384 0.433397
Si Si3 0.285611 0.695321 0.963005
Si Si4 0.532511 0.000000 0.197614
Si Si5 0.613853 0.000000 0.340865
Si Si6 0.364368 0.695510 0.100206
Si Si7 0.167398 0.794723 0.999601
Si Si8 0.996358 0.700775 0.349620
O O1 0.160975 0.731438 0.648202
O O2 0.061188 0.790394 0.641829
O O3 0.079615 0.000000 0.817389
O O4 0.000000 0.722214 0.000000
O O5 0.685538 0.718817 0.659533
O O6 0.773576 0.748215 0.243721
O O7 0.754971 0.000000 0.455361
O O8 0.308563 0.500000 0.889083
O O9 0.198358 0.721532 0.084779
O O10 0.333897 0.831959 0.776160
O O11 0.305676 0.729509 0.085990
O O12 0.567829 0.000000 0.284974
O O13 0.441719 0.000000 0.412922
O O14 0.567170 0.167268 0.052573
O O15 0.391835 0.500000 0.032066
O O16 0.162371 0.000000 0.018053
O O17 0.084333 0.724408 0.122581
O O18 0.976621 0.500000 0.394293
O O19 0.000000 0.771731 0.500000
#
# Coordination Sequence:
#
# PCOD9151428 Si02
#       8
#     4   4   4   2   2   4   4   4
#     4  10  20  39  59  78 106 143 194 245 289 341
#     4  10  21  37  59  83 113 151 195 247 293 345
#     4  10  21  37  58  89 122 153 197 238 282 349
#     4   9  18  36  61  89 127 147 193 235 280 347
#     4   9  18  36  61  91 119 161 183 232 294 338
#     4  10  21  36  59  89 120 156 192 236 292 341
#     4  11  22  39  61  82 111 154 200 241 294 349
#     4  11  25  40  53  79 116 150 192 246 297 345
#
# _framework density 21.805916
#
# number of rings (size 3 to 8) (size 9 to 14) (size 15 to 20)
#    0.000    1.857    2.857    0.857    2.000    3.714 
#    0.000    2.857    0.000    1.714    0.000    2.000 
#    0.000    0.000    0.000    0.000    0.000    0.000 
#
# Total GULP energy -156389.337856 kJ/mol
# GULP energy per Si atom -5585.333495 kJ/mol
# Density = 2.175629 g / cm^3
# Si number density = 21.805916 Si / 1000 Ang^3
#
#
#
# Elastic Constant Matrix: (Units=GPa)
#
#
# Indices 1 2 3 4 5 6 
#
# 1 17.9378 -4.8971 -13.3302 0.0000 11.8090 0.0000
# 2 -4.8971 65.2655 10.5657 0.0000 1.1023 0.0000
# 3 -13.3302 10.5657 81.8932 0.0000 8.3076 0.0000
# 4 0.0000 0.0000 0.0000 28.2718 0.0000 17.9072
# 5 11.8090 1.1023 8.3076 0.0000 21.0219 0.0000
# 6 0.0000 0.0000 0.0000 17.9072 0.0000 21.9658
#
#
#
# Elastic Compliance Matrix: (Units=1/GPa)
#
#
# Indices 1 2 3 4 5 6 
#
# 1 0.142371 0.007123 0.031676 0.000000 -0.092869 0.000000
# 2 0.007123 0.016005 -0.000432 0.000000 -0.004670 0.000000
# 3 0.031676 -0.000432 0.020029 0.000000 -0.025687 0.000000
# 4 0.000000 0.000000 0.000000 0.073135 0.000000 -0.059622
# 5 -0.092869 -0.004670 -0.025687 0.000000 0.110134 0.000000
# 6 0.000000 0.000000 0.000000 -0.059622 0.000000 0.094131
#
#
# Mechanical properties :
#
#
# Convention : Reuss Voigt Hill
#
# Bulk Modulus (GPa) = 3.91940 16.64147 10.28043
# Shear Modulus (GPa) = 10.77314 25.76911 18.27113
#
# Velocity S-wave (km/s) = 2.22513 3.44139 2.89779
# Velocity P-wave (km/s) = 2.89878 4.84139 3.99011
#
# Compressibility (1/GPa) = 0.25514097
#
# Stress axis : x y z
#
# Youngs Moduli (GPa) = 7.02389 62.47943 49.92846
#
# Poissons Ratio (x) = -0.44505 -1.58156
# Poissons Ratio (y) = -0.05003 0.02156
# Poissons Ratio (z) = -0.22249 0.02697
#
# Static dielectric constant tensor:
#      x y z
#    x 1.791750 0.000000 0.005920 
#    y 0.000000 1.785240 0.000000 
#    z 0.005920 0.000000 1.819180 
# 
# From -- ./inp_files/37187.got.cif
#   From: 2010.05.17/outbox.cif.g08.bks.cpg/sg10_19_cif.got.tgz:37187.got - 2010.06.03 11:33:40.
