data_PCOD9151662
_publ_section_title
;
Structure prediction by ZEFSAII (Michael W. Deem and Ramdas Pophale) SiO2 
 PCOD9151662
Probable space group: P 2/M
;
_chemical_formula_sum "Si O2"
_cell_formula_units_Z 32
_cell_length_a 24.225656
_cell_length_b 7.478557
_cell_length_c 15.688741
_cell_angle_alpha 90.000000
_cell_angle_beta 151.357461
_cell_angle_gamma 90.000000
_cell_volume 1362.474438
_symmetry_space_group_name_H-M "P 2/M"
_symmetry_group_IT_number 10
_symmetry_cell_setting 'monoclinic'
loop_
_space_group_symop_operation_xyz
x,y,z
-x,y,-z
-x,-y,-z
x,-y,z
loop_
_atom_site_type_symbol
_atom_site_label
_atom_site_fract_x
_atom_site_fract_y
_atom_site_fract_z
Si Si1 0.011727 0.715592 0.727866
Si Si2 0.123941 0.206263 0.148648
Si Si3 0.433868 0.781906 0.285232
Si Si4 0.809071 0.716152 0.576337
Si Si5 0.165976 0.292977 0.650341
Si Si6 0.668558 0.781611 0.670772
Si Si7 0.218758 0.206288 0.904961
Si Si8 0.369389 0.281917 0.811756
O O1 0.019717 0.500000 0.740658
O O2 0.931352 0.769778 0.698144
O O3 0.938145 0.783139 0.546072
O O4 0.140123 0.780299 0.882777
O O5 0.192943 0.211776 0.331144
O O6 0.207350 0.285582 0.190226
O O7 0.102614 0.000000 0.095061
O O8 0.000000 0.290599 0.000000
O O9 0.566383 0.726338 0.467496
O O10 0.376342 0.729621 0.297321
O O11 0.433065 0.000000 0.281983
O O12 0.345548 0.717400 0.094161
O O13 0.808230 0.500000 0.578583
O O14 0.703757 0.770624 0.371721
O O15 0.164934 0.500000 0.623519
O O16 0.158041 0.287185 0.740469
O O17 0.287754 0.224132 0.779781
O O18 0.672357 0.000000 0.674931
O O19 0.231444 0.000000 0.900589
O O20 0.375006 0.500000 0.817511
O O21 0.500000 0.218149 0.000000
#
# Coordination Sequence:
#
# PCOD9151662 Si02
#       8
#     4   4   4   4   4   4   4   4
#     4   9  19  35  51  67  96 138 171 195 237 303
#     4  10  21  33  52  80 106 132 168 213 256 302
#     4   8  16  30  49  70  94 131 169 200 240 294
#     4   9  19  35  53  75 102 133 170 208 253 306
#     4   9  18  33  50  69  98 134 167 197 239 300
#     4   8  15  32  51  67  96 134 167 197 240 300
#     4  11  21  29  47  78 101 121 162 214 252 285
#     4   8  15  31  55  77  97 130 175 212 243 294
#
# _framework density 23.486681000000001
#
# number of rings (size 3 to 8) (size 9 to 14) (size 15 to 20)
#    0.000    3.000    0.000    3.000    1.750    3.750 
#    0.000    1.875    0.000    1.500    0.000    4.375 
#    0.000    0.000    0.000    0.000    0.000    0.000 
#
# Total GULP energy -178555.117917 kJ/mol
# GULP energy per Si atom -5579.847435 kJ/mol
# Density = 2.343322 g / cm^3
# Si number density = 23.486681 Si / 1000 Ang^3
#
#
#
# Elastic Constant Matrix: (Units=GPa)
#
#
# Indices 1 2 3 4 5 6 
#
# 1 68.5842 -7.5370 12.9333 0.0000 20.6532 0.0000
# 2 -7.5370 66.8369 -0.7793 0.0000 2.9242 0.0000
# 3 12.9333 -0.7793 63.1808 0.0000 22.8329 0.0000
# 4 0.0000 0.0000 0.0000 7.2883 0.0000 -2.7429
# 5 20.6532 2.9242 22.8329 0.0000 40.4829 0.0000
# 6 0.0000 0.0000 0.0000 -2.7429 0.0000 3.2857
#
#
#
# Elastic Compliance Matrix: (Units=1/GPa)
#
#
# Indices 1 2 3 4 5 6 
#
# 1 0.017604 0.002373 -0.000335 0.000000 -0.008964 0.000000
# 2 0.002373 0.015356 0.000681 0.000000 -0.002704 0.000000
# 3 -0.000335 0.000681 0.019921 0.000000 -0.011114 0.000000
# 4 0.000000 0.000000 0.000000 0.200060 0.000000 0.167009
# 5 -0.008964 -0.002704 -0.011114 0.000000 0.035739 0.000000
# 6 0.000000 0.000000 0.000000 0.167009 0.000000 0.443767
#
#
# Mechanical properties :
#
#
# Convention : Reuss Voigt Hill
#
# Bulk Modulus (GPa) = 17.14708 23.09288 20.11998
# Shear Modulus (GPa) = 6.69840 23.14370 14.92105
#
# Velocity S-wave (km/s) = 1.69062 3.14251 2.52325
# Velocity P-wave (km/s) = 3.33580 4.79800 4.13209
#
# Compressibility (1/GPa) = 0.05831897
#
# Stress axis : x y z
#
# Youngs Moduli (GPa) = 56.80572 65.12254 50.19813
#
# Poissons Ratio (x) = -0.15456 0.01681
# Poissons Ratio (y) = -0.13482 -0.03417
# Poissons Ratio (z) = 0.01903 -0.04433
#
# Static dielectric constant tensor:
#      x y z
#    x 1.892520 0.000000 0.020560 
#    y 0.000000 1.885990 0.000000 
#    z 0.020560 0.000000 1.917420 
# 
# From -- ./inp_files/71634.got.cif
#   From: 2010.05.17/outbox.cif.g08.bks.cpg/sg10_36_cif.got.tgz:71634.got - 2010.06.03 11:33:40.
