data_PCOD9151394
_publ_section_title
;
Structure prediction by ZEFSAII (Michael W. Deem and Ramdas Pophale) SiO2 
 PCOD9151394
Probable space group: P 2/M
;
_chemical_formula_sum "Si O2"
_cell_formula_units_Z 19
_cell_length_a 9.097697
_cell_length_b 21.971834
_cell_length_c 8.019008
_cell_angle_alpha 90.000000
_cell_angle_beta 148.147136
_cell_angle_gamma 90.000000
_cell_volume 845.937371
_symmetry_space_group_name_H-M "P 2/M"
_symmetry_group_IT_number 10
_symmetry_cell_setting 'monoclinic'
loop_
_space_group_symop_operation_xyz
x,y,z
-x,y,-z
-x,-y,-z
x,-y,z
loop_
_atom_site_type_symbol
_atom_site_label
_atom_site_fract_x
_atom_site_fract_y
_atom_site_fract_z
Si Si1 0.864039 0.700028 0.185393
Si Si2 0.762228 0.500000 0.631980
Si Si3 0.337593 0.882674 0.685445
Si Si4 0.621503 0.369998 0.430150
Si Si5 0.000000 0.000000 0.500000
Si Si6 0.164804 0.172902 0.985188
O O1 0.738785 0.760777 0.980466
O O2 0.000000 0.708121 0.500000
O O3 0.126353 0.677242 0.332065
O O4 0.620231 0.650380 0.929702
O O5 0.500000 0.500000 0.500000
O O6 0.745824 0.437165 0.515254
O O7 0.000000 0.500000 0.000000
O O8 0.206873 0.946886 0.616889
O O9 0.075122 0.845159 0.374920
O O10 0.500000 0.856477 0.000000
O O11 0.582510 0.875964 0.782738
O O12 0.500000 0.369930 0.500000
O O13 0.000000 0.173679 0.000000
#
# Coordination Sequence:
#
# PCOD9151394 Si02
#       6
#     4   2   4   4   1   4
#     4  12  25  43  65  99 137 181 226 284 352 419
#     4  10  20  38  65  98 131 180 235 282 345 412
#     4  12  24  46  75 102 136 184 230 276 333 421
#     4  11  22  41  67  96 133 179 233 289 338 409
#     4  12  26  48  80 106 138 188 236 266 340 422
#     4  12  26  45  70 104 141 181 231 291 351 405
#
# _framework density 22.460290000000001
#
# number of rings (size 3 to 8) (size 9 to 14) (size 15 to 20)
#    0.000    0.421    2.105    8.526    0.000    0.000 
#    0.000    6.316    0.000    0.000    0.000    0.000 
#    0.000    0.000    0.000    0.000    0.000    0.000 
#
# Total GULP energy -105859.748466 kJ/mol
# GULP energy per Si atom -5571.565709 kJ/mol
# Density = 2.240917 g / cm^3
# Si number density = 22.460290 Si / 1000 Ang^3
#
#
#
# Elastic Constant Matrix: (Units=GPa)
#
#
# Indices 1 2 3 4 5 6 
#
# 1 107.0276 58.4993 27.1579 0.0000 8.3969 0.0000
# 2 58.4993 124.6738 46.1195 0.0000 8.5032 0.0000
# 3 27.1579 46.1195 136.5826 0.0000 15.6101 0.0000
# 4 0.0000 0.0000 0.0000 -2.7222 0.0000 11.5189
# 5 8.3969 8.5032 15.6101 0.0000 37.7853 0.0000
# 6 0.0000 0.0000 0.0000 11.5189 0.0000 11.3438
#
#
#
# Elastic Compliance Matrix: (Units=1/GPa)
#
#
# Indices 1 2 3 4 5 6 
#
# 1 0.012672 -0.005689 -0.000444 0.000000 -0.001352 0.000000
# 2 -0.005689 0.011745 -0.002810 0.000000 -0.000218 0.000000
# 3 -0.000444 -0.002810 0.008685 0.000000 -0.002857 0.000000
# 4 0.000000 0.000000 0.000000 -0.069353 0.000000 0.070424
# 5 -0.001352 -0.000218 -0.002857 0.000000 0.027995 0.000000
# 6 0.000000 0.000000 0.000000 0.070424 0.000000 0.016643
#
#
# Mechanical properties :
#
#
# Convention : Reuss Voigt Hill
#
# Bulk Modulus (GPa) = 65.72168 70.20414 67.96291
# Shear Modulus (GPa) = 159.51949 25.04855 92.28402
#
# Velocity S-wave (km/s) = 8.43665 3.34314 6.41692
# Velocity P-wave (km/s) = 11.14574 6.79904 9.23186
#
# Compressibility (1/GPa) = 0.01521568
#
# Stress axis : x y z
#
# Youngs Moduli (GPa) = 78.91493 85.14462 115.13959
#
# Poissons Ratio (x) = 0.48442 0.05112
# Poissons Ratio (y) = 0.44898 0.32350
# Poissons Ratio (z) = 0.03504 0.23922
#
# Static dielectric constant tensor:
#      x y z
#    x 1.936140 0.000000 0.000580 
#    y 0.000000 1.906340 0.000000 
#    z 0.000580 0.000000 1.807730 
# 
# From -- ./inp_files/20684.got.cif
#   From: 2010.05.17/outbox.cif.g08.bks.cpg/sg10_11_cif.got.tgz:20684.got - 2010.06.03 11:33:40.
