data_PCOD9151244
_publ_section_title
;
Structure prediction by ZEFSAII (Michael W. Deem and Ramdas Pophale) SiO2 
 PCOD9151244
Probable space group: P 2/M
;
_chemical_formula_sum "Si O2"
_cell_formula_units_Z 20
_cell_length_a 10.137197
_cell_length_b 7.526995
_cell_length_c 19.746574
_cell_angle_alpha 90.000000
_cell_angle_beta 140.053925
_cell_angle_gamma 90.000000
_cell_volume 967.411352
_symmetry_space_group_name_H-M "P 2/M"
_symmetry_group_IT_number 10
_symmetry_cell_setting 'monoclinic'
loop_
_space_group_symop_operation_xyz
x,y,z
-x,y,-z
-x,-y,-z
x,-y,z
loop_
_atom_site_type_symbol
_atom_site_label
_atom_site_fract_x
_atom_site_fract_y
_atom_site_fract_z
Si Si1 0.044927 0.302028 0.438804
Si Si2 0.191984 0.284161 0.029416
Si Si3 0.353335 0.284710 0.800658
Si Si4 0.649850 0.000000 0.469735
Si Si5 0.206223 0.000000 0.318989
Si Si6 0.872636 0.287251 0.154198
O O1 0.085974 0.500000 0.427118
O O2 0.000000 0.316328 0.500000
O O3 0.845056 0.227624 0.320754
O O4 0.238275 0.175798 0.510776
O O5 0.191742 0.500000 0.034877
O O6 0.167453 0.243105 0.939980
O O7 0.424199 0.221937 0.137429
O O8 0.000000 0.221440 0.000000
O O9 0.358364 0.500000 0.797698
O O10 0.304566 0.243407 0.860353
O O11 0.412800 0.000000 0.356807
O O12 0.706650 0.000000 0.571339
O O13 0.068418 0.172824 0.253051
O O14 0.905585 0.500000 0.171448
#
# Coordination Sequence:
#
# PCOD9151244 Si02
#       6
#     4   4   4   2   2   4
#     4  10  21  38  62  89 117 155 200 241 291 352
#     4   9  18  33  57  88 119 151 190 240 298 351
#     4   9  17  33  57  84 115 153 194 236 286 348
#     4  11  23  40  57  84 122 154 193 249 297 343
#     4  11  24  38  59  87 116 154 201 243 294 351
#     4  10  20  38  61  84 116 157 197 240 290 350
#
# _framework density 20.673729999999999
#
# number of rings (size 3 to 8) (size 9 to 14) (size 15 to 20)
#    0.000    2.200    2.000    0.900    0.000    4.800 
#    0.000    9.500    0.000    0.000    0.000    0.000 
#    0.000    0.000    0.000    0.000    0.000    0.000 
#
# Total GULP energy -111548.913178 kJ/mol
# GULP energy per Si atom -5577.445659 kJ/mol
# Density = 2.062668 g / cm^3
# Si number density = 20.673730 Si / 1000 Ang^3
#
#
#
# Elastic Constant Matrix: (Units=GPa)
#
#
# Indices 1 2 3 4 5 6 
#
# 1 118.8730 19.0822 46.6978 0.0000 28.0915 0.0000
# 2 19.0822 61.2741 12.5799 0.0000 17.5946 0.0000
# 3 46.6978 12.5799 53.1271 0.0000 27.3695 0.0000
# 4 0.0000 0.0000 0.0000 12.1602 0.0000 12.1487
# 5 28.0915 17.5946 27.3695 0.0000 46.9442 0.0000
# 6 0.0000 0.0000 0.0000 12.1487 0.0000 -11.3476
#
#
#
# Elastic Compliance Matrix: (Units=1/GPa)
#
#
# Indices 1 2 3 4 5 6 
#
# 1 0.013069 -0.001596 -0.010561 0.000000 -0.001065 0.000000
# 2 -0.001596 0.018532 0.000144 0.000000 -0.006075 0.000000
# 3 -0.010561 0.000144 0.035509 0.000000 -0.014437 0.000000
# 4 0.000000 0.000000 0.000000 0.039735 0.000000 0.042540
# 5 -0.001065 -0.006075 -0.014437 0.000000 0.032633 0.000000
# 6 0.000000 0.000000 0.000000 0.042540 0.000000 -0.042581
#
#
# Mechanical properties :
#
#
# Convention : Reuss Voigt Hill
#
# Bulk Modulus (GPa) = 23.21012 43.33268 33.27140
# Shear Modulus (GPa) = 36.95944 19.87898 28.41921
#
# Velocity S-wave (km/s) = 4.23276 3.10426 3.71165
# Velocity P-wave (km/s) = 5.92787 5.81845 5.87341
#
# Compressibility (1/GPa) = 0.04308466
#
# Stress axis : x y z
#
# Youngs Moduli (GPa) = 76.51769 53.96110 28.16207
#
# Poissons Ratio (x) = 0.08612 0.29741
# Poissons Ratio (y) = 0.12212 -0.00406
# Poissons Ratio (z) = 0.80808 -0.00778
#
# Static dielectric constant tensor:
#      x y z
#    x 1.812900 0.000000 0.017710 
#    y 0.000000 1.766620 0.000000 
#    z 0.017710 0.000000 1.729310 
# 
# From -- ./inp_files/33657.got.cif
#   From: 2010.05.17/outbox.cif.g08.bks.cpg/sg10_17_cif.got.tgz:33657.got - 2010.06.03 11:33:40.
