data_PCOD9151473
_publ_section_title
;
Structure prediction by ZEFSAII (Michael W. Deem and Ramdas Pophale) SiO2 
 PCOD9151473
Probable space group: P 2/M
;
_chemical_formula_sum "Si O2"
_cell_formula_units_Z 18
_cell_length_a 8.873761
_cell_length_b 20.646145
_cell_length_c 7.697968
_cell_angle_alpha 90.000000
_cell_angle_beta 34.974907
_cell_angle_gamma 90.000000
_cell_volume 808.429850
_symmetry_space_group_name_H-M "P 2/M"
_symmetry_group_IT_number 10
_symmetry_cell_setting 'monoclinic'
loop_
_space_group_symop_operation_xyz
x,y,z
-x,y,-z
-x,-y,-z
x,-y,z
loop_
_atom_site_type_symbol
_atom_site_label
_atom_site_fract_x
_atom_site_fract_y
_atom_site_fract_z
Si Si1 0.887138 0.648371 0.413178
Si Si2 0.380829 0.574740 0.807129
Si Si3 0.267779 0.000000 0.856114
Si Si4 0.952515 0.794295 0.334312
Si Si5 0.449012 0.132908 0.841642
O O1 0.605946 0.614471 0.692134
O O2 0.865381 0.722161 0.368726
O O3 0.000000 0.651109 0.500000
O O4 0.099275 0.608302 0.100124
O O5 0.500000 0.575301 0.500000
O O6 0.360634 0.500000 0.882383
O O7 0.500000 0.000000 0.500000
O O8 0.319011 0.935428 0.918379
O O9 0.000000 0.000000 0.000000
O O10 0.000000 0.795897 0.500000
O O11 0.234216 0.813461 0.993337
O O12 0.729947 0.846994 0.497472
O O13 0.500000 0.134063 0.000000
#
# Coordination Sequence:
#
# PCOD9151473 Si02
#       5
#     4   4   2   4   4
#     4  11  22  39  64  92 119 151 199 256 304 348
#     4  11  24  41  59  84 123 165 201 242 297 361
#     4  12  25  40  57  86 124 152 186 242 295 330
#     4   9  19  36  61  89 115 145 191 248 293 340
#     4  10  20  39  63  84 111 155 199 230 281 357
#
# _framework density 22.265381999999999
#
# number of rings (size 3 to 8) (size 9 to 14) (size 15 to 20)
#    0.000    1.556    0.000    5.000    0.000    8.000 
#    0.000   15.556    0.000    0.000    0.000    0.000 
#    0.000    0.000    0.000    0.000    0.000    0.000 
#
# Total GULP energy -100616.608821 kJ/mol
# GULP energy per Si atom -5589.811601 kJ/mol
# Density = 2.221471 g / cm^3
# Si number density = 22.265382 Si / 1000 Ang^3
#
#
#
# Elastic Constant Matrix: (Units=GPa)
#
#
# Indices 1 2 3 4 5 6 
#
# 1 53.4179 30.5499 22.0467 0.0000 -23.8728 0.0000
# 2 30.5499 145.5923 27.4214 0.0000 -26.9029 0.0000
# 3 22.0467 27.4214 115.1147 0.0000 -30.2686 0.0000
# 4 0.0000 0.0000 0.0000 40.0734 0.0000 -14.9594
# 5 -23.8728 -26.9029 -30.2686 0.0000 37.0005 0.0000
# 6 0.0000 0.0000 0.0000 -14.9594 0.0000 -15.7475
#
#
#
# Elastic Compliance Matrix: (Units=1/GPa)
#
#
# Indices 1 2 3 4 5 6 
#
# 1 0.027328 -0.002835 -0.000592 0.000000 0.015087 0.000000
# 2 -0.002835 0.008249 -0.000415 0.000000 0.003829 0.000000
# 3 -0.000592 -0.000415 0.011109 0.000000 0.008404 0.000000
# 4 0.000000 0.000000 0.000000 0.018422 0.000000 -0.017500
# 5 0.015087 0.003829 0.008404 0.000000 0.046420 0.000000
# 6 0.000000 0.000000 0.000000 -0.017500 0.000000 -0.046878
#
#
# Mechanical properties :
#
#
# Convention : Reuss Voigt Hill
#
# Bulk Modulus (GPa) = 25.63924 52.68453 39.16188
# Shear Modulus (GPa) = 58.59293 27.87241 43.23267
#
# Velocity S-wave (km/s) = 5.13545 3.54196 4.41125
# Velocity P-wave (km/s) = 6.83404 6.35930 6.60094
#
# Compressibility (1/GPa) = 0.03900272
#
# Stress axis : x y z
#
# Youngs Moduli (GPa) = 36.59205 121.22487 90.01686
#
# Poissons Ratio (x) = 0.34369 0.05325
# Poissons Ratio (y) = 0.10374 0.03738
# Poissons Ratio (z) = 0.02165 0.05034
#
# Static dielectric constant tensor:
#      x y z
#    x 1.865730 0.000000 0.024710 
#    y 0.000000 1.335650 0.000000 
#    z 0.024710 0.000000 1.769840 
# 
# From -- ./inp_files/20046.got.cif
#   From: 2010.05.17/outbox.cif.g08.bks.cpg/sg10_11_cif.got.tgz:20046.got - 2010.06.03 11:33:40.
