data_PCOD9151040
_publ_section_title
;
Structure prediction by ZEFSAII (Michael W. Deem and Ramdas Pophale) SiO2 
 PCOD9151040
Probable space group: P 2/M
;
_chemical_formula_sum "Si O2"
_cell_formula_units_Z 32
_cell_length_a 14.867705
_cell_length_b 22.942741
_cell_length_c 9.150332
_cell_angle_alpha 90.000000
_cell_angle_beta 148.164917
_cell_angle_gamma 90.000000
_cell_volume 1646.375423
_symmetry_space_group_name_H-M "P 2/M"
_symmetry_group_IT_number 10
_symmetry_cell_setting 'monoclinic'
loop_
_space_group_symop_operation_xyz
x,y,z
-x,y,-z
-x,-y,-z
x,-y,z
loop_
_atom_site_type_symbol
_atom_site_label
_atom_site_fract_x
_atom_site_fract_y
_atom_site_fract_z
Si Si1 0.173651 0.067746 0.825941
Si Si2 0.094854 0.718420 0.482803
Si Si3 0.170745 0.067597 0.172374
Si Si4 0.855084 0.327898 0.912264
Si Si5 0.623638 0.631151 0.047735
Si Si6 0.625438 0.260741 0.365299
Si Si7 0.319678 0.564610 0.170757
Si Si8 0.498040 0.857334 0.673044
O O1 0.000000 0.083922 0.500000
O O2 0.213200 0.000000 0.840097
O O3 0.151153 0.068656 0.970439
O O4 0.334595 0.110650 0.032810
O O5 0.244880 0.749137 0.593023
O O6 0.000000 0.740224 0.500000
O O7 0.192612 0.656937 0.650771
O O8 0.941671 0.709088 0.159138
O O9 0.337050 0.099608 0.459328
O O10 0.181733 0.000000 0.232718
O O11 0.000000 0.095175 0.000000
O O12 0.730701 0.287243 0.646594
O O13 0.776854 0.384912 0.875908
O O14 0.000000 0.347079 0.000000
O O15 0.514653 0.689128 0.856181
O O16 0.649985 0.588270 0.950159
O O17 0.500000 0.603754 0.000000
O O18 0.536945 0.201512 0.289209
O O19 0.500000 0.560468 0.500000
O O20 0.240137 0.500000 0.061198
O O21 0.500000 0.844952 0.500000
#
# Coordination Sequence:
#
# PCOD9151040 Si02
#       8
#     4   4   4   4   4   4   4   4
#     4   9  18  37  63  90 122 159 202 256 313 358
#     4  10  20  37  62  86 109 148 200 243 301 357
#     4   9  18  35  58  85 120 161 203 249 297 354
#     4  10  21  38  60  84 115 153 195 244 299 358
#     4  10  21  39  59  81 116 155 194 240 305 365
#     4  10  22  38  58  83 117 160 197 242 291 363
#     4  11  22  37  62  90 116 153 200 248 295 364
#     4  10  21  35  59  90 120 160 210 250 297 362
#
# _framework density 19.436634999999999
#
# number of rings (size 3 to 8) (size 9 to 14) (size 15 to 20)
#    0.000    2.125    2.500    0.375    1.750    3.500 
#    0.000   10.000    0.000    3.000    0.000    0.000 
#    0.000    1.500    0.000    0.000    0.000    2.125 
#
# Total GULP energy -178375.884749 kJ/mol
# GULP energy per Si atom -5574.246398 kJ/mol
# Density = 1.939240 g / cm^3
# Si number density = 19.436635 Si / 1000 Ang^3
#
#
#
# Elastic Constant Matrix: (Units=GPa)
#
#
# Indices 1 2 3 4 5 6 
#
# 1 103.2004 56.3296 27.2005 0.0000 5.3911 0.0000
# 2 56.3296 77.8084 28.6673 0.0000 9.4245 0.0000
# 3 27.2005 28.6673 105.0049 0.0000 -3.1560 0.0000
# 4 0.0000 0.0000 0.0000 301.1188 0.0000 187.6989
# 5 5.3911 9.4245 -3.1560 0.0000 24.6361 0.0000
# 6 0.0000 0.0000 0.0000 187.6989 0.0000 131.9169
#
#
#
# Elastic Compliance Matrix: (Units=1/GPa)
#
#
# Indices 1 2 3 4 5 6 
#
# 1 0.016145 -0.011383 -0.001054 0.000000 0.000687 0.000000
# 2 -0.011383 0.023253 -0.003606 0.000000 -0.006866 0.000000
# 3 -0.001054 -0.003606 0.010871 0.000000 0.003003 0.000000
# 4 0.000000 0.000000 0.000000 0.029369 0.000000 -0.041787
# 5 0.000687 -0.006866 0.003003 0.000000 0.043452 0.000000
# 6 0.000000 0.000000 0.000000 -0.041787 0.000000 0.067038
#
#
# Mechanical properties :
#
#
# Convention : Reuss Voigt Hill
#
# Bulk Modulus (GPa) = 54.99560 56.71204 55.85382
# Shear Modulus (GPa) = 21.90342 103.12211 62.51276
#
# Velocity S-wave (km/s) = 3.36060 7.29183 5.67734
# Velocity P-wave (km/s) = 6.58896 10.00677 8.47201
#
# Compressibility (1/GPa) = 0.01818327
#
# Stress axis : x y z
#
# Youngs Moduli (GPa) = 61.93878 43.00493 91.98711
#
# Poissons Ratio (x) = 0.48953 0.09694
# Poissons Ratio (y) = 0.70505 0.33171
# Poissons Ratio (z) = 0.06528 0.15508
#
# Static dielectric constant tensor:
#      x y z
#    x 1.770080 0.000000 -0.035370 
#    y 0.000000 1.669100 0.000000 
#    z -0.035370 0.000000 1.702860 
# 
# From -- ./inp_files/30594.got.cif
#   From: 2010.05.17/outbox.cif.g08.bks.cpg/sg10_16_cif.got.tgz:30594.got - 2010.06.03 11:33:40.
