data_PCOD9151908
_publ_section_title
;
Structure prediction by ZEFSAII (Michael W. Deem and Ramdas Pophale) SiO2 
 PCOD9151908
Probable space group: P 2/M
;
_chemical_formula_sum "Si O2"
_cell_formula_units_Z 24
_cell_length_a 10.631068
_cell_length_b 14.161422
_cell_length_c 9.607290
_cell_angle_alpha 90.000000
_cell_angle_beta 121.225603
_cell_angle_gamma 90.000000
_cell_volume 1236.853238
_symmetry_space_group_name_H-M "P 2/M"
_symmetry_group_IT_number 10
_symmetry_cell_setting 'monoclinic'
loop_
_space_group_symop_operation_xyz
x,y,z
-x,y,-z
-x,-y,-z
x,-y,z
loop_
_atom_site_type_symbol
_atom_site_label
_atom_site_fract_x
_atom_site_fract_y
_atom_site_fract_z
Si Si1 0.853038 0.608078 0.205786
Si Si2 0.553912 0.394625 0.370583
Si Si3 0.256389 0.696431 0.111892
Si Si4 0.326855 0.217817 0.888080
Si Si5 0.839618 0.288899 0.626699
Si Si6 0.170605 0.105898 0.556153
O O1 0.855381 0.500000 0.253202
O O2 0.720725 0.675158 0.183449
O O3 0.004096 0.664101 0.320837
O O4 0.826004 0.615077 0.023163
O O5 0.500000 0.401744 0.500000
O O6 0.557813 0.500000 0.312485
O O7 0.427394 0.332654 0.226230
O O8 0.713241 0.349742 0.480277
O O9 0.186562 0.709617 0.222261
O O10 0.254738 0.783889 0.001952
O O11 0.259568 0.146131 0.739353
O O12 0.500000 0.206610 0.000000
O O13 0.821000 0.183045 0.560442
O O14 0.000000 0.102619 0.500000
O O15 0.219244 0.000000 0.547089
#
# Coordination Sequence:
#
# PCOD9151908 Si02
#       6
#     4   4   4   4   4   4
#     4  10  21  35  58  90 122 160 198 233 286 349
#     4   9  17  30  53  86 121 160 192 223 280 351
#     4   9  20  35  59  86 123 156 195 237 286 346
#     4  10  22  41  59  85 120 162 195 240 294 351
#     4  11  20  37  61  89 120 152 197 254 292 341
#     4  11  23  43  65  84 113 154 200 249 313 364
#
# _framework density 19.404081000000001
#
# number of rings (size 3 to 8) (size 9 to 14) (size 15 to 20)
#    1.000    1.000    1.667    2.500    0.000    3.333 
#    0.000    3.333    0.000   12.500    0.000    0.000 
#    0.000    0.000    0.000    0.000    0.000    0.000 
#
# Total GULP energy -133781.368956 kJ/mol
# GULP energy per Si atom -5574.223707 kJ/mol
# Density = 1.935992 g / cm^3
# Si number density = 19.404081 Si / 1000 Ang^3
#
#
#
# Elastic Constant Matrix: (Units=GPa)
#
#
# Indices 1 2 3 4 5 6 
#
# 1 37.9043 4.5651 28.2756 0.0000 11.2878 0.0000
# 2 4.5651 97.8973 42.3395 0.0000 14.2986 0.0000
# 3 28.2756 42.3395 101.0513 0.0000 15.7126 0.0000
# 4 0.0000 0.0000 0.0000 12.9770 0.0000 0.1491
# 5 11.2878 14.2986 15.7126 0.0000 44.5507 0.0000
# 6 0.0000 0.0000 0.0000 0.1491 0.0000 17.9576
#
#
#
# Elastic Compliance Matrix: (Units=1/GPa)
#
#
# Indices 1 2 3 4 5 6 
#
# 1 0.035794 0.003884 -0.010622 0.000000 -0.006570 0.000000
# 2 0.003884 0.013121 -0.006112 0.000000 -0.003040 0.000000
# 3 -0.010622 -0.006112 0.015559 0.000000 -0.000835 0.000000
# 4 0.000000 0.000000 0.000000 0.077067 0.000000 -0.000640
# 5 -0.006570 -0.003040 -0.000835 0.000000 0.025381 0.000000
# 6 0.000000 0.000000 0.000000 -0.000640 0.000000 0.055692
#
#
# Mechanical properties :
#
#
# Convention : Reuss Voigt Hill
#
# Bulk Modulus (GPa) = 25.78956 43.02369 34.40663
# Shear Modulus (GPa) = 19.13970 25.87522 22.50746
#
# Velocity S-wave (km/s) = 3.14407 3.65567 3.40948
# Velocity P-wave (km/s) = 5.14780 6.32765 5.76797
#
# Compressibility (1/GPa) = 0.03877538
#
# Stress axis : x y z
#
# Youngs Moduli (GPa) = 27.93738 76.21434 64.27328
#
# Poissons Ratio (x) = -0.29603 0.68269
# Poissons Ratio (y) = -0.10851 0.39282
# Poissons Ratio (z) = 0.29674 0.46580
#
# Static dielectric constant tensor:
#      x y z
#    x 1.726140 0.000000 -0.024140 
#    y 0.000000 1.686800 0.000000 
#    z -0.024140 0.000000 1.702020 
# 
# From -- ./inp_files/46785.got.cif
#   From: 2010.05.17/outbox.cif.g08.bks.cpg/sg10_24_cif.got.tgz:46785.got - 2010.06.03 11:33:40.
