data_PCOD9151943
_publ_section_title
;
Structure prediction by ZEFSAII (Michael W. Deem and Ramdas Pophale) SiO2 
 PCOD9151943
Probable space group: P 2/M
;
_chemical_formula_sum "Si O2"
_cell_formula_units_Z 32
_cell_length_a 12.154749
_cell_length_b 18.679619
_cell_length_c 14.932264
_cell_angle_alpha 90.000000
_cell_angle_beta 149.935767
_cell_angle_gamma 90.000000
_cell_volume 1698.446531
_symmetry_space_group_name_H-M "P 2/M"
_symmetry_group_IT_number 10
_symmetry_cell_setting 'monoclinic'
loop_
_space_group_symop_operation_xyz
x,y,z
-x,y,-z
-x,-y,-z
x,-y,z
loop_
_atom_site_type_symbol
_atom_site_label
_atom_site_fract_x
_atom_site_fract_y
_atom_site_fract_z
Si Si1 0.867981 0.810532 0.269249
Si Si2 0.047349 0.691428 0.812137
Si Si3 0.293615 0.916707 0.992123
Si Si4 0.356726 0.416266 0.490891
Si Si5 0.331256 0.817662 0.674446
Si Si6 0.394099 0.685841 0.203968
Si Si7 0.720720 0.230369 0.705692
Si Si8 0.133473 0.922943 0.186211
O O1 0.877652 0.735126 0.222653
O O2 0.753610 0.803415 0.284718
O O3 0.118116 0.836174 0.464944
O O4 0.740830 0.868670 0.120172
O O5 0.868304 0.629242 0.672703
O O6 0.921616 0.750568 0.783458
O O7 0.246448 0.666285 0.014991
O O8 0.479255 0.877605 0.183233
O O9 0.350568 0.000000 0.015759
O O10 0.057107 0.915223 0.874110
O O11 0.500000 0.410459 0.500000
O O12 0.313709 0.500000 0.474931
O O13 0.495354 0.380970 0.668906
O O14 0.431318 0.745044 0.704988
O O15 0.262269 0.727615 0.189449
O O16 0.500000 0.253914 0.500000
O O17 0.713583 0.145594 0.711676
O O18 0.244201 0.000000 0.275566
O O19 0.000000 0.923738 0.000000
#
# Coordination Sequence:
#
# PCOD9151943 Si02
#       8
#     4   4   4   4   4   4   4   4
#     4  11  23  39  61  90 118 158 211 260 299 361
#     4  12  21  38  63  91 122 159 199 247 295 360
#     4  11  23  40  60  86 125 163 203 265 318 357
#     4  11  24  42  63  97 135 159 191 241 302 371
#     4  11  23  39  62  88 118 160 211 256 305 357
#     4  12  22  37  65  92 121 162 199 246 300 358
#     4  12  20  34  59  85 117 155 203 249 296 358
#     4  10  21  36  52  79 118 159 203 251 305 361
#
# _framework density 18.840745999999999
#
# number of rings (size 3 to 8) (size 9 to 14) (size 15 to 20)
#    0.000    0.750    6.250    2.250    0.000    2.250 
#    0.000    2.500    0.000    1.500    0.000    1.750 
#    0.000    0.000    0.000    0.000    0.000    0.000 
#
# Total GULP energy -178742.640571 kJ/mol
# GULP energy per Si atom -5585.707518 kJ/mol
# Density = 1.879786 g / cm^3
# Si number density = 18.840746 Si / 1000 Ang^3
#
#
#
# Elastic Constant Matrix: (Units=GPa)
#
#
# Indices 1 2 3 4 5 6 
#
# 1 42.1122 12.1713 -2.5200 0.0000 -13.3511 0.0000
# 2 12.1713 153.4567 39.5941 0.0000 -10.6563 0.0000
# 3 -2.5200 39.5941 104.5250 0.0000 -17.4193 0.0000
# 4 0.0000 0.0000 0.0000 257.7143 0.0000 3.2013
# 5 -13.3511 -10.6563 -17.4193 0.0000 19.1293 0.0000
# 6 0.0000 0.0000 0.0000 3.2013 0.0000 17.8040
#
#
#
# Elastic Compliance Matrix: (Units=1/GPa)
#
#
# Indices 1 2 3 4 5 6 
#
# 1 0.033690 -0.002373 0.006377 0.000000 0.027999 0.000000
# 2 -0.002373 0.007443 -0.002902 0.000000 -0.000153 0.000000
# 3 0.006377 -0.002902 0.013313 0.000000 0.014957 0.000000
# 4 0.000000 0.000000 0.000000 0.003889 0.000000 -0.000699
# 5 0.027999 -0.000153 0.014957 0.000000 0.085352 0.000000
# 6 0.000000 0.000000 0.000000 -0.000699 0.000000 0.056293
#
#
# Mechanical properties :
#
#
# Convention : Reuss Voigt Hill
#
# Bulk Modulus (GPa) = 17.65227 44.28720 30.96974
# Shear Modulus (GPa) = 23.07771 75.65276 49.36523
#
# Velocity S-wave (km/s) = 3.50363 6.34358 5.12428
# Velocity P-wave (km/s) = 5.07511 8.78702 7.17525
#
# Compressibility (1/GPa) = 0.05664993
#
# Stress axis : x y z
#
# Youngs Moduli (GPa) = 29.68212 134.35646 75.11594
#
# Poissons Ratio (x) = 0.31886 -0.47904
# Poissons Ratio (y) = 0.07044 0.21799
# Poissons Ratio (z) = -0.18929 0.38991
#
# Static dielectric constant tensor:
#      x y z
#    x 1.691710 0.000000 0.034660 
#    y 0.000000 1.639280 0.000000 
#    z 0.034660 0.000000 1.713050 
# 
# From -- ./inp_files/51999.got.cif
#   From: 2010.05.17/outbox.cif.g08.bks.cpg/sg10_26_cif.got.tgz:51999.got - 2010.06.03 11:33:40.
