data_PCOD9151133
_publ_section_title
;
Structure prediction by ZEFSAII (Michael W. Deem and Ramdas Pophale) SiO2 
 PCOD9151133
Probable space group: P 2/M
;
_chemical_formula_sum "Si O2"
_cell_formula_units_Z 24
_cell_length_a 9.621561
_cell_length_b 12.775951
_cell_length_c 8.889267
_cell_angle_alpha 90.000000
_cell_angle_beta 86.904299
_cell_angle_gamma 90.000000
_cell_volume 1091.114955
_symmetry_space_group_name_H-M "P 2/M"
_symmetry_group_IT_number 10
_symmetry_cell_setting 'monoclinic'
loop_
_space_group_symop_operation_xyz
x,y,z
-x,y,-z
-x,-y,-z
x,-y,z
loop_
_atom_site_type_symbol
_atom_site_label
_atom_site_fract_x
_atom_site_fract_y
_atom_site_fract_z
Si Si1 0.053774 0.159351 0.336200
Si Si2 0.721325 0.382402 0.313034
Si Si3 0.325308 0.882950 0.146955
Si Si4 0.449380 0.666807 0.169772
Si Si5 0.132573 0.790998 0.898303
Si Si6 0.173502 0.382425 0.353310
O O1 0.206457 0.120818 0.282998
O O2 0.068634 0.286766 0.335198
O O3 0.000000 0.125876 0.500000
O O4 0.941846 0.132122 0.215716
O O5 0.766348 0.500000 0.271894
O O6 0.557606 0.372843 0.286913
O O7 0.789970 0.298113 0.199210
O O8 0.758705 0.365241 0.485503
O O9 0.437179 0.793115 0.172603
O O10 0.379678 0.000000 0.130739
O O11 0.239479 0.846600 0.004337
O O12 0.295772 0.627622 0.222506
O O13 0.500000 0.635144 0.000000
O O14 0.000000 0.748603 0.000000
O O15 0.114525 0.500000 0.351830
#
# Coordination Sequence:
#
# PCOD9151133 Si02
#       6
#     4   4   4   4   4   4
#     4  10  20  37  64  89 123 152 193 249 286 348
#     4  11  22  38  60  87 122 164 198 230 290 356
#     4  10  23  43  64  85 113 154 200 248 310 360
#     4  11  22  40  60  88 117 153 200 257 293 340
#     4  10  21  39  58  88 123 156 193 244 294 343
#     4  10  22  38  60  87 122 166 198 231 288 354
#
# _framework density 21.995849
#
# number of rings (size 3 to 8) (size 9 to 14) (size 15 to 20)
#    0.000    1.667    3.333    1.000    0.000    7.667 
#    0.000    0.000    0.000    8.000    0.000    0.000 
#    0.000    0.000    0.000    0.000    0.000    0.000 
#
# Total GULP energy -134213.711289 kJ/mol
# GULP energy per Si atom -5592.237970 kJ/mol
# Density = 2.194579 g / cm^3
# Si number density = 21.995849 Si / 1000 Ang^3
#
#
#
# Elastic Constant Matrix: (Units=GPa)
#
#
# Indices 1 2 3 4 5 6 
#
# 1 53.7449 -0.3245 18.9998 0.0000 -6.3862 0.0000
# 2 -0.3245 122.7243 13.7770 0.0000 2.1089 0.0000
# 3 18.9998 13.7770 110.6377 0.0000 -18.5281 0.0000
# 4 0.0000 0.0000 0.0000 -14.1700 0.0000 -16.0027
# 5 -6.3862 2.1089 -18.5281 0.0000 44.6343 0.0000
# 6 0.0000 0.0000 0.0000 -16.0027 0.0000 -23.6505
#
#
#
# Elastic Compliance Matrix: (Units=1/GPa)
#
#
# Indices 1 2 3 4 5 6 
#
# 1 0.019925 0.000388 -0.003220 0.000000 0.001496 0.000000
# 2 0.000388 0.008304 -0.001244 0.000000 -0.000853 0.000000
# 3 -0.003220 -0.001244 0.010402 0.000000 0.003916 0.000000
# 4 0.000000 0.000000 0.000000 -0.299216 0.000000 0.202460
# 5 0.001496 -0.000853 0.003916 0.000000 0.024284 0.000000
# 6 0.000000 0.000000 0.000000 0.202460 0.000000 -0.179273
#
#
# Mechanical properties :
#
#
# Convention : Reuss Voigt Hill
#
# Bulk Modulus (GPa) = 32.80724 39.11240 35.95982
# Shear Modulus (GPa) = -12.58604 18.33974 2.87685
#
# Velocity S-wave (km/s) = -2.39467 2.89066 1.14488
# Velocity P-wave (km/s) = 2.70216 5.38159 4.25812
#
# Compressibility (1/GPa) = 0.03048108
#
# Stress axis : x y z
#
# Youngs Moduli (GPa) = 50.18901 120.42927 96.13484
#
# Poissons Ratio (x) = -0.04677 0.30951
# Poissons Ratio (y) = -0.01949 0.11955
# Poissons Ratio (z) = 0.16158 0.14976
#
# Static dielectric constant tensor:
#      x y z
#    x 1.797180 0.000000 -0.012610 
#    y 0.000000 1.820840 0.000000 
#    z -0.012610 0.000000 1.813850 
# 
# From -- ./inp_files/24019.got.cif
#   From: 2010.05.17/outbox.cif.g08.bks.cpg/sg10_13_cif.got.tgz:24019.got - 2010.06.03 11:33:40.
