data_PCOD9151098
_publ_section_title
;
Structure prediction by ZEFSAII (Michael W. Deem and Ramdas Pophale) SiO2 
 PCOD9151098
Probable space group: P 2/M
;
_chemical_formula_sum "Si O2"
_cell_formula_units_Z 28
_cell_length_a 9.640216
_cell_length_b 14.148016
_cell_length_c 22.819389
_cell_angle_alpha 90.000000
_cell_angle_beta 23.126995
_cell_angle_gamma 90.000000
_cell_volume 1222.433164
_symmetry_space_group_name_H-M "P 2/M"
_symmetry_group_IT_number 10
_symmetry_cell_setting 'monoclinic'
loop_
_space_group_symop_operation_xyz
x,y,z
-x,y,-z
-x,-y,-z
x,-y,z
loop_
_atom_site_type_symbol
_atom_site_label
_atom_site_fract_x
_atom_site_fract_y
_atom_site_fract_z
Si Si1 0.500610 0.750736 0.360932
Si Si2 0.557761 0.602173 0.046887
Si Si3 0.196538 0.109736 0.667762
Si Si4 0.712277 0.207097 0.683427
Si Si5 0.590152 0.000000 0.736354
Si Si6 0.466492 0.195817 0.909455
Si Si7 0.762745 0.390874 0.349745
Si Si8 0.187984 0.000000 0.014766
O O1 0.640514 0.845754 0.337241
O O2 0.494314 0.757047 0.293323
O O3 0.715068 0.666950 0.308773
O O4 0.087280 0.741043 0.540213
O O5 0.713734 0.500000 0.005162
O O6 0.699590 0.705880 0.005168
O O7 0.151976 0.608422 0.226151
O O8 0.500000 0.596525 0.000000
O O9 0.500000 0.112691 0.500000
O O10 0.864262 0.173731 0.777272
O O11 0.089261 0.000000 0.716671
O O12 0.791583 0.095534 0.643897
O O13 0.492744 0.207205 0.828815
O O14 0.475456 0.000000 0.849403
O O15 0.211450 0.000000 0.852089
O O16 0.259984 0.103326 0.012728
O O17 0.500000 0.349452 0.500000
O O18 0.668817 0.500000 0.374687
#
# Coordination Sequence:
#
# PCOD9151098 Si02
#       8
#     4   4   4   4   2   4   4   2
#     4  11  21  35  53  88 120 150 197 247 297 369
#     4  10  22  39  61  91 124 162 205 253 311 373
#     4  11  21  32  56  88 125 159 197 258 319 363
#     4  10  23  34  57  80 118 158 195 240 299 365
#     4   9  20  39  52  76 113 165 196 231 288 377
#     4  11  19  39  60  87 117 158 206 253 303 371
#     4  10  20  37  63  88 117 158 200 252 315 368
#     4   9  20  36  58  80 112 151 204 247 295 350
#
# _framework density 22.905137
#
# number of rings (size 3 to 8) (size 9 to 14) (size 15 to 20)
#    0.000    1.714    3.571    1.286    2.000    1.714 
#    0.000    2.500    0.000    0.000    0.000   12.000 
#    0.000    0.000    0.000    0.000    0.000    0.000 
#
# Total GULP energy -156464.443856 kJ/mol
# GULP energy per Si atom -5588.015852 kJ/mol
# Density = 2.285300 g / cm^3
# Si number density = 22.905137 Si / 1000 Ang^3
#
#
#
# Elastic Constant Matrix: (Units=GPa)
#
#
# Indices 1 2 3 4 5 6 
#
# 1 98.2188 35.6745 14.4681 0.0000 5.4528 0.0000
# 2 35.6745 181.3653 7.4371 0.0000 0.5077 0.0000
# 3 14.4681 7.4371 62.7303 0.0000 5.8288 0.0000
# 4 0.0000 0.0000 0.0000 -221.0434 0.0000 -89.4613
# 5 5.4528 0.5077 5.8288 0.0000 28.4887 0.0000
# 6 0.0000 0.0000 0.0000 -89.4613 0.0000 -10.2595
#
#
#
# Elastic Compliance Matrix: (Units=1/GPa)
#
#
# Indices 1 2 3 4 5 6 
#
# 1 0.011379 -0.002143 -0.002214 0.000000 -0.001687 0.000000
# 2 -0.002143 0.005944 -0.000243 0.000000 0.000354 0.000000
# 3 -0.002214 -0.000243 0.016760 0.000000 -0.003001 0.000000
# 4 0.000000 0.000000 0.000000 0.001789 0.000000 -0.015598
# 5 -0.001687 0.000354 -0.003001 0.000000 0.036032 0.000000
# 6 0.000000 0.000000 0.000000 -0.015598 0.000000 0.038539
#
#
# Mechanical properties :
#
#
# Convention : Reuss Voigt Hill
#
# Bulk Modulus (GPa) = 40.18777 50.83043 45.50910
# Shear Modulus (GPa) = 39.08148 -21.58053 8.75047
#
# Velocity S-wave (km/s) = 4.13514 -3.07281 1.95668
# Velocity P-wave (km/s) = 6.35473 3.10650 5.00164
#
# Compressibility (1/GPa) = 0.02488320
#
# Stress axis : x y z
#
# Youngs Moduli (GPa) = 87.87809 168.23069 59.66755
#
# Poissons Ratio (x) = 0.36049 0.13209
# Poissons Ratio (y) = 0.18831 0.01452
# Poissons Ratio (z) = 0.19454 0.04095
#
# Static dielectric constant tensor:
#      x y z
#    x 1.842180 0.000000 0.009270 
#    y 0.000000 1.916260 0.000000 
#    z 0.009270 0.000000 1.928640 
# 
# From -- ./inp_files/82918.got.cif
#   From: 2010.05.17/outbox.cif.g08.bks.cpg/sg10_42_cif.got.tgz:82918.got - 2010.06.03 11:33:40.
