data_PCOD9151162
_publ_section_title
;
Structure prediction by ZEFSAII (Michael W. Deem and Ramdas Pophale) SiO2 
 PCOD9151162
Probable space group: P 2/M
;
_chemical_formula_sum "Si O2"
_cell_formula_units_Z 26
_cell_length_a 13.880044
_cell_length_b 12.032359
_cell_length_c 9.610783
_cell_angle_alpha 90.000000
_cell_angle_beta 56.708018
_cell_angle_gamma 90.000000
_cell_volume 1341.672454
_symmetry_space_group_name_H-M "P 2/M"
_symmetry_group_IT_number 10
_symmetry_cell_setting 'monoclinic'
loop_
_space_group_symop_operation_xyz
x,y,z
-x,y,-z
-x,-y,-z
x,-y,z
loop_
_atom_site_type_symbol
_atom_site_label
_atom_site_fract_x
_atom_site_fract_y
_atom_site_fract_z
Si Si1 0.016625 0.368032 0.827372
Si Si2 0.201352 0.243843 0.524527
Si Si3 0.116727 0.000000 0.311447
Si Si4 0.602885 0.629257 0.030028
Si Si5 0.479859 0.000000 0.352755
Si Si6 0.211852 0.000000 0.520568
Si Si7 0.476460 0.758025 0.353915
Si Si8 0.835317 0.245052 0.774791
O O1 0.004189 0.500000 0.834835
O O2 0.140689 0.331384 0.671718
O O3 0.925520 0.315675 0.792306
O O4 0.000000 0.329930 0.000000
O O5 0.161380 0.119028 0.601902
O O6 0.339954 0.250425 0.427571
O O7 0.160018 0.258352 0.397367
O O8 0.134116 0.884198 0.219912
O O9 0.000000 0.000000 0.500000
O O10 0.214911 0.000000 0.351193
O O11 0.639941 0.500000 0.996689
O O12 0.546872 0.663177 0.220560
O O13 0.500000 0.643678 0.000000
O O14 0.708922 0.710778 0.914720
O O15 0.500000 0.000000 0.500000
O O16 0.518353 0.880283 0.265957
O O17 0.342739 0.000000 0.458652
O O18 0.500000 0.754018 0.500000
#
# Coordination Sequence:
#
# PCOD9151162 Si02
#       8
#     4   4   2   4   2   2   4   4
#     4  11  26  43  61  87 121 159 205 262 311 363
#     4  10  20  39  64  90 118 161 209 250 311 377
#     4  10  20  37  66  98 122 153 203 260 311 374
#     4  11  24  41  60  90 131 167 212 263 301 359
#     4   8  16  33  56  86 120 155 196 251 299 360
#     4   8  16  32  58  87 118 149 190 251 302 351
#     4  10  21  38  63  91 124 167 209 253 312 372
#     4  11  22  42  66  92 123 163 202 253 317 373
#
# _framework density 19.378798
#
# number of rings (size 3 to 8) (size 9 to 14) (size 15 to 20)
#    0.000    1.846    1.538    2.769    2.154    3.385 
#    0.000    2.308    0.000    0.000    0.000    0.000 
#    0.000    0.000    0.000    0.000    0.000    0.000 
#
# Total GULP energy -144937.099110 kJ/mol
# GULP energy per Si atom -5574.503812 kJ/mol
# Density = 1.933469 g / cm^3
# Si number density = 19.378798 Si / 1000 Ang^3
#
#
#
# Elastic Constant Matrix: (Units=GPa)
#
#
# Indices 1 2 3 4 5 6 
#
# 1 70.5495 33.9029 27.6440 0.0000 4.7761 0.0000
# 2 33.9029 110.0703 46.7122 0.0000 -8.1100 0.0000
# 3 27.6440 46.7122 80.0873 0.0000 -0.7892 0.0000
# 4 0.0000 0.0000 0.0000 12.2252 0.0000 -18.3470
# 5 4.7761 -8.1100 -0.7892 0.0000 30.3398 0.0000
# 6 0.0000 0.0000 0.0000 -18.3470 0.0000 8.7295
#
#
#
# Elastic Compliance Matrix: (Units=1/GPa)
#
#
# Indices 1 2 3 4 5 6 
#
# 1 0.017960 -0.004230 -0.003772 0.000000 -0.004056 0.000000
# 2 -0.004230 0.013358 -0.006291 0.000000 0.004073 0.000000
# 3 -0.003772 -0.006291 0.017451 0.000000 -0.000634 0.000000
# 4 0.000000 0.000000 0.000000 -0.037972 0.000000 -0.079807
# 5 -0.004056 0.004073 -0.000634 0.000000 0.034671 0.000000
# 6 0.000000 0.000000 0.000000 -0.079807 0.000000 -0.053178
#
#
# Mechanical properties :
#
#
# Convention : Reuss Voigt Hill
#
# Bulk Modulus (GPa) = 49.54614 53.02505 51.28559
# Shear Modulus (GPa) = 181.13878 20.42212 100.78045
#
# Velocity S-wave (km/s) = 9.67861 3.24981 7.21931
# Velocity P-wave (km/s) = 12.26880 6.44232 9.79865
#
# Compressibility (1/GPa) = 0.02018321
#
# Stress axis : x y z
#
# Youngs Moduli (GPa) = 55.68010 74.86239 57.30175
#
# Poissons Ratio (x) = 0.31666 0.21615
# Poissons Ratio (y) = 0.23552 0.36049
# Poissons Ratio (z) = 0.21003 0.47096
#
# Static dielectric constant tensor:
#      x y z
#    x 1.689730 0.000000 -0.014150 
#    y 0.000000 1.740690 0.000000 
#    z -0.014150 0.000000 1.639170 
# 
# From -- ./inp_files/28155.got.cif
#   From: 2010.05.17/outbox.cif.g08.bks.cpg/sg10_15_cif.got.tgz:28155.got - 2010.06.03 11:33:40.
