data_PCOD9151555
_publ_section_title
;
Structure prediction by ZEFSAII (Michael W. Deem and Ramdas Pophale) SiO2 
 PCOD9151555
Probable space group: P 2/M
;
_chemical_formula_sum "Si O2"
_cell_formula_units_Z 24
_cell_length_a 12.204979
_cell_length_b 11.831095
_cell_length_c 18.802161
_cell_angle_alpha 90.000000
_cell_angle_beta 26.228694
_cell_angle_gamma 90.000000
_cell_volume 1199.907984
_symmetry_space_group_name_H-M "P 2/M"
_symmetry_group_IT_number 10
_symmetry_cell_setting 'monoclinic'
loop_
_space_group_symop_operation_xyz
x,y,z
-x,y,-z
-x,-y,-z
x,-y,z
loop_
_atom_site_type_symbol
_atom_site_label
_atom_site_fract_x
_atom_site_fract_y
_atom_site_fract_z
Si Si1 0.779722 0.500000 0.067476
Si Si2 0.206007 0.258131 0.008242
Si Si3 0.806823 0.500000 0.545337
Si Si4 0.619782 0.870751 0.224301
Si Si5 0.379127 0.131100 0.147993
Si Si6 0.906952 0.749832 0.472283
Si Si7 0.247469 0.129147 0.687161
O O1 0.490548 0.500000 0.263714
O O2 0.805406 0.389116 0.003850
O O3 0.000000 0.500000 0.000000
O O4 0.981014 0.213499 0.187449
O O5 0.209401 0.196550 0.929747
O O6 0.455972 0.213211 0.899130
O O7 0.866637 0.619381 0.473291
O O8 0.000000 0.500000 0.500000
O O9 0.352408 0.813488 0.377543
O O10 0.697436 0.870491 0.260982
O O11 0.612433 0.000000 0.204200
O O12 0.104490 0.182002 0.310714
O O13 0.379440 0.000000 0.172681
O O14 0.500000 0.132512 0.000000
O O15 0.000000 0.750280 0.500000
O O16 0.500000 0.160011 0.500000
O O17 0.179760 0.000000 0.705238
#
# Coordination Sequence:
#
# PCOD9151555 Si02
#       7
#     2   4   2   4   4   4   4
#     4  12  24  42  69 100 133 178 225 280 336 387
#     4  12  23  42  65  93 128 168 223 270 325 391
#     4  10  20  40  64  94 131 174 215 277 340 385
#     4  11  21  35  62  93 122 159 210 269 324 388
#     4  11  25  42  65  97 136 175 212 270 342 404
#     4  11  21  38  63  94 126 162 217 267 326 389
#     4  10  23  40  61  89 126 168 209 264 333 396
#
# _framework density 20.001533999999999
#
# number of rings (size 3 to 8) (size 9 to 14) (size 15 to 20)
#    0.000    1.000    3.333    4.500    2.333    2.000 
#    0.000    2.083    0.000    0.000    0.000    0.000 
#    0.000    0.000    0.000    0.000    0.000    0.000 
#
# Total GULP energy -134067.451024 kJ/mol
# GULP energy per Si atom -5586.143793 kJ/mol
# Density = 1.995601 g / cm^3
# Si number density = 20.001534 Si / 1000 Ang^3
#
#
#
# Elastic Constant Matrix: (Units=GPa)
#
#
# Indices 1 2 3 4 5 6 
#
# 1 40.0614 17.3985 15.4098 0.0000 -11.9563 0.0000
# 2 17.3985 171.1061 63.5047 0.0000 -9.2210 0.0000
# 3 15.4098 63.5047 151.5074 0.0000 -10.1925 0.0000
# 4 0.0000 0.0000 0.0000 48.9775 0.0000 -3.0599
# 5 -11.9563 -9.2210 -10.1925 0.0000 34.2526 0.0000
# 6 0.0000 0.0000 0.0000 -3.0599 0.0000 65.5803
#
#
#
# Elastic Compliance Matrix: (Units=1/GPa)
#
#
# Indices 1 2 3 4 5 6 
#
# 1 0.029124 -0.001890 -0.001551 0.000000 0.009196 0.000000
# 2 -0.001890 0.007079 -0.002746 0.000000 0.000429 0.000000
# 3 -0.001551 -0.002746 0.007983 0.000000 0.001095 0.000000
# 4 0.000000 0.000000 0.000000 0.020477 0.000000 0.000955
# 5 0.009196 0.000429 0.001095 0.000000 0.032846 0.000000
# 6 0.000000 0.000000 0.000000 0.000955 0.000000 0.015293
#
#
# Mechanical properties :
#
#
# Convention : Reuss Voigt Hill
#
# Bulk Modulus (GPa) = 31.43625 61.70011 46.56818
# Shear Modulus (GPa) = 36.82441 47.51955 42.17198
#
# Velocity S-wave (km/s) = 4.29543 4.87950 4.59675
# Velocity P-wave (km/s) = 6.35233 7.91585 7.17679
#
# Compressibility (1/GPa) = 0.03181041
#
# Stress axis : x y z
#
# Youngs Moduli (GPa) = 34.33637 141.26735 125.26994
#
# Poissons Ratio (x) = 0.26700 0.19433
# Poissons Ratio (y) = 0.06490 0.34399
# Poissons Ratio (z) = 0.05327 0.38792
#
# Static dielectric constant tensor:
#      x y z
#    x 1.802280 0.000000 -0.065120 
#    y 0.000000 1.707950 0.000000 
#    z -0.065120 0.000000 1.726120 
# 
# From -- ./inp_files/85180.got.cif
#   From: 2010.05.17/outbox.cif.g08.bks.cpg/sg10_43_cif.got.tgz:85180.got - 2010.06.03 11:33:40.
