data_PCOD9151339
_publ_section_title
;
Structure prediction by ZEFSAII (Michael W. Deem and Ramdas Pophale) SiO2 
 PCOD9151339
Probable space group: P 2/M
;
_chemical_formula_sum "Si O2"
_cell_formula_units_Z 28
_cell_length_a 15.668856
_cell_length_b 18.155690
_cell_length_c 9.081492
_cell_angle_alpha 90.000000
_cell_angle_beta 145.635423
_cell_angle_gamma 90.000000
_cell_volume 1458.269994
_symmetry_space_group_name_H-M "P 2/M"
_symmetry_group_IT_number 10
_symmetry_cell_setting 'monoclinic'
loop_
_space_group_symop_operation_xyz
x,y,z
-x,y,-z
-x,-y,-z
x,-y,z
loop_
_atom_site_type_symbol
_atom_site_label
_atom_site_fract_x
_atom_site_fract_y
_atom_site_fract_z
Si Si1 0.147007 0.210562 0.296011
Si Si2 0.843313 0.085139 0.468060
Si Si3 0.855533 0.334252 0.202059
Si Si4 0.662110 0.585041 0.174915
Si Si5 0.326605 0.776097 0.262076
Si Si6 0.059022 0.374669 0.246459
Si Si7 0.794298 0.084206 0.059885
O O1 0.205618 0.148527 0.489725
O O2 0.266015 0.232256 0.340824
O O3 0.091501 0.286161 0.292447
O O4 0.000000 0.180043 0.000000
O O5 0.778220 0.097743 0.211932
O O6 0.026043 0.091630 0.716197
O O7 0.810088 0.000000 0.463570
O O8 0.739805 0.371370 0.151129
O O9 0.000000 0.305046 0.500000
O O10 0.932789 0.388512 0.191806
O O11 0.771720 0.272720 0.989015
O O12 0.640714 0.500000 0.100596
O O13 0.785031 0.589112 0.481268
O O14 0.500000 0.614126 0.000000
O O15 0.500000 0.755128 0.500000
O O16 0.298605 0.859296 0.169427
O O17 0.000000 0.393733 0.000000
O O18 0.752406 0.000000 0.970188
#
# Coordination Sequence:
#
# PCOD9151339 Si02
#       7
#     4   4   4   4   4   4   4
#     4  11  20  36  57  86 122 151 201 253 292 354
#     4   9  18  33  59  85 110 153 208 254 291 345
#     4  10  22  39  65  88 118 160 200 246 287 353
#     4  10  24  43  64  93 125 159 195 238 291 356
#     4  12  25  37  57  89 122 158 195 248 310 355
#     4  10  20  38  63  92 121 157 198 251 294 341
#     4   9  19  35  55  83 116 155 202 248 298 353
#
# _framework density 19.200834
#
# number of rings (size 3 to 8) (size 9 to 14) (size 15 to 20)
#    0.000    1.857    4.286    0.857    8.000    4.000 
#    0.000    0.714    0.000    3.857    0.000    0.000 
#    0.000    0.000    0.000    0.000    0.000    0.000 
#
# Total GULP energy -156282.936764 kJ/mol
# GULP energy per Si atom -5581.533456 kJ/mol
# Density = 1.915713 g / cm^3
# Si number density = 19.200834 Si / 1000 Ang^3
#
#
#
# Elastic Constant Matrix: (Units=GPa)
#
#
# Indices 1 2 3 4 5 6 
#
# 1 143.3877 32.9780 50.4727 0.0000 8.4714 0.0000
# 2 32.9780 50.2486 11.5654 0.0000 -2.5234 0.0000
# 3 50.4727 11.5654 58.1823 0.0000 11.2375 0.0000
# 4 0.0000 0.0000 0.0000 61.3006 0.0000 -38.1572
# 5 8.4714 -2.5234 11.2375 0.0000 27.3269 0.0000
# 6 0.0000 0.0000 0.0000 -38.1572 0.0000 47.5521
#
#
#
# Elastic Compliance Matrix: (Units=1/GPa)
#
#
# Indices 1 2 3 4 5 6 
#
# 1 0.011289 -0.005447 -0.008622 0.000000 -0.000457 0.000000
# 2 -0.005447 0.023883 -0.000841 0.000000 0.004240 0.000000
# 3 -0.008622 -0.000841 0.026432 0.000000 -0.008274 0.000000
# 4 0.000000 0.000000 0.000000 0.032592 0.000000 0.026153
# 5 -0.000457 0.004240 -0.008274 0.000000 0.040530 0.000000
# 6 0.000000 0.000000 0.000000 0.026153 0.000000 0.042015
#
#
# Mechanical properties :
#
#
# Convention : Reuss Voigt Hill
#
# Bulk Modulus (GPa) = 31.46280 49.09453 40.27867
# Shear Modulus (GPa) = 23.02499 37.68941 30.35720
#
# Velocity S-wave (km/s) = 3.46665 4.43527 3.98054
# Velocity P-wave (km/s) = 5.69608 7.20093 6.49225
#
# Compressibility (1/GPa) = 0.03178357
#
# Stress axis : x y z
#
# Youngs Moduli (GPa) = 88.58269 41.87154 37.83290
#
# Poissons Ratio (x) = 0.22809 0.32619
# Poissons Ratio (y) = 0.48254 0.03180
# Poissons Ratio (z) = 0.76375 0.03520
#
# Static dielectric constant tensor:
#      x y z
#    x 1.709660 0.000000 -0.007360 
#    y 0.000000 1.675540 0.000000 
#    z -0.007360 0.000000 1.649740 
# 
# From -- ./inp_files/30164.got.cif
#   From: 2010.05.17/outbox.cif.g08.bks.cpg/sg10_16_cif.got.tgz:30164.got - 2010.06.03 11:33:40.
