data_PCOD9151592
_publ_section_title
;
Structure prediction by ZEFSAII (Michael W. Deem and Ramdas Pophale) SiO2 
 PCOD9151592
Probable space group: P 2/M
;
_chemical_formula_sum "Si O2"
_cell_formula_units_Z 32
_cell_length_a 14.934869
_cell_length_b 16.145189
_cell_length_c 20.413317
_cell_angle_alpha 90.000000
_cell_angle_beta 161.523942
_cell_angle_gamma 90.000000
_cell_volume 1559.882267
_symmetry_space_group_name_H-M "P 2/M"
_symmetry_group_IT_number 10
_symmetry_cell_setting 'monoclinic'
loop_
_space_group_symop_operation_xyz
x,y,z
-x,y,-z
-x,-y,-z
x,-y,z
loop_
_atom_site_type_symbol
_atom_site_label
_atom_site_fract_x
_atom_site_fract_y
_atom_site_fract_z
Si Si1 0.781225 0.405711 0.237543
Si Si2 0.628160 0.093565 0.422194
Si Si3 0.063861 0.259908 0.209892
Si Si4 0.552916 0.679538 0.203473
Si Si5 0.588604 0.264669 0.671546
Si Si6 0.111642 0.907149 0.859487
Si Si7 0.697917 0.134081 0.319920
Si Si8 0.388857 0.594844 0.624095
O O1 0.823262 0.500000 0.290714
O O2 0.724501 0.346252 0.258732
O O3 0.054954 0.386228 0.384156
O O4 0.500000 0.403432 0.000000
O O5 0.447306 0.172057 0.323333
O O6 0.648242 0.098005 0.357698
O O7 0.940232 0.103571 0.672428
O O8 0.529661 0.000000 0.372133
O O9 0.320904 0.277794 0.437113
O O10 0.145439 0.276891 0.191624
O O11 0.014243 0.161521 0.180100
O O12 0.779786 0.303508 0.037429
O O13 0.674959 0.766774 0.312949
O O14 0.573045 0.609268 0.272171
O O15 0.565771 0.335959 0.709488
O O16 0.057038 0.000000 0.844239
O O17 0.447484 0.891929 0.096177
O O18 0.000000 0.111547 0.500000
O O19 0.448239 0.500000 0.646336
#
# Coordination Sequence:
#
# PCOD9151592 Si02
#       8
#     4   4   4   4   4   4   4   4
#     4  10  21  37  60  89 117 150 198 248 295 354
#     4  10  21  38  61  87 118 158 200 248 304 358
#     4   9  21  38  62  83 113 159 192 250 301 351
#     4  11  21  38  57  86 119 155 198 239 298 355
#     4  10  20  41  61  85 118 150 202 246 299 353
#     4   9  20  38  58  86 118 151 202 254 300 357
#     4  11  22  37  57  85 121 163 200 244 297 358
#     4  11  22  37  60  87 120 156 193 241 294 354
#
# _framework density 20.514368999999999
#
# number of rings (size 3 to 8) (size 9 to 14) (size 15 to 20)
#    0.000    1.875    1.250    2.625    0.000    3.500 
#    0.000    7.500    0.000    2.250    0.000    0.000 
#    0.000    0.000    0.000    0.000    0.000    0.000 
#
# Total GULP energy -178595.080590 kJ/mol
# GULP energy per Si atom -5581.096268 kJ/mol
# Density = 2.046768 g / cm^3
# Si number density = 20.514369 Si / 1000 Ang^3
#
#
#
# Elastic Constant Matrix: (Units=GPa)
#
#
# Indices 1 2 3 4 5 6 
#
# 1 55.8508 35.6348 -6.5496 0.0000 0.8068 0.0000
# 2 35.6348 102.8201 17.3215 0.0000 0.1011 0.0000
# 3 -6.5496 17.3215 46.7807 0.0000 -3.7417 0.0000
# 4 0.0000 0.0000 0.0000 19.6355 0.0000 -9.7653
# 5 0.8068 0.1011 -3.7417 0.0000 16.2110 0.0000
# 6 0.0000 0.0000 0.0000 -9.7653 0.0000 19.3732
#
#
#
# Elastic Compliance Matrix: (Units=1/GPa)
#
#
# Indices 1 2 3 4 5 6 
#
# 1 0.025061 -0.009901 0.007213 0.000000 0.000479 0.000000
# 2 -0.009901 0.014299 -0.006774 0.000000 -0.001160 0.000000
# 3 0.007213 -0.006774 0.025337 0.000000 0.005531 0.000000
# 4 0.000000 0.000000 0.000000 0.067966 0.000000 0.034259
# 5 0.000479 -0.001160 0.005531 0.000000 0.062947 0.000000
# 6 0.000000 0.000000 0.000000 0.034259 0.000000 0.068886
#
#
# Mechanical properties :
#
#
# Convention : Reuss Voigt Hill
#
# Bulk Modulus (GPa) = 21.84645 33.14055 27.49350
# Shear Modulus (GPa) = 16.74044 21.64693 19.19368
#
# Velocity S-wave (km/s) = 2.85973 3.25192 3.06211
# Velocity P-wave (km/s) = 4.64506 5.50362 5.09247
#
# Compressibility (1/GPa) = 0.04577402
#
# Stress axis : x y z
#
# Youngs Moduli (GPa) = 39.90243 69.93254 39.46836
#
# Poissons Ratio (x) = 0.69242 -0.28469
# Poissons Ratio (y) = 0.39508 0.26735
# Poissons Ratio (z) = -0.28782 0.47370
#
# Static dielectric constant tensor:
#      x y z
#    x 1.701620 0.000000 -0.008970 
#    y 0.000000 1.732720 0.000000 
#    z -0.008970 0.000000 1.795310 
# 
# From -- ./inp_files/85411.got.cif
#   From: 2010.05.17/outbox.cif.g08.bks.cpg/sg10_43_cif.got.tgz:85411.got - 2010.06.03 11:33:40.
