data_PCOD9151363
_publ_section_title
;
Structure prediction by ZEFSAII (Michael W. Deem and Ramdas Pophale) SiO2 
 PCOD9151363
Probable space group: P 2/M
;
_chemical_formula_sum "Si O2"
_cell_formula_units_Z 28
_cell_length_a 17.926910
_cell_length_b 16.463416
_cell_length_c 5.276013
_cell_angle_alpha 90.000000
_cell_angle_beta 72.845835
_cell_angle_gamma 90.000000
_cell_volume 1487.882313
_symmetry_space_group_name_H-M "P 2/M"
_symmetry_group_IT_number 10
_symmetry_cell_setting 'monoclinic'
loop_
_space_group_symop_operation_xyz
x,y,z
-x,y,-z
-x,-y,-z
x,-y,z
loop_
_atom_site_type_symbol
_atom_site_label
_atom_site_fract_x
_atom_site_fract_y
_atom_site_fract_z
Si Si1 0.363707 0.741833 0.871735
Si Si2 0.608281 0.590070 0.782110
Si Si3 0.054174 0.822043 0.195717
Si Si4 0.218253 0.407601 0.537357
Si Si5 0.500000 0.653920 0.500000
Si Si6 0.053640 0.000000 0.196287
Si Si7 0.446285 0.908912 0.804714
Si Si8 0.189847 0.309126 0.050401
O O1 0.425531 0.712535 0.600497
O O2 0.387141 0.834353 0.901092
O O3 0.382424 0.670865 0.058432
O O4 0.272393 0.735039 0.911456
O O5 0.612369 0.500000 0.903756
O O6 0.687079 0.591817 0.531178
O O7 0.529235 0.598154 0.700166
O O8 0.119406 0.753559 0.129177
O O9 0.000000 0.815499 0.500000
O O10 0.093660 0.912058 0.156530
O O11 0.000000 0.815831 0.000000
O O12 0.193652 0.500000 0.519167
O O13 0.198329 0.354622 0.310422
O O14 0.181238 0.371785 0.827993
O O15 0.000000 0.000000 0.500000
O O16 0.000000 0.000000 0.000000
O O17 0.500000 0.897396 0.500000
O O18 0.411261 0.000000 0.818981
O O19 0.500000 0.907860 0.000000
#
# Coordination Sequence:
#
# PCOD9151363 Si02
#       8
#     4   4   4   4   2   2   4   4
#     4  11  23  36  55  82 118 154 196 244 295 342
#     4  10  22  35  52  80 115 156 201 245 295 351
#     4  10  20  38  64  92 120 152 187 234 292 358
#     4  10  21  39  59  83 119 160 196 241 292 341
#     4  12  19  34  53  78 116 156 193 250 295 338
#     4   8  16  32  58  90 122 149 177 219 291 362
#     4  10  21  38  60  80 107 153 203 243 286 338
#     4  11  22  38  61  89 116 152 198 237 288 353
#
# _framework density 18.818691000000001
#
# number of rings (size 3 to 8) (size 9 to 14) (size 15 to 20)
#    0.000    1.714    2.143    2.786    0.000    2.286 
#    1.286    0.000    0.000    8.571    1.857    0.000 
#    0.000    0.000    0.000    0.000    0.000    0.000 
#
# Total GULP energy -156041.295342 kJ/mol
# GULP energy per Si atom -5572.903405 kJ/mol
# Density = 1.877586 g / cm^3
# Si number density = 18.818691 Si / 1000 Ang^3
#
#
#
# Elastic Constant Matrix: (Units=GPa)
#
#
# Indices 1 2 3 4 5 6 
#
# 1 78.5703 57.6938 31.2184 0.0000 -3.5408 0.0000
# 2 57.6938 156.5403 18.5538 0.0000 -7.4917 0.0000
# 3 31.2184 18.5538 73.0633 0.0000 10.5259 0.0000
# 4 0.0000 0.0000 0.0000 29.6538 0.0000 -0.5591
# 5 -3.5408 -7.4917 10.5259 0.0000 23.3263 0.0000
# 6 0.0000 0.0000 0.0000 -0.5591 0.0000 19.1461
#
#
#
# Elastic Compliance Matrix: (Units=1/GPa)
#
#
# Indices 1 2 3 4 5 6 
#
# 1 0.020890 -0.006536 -0.007936 0.000000 0.004653 0.000000
# 2 -0.006536 0.008843 0.000300 0.000000 0.001713 0.000000
# 3 -0.007936 0.000300 0.018354 0.000000 -0.009391 0.000000
# 4 0.000000 0.000000 0.000000 0.033741 0.000000 0.000985
# 5 0.004653 0.001713 -0.009391 0.000000 0.048364 0.000000
# 6 0.000000 0.000000 0.000000 0.000985 0.000000 0.052259
#
#
# Mechanical properties :
#
#
# Convention : Reuss Voigt Hill
#
# Bulk Modulus (GPa) = 50.64937 58.12286 54.38611
# Shear Modulus (GPa) = 23.00161 27.80577 25.40369
#
# Velocity S-wave (km/s) = 3.49990 3.84808 3.67811
# Velocity P-wave (km/s) = 6.58067 7.12014 6.85571
#
# Compressibility (1/GPa) = 0.01974358
#
# Stress axis : x y z
#
# Youngs Moduli (GPa) = 47.87075 113.08036 54.48269
#
# Poissons Ratio (x) = 0.73905 0.43239
# Poissons Ratio (y) = 0.31287 -0.01635
# Poissons Ratio (z) = 0.37992 -0.03394
#
# Static dielectric constant tensor:
#      x y z
#    x 1.623320 0.000000 0.001920 
#    y 0.000000 1.687740 0.000000 
#    z 0.001920 0.000000 1.725810 
# 
# From -- ./inp_files/11284.got.cif
#   From: 2010.05.17/outbox.cif.g08.bks.cpg/sg10_6_cif.got.tgz:11284.got - 2010.06.03 11:33:40.
