data_PCOD9151688
_publ_section_title
;
Structure prediction by ZEFSAII (Michael W. Deem and Ramdas Pophale) SiO2 
 PCOD9151688
Probable space group: P 2/M
;
_chemical_formula_sum "Si O2"
_cell_formula_units_Z 29
_cell_length_a 20.950008
_cell_length_b 9.829107
_cell_length_c 16.522341
_cell_angle_alpha 90.000000
_cell_angle_beta 151.774994
_cell_angle_gamma 90.000000
_cell_volume 1609.057697
_symmetry_space_group_name_H-M "P 2/M"
_symmetry_group_IT_number 10
_symmetry_cell_setting 'monoclinic'
loop_
_space_group_symop_operation_xyz
x,y,z
-x,y,-z
-x,-y,-z
x,-y,z
loop_
_atom_site_type_symbol
_atom_site_label
_atom_site_fract_x
_atom_site_fract_y
_atom_site_fract_z
Si Si1 0.271233 0.655971 0.875500
Si Si2 0.151113 0.655004 0.574332
Si Si3 0.494190 0.834678 0.585328
Si Si4 0.041396 0.840214 0.312617
Si Si5 0.262930 0.839366 0.025145
Si Si6 0.568249 0.737726 0.183656
Si Si7 0.500000 0.000000 0.000000
Si Si8 0.693075 0.163798 0.484702
O O1 0.241517 0.500000 0.864170
O O2 0.172526 0.697775 0.691594
O O3 0.266705 0.755453 0.946448
O O4 0.425219 0.664551 0.015642
O O5 0.101045 0.500000 0.516643
O O6 0.066238 0.752747 0.421384
O O7 0.302131 0.659929 0.705524
O O8 0.500000 0.783812 0.500000
O O9 0.623974 0.795888 0.784356
O O10 0.361496 0.795040 0.488369
O O11 0.495682 0.000000 0.583192
O O12 0.154892 0.802879 0.373278
O O13 0.060675 0.000000 0.354137
O O14 0.889219 0.823441 0.112191
O O15 0.285020 0.000000 0.031877
O O16 0.597743 0.769880 0.310433
O O17 0.557628 0.880370 0.125034
O O18 0.679426 0.000000 0.464290
#
# Coordination Sequence:
#
# PCOD9151688 Si02
#       8
#     4   4   4   4   4   4   1   4
#     4  11  22  33  49  74 108 145 182 224 271 312
#     4  10  21  34  49  71 107 145 183 222 260 311
#     4   9  17  31  55  84 108 132 167 215 273 331
#     4   9  20  35  52  75 106 141 179 221 263 311
#     4  10  21  36  54  77 106 137 177 223 269 319
#     4  11  19  29  48  77 109 139 182 226 266 307
#     4  12  20  24  50  84 108 148 188 230 272 312
#     4   9  16  29  50  76 105 135 169 212 261 315
#
# _framework density 18.022971999999999
#
# number of rings (size 3 to 8) (size 9 to 14) (size 15 to 20)
#    0.000    2.069    3.448    0.414    1.931    2.759 
#    0.000    3.448    0.000    4.552    0.000    0.000 
#    0.000    3.586    0.000    0.000    0.000    0.000 
#
# Total GULP energy -161477.234609 kJ/mol
# GULP energy per Si atom -5568.180504 kJ/mol
# Density = 1.798195 g / cm^3
# Si number density = 18.022972 Si / 1000 Ang^3
#
#
#
# Elastic Constant Matrix: (Units=GPa)
#
#
# Indices 1 2 3 4 5 6 
#
# 1 92.1212 28.3726 54.9902 0.0000 -17.1240 0.0000
# 2 28.3726 47.4087 27.3280 0.0000 -4.4509 0.0000
# 3 54.9902 27.3280 78.0761 0.0000 -0.3231 0.0000
# 4 0.0000 0.0000 0.0000 0.8720 0.0000 -2.9128
# 5 -17.1240 -4.4509 -0.3231 0.0000 30.6562 0.0000
# 6 0.0000 0.0000 0.0000 -2.9128 0.0000 4.7785
#
#
#
# Elastic Compliance Matrix: (Units=1/GPa)
#
#
# Indices 1 2 3 4 5 6 
#
# 1 0.023332 -0.004220 -0.014905 0.000000 0.012263 0.000000
# 2 -0.004220 0.027624 -0.006690 0.000000 0.001583 0.000000
# 3 -0.014905 -0.006690 0.025610 0.000000 -0.009027 0.000000
# 4 0.000000 0.000000 0.000000 -1.106690 0.000000 -0.674601
# 5 0.012263 0.001583 -0.009027 0.000000 0.039604 0.000000
# 6 0.000000 0.000000 0.000000 -0.674601 0.000000 -0.201943
#
#
# Mechanical properties :
#
#
# Convention : Reuss Voigt Hill
#
# Bulk Modulus (GPa) = 40.10378 48.77639 44.44008
# Shear Modulus (GPa) = -4.41493 14.38900 4.98703
#
# Velocity S-wave (km/s) = -1.56682 2.82861 1.66525
# Velocity P-wave (km/s) = 4.36194 6.14738 5.32995
#
# Compressibility (1/GPa) = 0.02493531
#
# Stress axis : x y z
#
# Youngs Moduli (GPa) = 42.85959 36.20075 39.04704
#
# Poissons Ratio (x) = 0.15278 0.58200
# Poissons Ratio (y) = 0.18088 0.26122
# Poissons Ratio (z) = 0.63883 0.24218
#
# Static dielectric constant tensor:
#      x y z
#    x 1.664700 0.000000 0.036550 
#    y 0.000000 1.598810 0.000000 
#    z 0.036550 0.000000 1.615130 
# 
# From -- ./inp_files/70357.got.cif
#   From: 2010.05.17/outbox.cif.g08.bks.cpg/sg10_36_cif.got.tgz:70357.got - 2010.06.03 11:33:40.
