data_PCOD9151791
_publ_section_title
;
Structure prediction by ZEFSAII (Michael W. Deem and Ramdas Pophale) SiO2 
 PCOD9151791
Probable space group: P 2/M
;
_chemical_formula_sum "Si O2"
_cell_formula_units_Z 28
_cell_length_a 21.874893
_cell_length_b 13.118852
_cell_length_c 27.498505
_cell_angle_alpha 90.000000
_cell_angle_beta 168.558929
_cell_angle_gamma 90.000000
_cell_volume 1565.326331
_symmetry_space_group_name_H-M "P 2/M"
_symmetry_group_IT_number 10
_symmetry_cell_setting 'monoclinic'
loop_
_space_group_symop_operation_xyz
x,y,z
-x,y,-z
-x,-y,-z
x,-y,z
loop_
_atom_site_type_symbol
_atom_site_label
_atom_site_fract_x
_atom_site_fract_y
_atom_site_fract_z
Si Si1 0.718498 0.883291 0.718504
Si Si2 0.252047 0.116985 0.597436
Si Si3 0.776239 0.272197 0.184148
Si Si4 0.675535 0.116990 0.020929
Si Si5 0.700898 0.619879 0.467278
Si Si6 0.198867 0.775265 0.370106
Si Si7 0.226357 0.224719 0.055124
O O1 0.500000 0.885863 0.500000
O O2 0.518596 0.825070 0.602788
O O3 0.780314 0.000000 0.780330
O O4 0.023751 0.825085 0.939570
O O5 0.517875 0.145391 0.765528
O O6 0.983906 0.197569 0.379341
O O7 0.153040 0.000000 0.514105
O O8 0.410682 0.127604 0.773777
O O9 0.643379 0.197569 0.038825
O O10 0.003897 0.351781 0.335919
O O11 0.500000 0.317669 0.000000
O O12 0.996125 0.145409 0.243785
O O13 0.680518 0.000000 0.041576
O O14 0.660945 0.500000 0.440632
O O15 0.753528 0.676492 0.559649
O O16 0.409828 0.676514 0.215954
O O17 0.998323 0.752853 0.165536
#
# Coordination Sequence:
#
# PCOD9151791 Si02
#       7
#     4   4   4   4   4   4   4
#     4   9  16  29  53  82 111 141 168 196 234 282
#     4   9  17  30  49  73 104 139 165 189 234 297
#     4  10  21  35  51  73  97 121 160 212 255 298
#     4   9  17  30  49  73 104 139 165 189 234 297
#     4  10  22  39  56  71  91 127 171 213 260 303
#     4   9  18  33  52  76 105 134 168 207 242 283
#     4   9  18  33  52  76 105 134 168 207 242 283
#
# _framework density 17.887644000000002
#
# number of rings (size 3 to 8) (size 9 to 14) (size 15 to 20)
#    0.000    2.714    0.000    1.286    0.000    6.571 
#    0.000    5.714    0.000    2.571    0.000    8.000 
#    0.000    0.000    0.000    0.000    0.000    0.000 
#
# Total GULP energy -156253.651427 kJ/mol
# GULP energy per Si atom -5580.487551 kJ/mol
# Density = 1.784693 g / cm^3
# Si number density = 17.887644 Si / 1000 Ang^3
#
#
#
# Elastic Constant Matrix: (Units=GPa)
#
#
# Indices 1 2 3 4 5 6 
#
# 1 64.4622 31.4622 49.8943 0.0000 16.3217 0.0000
# 2 31.4622 109.4710 31.1049 0.0000 2.7178 0.0000
# 3 49.8943 31.1049 60.1014 0.0000 12.6022 0.0000
# 4 0.0000 0.0000 0.0000 11.9734 0.0000 -7.2188
# 5 16.3217 2.7178 12.6022 0.0000 30.3095 0.0000
# 6 0.0000 0.0000 0.0000 -7.2188 0.0000 10.8726
#
#
#
# Elastic Compliance Matrix: (Units=1/GPa)
#
#
# Indices 1 2 3 4 5 6 
#
# 1 0.046832 -0.003251 -0.035022 0.000000 -0.010366 0.000000
# 2 -0.003251 0.010996 -0.003453 0.000000 0.002201 0.000000
# 3 -0.035022 -0.003453 0.047634 0.000000 -0.000636 0.000000
# 4 0.000000 0.000000 0.000000 0.139266 0.000000 0.092464
# 5 -0.010366 0.002201 -0.000636 0.000000 0.038642 0.000000
# 6 0.000000 0.000000 0.000000 0.092464 0.000000 0.153365
#
#
# Mechanical properties :
#
#
# Convention : Reuss Voigt Hill
#
# Bulk Modulus (GPa) = 45.43801 50.99528 48.21665
# Shear Modulus (GPa) = 9.47824 18.73597 14.10710
#
# Velocity S-wave (km/s) = 2.30440 3.23991 2.81134
# Velocity P-wave (km/s) = 5.70416 6.52430 6.12797
#
# Compressibility (1/GPa) = 0.02200800
#
# Stress axis : x y z
#
# Youngs Moduli (GPa) = 21.35289 90.94410 20.99353
#
# Poissons Ratio (x) = 0.29566 0.73525
# Poissons Ratio (y) = 0.06942 0.07250
# Poissons Ratio (z) = 0.74783 0.31405
#
# Static dielectric constant tensor:
#      x y z
#    x 1.628040 0.000000 -0.009660 
#    y 0.000000 1.548280 0.000000 
#    z -0.009660 0.000000 1.629500 
# 
# From -- ./inp_files/91451.got.cif
#   From: 2010.05.17/outbox.cif.g08.bks.cpg/sg10_46_cif.got.tgz:91451.got - 2010.06.03 11:33:40.
