data_PCOD9151064
_publ_section_title
;
Structure prediction by ZEFSAII (Michael W. Deem and Ramdas Pophale) SiO2 
 PCOD9151064
Probable space group: P 2/M
;
_chemical_formula_sum "Si O2"
_cell_formula_units_Z 24
_cell_length_a 27.805361
_cell_length_b 7.989745
_cell_length_c 19.772317
_cell_angle_alpha 90.000000
_cell_angle_beta 163.062445
_cell_angle_gamma 90.000000
_cell_volume 1279.685240
_symmetry_space_group_name_H-M "P 2/M"
_symmetry_group_IT_number 10
_symmetry_cell_setting 'monoclinic'
loop_
_space_group_symop_operation_xyz
x,y,z
-x,y,-z
-x,-y,-z
x,-y,z
loop_
_atom_site_type_symbol
_atom_site_label
_atom_site_fract_x
_atom_site_fract_y
_atom_site_fract_z
Si Si1 0.201194 0.000000 0.696942
Si Si2 0.053888 0.805353 0.000127
Si Si3 0.749053 0.304486 0.985578
Si Si4 0.697264 0.694597 0.260076
Si Si5 0.806391 0.000000 0.161308
Si Si6 0.041604 0.698817 0.276663
Si Si7 0.417707 0.304875 0.457201
O O1 0.254448 0.168356 0.730225
O O2 0.264429 0.000000 0.858599
O O3 0.003814 0.000000 0.431562
O O4 0.249551 0.779653 0.253532
O O5 0.015305 0.000000 0.952151
O O6 0.000000 0.727241 0.000000
O O7 0.969569 0.748893 0.816542
O O8 0.786517 0.500000 0.053987
O O9 0.760624 0.168980 0.060030
O O10 0.879962 0.250008 0.103133
O O11 0.563916 0.300780 0.707902
O O12 0.744779 0.500000 0.308466
O O13 0.796190 0.745449 0.461663
O O14 0.500000 0.698230 0.000000
O O15 0.036458 0.500000 0.269093
O O16 0.500000 0.233204 0.500000
O O17 0.374335 0.500000 0.384369
#
# Coordination Sequence:
#
# PCOD9151064 Si02
#       7
#     2   4   4   4   2   4   4
#     4  11  23  40  62  94 120 161 203 252 321 372
#     4  11  25  40  56  89 130 165 203 252 309 368
#     4  10  21  38  61  91 123 160 210 259 300 365
#     4  10  22  42  66  92 120 158 212 262 308 368
#     4  11  24  38  61  90 126 165 199 244 325 377
#     4  10  20  38  64  86 114 160 206 253 305 360
#     4  10  20  37  62  89 117 155 208 258 299 361
#
# _framework density 18.754612999999999
#
# number of rings (size 3 to 8) (size 9 to 14) (size 15 to 20)
#    0.000    1.667    3.333    0.750    3.500    2.333 
#    3.000    1.667    0.000    0.000    0.000    0.000 
#    0.000    0.000    0.000    0.000    0.000    0.000 
#
# Total GULP energy -133835.955379 kJ/mol
# GULP energy per Si atom -5576.498141 kJ/mol
# Density = 1.871193 g / cm^3
# Si number density = 18.754613 Si / 1000 Ang^3
#
#
#
# Elastic Constant Matrix: (Units=GPa)
#
#
# Indices 1 2 3 4 5 6 
#
# 1 166.8507 65.6155 59.6965 0.0000 -23.7499 0.0000
# 2 65.6155 78.9770 23.4806 0.0000 -17.9988 0.0000
# 3 59.6965 23.4806 88.6898 0.0000 -10.7652 0.0000
# 4 0.0000 0.0000 0.0000 35.7976 0.0000 5.9236
# 5 -23.7499 -17.9988 -10.7652 0.0000 20.7088 0.0000
# 6 0.0000 0.0000 0.0000 5.9236 0.0000 44.0016
#
#
#
# Elastic Compliance Matrix: (Units=1/GPa)
#
#
# Indices 1 2 3 4 5 6 
#
# 1 0.011080 -0.006714 -0.005172 0.000000 0.004182 0.000000
# 2 -0.006714 0.020480 0.000345 0.000000 0.010279 0.000000
# 3 -0.005172 0.000345 0.014923 0.000000 0.002126 0.000000
# 4 0.000000 0.000000 0.000000 0.028571 0.000000 -0.003846
# 5 0.004182 0.010279 0.002126 0.000000 0.063124 0.000000
# 6 0.000000 0.000000 0.000000 -0.003846 0.000000 0.023244
#
#
# Mechanical properties :
#
#
# Convention : Reuss Voigt Hill
#
# Bulk Modulus (GPa) = 42.73519 70.23365 56.48442
# Shear Modulus (GPa) = 26.00004 32.48324 29.24164
#
# Velocity S-wave (km/s) = 3.72738 4.16626 3.95292
# Velocity P-wave (km/s) = 6.43121 7.78933 7.14262
#
# Compressibility (1/GPa) = 0.02339992
#
# Stress axis : x y z
#
# Youngs Moduli (GPa) = 90.25441 48.82708 67.00848
#
# Poissons Ratio (x) = 0.32784 0.34660
# Poissons Ratio (y) = 0.60600 -0.02311
# Poissons Ratio (z) = 0.46684 -0.01684
#
# Static dielectric constant tensor:
#      x y z
#    x 1.679610 0.000000 -0.012730 
#    y 0.000000 1.662920 0.000000 
#    z -0.012730 0.000000 1.659950 
# 
# From -- ./inp_files/80143.got.cif
#   From: 2010.05.17/outbox.cif.g08.bks.cpg/sg10_41_cif.got.tgz:80143.got - 2010.06.03 11:33:40.
