data_PCOD9151278
_publ_section_title
;
Structure prediction by ZEFSAII (Michael W. Deem and Ramdas Pophale) SiO2 
 PCOD9151278
Probable space group: P 2/M
;
_chemical_formula_sum "Si O2"
_cell_formula_units_Z 20
_cell_length_a 7.106953
_cell_length_b 15.824318
_cell_length_c 11.279275
_cell_angle_alpha 90.000000
_cell_angle_beta 129.056767
_cell_angle_gamma 90.000000
_cell_volume 985.016335
_symmetry_space_group_name_H-M "P 2/M"
_symmetry_group_IT_number 10
_symmetry_cell_setting 'monoclinic'
loop_
_space_group_symop_operation_xyz
x,y,z
-x,y,-z
-x,-y,-z
x,-y,z
loop_
_atom_site_type_symbol
_atom_site_label
_atom_site_fract_x
_atom_site_fract_y
_atom_site_fract_z
Si Si1 0.727718 0.593470 0.943874
Si Si2 0.660030 0.906530 0.943874
Si Si3 0.552543 0.319526 0.649600
Si Si4 0.097861 0.750000 0.847860
Si Si5 0.753341 0.180475 0.350399
O O1 0.670347 0.500000 0.966370
O O2 0.563779 0.618324 0.766299
O O3 0.747064 0.670052 0.044122
O O4 0.000000 0.589901 0.000000
O O5 0.468817 0.881677 0.766299
O O6 0.762394 0.000000 0.966371
O O7 0.500000 0.910099 0.000000
O O8 0.841179 0.829948 0.044122
O O9 0.500000 0.358471 0.500000
O O10 0.350650 0.250000 0.600649
O O11 0.816667 0.275195 0.746444
O O12 0.176222 0.775195 0.746444
O O13 0.000000 0.141529 0.500000
#
# Coordination Sequence:
#
# PCOD9151278 Si02
#       5
#     4   4   4   4   4
#     4   9  19  36  61  88 113 150 195 238 286 340
#     4   9  19  36  61  88 113 150 195 238 286 340
#     4  11  21  36  59  86 117 155 190 233 291 341
#     4  10  20  38  62  84 116 148 196 240 284 340
#     4  11  21  36  59  86 117 155 190 233 291 341
#
# _framework density 20.304233
#
# number of rings (size 3 to 8) (size 9 to 14) (size 15 to 20)
#    0.000    2.000    4.000    0.000    0.000    0.800 
#    0.000    4.000    0.000    2.400    0.000    0.000 
#    0.000    0.000    0.000    0.000    0.000    0.000 
#
# Total GULP energy -111594.310902 kJ/mol
# GULP energy per Si atom -5579.715545 kJ/mol
# Density = 2.025802 g / cm^3
# Si number density = 20.304233 Si / 1000 Ang^3
#
#
#
# Elastic Constant Matrix: (Units=GPa)
#
#
# Indices 1 2 3 4 5 6 
#
# 1 78.0376 8.7916 9.4952 0.0000 -0.4274 0.0000
# 2 8.7916 117.6577 39.1131 0.0000 1.9310 0.0000
# 3 9.4952 39.1131 121.2669 0.0000 3.1804 0.0000
# 4 0.0000 0.0000 0.0000 11.3631 0.0000 0.4968
# 5 -0.4274 1.9310 3.1804 0.0000 31.1439 0.0000
# 6 0.0000 0.0000 0.0000 0.4968 0.0000 3.5622
#
#
#
# Elastic Compliance Matrix: (Units=1/GPa)
#
#
# Indices 1 2 3 4 5 6 
#
# 1 0.012993 -0.000711 -0.000796 0.000000 0.000304 0.000000
# 2 -0.000711 0.009561 -0.003020 0.000000 -0.000294 0.000000
# 3 -0.000796 -0.003020 0.009303 0.000000 -0.000774 0.000000
# 4 0.000000 0.000000 0.000000 0.088544 0.000000 -0.012350
# 5 0.000304 -0.000294 -0.000774 0.000000 0.032210 0.000000
# 6 0.000000 0.000000 0.000000 -0.012350 0.000000 0.282452
#
#
# Mechanical properties :
#
#
# Convention : Reuss Voigt Hill
#
# Bulk Modulus (GPa) = 43.85560 47.97355 45.91458
# Shear Modulus (GPa) = 11.06881 26.51797 18.79339
#
# Velocity S-wave (km/s) = 2.33737 3.61783 3.04565
# Velocity P-wave (km/s) = 5.37871 6.41328 5.91865
#
# Compressibility (1/GPa) = 0.02280210
#
# Stress axis : x y z
#
# Youngs Moduli (GPa) = 76.96466 104.58822 107.49113
#
# Poissons Ratio (x) = 0.07439 0.08555
# Poissons Ratio (y) = 0.05474 0.32467
# Poissons Ratio (z) = 0.06126 0.31591
#
# Static dielectric constant tensor:
#      x y z
#    x 1.757790 0.000000 -0.001500 
#    y 0.000000 1.732240 0.000000 
#    z -0.001500 0.000000 1.734180 
# 
# From -- ./inp_files/18611.got.cif
#   From: 2010.05.17/outbox.cif.g08.bks.cpg/sg10_10_cif.got.tgz:18611.got - 2010.06.03 11:33:40.
