data_PCOD9151948
_publ_section_title
;
Structure prediction by ZEFSAII (Michael W. Deem and Ramdas Pophale) SiO2 
 PCOD9151948
Probable space group: P 2/M
;
_chemical_formula_sum "Si O2"
_cell_formula_units_Z 28
_cell_length_a 30.508118
_cell_length_b 7.447515
_cell_length_c 9.770297
_cell_angle_alpha 90.000000
_cell_angle_beta 143.190418
_cell_angle_gamma 90.000000
_cell_volume 1330.073288
_symmetry_space_group_name_H-M "P 2/M"
_symmetry_group_IT_number 10
_symmetry_cell_setting 'monoclinic'
loop_
_space_group_symop_operation_xyz
x,y,z
-x,y,-z
-x,-y,-z
x,-y,z
loop_
_atom_site_type_symbol
_atom_site_label
_atom_site_fract_x
_atom_site_fract_y
_atom_site_fract_z
Si Si1 0.935681 0.712266 0.243486
Si Si2 0.500000 0.219763 0.156963
Si Si3 0.366141 0.218784 0.321547
Si Si4 0.935681 0.712266 0.934918
Si Si5 0.200086 0.783691 0.595244
Si Si6 0.366141 0.781216 0.009160
Si Si7 0.200086 0.216309 0.905188
O O1 0.949904 0.500000 0.266449
O O2 0.859448 0.731277 0.132515
O O3 0.000000 0.788696 0.500000
O O4 0.934163 0.786257 0.085409
O O5 0.572295 0.278309 0.419157
O O6 0.500000 0.000000 0.157893
O O7 0.500000 0.277091 0.000000
O O8 0.427705 0.278309 0.057684
O O9 0.366170 0.000000 0.323660
O O10 0.383697 0.271646 0.209242
O O11 0.282977 0.276199 0.143986
O O12 0.949904 0.500000 0.983073
O O13 0.859448 0.731277 0.664723
O O14 0.000000 0.788696 0.000000
O O15 0.282977 0.723801 0.770900
O O16 0.181026 0.722669 0.702565
O O17 0.201378 0.000000 0.602030
O O18 0.366170 0.000000 0.007191
O O19 0.201379 0.000000 0.904863
#
# Coordination Sequence:
#
# PCOD9151948 Si02
#       7
#     4   4   4   4   4   4   4
#     4  10  21  36  53  72  94 123 159 196 235 282
#     4   9  15  21  33  57  88 121 156 191 226 266
#     4   8  14  25  40  59  87 122 155 187 226 273
#     4  10  21  36  53  72  94 123 159 196 235 282
#     4   9  18  32  50  73  99 126 158 196 238 283
#     4   8  14  25  40  59  87 122 155 187 226 273
#     4   9  18  32  50  73  99 126 158 196 238 283
#
# _framework density 21.051473000000001
#
# number of rings (size 3 to 8) (size 9 to 14) (size 15 to 20)
#    0.000    3.000    0.000    3.000    0.000    5.714 
#    0.000    2.857    0.000    0.000    0.000    1.000 
#    0.000    8.000    0.000    0.000    0.000    0.000 
#
# Total GULP energy -156302.328067 kJ/mol
# GULP energy per Si atom -5582.226002 kJ/mol
# Density = 2.100356 g / cm^3
# Si number density = 21.051473 Si / 1000 Ang^3
#
#
#
# Elastic Constant Matrix: (Units=GPa)
#
#
# Indices 1 2 3 4 5 6 
#
# 1 209.6817 4.0133 151.9572 0.0000 -14.2569 0.0000
# 2 4.0133 62.7829 2.8121 0.0000 -4.0314 0.0000
# 3 151.9572 2.8121 200.4966 0.0000 -16.5686 0.0000
# 4 0.0000 0.0000 0.0000 18.0765 0.0000 8.2812
# 5 -14.2569 -4.0314 -16.5686 0.0000 18.9784 0.0000
# 6 0.0000 0.0000 0.0000 8.2812 0.0000 15.6093
#
#
#
# Elastic Compliance Matrix: (Units=1/GPa)
#
#
# Indices 1 2 3 4 5 6 
#
# 1 0.010603 -0.000259 -0.007953 0.000000 0.000967 0.000000
# 2 -0.000259 0.016155 0.000256 0.000000 0.003460 0.000000
# 3 -0.007953 0.000256 0.011340 0.000000 0.003981 0.000000
# 4 0.000000 0.000000 0.000000 0.073083 0.000000 -0.038773
# 5 0.000967 0.003460 0.003981 0.000000 0.057628 0.000000
# 6 0.000000 0.000000 0.000000 -0.038773 0.000000 0.084634
#
#
# Mechanical properties :
#
#
# Convention : Reuss Voigt Hill
#
# Bulk Modulus (GPa) = 45.07239 87.83627 66.45433
# Shear Modulus (GPa) = 18.06674 31.47810 24.77242
#
# Velocity S-wave (km/s) = 2.93271 3.87110 3.43411
# Velocity P-wave (km/s) = 5.73801 7.86102 6.88187
#
# Compressibility (1/GPa) = 0.02218653
#
# Stress axis : x y z
#
# Youngs Moduli (GPa) = 94.31158 61.89953 88.18133
#
# Poissons Ratio (x) = 0.01606 0.70127
# Poissons Ratio (y) = 0.02447 -0.02258
# Poissons Ratio (z) = 0.75002 -0.01585
#
# Static dielectric constant tensor:
#      x y z
#    x 1.726080 0.000000 -0.001260 
#    y 0.000000 1.813990 0.000000 
#    z -0.001260 0.000000 1.725710 
# 
# From -- ./inp_files/38053.got.cif
#   From: 2010.05.17/outbox.cif.g08.bks.cpg/sg10_20_cif.got.tgz:38053.got - 2010.06.03 11:33:40.
