data_PCOD9151913
_publ_section_title
;
Structure prediction by ZEFSAII (Michael W. Deem and Ramdas Pophale) SiO2 
 PCOD9151913
Probable space group: P 2/M
;
_chemical_formula_sum "Si O2"
_cell_formula_units_Z 32
_cell_length_a 23.667925
_cell_length_b 7.739624
_cell_length_c 13.662232
_cell_angle_alpha 90.000000
_cell_angle_beta 35.142599
_cell_angle_gamma 90.000000
_cell_volume 1440.564090
_symmetry_space_group_name_H-M "P 2/M"
_symmetry_group_IT_number 10
_symmetry_cell_setting 'monoclinic'
loop_
_space_group_symop_operation_xyz
x,y,z
-x,y,-z
-x,-y,-z
x,-y,z
loop_
_atom_site_type_symbol
_atom_site_label
_atom_site_fract_x
_atom_site_fract_y
_atom_site_fract_z
Si Si1 0.228314 0.709197 0.771529
Si Si2 0.010635 0.203930 0.093800
Si Si3 0.144206 0.798128 0.529360
Si Si4 0.394910 0.711362 0.686897
Si Si5 0.300010 0.296832 0.458631
Si Si6 0.108471 0.699236 0.362632
Si Si7 0.489738 0.794214 0.903538
Si Si8 0.316503 0.708513 0.006665
O O1 0.226942 0.500000 0.770826
O O2 0.312990 0.763973 0.725246
O O3 0.251993 0.770542 0.627506
O O4 0.123900 0.771890 0.957992
O O5 0.935833 0.273329 0.280087
O O6 0.987312 0.000000 0.120143
O O7 0.000000 0.280491 0.000000
O O8 0.248028 0.784578 0.437717
O O9 0.134859 0.704045 0.439917
O O10 0.124140 0.000000 0.538008
O O11 0.500000 0.770117 0.500000
O O12 0.396480 0.500000 0.686511
O O13 0.367275 0.769308 0.834819
O O14 0.279821 0.500000 0.482257
O O15 0.416742 0.271300 0.290523
O O16 0.101267 0.500000 0.338514
O O17 0.000000 0.777118 0.500000
O O18 0.205300 0.776548 0.174485
O O19 0.387234 0.750644 0.997226
O O20 0.498043 0.000000 0.895435
O O21 0.500000 0.726056 0.000000
O O22 0.310221 0.500000 0.011836
#
# Coordination Sequence:
#
# PCOD9151913 Si02
#       8
#     4   4   4   4   4   4   4   4
#     4  10  21  35  59  90 116 150 196 243 293 351
#     4  10  21  38  57  82 120 161 194 237 298 357
#     4  11  23  39  60  85 119 162 201 243 299 356
#     4   9  18  35  59  87 119 152 190 239 293 348
#     4  11  22  37  60  91 120 151 192 242 298 357
#     4  10  23  41  62  89 119 156 203 253 303 352
#     4  11  24  40  60  86 116 152 195 242 295 355
#     4  10  21  39  62  87 118 156 196 244 299 353
#
# _framework density 22.213519999999999
#
# number of rings (size 3 to 8) (size 9 to 14) (size 15 to 20)
#    0.000    1.750    1.250    2.625    1.750    7.500 
#    0.000    0.625    0.000    1.500    0.000    0.000 
#    0.000    0.000    0.000    0.000    0.000    0.000 
#
# Total GULP energy -178882.854951 kJ/mol
# GULP energy per Si atom -5590.089217 kJ/mol
# Density = 2.216296 g / cm^3
# Si number density = 22.213520 Si / 1000 Ang^3
#
#
#
# Elastic Constant Matrix: (Units=GPa)
#
#
# Indices 1 2 3 4 5 6 
#
# 1 106.7149 -6.1916 40.9302 0.0000 -10.9753 0.0000
# 2 -6.1916 39.5788 -2.3140 0.0000 5.7444 0.0000
# 3 40.9302 -2.3140 143.5993 0.0000 -13.4045 0.0000
# 4 0.0000 0.0000 0.0000 13.3150 0.0000 2.5714
# 5 -10.9753 5.7444 -13.4045 0.0000 40.5936 0.0000
# 6 0.0000 0.0000 0.0000 2.5714 0.0000 -30.0625
#
#
#
# Elastic Compliance Matrix: (Units=1/GPa)
#
#
# Indices 1 2 3 4 5 6 
#
# 1 0.010727 0.001253 -0.002872 0.000000 0.001775 0.000000
# 2 0.001253 0.025943 -0.000258 0.000000 -0.003418 0.000000
# 3 -0.002872 -0.000258 0.007954 0.000000 0.001887 0.000000
# 4 0.000000 0.000000 0.000000 0.073883 0.000000 0.006320
# 5 0.001775 -0.003418 0.001887 0.000000 0.026221 0.000000
# 6 0.000000 0.000000 0.000000 0.006320 0.000000 -0.032724
#
#
# Mechanical properties :
#
#
# Convention : Reuss Voigt Hill
#
# Bulk Modulus (GPa) = 24.46756 39.41580 31.94168
# Shear Modulus (GPa) = 38.64506 21.93379 30.28942
#
# Velocity S-wave (km/s) = 4.17551 3.14571 3.69664
# Velocity P-wave (km/s) = 5.85535 5.56566 5.71234
#
# Compressibility (1/GPa) = 0.04087044
#
# Stress axis : x y z
#
# Youngs Moduli (GPa) = 93.21881 38.54611 125.71767
#
# Poissons Ratio (x) = -0.04829 0.36104
# Poissons Ratio (y) = -0.11677 0.03244
# Poissons Ratio (z) = 0.26771 0.00995
#
# Static dielectric constant tensor:
#      x y z
#    x 1.787530 0.000000 -0.001160 
#    y 0.000000 1.816280 0.000000 
#    z -0.001160 0.000000 1.833290 
# 
# From -- ./inp_files/71423.got.cif
#   From: 2010.05.17/outbox.cif.g08.bks.cpg/sg10_36_cif.got.tgz:71423.got - 2010.06.03 11:33:40.
