data_PCOD9151890
_publ_section_title
;
Structure prediction by ZEFSAII (Michael W. Deem and Ramdas Pophale) SiO2 
 PCOD9151890
Probable space group: P 2/M
;
_chemical_formula_sum "Si O2"
_cell_formula_units_Z 32
_cell_length_a 18.137622
_cell_length_b 11.844907
_cell_length_c 13.820409
_cell_angle_alpha 90.000000
_cell_angle_beta 146.304746
_cell_angle_gamma 90.000000
_cell_volume 1647.214591
_symmetry_space_group_name_H-M "P 2/M"
_symmetry_group_IT_number 10
_symmetry_cell_setting 'monoclinic'
loop_
_space_group_symop_operation_xyz
x,y,z
-x,y,-z
-x,-y,-z
x,-y,z
loop_
_atom_site_type_symbol
_atom_site_label
_atom_site_fract_x
_atom_site_fract_y
_atom_site_fract_z
Si Si1 0.437897 0.802837 0.200305
Si Si2 0.152058 0.873748 0.933577
Si Si3 0.270671 0.874441 0.427487
Si Si4 0.145427 0.369576 0.611184
Si Si5 0.116796 0.865037 0.462601
Si Si6 0.421308 0.372200 0.014199
Si Si7 0.145384 0.274701 0.121027
Si Si8 0.617627 0.615580 0.704677
O O1 0.573621 0.864797 0.375991
O O2 0.408249 0.718860 0.255487
O O3 0.298286 0.868476 0.045474
O O4 0.458343 0.725751 0.128669
O O5 0.039494 0.849751 0.731151
O O6 0.127538 0.000000 0.942211
O O7 0.134755 0.796533 0.009568
O O8 0.191428 0.857881 0.440908
O O9 0.221568 0.791705 0.289860
O O10 0.242506 0.000000 0.360465
O O11 0.158093 0.500000 0.579640
O O12 0.158163 0.249428 0.566471
O O13 0.264815 0.366562 0.819025
O O14 0.000000 0.367339 0.500000
O O15 0.135937 0.000000 0.517312
O O16 0.452914 0.500000 0.082516
O O17 0.500000 0.356148 0.000000
O O18 0.243752 0.373962 0.198793
O O19 0.000000 0.304802 0.000000
O O20 0.500000 0.614829 0.500000
O O21 0.615782 0.500000 0.761222
#
# Coordination Sequence:
#
# PCOD9151890 Si02
#       8
#     4   4   4   4   4   4   4   4
#     4  11  21  37  59  85 116 153 194 244 297 352
#     4  10  21  35  57  84 116 155 197 243 291 352
#     4  11  22  36  57  84 118 154 196 245 294 352
#     4  10  21  39  62  87 115 148 194 251 300 356
#     4  10  21  38  58  86 119 156 195 242 306 367
#     4  10  21  38  61  86 112 148 197 244 291 351
#     4  11  21  37  58  83 116 154 199 242 291 346
#     4  10  21  38  57  83 118 155 191 236 295 359
#
# _framework density 19.426734
#
# number of rings (size 3 to 8) (size 9 to 14) (size 15 to 20)
#    0.000    1.625    2.500    2.625    0.000    1.000 
#    0.000    6.875    0.000    3.375    0.000    0.000 
#    0.000    0.000    0.000    0.000    0.000    0.000 
#
# Total GULP energy -178188.025700 kJ/mol
# GULP energy per Si atom -5568.375803 kJ/mol
# Density = 1.938252 g / cm^3
# Si number density = 19.426734 Si / 1000 Ang^3
#
#
#
# Elastic Constant Matrix: (Units=GPa)
#
#
# Indices 1 2 3 4 5 6 
#
# 1 48.5879 11.3970 0.5132 0.0000 6.0010 0.0000
# 2 11.3970 105.4523 5.3130 0.0000 -17.4741 0.0000
# 3 0.5132 5.3130 53.3655 0.0000 14.2290 0.0000
# 4 0.0000 0.0000 0.0000 59.7088 0.0000 -16.7518
# 5 6.0010 -17.4741 14.2290 0.0000 29.6429 0.0000
# 6 0.0000 0.0000 0.0000 -16.7518 0.0000 30.7725
#
#
#
# Elastic Compliance Matrix: (Units=1/GPa)
#
#
# Indices 1 2 3 4 5 6 
#
# 1 0.022436 -0.003849 0.002275 0.000000 -0.007903 0.000000
# 2 -0.003849 0.011635 -0.003621 0.000000 0.009376 0.000000
# 3 0.002275 -0.003621 0.022671 0.000000 -0.013478 0.000000
# 4 0.000000 0.000000 0.000000 0.019767 0.000000 0.010761
# 5 -0.007903 0.009376 -0.013478 0.000000 0.047332 0.000000
# 6 0.000000 0.000000 0.000000 0.010761 0.000000 0.038354
#
#
# Mechanical properties :
#
#
# Convention : Reuss Voigt Hill
#
# Bulk Modulus (GPa) = 21.57469 26.87246 24.22358
# Shear Modulus (GPa) = 26.59056 36.70367 31.64711
#
# Velocity S-wave (km/s) = 3.70369 4.35137 4.04053
# Velocity P-wave (km/s) = 5.42398 6.25369 5.85355
#
# Compressibility (1/GPa) = 0.04635061
#
# Stress axis : x y z
#
# Youngs Moduli (GPa) = 44.57098 85.94663 44.10936
#
# Poissons Ratio (x) = 0.33081 -0.10033
# Poissons Ratio (y) = 0.17155 0.15974
# Poissons Ratio (z) = -0.10138 0.31125
#
# Static dielectric constant tensor:
#      x y z
#    x 1.659470 0.000000 0.019650 
#    y 0.000000 1.729070 0.000000 
#    z 0.019650 0.000000 1.719370 
# 
# From -- ./inp_files/38243.got.cif
#   From: 2010.05.17/outbox.cif.g08.bks.cpg/sg10_20_cif.got.tgz:38243.got - 2010.06.03 11:33:40.
