data_PCOD9151560
_publ_section_title
;
Structure prediction by ZEFSAII (Michael W. Deem and Ramdas Pophale) SiO2 
 PCOD9151560
Probable space group: P 2/M
;
_chemical_formula_sum "Si O2"
_cell_formula_units_Z 24
_cell_length_a 10.875042
_cell_length_b 15.211916
_cell_length_c 14.117414
_cell_angle_alpha 90.000000
_cell_angle_beta 148.644221
_cell_angle_gamma 90.000000
_cell_volume 1215.251481
_symmetry_space_group_name_H-M "P 2/M"
_symmetry_group_IT_number 10
_symmetry_cell_setting 'monoclinic'
loop_
_space_group_symop_operation_xyz
x,y,z
-x,y,-z
-x,-y,-z
x,-y,z
loop_
_atom_site_type_symbol
_atom_site_label
_atom_site_fract_x
_atom_site_fract_y
_atom_site_fract_z
Si Si1 0.643494 0.406417 0.995383
Si Si2 0.786108 0.597648 0.432794
Si Si3 0.666188 0.217931 0.403282
Si Si4 0.255979 0.101017 0.219025
Si Si5 0.033828 0.899322 0.273925
Si Si6 0.606950 0.215755 0.966264
O O1 0.776830 0.500000 0.079292
O O2 0.748835 0.309108 0.053612
O O3 0.500000 0.405545 0.000000
O O4 0.447949 0.409082 0.784789
O O5 0.831014 0.500000 0.503449
O O6 0.739175 0.680595 0.469163
O O7 0.000000 0.616277 0.500000
O O8 0.435230 0.175502 0.301208
O O9 0.878281 0.158566 0.580799
O O10 0.597312 0.213968 0.247042
O O11 0.212084 0.108074 0.302504
O O12 0.340215 0.000000 0.254405
O O13 0.000000 0.110015 0.000000
O O14 0.786686 0.863373 0.072661
O O15 0.015642 0.000000 0.289650
O O16 0.500000 0.210789 0.000000
#
# Coordination Sequence:
#
# PCOD9151560 Si02
#       6
#     4   4   4   4   4   4
#     4   8  15  29  51  77 107 144 186 229 271 327
#     4   9  19  34  55  85 119 153 189 231 281 345
#     4  11  22  36  63  87 116 152 196 246 292 341
#     4  10  20  40  65  85 108 147 201 253 298 344
#     4  11  24  39  60  86 112 152 203 245 292 348
#     4  10  22  37  55  83 123 157 188 238 291 352
#
# _framework density 19.749001
#
# number of rings (size 3 to 8) (size 9 to 14) (size 15 to 20)
#    0.000    2.167    1.667    1.000    7.000    2.333 
#    0.000    0.833    0.000    3.500    0.000    0.000 
#    0.000    0.000    0.000    0.000    0.000    0.000 
#
# Total GULP energy -133750.631488 kJ/mol
# GULP energy per Si atom -5572.942979 kJ/mol
# Density = 1.970405 g / cm^3
# Si number density = 19.749001 Si / 1000 Ang^3
#
#
#
# Elastic Constant Matrix: (Units=GPa)
#
#
# Indices 1 2 3 4 5 6 
#
# 1 38.1175 42.7191 2.6138 0.0000 -2.5717 0.0000
# 2 42.7191 174.8564 27.2950 0.0000 0.9152 0.0000
# 3 2.6138 27.2950 67.9991 0.0000 -14.7603 0.0000
# 4 0.0000 0.0000 0.0000 17.7319 0.0000 11.1100
# 5 -2.5717 0.9152 -14.7603 0.0000 30.3928 0.0000
# 6 0.0000 0.0000 0.0000 11.1100 0.0000 69.0741
#
#
#
# Elastic Compliance Matrix: (Units=1/GPa)
#
#
# Indices 1 2 3 4 5 6 
#
# 1 0.037172 -0.009666 0.003574 0.000000 0.005172 0.000000
# 2 -0.009666 0.008680 -0.003741 0.000000 -0.002896 0.000000
# 3 0.003574 -0.003741 0.018065 0.000000 0.009188 0.000000
# 4 0.000000 0.000000 0.000000 0.062716 0.000000 -0.010087
# 5 0.005172 -0.002896 0.009188 0.000000 0.037890 0.000000
# 6 0.000000 0.000000 0.000000 -0.010087 0.000000 0.016100
#
#
# Mechanical properties :
#
#
# Convention : Reuss Voigt Hill
#
# Bulk Modulus (GPa) = 22.59918 47.35875 34.97896
# Shear Modulus (GPa) = 23.25165 37.32946 30.29055
#
# Velocity S-wave (km/s) = 3.43499 4.35235 3.92059
# Velocity P-wave (km/s) = 5.21538 7.02066 6.18425
#
# Compressibility (1/GPa) = 0.04424939
#
# Stress axis : x y z
#
# Youngs Moduli (GPa) = 26.90196 115.21079 55.35605
#
# Poissons Ratio (x) = 1.11368 -0.19784
# Poissons Ratio (y) = 0.26005 0.20710
# Poissons Ratio (z) = -0.09615 0.43102
#
# Static dielectric constant tensor:
#      x y z
#    x 1.783120 0.000000 0.166550 
#    y 0.000000 1.763180 0.000000 
#    z 0.166550 0.000000 2.031000 
# 
# From -- ./inp_files/65155.got.cif
#   From: 2010.05.17/outbox.cif.g08.bks.cpg/sg10_33_cif.got.tgz:65155.got - 2010.06.03 11:33:40.
