data_PCOD9151853
_publ_section_title
;
Structure prediction by ZEFSAII (Michael W. Deem and Ramdas Pophale) SiO2 
 PCOD9151853
Probable space group: P 2/M
;
_chemical_formula_sum "Si O2"
_cell_formula_units_Z 32
_cell_length_a 9.751593
_cell_length_b 11.736397
_cell_length_c 14.727469
_cell_angle_alpha 90.000000
_cell_angle_beta 99.228420
_cell_angle_gamma 90.000000
_cell_volume 1663.721534
_symmetry_space_group_name_H-M "P 2/M"
_symmetry_group_IT_number 10
_symmetry_cell_setting 'monoclinic'
loop_
_space_group_symop_operation_xyz
x,y,z
-x,y,-z
-x,-y,-z
x,-y,z
loop_
_atom_site_type_symbol
_atom_site_label
_atom_site_fract_x
_atom_site_fract_y
_atom_site_fract_z
Si Si1 0.357700 0.134769 0.702139
Si Si2 0.350331 0.182690 0.032024
Si Si3 0.832446 0.869610 0.494208
Si Si4 0.083060 0.710811 0.234322
Si Si5 0.171715 0.129974 0.844948
Si Si6 0.855312 0.626634 0.948818
Si Si7 0.884646 0.628485 0.567477
Si Si8 0.342789 0.869784 0.243153
O O1 0.248595 0.145109 0.609427
O O2 0.289435 0.174868 0.788203
O O3 0.512281 0.180453 0.703602
O O4 0.381586 0.000000 0.718170
O O5 0.282309 0.306670 0.038383
O O6 0.354527 0.132389 0.133997
O O7 0.500000 0.178549 0.000000
O O8 0.239103 0.127327 0.951511
O O9 0.803238 0.748747 0.541501
O O10 0.000000 0.872764 0.500000
O O11 0.795350 0.000000 0.523877
O O12 0.128130 0.628634 0.157637
O O13 0.052157 0.648668 0.325468
O O14 0.212683 0.795872 0.258656
O O15 0.956928 0.787702 0.184732
O O16 0.133245 0.000000 0.815147
O O17 0.849094 0.500000 0.985721
O O18 0.000000 0.680347 0.000000
O O19 0.819249 0.500000 0.559323
O O20 0.000000 0.626282 0.500000
O O21 0.322643 0.000000 0.270207
#
# Coordination Sequence:
#
# PCOD9151853 Si02
#       8
#     4   4   4   4   4   4   4   4
#     4   9  18  33  54  82 115 155 194 234 291 359
#     4  11  21  35  55  83 117 157 201 243 297 357
#     4   9  17  32  57  86 114 143 186 241 295 350
#     4  11  22  37  58  86 115 154 198 247 298 357
#     4  11  20  31  53  85 119 155 198 243 290 348
#     4  10  21  39  58  78 109 151 201 251 298 350
#     4  10  21  38  62  90 118 149 193 249 309 364
#     4  10  21  35  54  83 123 162 194 237 295 359
#
# _framework density 19.233988
#
# number of rings (size 3 to 8) (size 9 to 14) (size 15 to 20)
#    0.000    1.875    2.500    2.625    0.000    2.750 
#    0.000    2.500    0.000    6.750    0.000    0.000 
#    0.000    0.000    0.000    0.000    0.000    0.000 
#
# Total GULP energy -178143.860582 kJ/mol
# GULP energy per Si atom -5566.995643 kJ/mol
# Density = 1.919021 g / cm^3
# Si number density = 19.233988 Si / 1000 Ang^3
#
#
#
# Elastic Constant Matrix: (Units=GPa)
#
#
# Indices 1 2 3 4 5 6 
#
# 1 86.9415 14.6081 21.3638 0.0000 12.5028 0.0000
# 2 14.6081 101.4034 12.9449 0.0000 0.6213 0.0000
# 3 21.3638 12.9449 91.0121 0.0000 1.9823 0.0000
# 4 0.0000 0.0000 0.0000 -69.6594 0.0000 -61.3727
# 5 12.5028 0.6213 1.9823 0.0000 28.8401 0.0000
# 6 0.0000 0.0000 0.0000 -61.3727 0.0000 -70.0666
#
#
#
# Elastic Compliance Matrix: (Units=1/GPa)
#
#
# Indices 1 2 3 4 5 6 
#
# 1 0.013230 -0.001519 -0.002770 0.000000 -0.005513 0.000000
# 2 -0.001519 0.010219 -0.001108 0.000000 0.000514 0.000000
# 3 -0.002770 -0.001108 0.011786 0.000000 0.000414 0.000000
# 4 0.000000 0.000000 0.000000 -0.062886 0.000000 0.055083
# 5 -0.005513 0.000514 0.000414 0.000000 0.037024 0.000000
# 6 0.000000 0.000000 0.000000 0.055083 0.000000 -0.062521
#
#
# Mechanical properties :
#
#
# Convention : Reuss Voigt Hill
#
# Bulk Modulus (GPa) = 40.91209 41.91005 41.41107
# Shear Modulus (GPa) = -146.17059 -6.81449 -76.49254
#
# Velocity S-wave (km/s) = -8.72703 -1.88431 -6.31315
# Velocity P-wave (km/s) = 8.95718 4.13554 5.61820
#
# Compressibility (1/GPa) = 0.02444265
#
# Stress axis : x y z
#
# Youngs Moduli (GPa) = 75.58313 97.85995 84.84452
#
# Poissons Ratio (x) = 0.14861 0.23498
# Poissons Ratio (y) = 0.11478 0.09402
# Poissons Ratio (z) = 0.20933 0.10844
#
# Static dielectric constant tensor:
#      x y z
#    x 1.619670 0.000000 0.025250 
#    y 0.000000 1.709920 0.000000 
#    z 0.025250 0.000000 1.684850 
# 
# From -- ./inp_files/61226.got.cif
#   From: 2010.05.17/outbox.cif.g08.bks.cpg/sg10_31_cif.got.tgz:61226.got - 2010.06.03 11:33:40.
