data_PCOD9151239
_publ_section_title
;
Structure prediction by ZEFSAII (Michael W. Deem and Ramdas Pophale) SiO2 
 PCOD9151239
Probable space group: P 2/M
;
_chemical_formula_sum "Si O2"
_cell_formula_units_Z 28
_cell_length_a 11.892955
_cell_length_b 8.362637
_cell_length_c 15.508190
_cell_angle_alpha 90.000000
_cell_angle_beta 65.140221
_cell_angle_gamma 90.000000
_cell_volume 1399.470931
_symmetry_space_group_name_H-M "P 2/M"
_symmetry_group_IT_number 10
_symmetry_cell_setting 'monoclinic'
loop_
_space_group_symop_operation_xyz
x,y,z
-x,y,-z
-x,-y,-z
x,-y,z
loop_
_atom_site_type_symbol
_atom_site_label
_atom_site_fract_x
_atom_site_fract_y
_atom_site_fract_z
Si Si1 0.298988 0.193270 0.545123
Si Si2 0.129086 0.693296 0.201253
Si Si3 0.055535 0.694780 0.889746
Si Si4 0.325235 0.690912 0.844530
Si Si5 0.974283 0.693019 0.411625
Si Si6 0.523698 0.807570 0.355834
Si Si7 0.361464 0.191110 0.025727
O O1 0.161689 0.258648 0.577605
O O2 0.370853 0.244548 0.609090
O O3 0.391148 0.242720 0.437386
O O4 0.293802 0.000000 0.547731
O O5 0.129460 0.500000 0.200360
O O6 0.262918 0.749811 0.127514
O O7 0.030388 0.749146 0.160638
O O8 0.078301 0.747774 0.310014
O O9 0.054396 0.500000 0.888400
O O10 0.197751 0.747691 0.840476
O O11 0.000000 0.743450 0.000000
O O12 0.323529 0.500000 0.847674
O O13 0.439758 0.746866 0.749792
O O14 0.325148 0.751990 0.942009
O O15 0.978228 0.500000 0.412042
O O16 0.000000 0.752472 0.500000
O O17 0.524406 0.000000 0.354839
O O18 0.361929 0.000000 0.026587
O O19 0.500000 0.250395 0.000000
#
# Coordination Sequence:
#
# PCOD9151239 Si02
#       7
#     4   4   4   4   4   4   4
#     4   9  19  37  59  82 113 155 194 231 283 342
#     4  10  20  38  61  83 113 150 186 234 289 341
#     4   9  16  30  54  83 112 140 176 225 280 334
#     4  11  21  35  59  88 115 149 189 228 282 347
#     4  10  22  38  57  84 117 150 190 242 291 334
#     4   9  19  36  57  84 119 151 184 234 288 335
#     4  11  25  42  57  78 113 152 191 236 281 331
#
# _framework density 20.007560999999999
#
# number of rings (size 3 to 8) (size 9 to 14) (size 15 to 20)
#    0.000    2.143    1.429    2.571    0.000    5.429 
#    0.000    6.429    0.000    0.000    0.000    0.000 
#    0.000    0.000    0.000    0.000    0.000    0.000 
#
# Total GULP energy -156354.798167 kJ/mol
# GULP energy per Si atom -5584.099935 kJ/mol
# Density = 1.996202 g / cm^3
# Si number density = 20.007561 Si / 1000 Ang^3
#
#
#
# Elastic Constant Matrix: (Units=GPa)
#
#
# Indices 1 2 3 4 5 6 
#
# 1 89.3652 14.9217 53.3780 0.0000 -21.8972 0.0000
# 2 14.9217 10.0687 23.8883 0.0000 -0.5624 0.0000
# 3 53.3780 23.8883 178.5088 0.0000 -21.3174 0.0000
# 4 0.0000 0.0000 0.0000 21.2897 0.0000 0.0837
# 5 -21.8972 -0.5624 -21.3174 0.0000 26.9184 0.0000
# 6 0.0000 0.0000 0.0000 0.0837 0.0000 29.1114
#
#
#
# Elastic Compliance Matrix: (Units=1/GPa)
#
#
# Indices 1 2 3 4 5 6 
#
# 1 0.019724 -0.027370 -0.000428 0.000000 0.015134 0.000000
# 2 -0.027370 0.188206 -0.021195 0.000000 -0.035118 0.000000
# 3 -0.000428 -0.021195 0.009357 0.000000 0.006619 0.000000
# 4 0.000000 0.000000 0.000000 0.046972 0.000000 -0.000135
# 5 0.015134 -0.035118 0.006619 0.000000 0.053969 0.000000
# 6 0.000000 0.000000 0.000000 -0.000135 0.000000 0.034351
#
#
# Mechanical properties :
#
#
# Convention : Reuss Voigt Hill
#
# Bulk Modulus (GPa) = 8.38228 51.36873 29.87551
# Shear Modulus (GPa) = 10.19717 27.84753 19.02235
#
# Velocity S-wave (km/s) = 2.26003 3.73480 3.08678
# Velocity P-wave (km/s) = 3.31797 6.65798 5.26012
#
# Compressibility (1/GPa) = 0.11929926
#
# Stress axis : x y z
#
# Youngs Moduli (GPa) = 50.69938 5.31333 106.87493
#
# Poissons Ratio (x) = 0.14543 0.04573
# Poissons Ratio (y) = 1.38767 2.26525
# Poissons Ratio (z) = 0.02169 0.11262
#
# Static dielectric constant tensor:
#      x y z
#    x 1.697730 0.000000 -0.002570 
#    y 0.000000 1.688610 0.000000 
#    z -0.002570 0.000000 1.710190 
# 
# From -- ./inp_files/63679.got.cif
#   From: 2010.05.17/outbox.cif.g08.bks.cpg/sg10_32_cif.got.tgz:63679.got - 2010.06.03 11:33:40.
