data_PCOD9151378
_publ_section_title
;
Structure prediction by ZEFSAII (Michael W. Deem and Ramdas Pophale) SiO2 
 PCOD9151378
Probable space group: P 2/M
;
_chemical_formula_sum "Si O2"
_cell_formula_units_Z 28
_cell_length_a 20.431524
_cell_length_b 7.701189
_cell_length_c 14.868410
_cell_angle_alpha 90.000000
_cell_angle_beta 32.886492
_cell_angle_gamma 90.000000
_cell_volume 1270.293558
_symmetry_space_group_name_H-M "P 2/M"
_symmetry_group_IT_number 10
_symmetry_cell_setting 'monoclinic'
loop_
_space_group_symop_operation_xyz
x,y,z
-x,y,-z
-x,-y,-z
x,-y,z
loop_
_atom_site_type_symbol
_atom_site_label
_atom_site_fract_x
_atom_site_fract_y
_atom_site_fract_z
Si Si1 0.556165 0.794490 0.728087
Si Si2 0.707383 0.205018 0.996970
Si Si3 0.224935 0.289247 0.884973
Si Si4 0.033118 0.302306 0.855507
Si Si5 0.865710 0.700865 0.659914
Si Si6 0.286032 0.289875 0.615411
Si Si7 0.633379 0.702132 0.823514
O O1 0.419714 0.727378 0.894230
O O2 0.602499 0.759546 0.574389
O O3 0.639603 0.713423 0.708425
O O4 0.555263 0.000000 0.743427
O O5 0.709235 0.234821 0.101098
O O6 0.714586 0.000000 0.971737
O O7 0.817146 0.291735 0.817878
O O8 0.220196 0.500000 0.887724
O O9 0.282305 0.232313 0.723672
O O10 0.086297 0.223300 0.049762
O O11 0.044135 0.500000 0.808105
O O12 0.165336 0.221815 0.704263
O O13 0.000000 0.312930 0.000000
O O14 0.877503 0.500000 0.616293
O O15 0.753329 0.777676 0.731937
O O16 0.000000 0.778530 0.500000
O O17 0.277578 0.500000 0.627076
O O18 0.628881 0.500000 0.856169
O O19 0.500000 0.778859 0.000000
#
# Coordination Sequence:
#
# PCOD9151378 Si02
#       7
#     4   4   4   4   4   4   4
#     4  11  24  38  55  81 115 155 193 233 284 343
#     4  11  24  39  55  79 115 157 193 230 285 348
#     4   9  18  34  58  83 111 150 192 237 286 335
#     4   7  12  27  51  77 103 134 177 229 282 329
#     4  10  22  41  65  92 118 144 184 241 295 342
#     4   9  18  34  57  84 112 146 192 241 283 332
#     4  10  20  38  65  89 109 143 190 237 283 337
#
# _framework density 22.042148999999998
#
# number of rings (size 3 to 8) (size 9 to 14) (size 15 to 20)
#    0.000    2.429    1.429    2.571    0.000    5.143 
#    0.000    9.286    0.000    2.571    0.000    0.000 
#    0.000    0.000    0.000    0.000    0.000    0.000 
#
# Total GULP energy -156155.018587 kJ/mol
# GULP energy per Si atom -5576.964950 kJ/mol
# Density = 2.199198 g / cm^3
# Si number density = 22.042149 Si / 1000 Ang^3
#
#
#
# Elastic Constant Matrix: (Units=GPa)
#
#
# Indices 1 2 3 4 5 6 
#
# 1 127.2852 7.4081 47.1349 0.0000 -5.9716 0.0000
# 2 7.4081 48.2358 5.6982 0.0000 -4.9403 0.0000
# 3 47.1349 5.6982 132.1729 0.0000 -12.1950 0.0000
# 4 0.0000 0.0000 0.0000 97.1580 0.0000 49.1274
# 5 -5.9716 -4.9403 -12.1950 0.0000 32.3685 0.0000
# 6 0.0000 0.0000 0.0000 49.1274 0.0000 76.6955
#
#
#
# Elastic Compliance Matrix: (Units=1/GPa)
#
#
# Indices 1 2 3 4 5 6 
#
# 1 0.009105 -0.000989 -0.003174 0.000000 0.000333 0.000000
# 2 -0.000989 0.021220 -0.000290 0.000000 0.002947 0.000000
# 3 -0.003174 -0.000290 0.008964 0.000000 0.002747 0.000000
# 4 0.000000 0.000000 0.000000 0.015223 0.000000 -0.009751
# 5 0.000333 0.002947 0.002747 0.000000 0.032441 0.000000
# 6 0.000000 0.000000 0.000000 -0.009751 0.000000 0.019285
#
#
# Mechanical properties :
#
#
# Convention : Reuss Voigt Hill
#
# Bulk Modulus (GPa) = 32.91430 47.57516 40.24473
# Shear Modulus (GPa) = 39.91396 57.74124 48.82760
#
# Velocity S-wave (km/s) = 4.25997 5.12374 4.71169
# Velocity P-wave (km/s) = 6.25790 7.52557 6.92082
#
# Compressibility (1/GPa) = 0.03038193
#
# Stress axis : x y z
#
# Youngs Moduli (GPa) = 109.83264 47.12646 111.56276
#
# Poissons Ratio (x) = 0.04662 0.35405
# Poissons Ratio (y) = 0.10866 0.03237
# Poissons Ratio (z) = 0.34856 0.01367
#
# Static dielectric constant tensor:
#      x y z
#    x 1.831760 0.000000 -0.041780 
#    y 0.000000 1.823840 0.000000 
#    z -0.041780 0.000000 1.829920 
# 
# From -- ./inp_files/70210.got.cif
#   From: 2010.05.17/outbox.cif.g08.bks.cpg/sg10_36_cif.got.tgz:70210.got - 2010.06.03 11:33:40.
