data_PCOD9151187
_publ_section_title
;
Structure prediction by ZEFSAII (Michael W. Deem and Ramdas Pophale) SiO2 
 PCOD9151187
Probable space group: P 2/M
;
_chemical_formula_sum "Si O2"
_cell_formula_units_Z 24
_cell_length_a 21.714800
_cell_length_b 11.458323
_cell_length_c 21.509252
_cell_angle_alpha 90.000000
_cell_angle_beta 13.292464
_cell_angle_gamma 90.000000
_cell_volume 1230.501733
_symmetry_space_group_name_H-M "P 2/M"
_symmetry_group_IT_number 10
_symmetry_cell_setting 'monoclinic'
loop_
_space_group_symop_operation_xyz
x,y,z
-x,y,-z
-x,-y,-z
x,-y,z
loop_
_atom_site_type_symbol
_atom_site_label
_atom_site_fract_x
_atom_site_fract_y
_atom_site_fract_z
Si Si1 0.350752 0.000000 0.389594
Si Si2 0.016528 0.361290 0.807843
Si Si3 0.319664 0.252127 0.056024
Si Si4 0.251644 0.635489 0.706857
Si Si5 0.483440 0.746213 0.280399
Si Si6 0.153508 0.636302 0.413449
Si Si7 0.181159 0.000000 0.170730
O O1 0.386614 0.878189 0.389918
O O2 0.583524 0.000000 0.110316
O O3 0.083894 0.000000 0.610546
O O4 0.963485 0.500000 0.864768
O O5 0.158438 0.318094 0.731852
O O6 0.229688 0.335192 0.544121
O O7 0.738356 0.295970 0.069221
O O8 0.419483 0.258814 0.886570
O O9 0.216607 0.121169 0.171918
O O10 0.577234 0.289951 0.842503
O O11 0.065896 0.334094 0.318384
O O12 0.500000 0.690115 0.500000
O O13 0.328219 0.500000 0.618404
O O14 0.000000 0.636131 0.000000
O O15 0.226502 0.500000 0.343348
O O16 0.000000 0.661092 0.500000
#
# Coordination Sequence:
#
# PCOD9151187 Si02
#       7
#     2   4   4   4   4   4   2
#     4  10  20  38  58  78 109 151 192 218 258 334
#     4  11  22  34  52  86 122 142 175 232 281 328
#     4  11  22  39  61  83 110 146 184 229 285 328
#     4   9  17  31  50  72 105 150 187 215 262 325
#     4  11  22  36  57  84 112 146 182 226 280 330
#     4  11  24  41  59  81 112 151 192 224 259 330
#     4  10  20  38  61  84 108 137 182 236 276 322
#
# _framework density 19.504239999999999
#
# number of rings (size 3 to 8) (size 9 to 14) (size 15 to 20)
#    0.000    1.500    0.000    7.500    0.000    8.000 
#    0.000    2.500    0.000    0.000    0.000   11.667 
#    0.000    0.000    0.000    0.000    0.000    0.000 
#
# Total GULP energy -134001.646932 kJ/mol
# GULP energy per Si atom -5583.401956 kJ/mol
# Density = 1.945985 g / cm^3
# Si number density = 19.504240 Si / 1000 Ang^3
#
#
#
# Elastic Constant Matrix: (Units=GPa)
#
#
# Indices 1 2 3 4 5 6 
#
# 1 74.0147 54.6679 29.9669 0.0000 -23.9718 0.0000
# 2 54.6679 92.5623 43.0917 0.0000 -36.7122 0.0000
# 3 29.9669 43.0917 124.2831 0.0000 -41.1994 0.0000
# 4 0.0000 0.0000 0.0000 10.4897 0.0000 -19.4049
# 5 -23.9718 -36.7122 -41.1994 0.0000 43.0616 0.0000
# 6 0.0000 0.0000 0.0000 -19.4049 0.0000 1.3071
#
#
#
# Elastic Compliance Matrix: (Units=1/GPa)
#
#
# Indices 1 2 3 4 5 6 
#
# 1 0.024117 -0.013379 -0.000742 0.000000 0.001309 0.000000
# 2 -0.013379 0.023947 -0.001140 0.000000 0.011878 0.000000
# 3 -0.000742 -0.001140 0.011952 0.000000 0.010050 0.000000
# 4 0.000000 0.000000 0.000000 -0.003602 0.000000 -0.053481
# 5 0.001309 0.011878 0.010050 0.000000 0.043693 0.000000
# 6 0.000000 0.000000 0.000000 -0.053481 0.000000 -0.028910
#
#
# Mechanical properties :
#
#
# Convention : Reuss Voigt Hill
#
# Bulk Modulus (GPa) = 33.90496 60.70144 47.30320
# Shear Modulus (GPa) = 44.82309 21.84724 33.33517
#
# Velocity S-wave (km/s) = 4.79907 3.35046 4.13864
# Velocity P-wave (km/s) = 6.93752 6.79391 6.86609
#
# Compressibility (1/GPa) = 0.02949421
#
# Stress axis : x y z
#
# Youngs Moduli (GPa) = 41.46413 41.75953 83.66899
#
# Poissons Ratio (x) = 0.55870 0.06211
# Poissons Ratio (y) = 0.55475 0.09535
# Poissons Ratio (z) = 0.03078 0.04759
#
# Static dielectric constant tensor:
#      x y z
#    x 1.715860 0.000000 0.005040 
#    y 0.000000 1.739650 0.000000 
#    z 0.005040 0.000000 1.668160 
# 
# From -- ./inp_files/90808.got.cif
#   From: 2010.05.17/outbox.cif.g08.bks.cpg/sg10_46_cif.got.tgz:90808.got - 2010.06.03 11:33:40.
