data_PCOD9151352
_publ_section_title
;
Structure prediction by ZEFSAII (Michael W. Deem and Ramdas Pophale) SiO2 
 PCOD9151352
Probable space group: P 2/M
;
_chemical_formula_sum "Si O2"
_cell_formula_units_Z 28
_cell_length_a 14.934305
_cell_length_b 20.013932
_cell_length_c 7.483658
_cell_angle_alpha 90.000000
_cell_angle_beta 142.236783
_cell_angle_gamma 90.000000
_cell_volume 1369.828853
_symmetry_space_group_name_H-M "P 2/M"
_symmetry_group_IT_number 10
_symmetry_cell_setting 'monoclinic'
loop_
_space_group_symop_operation_xyz
x,y,z
-x,y,-z
-x,-y,-z
x,-y,z
loop_
_atom_site_type_symbol
_atom_site_label
_atom_site_fract_x
_atom_site_fract_y
_atom_site_fract_z
Si Si1 0.174841 0.921589 0.290886
Si Si2 0.868292 0.924957 0.397642
Si Si3 0.645206 0.735588 0.837244
Si Si4 0.036425 0.423006 0.348355
Si Si5 0.860811 0.694551 0.875236
Si Si6 0.344652 0.113169 0.221086
Si Si7 0.669240 0.652254 0.240995
O O1 0.198981 0.895593 0.529343
O O2 0.256143 0.881449 0.265899
O O3 0.219177 0.000000 0.343133
O O4 0.000000 0.918201 0.000000
O O5 0.000000 0.889230 0.500000
O O6 0.921788 0.000000 0.534126
O O7 0.747174 0.929584 0.058941
O O8 0.500000 0.711154 0.500000
O O9 0.784038 0.725428 0.926725
O O10 0.629417 0.815071 0.829440
O O11 0.667022 0.699577 0.061503
O O12 0.010017 0.500000 0.259129
O O13 0.207477 0.404236 0.596433
O O14 0.000000 0.413412 0.500000
O O15 0.935292 0.373694 0.070931
O O16 0.736227 0.685894 0.526657
O O17 0.000000 0.730288 0.000000
O O18 0.500000 0.081963 0.500000
O O19 0.500000 0.631100 0.000000
#
# Coordination Sequence:
#
# PCOD9151352 Si02
#       7
#     4   4   4   4   4   4   4
#     4  10  20  38  64  89 120 161 201 247 313 378
#     4  10  20  39  64  90 121 158 200 253 314 371
#     4  11  23  43  61  86 126 165 210 257 309 363
#     4  10  21  40  66  96 131 163 200 258 311 361
#     4  10  22  39  63  92 121 164 204 251 307 366
#     4  11  25  40  59  90 124 161 203 262 307 364
#     4  11  22  39  67  89 121 170 209 249 307 372
#
# _framework density 20.44051
#
# number of rings (size 3 to 8) (size 9 to 14) (size 15 to 20)
#    0.000    1.571    4.286    0.429    0.000    6.286 
#    5.143    1.429    0.000    2.571    0.000    0.000 
#    0.000    0.000    0.000    0.000    0.000    0.000 
#
# Total GULP energy -156109.665527 kJ/mol
# GULP energy per Si atom -5575.345197 kJ/mol
# Density = 2.039399 g / cm^3
# Si number density = 20.440510 Si / 1000 Ang^3
#
#
#
# Elastic Constant Matrix: (Units=GPa)
#
#
# Indices 1 2 3 4 5 6 
#
# 1 111.7082 5.3543 41.1486 0.0000 -11.8719 0.0000
# 2 5.3543 40.2030 17.6591 0.0000 -6.5542 0.0000
# 3 41.1486 17.6591 134.2636 0.0000 -2.2359 0.0000
# 4 0.0000 0.0000 0.0000 36.4444 0.0000 -0.2699
# 5 -11.8719 -6.5542 -2.2359 0.0000 43.7560 0.0000
# 6 0.0000 0.0000 0.0000 -0.2699 0.0000 28.0966
#
#
#
# Elastic Compliance Matrix: (Units=1/GPa)
#
#
# Indices 1 2 3 4 5 6 
#
# 1 0.010399 0.000467 -0.003203 0.000000 0.002728 0.000000
# 2 0.000467 0.027060 -0.003636 0.000000 0.003994 0.000000
# 3 -0.003203 -0.003636 0.008892 0.000000 -0.000959 0.000000
# 4 0.000000 0.000000 0.000000 0.027441 0.000000 0.000264
# 5 0.002728 0.003994 -0.000959 0.000000 0.024143 0.000000
# 6 0.000000 0.000000 0.000000 0.000264 0.000000 0.035594
#
#
# Mechanical properties :
#
#
# Convention : Reuss Voigt Hill
#
# Bulk Modulus (GPa) = 29.75578 46.05542 37.90560
# Shear Modulus (GPa) = 31.75098 36.46027 34.10562
#
# Velocity S-wave (km/s) = 3.94551 4.22800 4.08920
# Velocity P-wave (km/s) = 5.94516 6.81286 6.39375
#
# Compressibility (1/GPa) = 0.03360691
#
# Stress axis : x y z
#
# Youngs Moduli (GPa) = 96.16025 36.95539 112.46188
#
# Poissons Ratio (x) = -0.01725 0.36023
# Poissons Ratio (y) = -0.04487 0.40886
# Poissons Ratio (z) = 0.30801 0.13435
#
# Static dielectric constant tensor:
#      x y z
#    x 1.780760 0.000000 -0.019940 
#    y 0.000000 1.722470 0.000000 
#    z -0.019940 0.000000 1.711860 
# 
# From -- ./inp_files/33090.got.cif
#   From: 2010.05.17/outbox.cif.g08.bks.cpg/sg10_17_cif.got.tgz:33090.got - 2010.06.03 11:33:40.
