data_PCOD9151540
_publ_section_title
;
Structure prediction by ZEFSAII (Michael W. Deem and Ramdas Pophale) SiO2 
 PCOD9151540
Probable space group: P 2/M
;
_chemical_formula_sum "Si O2"
_cell_formula_units_Z 32
_cell_length_a 11.999442
_cell_length_b 13.399999
_cell_length_c 9.222658
_cell_angle_alpha 90.000000
_cell_angle_beta 94.419925
_cell_angle_gamma 90.000000
_cell_volume 1478.524108
_symmetry_space_group_name_H-M "P 2/M"
_symmetry_group_IT_number 10
_symmetry_cell_setting 'monoclinic'
loop_
_space_group_symop_operation_xyz
x,y,z
-x,y,-z
-x,-y,-z
x,-y,z
loop_
_atom_site_type_symbol
_atom_site_label
_atom_site_fract_x
_atom_site_fract_y
_atom_site_fract_z
Si Si1 0.824807 0.385832 0.545444
Si Si2 0.031400 0.109915 0.333457
Si Si3 0.776159 0.298981 0.036128
Si Si4 0.949480 0.676856 0.270010
Si Si5 0.567445 0.610744 0.156974
Si Si6 0.500436 0.804156 0.328421
Si Si7 0.745046 0.777089 0.718800
Si Si8 0.380295 0.113340 0.909058
O O1 0.788895 0.500000 0.550339
O O2 0.865845 0.358931 0.388417
O O3 0.736838 0.303883 0.588924
O O4 0.933239 0.368303 0.661946
O O5 0.158265 0.145211 0.314285
O O6 0.000000 0.106124 0.500000
O O7 0.960632 0.203225 0.272425
O O8 0.010769 0.000000 0.269288
O O9 0.894685 0.336517 0.108542
O O10 0.691452 0.372423 0.109503
O O11 0.719941 0.190876 0.071988
O O12 0.775100 0.288161 0.863607
O O13 0.551259 0.500000 0.214586
O O14 0.530695 0.695453 0.265394
O O15 0.500000 0.621497 0.000000
O O16 0.500000 0.808598 0.500000
O O17 0.373493 0.827680 0.268151
O O18 0.587105 0.876387 0.256873
O O19 0.351935 0.000000 0.945299
O O20 0.500000 0.139871 0.000000
#
# Coordination Sequence:
#
# PCOD9151540 Si02
#       8
#     4   4   4   4   4   4   4   4
#     4  10  22  40  61  86 119 156 200 249 298 359
#     4  10  21  39  62  87 119 155 194 246 304 359
#     4  11  22  38  63  90 122 157 200 250 298 355
#     4  10  20  40  62  84 115 158 197 244 301 355
#     4  10  21  40  61  87 126 166 200 241 297 359
#     4  11  23  39  62  89 128 161 197 254 303 352
#     4  11  22  40  59  91 121 159 199 245 302 355
#     4  10  21  41  64  87 123 166 202 243 301 364
#
# _framework density 21.643204999999998
#
# number of rings (size 3 to 8) (size 9 to 14) (size 15 to 20)
#    0.000    1.625    5.000    1.500    3.500    6.000 
#    0.000    2.500    0.000    0.000    0.000    0.000 
#    0.000    0.000    0.000    0.000    0.000    0.000 
#
# Total GULP energy -178437.397513 kJ/mol
# GULP energy per Si atom -5576.168672 kJ/mol
# Density = 2.159394 g / cm^3
# Si number density = 21.643205 Si / 1000 Ang^3
#
#
#
# Elastic Constant Matrix: (Units=GPa)
#
#
# Indices 1 2 3 4 5 6 
#
# 1 34.7250 -21.3729 18.6155 0.0000 -2.8268 0.0000
# 2 -21.3729 70.7543 -22.0136 0.0000 0.0099 0.0000
# 3 18.6155 -22.0136 73.5757 0.0000 -5.9413 0.0000
# 4 0.0000 0.0000 0.0000 -4.4778 0.0000 16.6390
# 5 -2.8268 0.0099 -5.9413 0.0000 38.1947 0.0000
# 6 0.0000 0.0000 0.0000 16.6390 0.0000 -0.2898
#
#
#
# Elastic Compliance Matrix: (Units=1/GPa)
#
#
# Indices 1 2 3 4 5 6 
#
# 1 0.038401 0.009507 -0.006727 0.000000 0.001793 0.000000
# 2 0.009507 0.017958 0.003062 0.000000 0.001175 0.000000
# 3 -0.006727 0.003062 0.016375 0.000000 0.002049 0.000000
# 4 0.000000 0.000000 0.000000 0.001052 0.000000 0.060383
# 5 0.001793 0.001175 0.002049 0.000000 0.026633 0.000000
# 6 0.000000 0.000000 0.000000 0.060383 0.000000 0.016250
#
#
# Mechanical properties :
#
#
# Convention : Reuss Voigt Hill
#
# Bulk Modulus (GPa) = 11.84566 14.39034 13.11800
# Shear Modulus (GPa) = 37.55925 20.27381 28.91653
#
# Velocity S-wave (km/s) = 4.17031 3.06392 3.65918
# Velocity P-wave (km/s) = 5.35478 4.37952 4.89152
#
# Compressibility (1/GPa) = 0.08441908
#
# Stress axis : x y z
#
# Youngs Moduli (GPa) = 26.04095 55.68603 61.06834
#
# Poissons Ratio (x) = -0.52940 0.41079
# Poissons Ratio (y) = -0.24757 -0.18702
# Poissons Ratio (z) = 0.17517 -0.17054
#
# Static dielectric constant tensor:
#      x y z
#    x 1.988210 0.000000 0.086460 
#    y 0.000000 1.773650 0.000000 
#    z 0.086460 0.000000 1.810240 
# 
# From -- ./inp_files/25297.got.cif
#   From: 2010.05.17/outbox.cif.g08.bks.cpg/sg10_13_cif.got.tgz:25297.got - 2010.06.03 11:33:40.
