data_PCOD9151391
_publ_section_title
;
Structure prediction by ZEFSAII (Michael W. Deem and Ramdas Pophale) SiO2 
 PCOD9151391
Probable space group: P 2/M
;
_chemical_formula_sum "Si O2"
_cell_formula_units_Z 19
_cell_length_a 9.055772
_cell_length_b 22.367940
_cell_length_c 4.987363
_cell_angle_alpha 90.000000
_cell_angle_beta 58.621523
_cell_angle_gamma 90.000000
_cell_volume 862.484621
_symmetry_space_group_name_H-M "P 2/M"
_symmetry_group_IT_number 10
_symmetry_cell_setting 'monoclinic'
loop_
_space_group_symop_operation_xyz
x,y,z
-x,y,-z
-x,-y,-z
x,-y,z
loop_
_atom_site_type_symbol
_atom_site_label
_atom_site_fract_x
_atom_site_fract_y
_atom_site_fract_z
Si Si1 0.130342 0.500000 0.630185
Si Si2 0.311525 0.304120 0.063884
Si Si3 0.207688 0.828734 0.300405
Si Si4 0.000000 0.000000 0.000000
Si Si5 0.302519 0.098036 0.708495
Si Si6 0.184707 0.629979 0.676708
O O1 0.235361 0.561680 0.557927
O O2 0.000000 0.500000 0.500000
O O3 0.000000 0.500000 0.000000
O O4 0.273975 0.233880 0.121317
O O5 0.185356 0.335680 0.396299
O O6 0.500000 0.316142 0.000000
O O7 0.295123 0.332757 0.787016
O O8 0.277931 0.846321 0.526900
O O9 0.000000 0.827420 0.500000
O O10 0.271516 0.879980 0.039617
O O11 0.851326 0.948328 0.204721
O O12 0.500000 0.075680 0.500000
O O13 0.000000 0.627945 0.000000
#
# Coordination Sequence:
#
# PCOD9151391 Si02
#       6
#     2   4   4   1   4   4
#     4  10  20  38  65  94 129 168 227 284 331 400
#     4  12  25  41  63  96 136 173 221 277 342 410
#     4  12  24  47  70 100 135 181 228 285 344 411
#     4  12  26  50  72 108 140 186 234 276 340 416
#     4  12  26  46  73 103 140 181 230 287 344 404
#     4  11  22  41  65  95 124 175 225 278 333 402
#
# _framework density 22.029377
#
# number of rings (size 3 to 8) (size 9 to 14) (size 15 to 20)
#    0.000    0.421    2.105    8.526    0.000    1.684 
#    0.000    5.263    0.000    0.000    0.000    0.000 
#    0.000    0.000    0.000    0.000    0.000    0.000 
#
# Total GULP energy -105969.785689 kJ/mol
# GULP energy per Si atom -5577.357142 kJ/mol
# Density = 2.197924 g / cm^3
# Si number density = 22.029377 Si / 1000 Ang^3
#
#
#
# Elastic Constant Matrix: (Units=GPa)
#
#
# Indices 1 2 3 4 5 6 
#
# 1 112.4210 22.3295 33.8050 0.0000 -17.5756 0.0000
# 2 22.3295 118.4723 10.5020 0.0000 -6.1741 0.0000
# 3 33.8050 10.5020 80.4764 0.0000 8.5814 0.0000
# 4 0.0000 0.0000 0.0000 -63.9341 0.0000 -60.0810
# 5 -17.5756 -6.1741 8.5814 0.0000 45.4628 0.0000
# 6 0.0000 0.0000 0.0000 -60.0810 0.0000 441.7634
#
#
#
# Elastic Compliance Matrix: (Units=1/GPa)
#
#
# Indices 1 2 3 4 5 6 
#
# 1 0.011581 -0.001444 -0.005238 0.000000 0.005270 0.000000
# 2 -0.001444 0.008808 -0.000623 0.000000 0.000756 0.000000
# 3 -0.005238 -0.000623 0.015239 0.000000 -0.004986 0.000000
# 4 0.000000 0.000000 0.000000 -0.013869 0.000000 -0.001886
# 5 0.005270 0.000756 -0.004986 0.000000 0.025077 0.000000
# 6 0.000000 0.000000 0.000000 -0.001886 0.000000 0.002007
#
#
# Mechanical properties :
#
#
# Convention : Reuss Voigt Hill
#
# Bulk Modulus (GPa) = 47.58057 49.40475 48.49266
# Shear Modulus (GPa) = 70.96222 100.97395 85.96808
#
# Velocity S-wave (km/s) = 5.68177 6.77758 6.25372
# Velocity P-wave (km/s) = 8.04294 9.15002 8.61428
#
# Compressibility (1/GPa) = 0.02101698
#
# Stress axis : x y z
#
# Youngs Moduli (GPa) = 86.34914 113.53880 65.61932
#
# Poissons Ratio (x) = 0.16393 0.34373
# Poissons Ratio (y) = 0.12467 0.04091
# Poissons Ratio (z) = 0.45231 0.07079
#
# Static dielectric constant tensor:
#      x y z
#    x 1.770400 0.000000 -0.045460 
#    y 0.000000 1.846970 0.000000 
#    z -0.045460 0.000000 1.776370 
# 
# From -- ./inp_files/4662.got.cif
#   From: 2010.05.17/outbox.cif.g08.bks.cpg/sg10_3_cif.got.tgz:4662.got - 2010.06.03 11:33:40.
