data_PCOD9151959
_publ_section_title
;
Structure prediction by ZEFSAII (Michael W. Deem and Ramdas Pophale) SiO2 
 PCOD9151959
Probable space group: P 2/M
;
_chemical_formula_sum "Si O2"
_cell_formula_units_Z 32
_cell_length_a 15.888871
_cell_length_b 13.641280
_cell_length_c 22.006342
_cell_angle_alpha 90.000000
_cell_angle_beta 158.945295
_cell_angle_gamma 90.000000
_cell_volume 1713.577934
_symmetry_space_group_name_H-M "P 2/M"
_symmetry_group_IT_number 10
_symmetry_cell_setting 'monoclinic'
loop_
_space_group_symop_operation_xyz
x,y,z
-x,y,-z
-x,-y,-z
x,-y,z
loop_
_atom_site_type_symbol
_atom_site_label
_atom_site_fract_x
_atom_site_fract_y
_atom_site_fract_z
Si Si1 0.272931 0.383128 0.166499
Si Si2 0.128700 0.890288 0.737833
Si Si3 0.564202 0.111748 0.936441
Si Si4 0.052397 0.387883 0.752717
Si Si5 0.041016 0.301508 0.426743
Si Si6 0.520588 0.707189 0.814607
Si Si7 0.459105 0.388470 0.888771
Si Si8 0.597795 0.619569 0.501111
O O1 0.312118 0.500000 0.179881
O O2 0.342040 0.317184 0.154733
O O3 0.431269 0.355788 0.331976
O O4 0.000000 0.371975 0.000000
O O5 0.332419 0.883830 0.823408
O O6 0.959240 0.802228 0.607651
O O7 0.029946 0.000000 0.667184
O O8 0.234763 0.877365 0.876687
O O9 0.568513 0.193629 0.886371
O O10 0.575135 0.000000 0.919446
O O11 0.094610 0.500000 0.797887
O O12 0.921458 0.381913 0.600157
O O13 0.864489 0.343413 0.671718
O O14 0.316516 0.347750 0.922713
O O15 0.246388 0.298161 0.612691
O O16 0.779451 0.327343 0.272305
O O17 0.561669 0.620057 0.890166
O O18 0.401929 0.500000 0.867472
O O19 0.500000 0.651635 0.500000
O O20 0.609701 0.500000 0.509718
#
# Coordination Sequence:
#
# PCOD9151959 Si02
#       8
#     4   4   4   4   4   4   4   4
#     4  10  22  39  58  81 114 151 187 233 286 336
#     4   9  19  37  58  79 108 148 192 234 273 321
#     4   9  19  37  60  83 110 147 189 233 279 331
#     4  10  21  36  53  75 108 150 194 234 271 322
#     4  12  22  34  53  80 115 151 186 229 275 331
#     4  12  23  36  55  84 117 146 187 233 285 342
#     4  11  24  35  49  75 112 160 195 221 266 329
#     4   9  18  35  57  78 101 137 190 243 281 317
#
# _framework density 18.674377
#
# number of rings (size 3 to 8) (size 9 to 14) (size 15 to 20)
#    0.000    1.750    2.500    3.000    3.500    3.500 
#    0.000    1.250    0.000    0.375    0.000    0.000 
#    0.000    3.000    0.000    0.000    0.000    0.000 
#
# Total GULP energy -178285.793734 kJ/mol
# GULP energy per Si atom -5571.431054 kJ/mol
# Density = 1.863187 g / cm^3
# Si number density = 18.674377 Si / 1000 Ang^3
#
#
#
# Elastic Constant Matrix: (Units=GPa)
#
#
# Indices 1 2 3 4 5 6 
#
# 1 128.6477 34.5445 45.2632 0.0000 -2.2072 0.0000
# 2 34.5445 103.8482 32.9748 0.0000 -9.7358 0.0000
# 3 45.2632 32.9748 91.2902 0.0000 -1.2575 0.0000
# 4 0.0000 0.0000 0.0000 6.6827 0.0000 -6.3909
# 5 -2.2072 -9.7358 -1.2575 0.0000 31.3059 0.0000
# 6 0.0000 0.0000 0.0000 -6.3909 0.0000 26.9272
#
#
#
# Elastic Compliance Matrix: (Units=1/GPa)
#
#
# Indices 1 2 3 4 5 6 
#
# 1 0.009746 -0.001937 -0.004134 0.000000 -0.000081 0.000000
# 2 -0.001937 0.011598 -0.003183 0.000000 0.003342 0.000000
# 3 -0.004134 -0.003183 0.014144 0.000000 -0.000713 0.000000
# 4 0.000000 0.000000 0.000000 0.193579 0.000000 0.045944
# 5 -0.000081 0.003342 -0.000713 0.000000 0.032948 0.000000
# 6 0.000000 0.000000 0.000000 0.045944 0.000000 0.048042
#
#
# Mechanical properties :
#
#
# Convention : Reuss Voigt Hill
#
# Bulk Modulus (GPa) = 58.89169 61.03903 59.96536
# Shear Modulus (GPa) = 14.96003 27.05006 21.00505
#
# Velocity S-wave (km/s) = 2.83344 3.81006 3.35745
# Velocity P-wave (km/s) = 6.50454 7.21889 6.87101
#
# Compressibility (1/GPa) = 0.01698032
#
# Stress axis : x y z
#
# Youngs Moduli (GPa) = 102.60244 86.22355 70.70380
#
# Poissons Ratio (x) = 0.16702 0.29228
# Poissons Ratio (y) = 0.19875 0.22503
# Poissons Ratio (z) = 0.42414 0.27443
#
# Static dielectric constant tensor:
#      x y z
#    x 1.705890 0.000000 0.010290 
#    y 0.000000 1.668610 0.000000 
#    z 0.010290 0.000000 1.698860 
# 
# From -- ./inp_files/85416.got.cif
#   From: 2010.05.17/outbox.cif.g08.bks.cpg/sg10_43_cif.got.tgz:85416.got - 2010.06.03 11:33:40.
