data_PCOD9151796
_publ_section_title
;
Structure prediction by ZEFSAII (Michael W. Deem and Ramdas Pophale) SiO2 
 PCOD9151796
Probable space group: P 2/M
;
_chemical_formula_sum "Si O2"
_cell_formula_units_Z 32
_cell_length_a 7.618288
_cell_length_b 13.139642
_cell_length_c 23.042608
_cell_angle_alpha 90.000000
_cell_angle_beta 145.745230
_cell_angle_gamma 90.000000
_cell_volume 1298.325358
_symmetry_space_group_name_H-M "P 2/M"
_symmetry_group_IT_number 10
_symmetry_cell_setting 'monoclinic'
loop_
_space_group_symop_operation_xyz
x,y,z
-x,y,-z
-x,-y,-z
x,-y,z
loop_
_atom_site_type_symbol
_atom_site_label
_atom_site_fract_x
_atom_site_fract_y
_atom_site_fract_z
Si Si1 0.483169 0.337147 0.611452
Si Si2 0.302337 0.110075 0.335638
Si Si3 0.925900 0.337147 0.388546
Si Si4 0.875850 0.110075 0.335638
Si Si5 0.736947 0.828840 0.110780
Si Si6 0.145748 0.390947 0.839894
Si Si7 0.683048 0.171160 0.889220
Si Si8 0.553729 0.609053 0.839896
O O1 0.509116 0.214228 0.616014
O O2 0.291939 0.365304 0.616775
O O3 0.829644 0.378129 0.715581
O O4 0.275023 0.370589 0.499999
O O5 0.105979 0.114338 0.342392
O O6 0.054180 0.116185 0.214975
O O7 0.461029 0.000000 0.377083
O O8 0.929040 0.214229 0.383986
O O9 0.751730 0.378129 0.284418
O O10 0.520691 0.116185 0.214975
O O11 0.924380 0.000000 0.377083
O O12 0.548308 0.822956 0.119323
O O13 0.823884 0.713134 0.116221
O O14 0.500000 0.874719 0.000000
O O15 0.135792 0.500000 0.867947
O O16 0.427061 0.393020 0.870824
O O17 0.742784 0.286866 0.883780
O O18 0.000000 0.125280 0.000000
O O19 0.703947 0.500000 0.867948
#
# Coordination Sequence:
#
# PCOD9151796 Si02
#       8
#     4   4   4   4   4   4   4   4
#     4  10  21  35  51  75 106 134 162 204 256 303
#     4   9  19  36  55  74  99 133 172 210 246 291
#     4  10  21  35  51  75 106 134 162 204 256 303
#     4   9  19  36  55  74  99 133 172 210 246 291
#     4   9  18  32  50  74 103 132 164 204 249 296
#     4   9  19  36  55  74  99 133 172 210 246 291
#     4   9  18  32  50  74 103 132 164 204 249 296
#     4   9  19  36  55  74  99 133 172 210 246 291
#
# _framework density 24.647134999999999
#
# number of rings (size 3 to 8) (size 9 to 14) (size 15 to 20)
#    0.000    2.750    0.000    2.250    0.000    9.000 
#    0.000    5.000    0.000    0.000    0.000    0.000 
#    0.000    0.000    0.000    0.000    0.000    0.000 
#
# Total GULP energy -178741.684598 kJ/mol
# GULP energy per Si atom -5585.677644 kJ/mol
# Density = 2.459104 g / cm^3
# Si number density = 24.647135 Si / 1000 Ang^3
#
#
#
# Elastic Constant Matrix: (Units=GPa)
#
#
# Indices 1 2 3 4 5 6 
#
# 1 54.9620 2.0238 -11.6021 0.0000 0.9829 0.0000
# 2 2.0238 125.3592 -4.1376 0.0000 0.1893 0.0000
# 3 -11.6021 -4.1376 121.1155 0.0000 -3.0095 0.0000
# 4 0.0000 0.0000 0.0000 -20.1084 0.0000 1.3683
# 5 0.9829 0.1893 -3.0095 0.0000 17.3779 0.0000
# 6 0.0000 0.0000 0.0000 1.3683 0.0000 24.5280
#
#
#
# Elastic Compliance Matrix: (Units=1/GPa)
#
#
# Indices 1 2 3 4 5 6 
#
# 1 0.018587 -0.000241 0.001754 0.000000 -0.000745 0.000000
# 2 -0.000241 0.007989 0.000249 0.000000 -0.000030 0.000000
# 3 0.001754 0.000249 0.008467 0.000000 0.001364 0.000000
# 4 0.000000 0.000000 0.000000 -0.049542 0.000000 0.002764
# 5 -0.000745 -0.000030 0.001364 0.000000 0.057823 0.000000
# 6 0.000000 0.000000 0.000000 0.002764 0.000000 0.040616
#
#
# Mechanical properties :
#
#
# Convention : Reuss Voigt Hill
#
# Bulk Modulus (GPa) = 25.92915 30.44497 28.18706
# Shear Modulus (GPa) = 53.60710 25.36968 39.48839
#
# Velocity S-wave (km/s) = 4.66873 3.21178 4.00703
# Velocity P-wave (km/s) = 6.29331 5.11206 5.73319
#
# Compressibility (1/GPa) = 0.03856663
#
# Stress axis : x y z
#
# Youngs Moduli (GPa) = 53.80162 125.16842 118.10571
#
# Poissons Ratio (x) = 0.03017 -0.20713
# Poissons Ratio (y) = 0.01297 -0.02942
# Poissons Ratio (z) = -0.09436 -0.03118
#
# Static dielectric constant tensor:
#      x y z
#    x 1.914980 0.000000 -0.000970 
#    y 0.000000 1.977580 0.000000 
#    z -0.000970 0.000000 1.946560 
# 
# From -- ./inp_files/92359.got.cif
#   From: 2010.05.17/outbox.cif.g08.bks.cpg/sg10_47_cif.got.tgz:92359.got - 2010.06.03 11:33:40.
