data_PCOD9151531
_publ_section_title
;
Structure prediction by ZEFSAII (Michael W. Deem and Ramdas Pophale) SiO2 
 PCOD9151531
Probable space group: P 2/M
;
_chemical_formula_sum "Si O2"
_cell_formula_units_Z 22
_cell_length_a 6.372714
_cell_length_b 14.429722
_cell_length_c 15.086131
_cell_angle_alpha 90.000000
_cell_angle_beta 123.817233
_cell_angle_gamma 90.000000
_cell_volume 1152.565726
_symmetry_space_group_name_H-M "P 2/M"
_symmetry_group_IT_number 10
_symmetry_cell_setting 'monoclinic'
loop_
_space_group_symop_operation_xyz
x,y,z
-x,y,-z
-x,-y,-z
x,-y,z
loop_
_atom_site_type_symbol
_atom_site_label
_atom_site_fract_x
_atom_site_fract_y
_atom_site_fract_z
Si Si1 0.000000 0.175780 0.500000
Si Si2 0.730886 0.250568 0.120142
Si Si3 0.685771 0.607729 0.261078
Si Si4 0.228159 0.680719 0.429910
Si Si5 0.283055 0.749823 0.245780
Si Si6 0.662479 0.892847 0.264374
O O1 0.797213 0.244217 0.497915
O O2 0.874135 0.119825 0.390621
O O3 0.697934 0.346284 0.166776
O O4 0.727749 0.169269 0.193883
O O5 0.004106 0.254092 0.138454
O O6 0.500000 0.236885 0.000000
O O7 0.625939 0.500000 0.247313
O O8 0.473362 0.668280 0.260672
O O9 0.967109 0.623561 0.368182
O O10 0.500000 0.630929 0.500000
O O11 0.233148 0.735171 0.338051
O O12 0.416400 0.844911 0.249579
O O13 0.630273 0.000000 0.235173
#
# Coordination Sequence:
#
# PCOD9151531 Si02
#       6
#     2   4   4   4   4   4
#     4  12  19  40  59  92 124 162 203 246 295 358
#     4  10  23  44  65  86 121 163 202 251 309 362
#     4  10  22  39  61  93 122 154 207 255 298 359
#     4  11  19  36  63  84 127 169 198 240 299 362
#     4  10  20  40  60  86 123 160 199 251 308 353
#     4  11  23  38  62  95 125 157 204 251 296 360
#
# _framework density 19.087848000000001
#
# number of rings (size 3 to 8) (size 9 to 14) (size 15 to 20)
#    0.000    1.455    7.273    0.273    0.000    7.636 
#    0.000    5.909    0.000    0.000    0.000    0.000 
#    0.000    0.000    0.000    0.000    0.000    0.000 
#
# Total GULP energy -122707.573043 kJ/mol
# GULP energy per Si atom -5577.616957 kJ/mol
# Density = 1.904440 g / cm^3
# Si number density = 19.087848 Si / 1000 Ang^3
#
#
#
# Elastic Constant Matrix: (Units=GPa)
#
#
# Indices 1 2 3 4 5 6 
#
# 1 114.1416 38.0327 38.2645 0.0000 27.4201 0.0000
# 2 38.0327 126.8182 31.7848 0.0000 8.2311 0.0000
# 3 38.2645 31.7848 107.7924 0.0000 30.2138 0.0000
# 4 0.0000 0.0000 0.0000 10.4329 0.0000 1.3811
# 5 27.4201 8.2311 30.2138 0.0000 30.7448 0.0000
# 6 0.0000 0.0000 0.0000 1.3811 0.0000 1.7609
#
#
#
# Elastic Compliance Matrix: (Units=1/GPa)
#
#
# Indices 1 2 3 4 5 6 
#
# 1 0.012237 -0.002841 -0.000912 0.000000 -0.009257 0.000000
# 2 -0.002841 0.009175 -0.002372 0.000000 0.002408 0.000000
# 3 -0.000912 -0.002372 0.013656 0.000000 -0.011972 0.000000
# 4 0.000000 0.000000 0.000000 0.106955 0.000000 -0.083884
# 5 -0.009257 0.002408 -0.011972 0.000000 0.051903 0.000000
# 6 0.000000 0.000000 0.000000 -0.083884 0.000000 0.633674
#
#
# Mechanical properties :
#
#
# Convention : Reuss Voigt Hill
#
# Bulk Modulus (GPa) = 43.82170 62.76846 53.29508
# Shear Modulus (GPa) = 5.90001 24.63239 15.26620
#
# Velocity S-wave (km/s) = 1.76003 3.59622 2.83112
# Velocity P-wave (km/s) = 5.20941 7.08513 6.21840
#
# Compressibility (1/GPa) = 0.02281974
#
# Stress axis : x y z
#
# Youngs Moduli (GPa) = 81.71919 108.98653 73.22874
#
# Poissons Ratio (x) = 0.30958 0.06675
# Poissons Ratio (y) = 0.23213 0.17371
# Poissons Ratio (z) = 0.07449 0.25854
#
# Static dielectric constant tensor:
#      x y z
#    x 1.701030 0.000000 0.030430 
#    y 0.000000 1.623270 0.000000 
#    z 0.030430 0.000000 1.716040 
# 
# From -- ./inp_files/9170.got.cif
#   From: 2010.05.17/outbox.cif.g08.bks.cpg/sg10_5_cif.got.tgz:9170.got - 2010.06.03 11:33:40.
