data_PCOD9151015
_publ_section_title
;
Structure prediction by ZEFSAII (Michael W. Deem and Ramdas Pophale) SiO2 
 PCOD9151015
Probable space group: P 2/M
;
_chemical_formula_sum "Si O2"
_cell_formula_units_Z 30
_cell_length_a 15.459777
_cell_length_b 17.652782
_cell_length_c 5.591126
_cell_angle_alpha 90.000000
_cell_angle_beta 109.766403
_cell_angle_gamma 90.000000
_cell_volume 1435.958384
_symmetry_space_group_name_H-M "P 2/M"
_symmetry_group_IT_number 10
_symmetry_cell_setting 'monoclinic'
loop_
_space_group_symop_operation_xyz
x,y,z
-x,y,-z
-x,-y,-z
x,-y,z
loop_
_atom_site_type_symbol
_atom_site_label
_atom_site_fract_x
_atom_site_fract_y
_atom_site_fract_z
Si Si1 0.674392 0.222895 0.387205
Si Si2 0.590719 0.648567 0.970319
Si Si3 0.103746 0.883792 0.048562
Si Si4 0.790054 0.084622 0.347265
Si Si5 0.223370 0.418485 0.900454
Si Si6 0.500000 0.758064 0.500000
Si Si7 0.919924 0.416180 0.620869
Si Si8 0.849094 0.715277 0.849707
O O1 0.717297 0.153583 0.277580
O O2 0.582301 0.197738 0.444216
O O3 0.757079 0.255993 0.626472
O O4 0.639230 0.292755 0.196639
O O5 0.668145 0.589320 0.978066
O O6 0.554870 0.702085 0.726595
O O7 0.500000 0.613289 0.000000
O O8 0.157895 0.904748 0.346222
O O9 0.105085 0.792563 0.024605
O O10 0.147640 0.910697 0.836586
O O11 0.000000 0.909669 0.000000
O O12 0.749531 0.000000 0.311840
O O13 0.194824 0.500000 0.978776
O O14 0.182813 0.343497 0.979933
O O15 0.180396 0.418488 0.596872
O O16 0.933609 0.500000 0.743072
O O17 0.916123 0.338416 0.760221
O O18 0.000000 0.410316 0.500000
#
# Coordination Sequence:
#
# PCOD9151015 Si02
#       8
#     4   4   4   4   4   2   4   4
#     4  10  21  38  66  89 124 166 213 262 326 391
#     4  10  20  37  61  89 119 162 213 268 326 388
#     4  11  26  42  69 101 132 176 226 272 327 388
#     4  11  25  45  69 101 138 174 212 266 332 401
#     4  11  22  37  58  85 123 168 214 270 336 387
#     4  10  20  38  64  94 124 160 216 270 322 396
#     4  10  23  39  57  85 124 170 217 271 334 386
#     4  11  22  37  61  86 122 163 219 269 316 382
#
# _framework density 20.891970000000001
#
# number of rings (size 3 to 8) (size 9 to 14) (size 15 to 20)
#    0.000    1.467    2.667    2.000    5.600    1.867 
#    0.000    2.667    0.000    3.600    0.000    0.000 
#    0.000    0.000    0.000    0.000    0.000    0.000 
#
# Total GULP energy -167303.835377 kJ/mol
# GULP energy per Si atom -5576.794513 kJ/mol
# Density = 2.084442 g / cm^3
# Si number density = 20.891970 Si / 1000 Ang^3
#
#
#
# Elastic Constant Matrix: (Units=GPa)
#
#
# Indices 1 2 3 4 5 6 
#
# 1 113.3911 21.1463 21.0320 0.0000 -10.2439 0.0000
# 2 21.1463 131.1132 5.4221 0.0000 -10.4186 0.0000
# 3 21.0320 5.4221 66.0749 0.0000 0.3671 0.0000
# 4 0.0000 0.0000 0.0000 14.1140 0.0000 -7.3956
# 5 -10.2439 -10.4186 0.3671 0.0000 34.8641 0.0000
# 6 0.0000 0.0000 0.0000 -7.3956 0.0000 17.8695
#
#
#
# Elastic Compliance Matrix: (Units=1/GPa)
#
#
# Indices 1 2 3 4 5 6 
#
# 1 0.009849 -0.001260 -0.003046 0.000000 0.002549 0.000000
# 2 -0.001260 0.008002 -0.000267 0.000000 0.002024 0.000000
# 3 -0.003046 -0.000267 0.016132 0.000000 -0.001145 0.000000
# 4 0.000000 0.000000 0.000000 0.090471 0.000000 0.037443
# 5 0.002549 0.002024 -0.001145 0.000000 0.030049 0.000000
# 6 0.000000 0.000000 0.000000 0.037443 0.000000 0.071457
#
#
# Mechanical properties :
#
#
# Convention : Reuss Voigt Hill
#
# Bulk Modulus (GPa) = 40.26066 45.08665 42.67366
# Shear Modulus (GPa) = 20.54357 30.90146 25.72251
#
# Velocity S-wave (km/s) = 3.13920 3.85009 3.51267
# Velocity P-wave (km/s) = 5.69668 6.43366 6.07635
#
# Compressibility (1/GPa) = 0.02483814
#
# Stress axis : x y z
#
# Youngs Moduli (GPa) = 101.53029 124.96766 61.98814
#
# Poissons Ratio (x) = 0.15746 0.18881
# Poissons Ratio (y) = 0.12792 0.01654
# Poissons Ratio (z) = 0.30925 0.03335
#
# Static dielectric constant tensor:
#      x y z
#    x 1.852670 0.000000 -0.014350 
#    y 0.000000 1.709480 0.000000 
#    z -0.014350 0.000000 1.828500 
# 
# From -- ./inp_files/9830.got.cif
#   From: 2010.05.17/outbox.cif.g08.bks.cpg/sg10_5_cif.got.tgz:9830.got - 2010.06.03 11:33:40.
