data_PCOD9151341
_publ_section_title
;
Structure prediction by ZEFSAII (Michael W. Deem and Ramdas Pophale) SiO2 
 PCOD9151341
Probable space group: P 2/M
;
_chemical_formula_sum "Si O2"
_cell_formula_units_Z 24
_cell_length_a 17.719033
_cell_length_b 7.392361
_cell_length_c 18.791518
_cell_angle_alpha 90.000000
_cell_angle_beta 30.312126
_cell_angle_gamma 90.000000
_cell_volume 1242.302190
_symmetry_space_group_name_H-M "P 2/M"
_symmetry_group_IT_number 10
_symmetry_cell_setting 'monoclinic'
loop_
_space_group_symop_operation_xyz
x,y,z
-x,y,-z
-x,-y,-z
x,-y,z
loop_
_atom_site_type_symbol
_atom_site_label
_atom_site_fract_x
_atom_site_fract_y
_atom_site_fract_z
Si Si1 0.687294 0.779387 0.421711
Si Si2 0.122063 0.000000 0.462713
Si Si3 0.677903 0.000000 0.830136
Si Si4 0.983594 0.792464 0.242258
Si Si5 0.071048 0.294392 0.014265
Si Si6 0.085350 0.293257 0.305720
Si Si7 0.649502 0.781626 0.291399
O O1 0.817041 0.715030 0.367616
O O2 0.707990 0.726669 0.322229
O O3 0.521131 0.723843 0.576750
O O4 0.692361 0.000000 0.418129
O O5 0.279131 0.000000 0.290734
O O6 0.000000 0.000000 0.500000
O O7 0.067158 0.818808 0.549133
O O8 0.771877 0.825998 0.784360
O O9 0.500000 0.000000 0.000000
O O10 0.042412 0.791040 0.113569
O O11 0.081011 0.700878 0.223376
O O12 0.973391 0.000000 0.273226
O O13 0.016631 0.500000 0.063130
O O14 0.245360 0.290925 0.854854
O O15 0.000000 0.210443 0.000000
O O16 0.086340 0.500000 0.332312
O O17 0.652478 0.000000 0.287459
#
# Coordination Sequence:
#
# PCOD9151341 Si02
#       7
#     4   2   2   4   4   4   4
#     4   8  16  28  51  72  93 129 183 242 293 343
#     4   8  18  38  64  94 122 155 196 234 277 349
#     4  10  22  42  68 100 130 159 195 230 284 360
#     4  11  19  34  57  80 108 150 197 247 298 350
#     4  11  22  32  44  71 107 148 198 250 297 348
#     4  10  20  38  63  94 127 160 200 246 296 352
#     4   9  16  32  48  68  92 128 186 246 295 340
#
# _framework density 19.318971000000001
#
# number of rings (size 3 to 8) (size 9 to 14) (size 15 to 20)
#    0.000    2.500    3.333    2.000    0.000    4.000 
#    0.000    5.000    0.000    0.000    0.000    0.000 
#    0.000    0.000    0.000    0.000    0.000    0.000 
#
# Total GULP energy -133601.098469 kJ/mol
# GULP energy per Si atom -5566.712436 kJ/mol
# Density = 1.927500 g / cm^3
# Si number density = 19.318971 Si / 1000 Ang^3
#
#
#
# Elastic Constant Matrix: (Units=GPa)
#
#
# Indices 1 2 3 4 5 6 
#
# 1 69.1546 22.6785 34.0288 0.0000 6.4092 0.0000
# 2 22.6785 122.9845 28.0423 0.0000 -2.9328 0.0000
# 3 34.0288 28.0423 121.6509 0.0000 -5.3245 0.0000
# 4 0.0000 0.0000 0.0000 17.9039 0.0000 3.8584
# 5 6.4092 -2.9328 -5.3245 0.0000 25.4969 0.0000
# 6 0.0000 0.0000 0.0000 3.8584 0.0000 7.4364
#
#
#
# Elastic Compliance Matrix: (Units=1/GPa)
#
#
# Indices 1 2 3 4 5 6 
#
# 1 0.018136 -0.002394 -0.004777 0.000000 -0.005832 0.000000
# 2 -0.002394 0.008907 -0.001324 0.000000 0.001350 0.000000
# 3 -0.004777 -0.001324 0.009999 0.000000 0.003136 0.000000
# 4 0.000000 0.000000 0.000000 0.062885 0.000000 -0.032628
# 5 -0.005832 0.001350 0.003136 0.000000 0.041497 0.000000
# 6 0.000000 0.000000 0.000000 -0.032628 0.000000 0.151402
#
#
# Mechanical properties :
#
#
# Convention : Reuss Voigt Hill
#
# Bulk Modulus (GPa) = 49.87094 53.69880 51.78487
# Shear Modulus (GPa) = 15.79776 25.43681 20.61729
#
# Velocity S-wave (km/s) = 2.86271 3.63254 3.27035
# Velocity P-wave (km/s) = 6.06608 6.74166 6.41277
#
# Compressibility (1/GPa) = 0.02005176
#
# Stress axis : x y z
#
# Youngs Moduli (GPa) = 55.13766 112.27408 100.01090
#
# Poissons Ratio (x) = 0.26882 0.47771
# Poissons Ratio (y) = 0.13202 0.13244
# Poissons Ratio (z) = 0.26337 0.14869
#
# Static dielectric constant tensor:
#      x y z
#    x 1.691400 0.000000 0.008420 
#    y 0.000000 1.759470 0.000000 
#    z 0.008420 0.000000 1.735470 
# 
# From -- ./inp_files/78613.got.cif
#   From: 2010.05.17/outbox.cif.g08.bks.cpg/sg10_40_cif.got.tgz:78613.got - 2010.06.03 11:33:40.
