data_PCOD9151892
_publ_section_title
;
Structure prediction by ZEFSAII (Michael W. Deem and Ramdas Pophale) SiO2 
 PCOD9151892
Probable space group: P 2/M
;
_chemical_formula_sum "Si O2"
_cell_formula_units_Z 32
_cell_length_a 23.966470
_cell_length_b 7.822339
_cell_length_c 14.539934
_cell_angle_alpha 90.000000
_cell_angle_beta 32.632414
_cell_angle_gamma 90.000000
_cell_volume 1469.911270
_symmetry_space_group_name_H-M "P 2/M"
_symmetry_group_IT_number 10
_symmetry_cell_setting 'monoclinic'
loop_
_space_group_symop_operation_xyz
x,y,z
-x,y,-z
-x,-y,-z
x,-y,z
loop_
_atom_site_type_symbol
_atom_site_label
_atom_site_fract_x
_atom_site_fract_y
_atom_site_fract_z
Si Si1 0.882748 0.207522 0.678162
Si Si2 0.284408 0.206451 0.950284
Si Si3 0.732549 0.297946 0.233585
Si Si4 0.965845 0.709247 0.944922
Si Si5 0.551556 0.797851 0.126413
Si Si6 0.331802 0.199141 0.486361
Si Si7 0.714341 0.299515 0.758930
Si Si8 0.831143 0.301383 0.423085
O O1 0.807064 0.271370 0.702960
O O2 0.000000 0.266417 0.500000
O O3 0.882441 0.000000 0.675052
O O4 0.826187 0.259022 0.851828
O O5 0.300884 0.265110 0.824039
O O6 0.372426 0.269463 0.898935
O O7 0.286406 0.000000 0.948280
O O8 0.732312 0.500000 0.250706
O O9 0.664877 0.216788 0.408400
O O10 0.850723 0.233365 0.080715
O O11 0.966595 0.500000 0.941777
O O12 0.054846 0.771371 0.751585
O O13 0.000000 0.760405 0.000000
O O14 0.436106 0.728169 0.295977
O O15 0.541494 0.000000 0.157086
O O16 0.611413 0.775379 0.947707
O O17 0.231355 0.291672 0.585393
O O18 0.319458 0.000000 0.480051
O O19 0.693620 0.500000 0.776502
O O20 0.757539 0.224661 0.603684
O O21 0.845356 0.500000 0.428884
#
# Coordination Sequence:
#
# PCOD9151892 Si02
#       8
#     4   4   4   4   4   4   4   4
#     4   9  19  36  56  79 114 156 192 230 280 333
#     4   9  19  37  57  79 110 147 188 231 276 332
#     4  11  22  36  58  85 114 149 185 230 282 338
#     4   9  17  34  57  76 108 154 184 212 272 340
#     4   9  21  42  62  78 110 153 188 231 288 341
#     4  11  23  39  60  84 108 145 194 239 280 335
#     4  10  21  35  57  86 115 146 187 238 283 331
#     4  10  21  38  57  83 117 151 185 227 284 341
#
# _framework density 21.770022000000001
#
# number of rings (size 3 to 8) (size 9 to 14) (size 15 to 20)
#    0.000    2.250    1.250    1.875    1.750    5.250 
#    0.000    6.875    0.000    0.000    0.000    0.000 
#    0.000    0.000    0.000    0.000    0.000    0.000 
#
# Total GULP energy -178661.566307 kJ/mol
# GULP energy per Si atom -5583.173947 kJ/mol
# Density = 2.172047 g / cm^3
# Si number density = 21.770022 Si / 1000 Ang^3
#
#
#
# Elastic Constant Matrix: (Units=GPa)
#
#
# Indices 1 2 3 4 5 6 
#
# 1 13.4846 -3.4940 3.6337 0.0000 15.4804 0.0000
# 2 -3.4940 25.3326 1.6285 0.0000 -5.9171 0.0000
# 3 3.6337 1.6285 116.6440 0.0000 1.4017 0.0000
# 4 0.0000 0.0000 0.0000 19.8164 0.0000 -1.8040
# 5 15.4804 -5.9171 1.4017 0.0000 39.4642 0.0000
# 6 0.0000 0.0000 0.0000 -1.8040 0.0000 18.4225
#
#
#
# Elastic Compliance Matrix: (Units=1/GPa)
#
#
# Indices 1 2 3 4 5 6 
#
# 1 0.137561 0.006882 -0.003747 0.000000 -0.052795 0.000000
# 2 0.006882 0.041300 -0.000833 0.000000 0.003522 0.000000
# 3 -0.003747 -0.000833 0.008689 0.000000 0.001036 0.000000
# 4 0.000000 0.000000 0.000000 0.050917 0.000000 0.004986
# 5 -0.052795 0.003522 0.001036 0.000000 0.046541 0.000000
# 6 0.000000 0.000000 0.000000 0.004986 0.000000 0.054770
#
#
# Mechanical properties :
#
#
# Convention : Reuss Voigt Hill
#
# Bulk Modulus (GPa) = 5.20415 17.66640 11.43528
# Shear Modulus (GPa) = 12.52425 25.78682 19.15553
#
# Velocity S-wave (km/s) = 2.40114 3.44541 2.96954
# Velocity P-wave (km/s) = 3.17537 4.89494 4.12574
#
# Compressibility (1/GPa) = 0.19215428
#
# Stress axis : x y z
#
# Youngs Moduli (GPa) = 7.26949 24.21285 115.08803
#
# Poissons Ratio (x) = -0.16664 0.43123
# Poissons Ratio (y) = -0.05003 0.09591
# Poissons Ratio (z) = 0.02724 0.02018
#
# Static dielectric constant tensor:
#      x y z
#    x 1.760260 0.000000 0.006130 
#    y 0.000000 1.786710 0.000000 
#    z 0.006130 0.000000 1.828770 
# 
# From -- ./inp_files/72205.got.cif
#   From: 2010.05.17/outbox.cif.g08.bks.cpg/sg10_37_cif.got.tgz:72205.got - 2010.06.03 11:33:40.
