data_PCOD9151541
_publ_section_title
;
Structure prediction by ZEFSAII (Michael W. Deem and Ramdas Pophale) SiO2 
 PCOD9151541
Probable space group: P 2/M
;
_chemical_formula_sum "Si O2"
_cell_formula_units_Z 22
_cell_length_a 6.834724
_cell_length_b 17.622363
_cell_length_c 10.654639
_cell_angle_alpha 90.000000
_cell_angle_beta 43.101694
_cell_angle_gamma 90.000000
_cell_volume 876.864194
_symmetry_space_group_name_H-M "P 2/M"
_symmetry_group_IT_number 10
_symmetry_cell_setting 'monoclinic'
loop_
_space_group_symop_operation_xyz
x,y,z
-x,y,-z
-x,-y,-z
x,-y,z
loop_
_atom_site_type_symbol
_atom_site_label
_atom_site_fract_x
_atom_site_fract_y
_atom_site_fract_z
Si Si1 0.500000 0.000000 0.500000
Si Si2 0.331528 0.256066 0.821332
Si Si3 0.682712 0.376737 0.805580
Si Si4 0.413308 0.917120 0.836527
Si Si5 0.146029 0.272179 0.573137
Si Si6 0.967023 0.109065 0.740906
Si Si7 0.000000 0.500000 0.500000
O O1 0.743564 0.934678 0.415038
O O2 0.494070 0.303189 0.854028
O O3 0.370651 0.164718 0.796157
O O4 0.520207 0.281397 0.614454
O O5 0.000000 0.271004 0.000000
O O6 0.987814 0.343611 0.707419
O O7 0.771323 0.433620 0.654367
O O8 0.500000 0.414348 0.000000
O O9 0.726248 0.912703 0.751787
O O10 0.385518 0.000000 0.780549
O O11 0.181206 0.914313 0.058109
O O12 0.000000 0.263620 0.500000
O O13 0.042111 0.197516 0.694779
#
# Coordination Sequence:
#
# PCOD9151541 Si02
#       7
#     1   4   4   4   4   4   1
#     4  12  24  34  54  90 126 166 242 320 332 388
#     4  11  24  41  64  97 140 180 234 295 340 405
#     4  11  22  45  76 105 138 185 225 270 351 423
#     4  11  21  40  58  83 125 185 232 289 352 410
#     4  10  20  40  62  88 127 173 231 276 339 416
#     4  11  21  37  57  83 121 174 232 285 350 404
#     4  12  22  44  82 116 142 164 236 284 324 442
#
# _framework density 25.089403999999998
#
# number of rings (size 3 to 8) (size 9 to 14) (size 15 to 20)
#    0.000    1.091    8.182    1.909    2.545    0.364 
#    1.636    1.818    0.000    1.091    0.000    0.000 
#    0.000    0.000    0.000    0.000    0.000    0.000 
#
# Total GULP energy -122654.801402 kJ/mol
# GULP energy per Si atom -5575.218246 kJ/mol
# Density = 2.503230 g / cm^3
# Si number density = 25.089404 Si / 1000 Ang^3
#
#
#
# Elastic Constant Matrix: (Units=GPa)
#
#
# Indices 1 2 3 4 5 6 
#
# 1 68.0548 17.6139 48.0283 0.0000 -17.6318 0.0000
# 2 17.6139 137.2387 52.1311 0.0000 -18.1112 0.0000
# 3 48.0283 52.1311 220.8867 0.0000 -36.0541 0.0000
# 4 0.0000 0.0000 0.0000 25.6719 0.0000 -5.6737
# 5 -17.6318 -18.1112 -36.0541 0.0000 54.5344 0.0000
# 6 0.0000 0.0000 0.0000 -5.6737 0.0000 -29.1861
#
#
#
# Elastic Compliance Matrix: (Units=1/GPa)
#
#
# Indices 1 2 3 4 5 6 
#
# 1 0.018022 -0.000637 -0.003197 0.000000 0.003502 0.000000
# 2 -0.000637 0.008150 -0.001543 0.000000 0.001480 0.000000
# 3 -0.003197 -0.001543 0.005979 0.000000 0.002407 0.000000
# 4 0.000000 0.000000 0.000000 0.037348 0.000000 -0.007260
# 5 0.003502 0.001480 0.002407 0.000000 0.021552 0.000000
# 6 0.000000 0.000000 0.000000 -0.007260 0.000000 -0.032852
#
#
# Mechanical properties :
#
#
# Convention : Reuss Voigt Hill
#
# Bulk Modulus (GPa) = 46.73337 73.52521 60.12929
# Shear Modulus (GPa) = 65.71428 30.76450 48.23939
#
# Velocity S-wave (km/s) = 5.12337 3.50551 4.38962
# Velocity P-wave (km/s) = 7.32569 6.76415 7.05051
#
# Compressibility (1/GPa) = 0.02139799
#
# Stress axis : x y z
#
# Youngs Moduli (GPa) = 55.48726 122.70065 167.23977
#
# Poissons Ratio (x) = 0.07811 0.53463
# Poissons Ratio (y) = 0.03532 0.25812
# Poissons Ratio (z) = 0.17738 0.18937
#
# Static dielectric constant tensor:
#      x y z
#    x 2.114660 0.000000 -0.043930 
#    y 0.000000 1.986840 0.000000 
#    z -0.043930 0.000000 1.806370 
# 
# From -- ./inp_files/62280.got.cif
#   From: 2010.05.17/outbox.cif.g08.bks.cpg/sg10_32_cif.got.tgz:62280.got - 2010.06.03 11:33:40.
