data_PCOD9151107
_publ_section_title
;
Structure prediction by ZEFSAII (Michael W. Deem and Ramdas Pophale) SiO2 
 PCOD9151107
Probable space group: P 2/M
;
_chemical_formula_sum "Si O2"
_cell_formula_units_Z 32
_cell_length_a 11.679452
_cell_length_b 13.967905
_cell_length_c 14.506693
_cell_angle_alpha 90.000000
_cell_angle_beta 41.649400
_cell_angle_gamma 90.000000
_cell_volume 1572.763265
_symmetry_space_group_name_H-M "P 2/M"
_symmetry_group_IT_number 10
_symmetry_cell_setting 'monoclinic'
loop_
_space_group_symop_operation_xyz
x,y,z
-x,y,-z
-x,-y,-z
x,-y,z
loop_
_atom_site_type_symbol
_atom_site_label
_atom_site_fract_x
_atom_site_fract_y
_atom_site_fract_z
Si Si1 0.491284 0.607412 0.615275
Si Si2 0.571848 0.741618 0.055770
Si Si3 0.884586 0.319256 0.161118
Si Si4 0.265263 0.608574 0.281980
Si Si5 0.219109 0.744386 0.476698
Si Si6 0.069484 0.673908 0.223830
Si Si7 0.843523 0.895116 0.168399
Si Si8 0.490405 0.109557 0.264540
O O1 0.500000 0.607057 0.500000
O O2 0.518557 0.500000 0.632986
O O3 0.302392 0.643650 0.754228
O O4 0.635969 0.677477 0.564368
O O5 0.460491 0.646521 0.147245
O O6 0.537281 0.820840 0.152583
O O7 0.500000 0.773509 0.000000
O O8 0.773146 0.723231 0.924266
O O9 0.869525 0.207305 0.200670
O O10 0.957404 0.371726 0.208542
O O11 0.000000 0.326378 0.000000
O O12 0.256691 0.500000 0.322329
O O13 0.190983 0.688214 0.396974
O O14 0.163367 0.611758 0.246300
O O15 0.313070 0.845996 0.409904
O O16 0.053366 0.741505 0.641039
O O17 0.655162 0.887912 0.233918
O O18 0.849727 0.000000 0.212719
O O19 0.000000 0.897633 0.000000
O O20 0.467774 0.000000 0.250008
#
# Coordination Sequence:
#
# PCOD9151107 Si02
#       8
#     4   4   4   4   4   4   4   4
#     4  11  23  40  59  84 119 165 206 246 304 367
#     4   9  20  38  60  88 122 157 202 254 312 356
#     4  11  22  38  62  87 126 159 201 256 305 361
#     4  10  23  42  66  92 119 161 212 260 310 363
#     4  11  22  41  63  88 127 162 205 252 310 364
#     4  11  23  38  61  90 124 163 199 257 306 364
#     4   9  17  31  56  87 115 151 198 243 295 354
#     4  10  20  37  63  90 120 161 206 249 303 369
#
# _framework density 20.346356
#
# number of rings (size 3 to 8) (size 9 to 14) (size 15 to 20)
#    0.000    1.750    2.500    2.250    1.750    4.750 
#    0.000    1.250    0.000   15.000    0.000    0.000 
#    0.000    0.000    0.000    0.000    0.000    0.000 
#
# Total GULP energy -178522.522704 kJ/mol
# GULP energy per Si atom -5578.828835 kJ/mol
# Density = 2.030005 g / cm^3
# Si number density = 20.346356 Si / 1000 Ang^3
#
#
#
# Elastic Constant Matrix: (Units=GPa)
#
#
# Indices 1 2 3 4 5 6 
#
# 1 66.0647 3.4716 -6.1558 0.0000 -2.5326 0.0000
# 2 3.4716 60.3094 -11.1360 0.0000 -3.8071 0.0000
# 3 -6.1558 -11.1360 87.1158 0.0000 -18.9093 0.0000
# 4 0.0000 0.0000 0.0000 2.7589 0.0000 7.4969
# 5 -2.5326 -3.8071 -18.9093 0.0000 33.5939 0.0000
# 6 0.0000 0.0000 0.0000 7.4969 0.0000 10.3997
#
#
#
# Elastic Compliance Matrix: (Units=1/GPa)
#
#
# Indices 1 2 3 4 5 6 
#
# 1 0.015370 -0.000499 0.001437 0.000000 0.001911 0.000000
# 2 -0.000499 0.017386 0.002969 0.000000 0.003604 0.000000
# 3 0.001437 0.002969 0.013735 0.000000 0.008176 0.000000
# 4 0.000000 0.000000 0.000000 -0.378012 0.000000 0.272499
# 5 0.001911 0.003604 0.008176 0.000000 0.034922 0.000000
# 6 0.000000 0.000000 0.000000 0.272499 0.000000 -0.100281
#
#
# Mechanical properties :
#
#
# Convention : Reuss Voigt Hill
#
# Bulk Modulus (GPa) = 18.41407 20.64996 19.53201
# Shear Modulus (GPa) = -12.93347 24.50450 5.78552
#
# Velocity S-wave (km/s) = -2.52398 3.47417 1.68810
# Velocity P-wave (km/s) = 0.75896 5.12488 3.66336
#
# Compressibility (1/GPa) = 0.05430630
#
# Stress axis : x y z
#
# Youngs Moduli (GPa) = 65.06156 57.51855 72.80797
#
# Poissons Ratio (x) = 0.02869 -0.10464
# Poissons Ratio (y) = 0.03245 -0.21620
# Poissons Ratio (z) = -0.09350 -0.17080
#
# Static dielectric constant tensor:
#      x y z
#    x 1.765550 0.000000 -0.001870 
#    y 0.000000 1.708120 0.000000 
#    z -0.001870 0.000000 1.736720 
# 
# From -- ./inp_files/65088.got.cif
#   From: 2010.05.17/outbox.cif.g08.bks.cpg/sg10_33_cif.got.tgz:65088.got - 2010.06.03 11:33:40.
