data_PCOD9151261
_publ_section_title
;
Structure prediction by ZEFSAII (Michael W. Deem and Ramdas Pophale) SiO2 
 PCOD9151261
Probable space group: P 2/M
;
_chemical_formula_sum "Si O2"
_cell_formula_units_Z 26
_cell_length_a 14.049806
_cell_length_b 12.269894
_cell_length_c 7.599211
_cell_angle_alpha 90.000000
_cell_angle_beta 114.974238
_cell_angle_gamma 90.000000
_cell_volume 1187.534832
_symmetry_space_group_name_H-M "P 2/M"
_symmetry_group_IT_number 10
_symmetry_cell_setting 'monoclinic'
loop_
_space_group_symop_operation_xyz
x,y,z
-x,y,-z
-x,-y,-z
x,-y,z
loop_
_atom_site_type_symbol
_atom_site_label
_atom_site_fract_x
_atom_site_fract_y
_atom_site_fract_z
Si Si1 0.414639 0.264683 0.681481
Si Si2 0.166797 0.876358 0.826754
Si Si3 0.734275 0.500000 0.942747
Si Si4 0.771753 0.123467 0.538040
Si Si5 0.615755 0.500000 0.499559
Si Si6 0.980024 0.500000 0.193505
Si Si7 0.969733 0.735030 0.772341
Si Si8 0.642903 0.265570 0.954036
O O1 0.341732 0.177651 0.527511
O O2 0.381968 0.387600 0.605790
O O3 0.539242 0.250068 0.755894
O O4 0.390750 0.249878 0.869839
O O5 0.202665 0.880830 0.651476
O O6 0.059908 0.808278 0.754803
O O7 0.150777 0.000000 0.876489
O O8 0.259257 0.814055 0.003118
O O9 0.710623 0.500000 0.714685
O O10 0.680053 0.389724 0.964679
O O11 0.853614 0.500000 0.102409
O O12 0.859471 0.204683 0.678275
O O13 0.778888 0.000000 0.611277
O O14 0.500000 0.500000 0.500000
O O15 0.027780 0.612566 0.302052
O O16 0.000000 0.500000 0.000000
O O17 0.000000 0.726599 0.000000
#
# Coordination Sequence:
#
# PCOD9151261 Si02
#       8
#     4   4   2   4   2   2   4   4
#     4  10  22  38  60  89 124 154 199 241 294 350
#     4  10  21  39  62  87 116 156 202 247 294 348
#     4  12  21  38  62  83 124 154 201 237 302 352
#     4  10  23  41  62  86 120 159 198 246 295 346
#     4  12  23  35  59  90 115 159 193 236 296 356
#     4  10  24  39  57  88 119 156 188 246 298 350
#     4  11  23  40  62  87 119 156 197 244 300 357
#     4  10  20  38  61  89 118 158 197 246 289 351
#
# _framework density 21.894096000000001
#
# number of rings (size 3 to 8) (size 9 to 14) (size 15 to 20)
#    0.000    1.538    3.077    1.385    4.308    4.308 
#    0.000    5.385    0.000    0.462    0.000    0.000 
#    0.000    0.000    0.000    0.000    0.000    0.000 
#
# Total GULP energy -145379.241663 kJ/mol
# GULP energy per Si atom -5591.509295 kJ/mol
# Density = 2.184426 g / cm^3
# Si number density = 21.894096 Si / 1000 Ang^3
#
#
#
# Elastic Constant Matrix: (Units=GPa)
#
#
# Indices 1 2 3 4 5 6 
#
# 1 69.6837 49.3042 9.7546 0.0000 23.6514 0.0000
# 2 49.3042 196.0874 44.0056 0.0000 41.4882 0.0000
# 3 9.7546 44.0056 68.5965 0.0000 29.0567 0.0000
# 4 0.0000 0.0000 0.0000 23.1626 0.0000 28.0698
# 5 23.6514 41.4882 29.0567 0.0000 41.5236 0.0000
# 6 0.0000 0.0000 0.0000 28.0698 0.0000 20.7961
#
#
#
# Elastic Compliance Matrix: (Units=1/GPa)
#
#
# Indices 1 2 3 4 5 6 
#
# 1 0.019956 -0.003696 0.003957 0.000000 -0.010442 0.000000
# 2 -0.003696 0.007352 -0.002801 0.000000 -0.003280 0.000000
# 3 0.003957 -0.002801 0.022146 0.000000 -0.014951 0.000000
# 4 0.000000 0.000000 0.000000 -0.067911 0.000000 0.091664
# 5 -0.010442 -0.003280 -0.014951 0.000000 0.043770 0.000000
# 6 0.000000 0.000000 0.000000 0.091664 0.000000 -0.075639
#
#
# Mechanical properties :
#
#
# Convention : Reuss Voigt Hill
#
# Bulk Modulus (GPa) = 22.53684 60.05517 41.29600
# Shear Modulus (GPa) = -164.18109 32.51667 -65.83221
#
# Velocity S-wave (km/s) = -8.66900 3.85798 -5.48942
# Velocity P-wave (km/s) = 9.48083 6.88003 4.61256
#
# Compressibility (1/GPa) = 0.04437179
#
# Stress axis : x y z
#
# Youngs Moduli (GPa) = 50.10959 136.02105 45.15546
#
# Poissons Ratio (x) = 0.50278 -0.17867
# Poissons Ratio (y) = 0.18522 0.12650
# Poissons Ratio (z) = -0.19827 0.38104
#
# Static dielectric constant tensor:
#      x y z
#    x 1.819270 0.000000 -0.071270 
#    y 0.000000 1.781750 0.000000 
#    z -0.071270 0.000000 1.954610 
# 
# From -- ./inp_files/28459.got.cif
#   From: 2010.05.17/outbox.cif.g08.bks.cpg/sg10_15_cif.got.tgz:28459.got - 2010.06.03 11:33:40.
