data_PCOD9151872
_publ_section_title
;
Structure prediction by ZEFSAII (Michael W. Deem and Ramdas Pophale) SiO2 
 PCOD9151872
Probable space group: P 2/M
;
_chemical_formula_sum "Si O2"
_cell_formula_units_Z 30
_cell_length_a 15.696208
_cell_length_b 19.579079
_cell_length_c 15.293911
_cell_angle_alpha 90.000000
_cell_angle_beta 18.217101
_cell_angle_gamma 90.000000
_cell_volume 1469.332742
_symmetry_space_group_name_H-M "P 2/M"
_symmetry_group_IT_number 10
_symmetry_cell_setting 'monoclinic'
loop_
_space_group_symop_operation_xyz
x,y,z
-x,y,-z
-x,-y,-z
x,-y,z
loop_
_atom_site_type_symbol
_atom_site_label
_atom_site_fract_x
_atom_site_fract_y
_atom_site_fract_z
Si Si1 0.793042 0.707600 0.378909
Si Si2 0.226207 0.578234 0.210489
Si Si3 0.000000 0.708978 0.000000
Si Si4 0.221300 0.805033 0.222171
Si Si5 0.152962 0.077161 0.495550
Si Si6 0.318521 0.076553 0.914963
Si Si7 0.322856 0.306413 0.975973
Si Si8 0.422994 0.181426 0.665606
O O1 0.577841 0.682900 0.662172
O O2 0.678212 0.780954 0.461315
O O3 0.850413 0.671990 0.227882
O O4 0.073739 0.710375 0.155736
O O5 0.162066 0.500000 0.246629
O O6 0.000000 0.601616 0.500000
O O7 0.500000 0.578241 0.000000
O O8 0.262452 0.627023 0.092710
O O9 0.779227 0.758032 0.168056
O O10 0.000000 0.765747 0.500000
O O11 0.024087 0.867146 0.383863
O O12 0.500000 0.826483 0.000000
O O13 0.327081 0.756185 0.040977
O O14 0.459311 0.095670 0.226198
O O15 0.156240 0.000000 0.453121
O O16 0.978423 0.073463 0.754082
O O17 0.313593 0.129608 0.842339
O O18 0.397958 0.000000 0.809592
O O19 0.500000 0.145481 0.500000
#
# Coordination Sequence:
#
# PCOD9151872 Si02
#       8
#     4   4   2   4   4   4   4   4
#     4  11  22  37  59  86 119 154 195 238 291 346
#     4  10  21  39  62  91 131 170 202 240 287 342
#     4  10  22  40  55  90 117 154 186 240 306 352
#     4  12  24  37  55  83 115 146 191 247 294 343
#     4  10  22  39  56  74 102 146 194 238 289 348
#     4  10  21  37  55  76 102 139 187 237 290 354
#     4  12  22  37  61  90 120 159 196 241 291 348
#     4  10  21  35  56  79 115 146 184 234 300 363
#
# _framework density 20.417431000000001
#
# number of rings (size 3 to 8) (size 9 to 14) (size 15 to 20)
#    0.000    1.333    1.333    4.800    3.733    0.800 
#    0.000    0.333    0.000    0.000    0.000    2.800 
#    0.000    0.000    0.000    0.000    0.000    0.000 
#
# Total GULP energy -167392.709079 kJ/mol
# GULP energy per Si atom -5579.756969 kJ/mol
# Density = 2.037096 g / cm^3
# Si number density = 20.417431 Si / 1000 Ang^3
#
#
#
# Elastic Constant Matrix: (Units=GPa)
#
#
# Indices 1 2 3 4 5 6 
#
# 1 102.2590 35.9522 20.1505 0.0000 21.4424 0.0000
# 2 35.9522 69.4981 -4.3727 0.0000 16.1690 0.0000
# 3 20.1505 -4.3727 102.7198 0.0000 19.1012 0.0000
# 4 0.0000 0.0000 0.0000 18.5538 0.0000 9.9020
# 5 21.4424 16.1690 19.1012 0.0000 50.0431 0.0000
# 6 0.0000 0.0000 0.0000 9.9020 0.0000 39.2313
#
#
#
# Elastic Compliance Matrix: (Units=1/GPa)
#
#
# Indices 1 2 3 4 5 6 
#
# 1 0.012991 -0.006247 -0.002319 0.000000 -0.002663 0.000000
# 2 -0.006247 0.018849 0.002866 0.000000 -0.004508 0.000000
# 3 -0.002319 0.002866 0.011086 0.000000 -0.004164 0.000000
# 4 0.000000 0.000000 0.000000 0.062288 0.000000 -0.015721
# 5 -0.002663 -0.004508 -0.004164 0.000000 0.024169 0.000000
# 6 0.000000 0.000000 0.000000 -0.015721 0.000000 0.029458
#
#
# Mechanical properties :
#
#
# Convention : Reuss Voigt Hill
#
# Bulk Modulus (GPa) = 31.71887 41.99299 36.85593
# Shear Modulus (GPa) = 27.66254 36.41545 32.03899
#
# Velocity S-wave (km/s) = 3.68482 4.22779 3.96561
# Velocity P-wave (km/s) = 5.80283 6.66664 6.24968
#
# Compressibility (1/GPa) = 0.03152698
#
# Stress axis : x y z
#
# Youngs Moduli (GPa) = 76.97872 53.05214 90.20003
#
# Poissons Ratio (x) = 0.33140 0.20919
# Poissons Ratio (y) = 0.48086 -0.25851
# Poissons Ratio (z) = 0.17852 -0.15205
#
# Static dielectric constant tensor:
#      x y z
#    x 1.776680 0.000000 0.069740 
#    y 0.000000 1.743850 0.000000 
#    z 0.069740 0.000000 1.798670 
# 
# From -- ./inp_files/67851.got.cif
#   From: 2010.05.17/outbox.cif.g08.bks.cpg/sg10_34_cif.got.tgz:67851.got - 2010.06.03 11:33:40.
