data_PCOD9151906
_publ_section_title
;
Structure prediction by ZEFSAII (Michael W. Deem and Ramdas Pophale) SiO2 
 PCOD9151906
Probable space group: P 2/M
;
_chemical_formula_sum "Si O2"
_cell_formula_units_Z 32
_cell_length_a 12.285006
_cell_length_b 9.823469
_cell_length_c 11.951508
_cell_angle_alpha 90.000000
_cell_angle_beta 91.519041
_cell_angle_gamma 90.000000
_cell_volume 1441.817551
_symmetry_space_group_name_H-M "P 2/M"
_symmetry_group_IT_number 10
_symmetry_cell_setting 'monoclinic'
loop_
_space_group_symop_operation_xyz
x,y,z
-x,y,-z
-x,-y,-z
x,-y,z
loop_
_atom_site_type_symbol
_atom_site_label
_atom_site_fract_x
_atom_site_fract_y
_atom_site_fract_z
Si Si1 0.870037 0.655800 0.602394
Si Si2 0.249365 0.146391 0.036008
Si Si3 0.130409 0.656966 0.875675
Si Si4 0.942982 0.843692 0.796511
Si Si5 0.616429 0.647270 0.660824
Si Si6 0.775768 0.655446 0.371572
Si Si7 0.571791 0.160428 0.328522
Si Si8 0.463413 0.737227 0.115410
O O1 0.907699 0.500000 0.626682
O O2 0.929153 0.766585 0.678934
O O3 0.741719 0.662861 0.632667
O O4 0.865823 0.679450 0.469546
O O5 0.217775 0.273049 0.958546
O O6 0.225721 0.000000 0.979857
O O7 0.172289 0.154452 0.142648
O O8 0.374089 0.153455 0.075402
O O9 0.108324 0.500000 0.904491
O O10 0.175163 0.661350 0.750444
O O11 0.024937 0.753037 0.871722
O O12 0.979908 0.000000 0.786143
O O13 0.578259 0.500000 0.617582
O O14 0.537926 0.770965 0.624726
O O15 0.599865 0.647233 0.795021
O O16 0.735575 0.500000 0.388383
O O17 0.676866 0.760707 0.376034
O O18 0.557964 0.196799 0.194879
O O19 0.576530 0.000000 0.345237
O O20 0.500000 0.671457 0.000000
#
# Coordination Sequence:
#
# PCOD9151906 Si02
#       8
#     4   4   4   4   4   4   4   4
#     4  10  21  41  67  89 118 162 208 252 302 363
#     4  11  23  41  63  90 127 164 200 245 303 367
#     4  11  25  42  62  91 123 157 204 257 308 365
#     4  11  23  42  66  92 123 158 199 251 309 369
#     4   9  20  37  57  84 118 156 199 243 294 354
#     4  10  23  42  62  88 122 161 205 258 309 352
#     4  10  21  37  58  85 120 160 203 246 296 359
#     4  10  21  35  58  89 122 159 199 242 294 355
#
# _framework density 22.194210999999999
#
# number of rings (size 3 to 8) (size 9 to 14) (size 15 to 20)
#    0.750    1.000    1.250    2.625    0.000    8.250 
#    0.000    5.000    0.000    0.000    0.000    0.000 
#    0.000    0.000    0.000    0.000    0.000    0.000 
#
# Total GULP energy -178712.211546 kJ/mol
# GULP energy per Si atom -5584.756611 kJ/mol
# Density = 2.214370 g / cm^3
# Si number density = 22.194211 Si / 1000 Ang^3
#
#
#
# Elastic Constant Matrix: (Units=GPa)
#
#
# Indices 1 2 3 4 5 6 
#
# 1 43.3206 29.2896 8.0925 0.0000 7.3686 0.0000
# 2 29.2896 166.6578 43.4458 0.0000 23.0858 0.0000
# 3 8.0925 43.4458 100.4835 0.0000 5.8340 0.0000
# 4 0.0000 0.0000 0.0000 4.6931 0.0000 3.9823
# 5 7.3686 23.0858 5.8340 0.0000 38.4247 0.0000
# 6 0.0000 0.0000 0.0000 3.9823 0.0000 20.6851
#
#
#
# Elastic Compliance Matrix: (Units=1/GPa)
#
#
# Indices 1 2 3 4 5 6 
#
# 1 0.026414 -0.004261 -0.000141 0.000000 -0.002484 0.000000
# 2 -0.004261 0.007999 -0.002909 0.000000 -0.003547 0.000000
# 3 -0.000141 -0.002909 0.011217 0.000000 0.000072 0.000000
# 4 0.000000 0.000000 0.000000 0.254686 0.000000 -0.049032
# 5 -0.002484 -0.003547 0.000072 0.000000 0.028621 0.000000
# 6 0.000000 0.000000 0.000000 -0.049032 0.000000 0.057784
#
#
# Mechanical properties :
#
#
# Convention : Reuss Voigt Hill
#
# Bulk Modulus (GPa) = 32.25088 52.45750 42.35419
# Shear Modulus (GPa) = 12.14538 28.06951 20.10744
#
# Velocity S-wave (km/s) = 2.34184 3.56015 3.01321
# Velocity P-wave (km/s) = 4.67707 6.37076 5.58845
#
# Compressibility (1/GPa) = 0.03100690
#
# Stress axis : x y z
#
# Youngs Moduli (GPa) = 37.85922 125.01517 89.15080
#
# Poissons Ratio (x) = 0.53274 0.01253
# Poissons Ratio (y) = 0.16133 0.25937
# Poissons Ratio (z) = 0.00532 0.36372
#
# Static dielectric constant tensor:
#      x y z
#    x 1.823200 0.000000 -0.028000 
#    y 0.000000 1.778350 0.000000 
#    z -0.028000 0.000000 1.852820 
# 
# From -- ./inp_files/49855.got.cif
#   From: 2010.05.17/outbox.cif.g08.bks.cpg/sg10_25_cif.got.tgz:49855.got - 2010.06.03 11:33:40.
