data_PCOD9151544
_publ_section_title
;
Structure prediction by ZEFSAII (Michael W. Deem and Ramdas Pophale) SiO2 
 PCOD9151544
Probable space group: P 2/M
;
_chemical_formula_sum "Si O2"
_cell_formula_units_Z 28
_cell_length_a 9.148669
_cell_length_b 9.336686
_cell_length_c 25.249139
_cell_angle_alpha 90.000000
_cell_angle_beta 38.950771
_cell_angle_gamma 90.000000
_cell_volume 1355.838118
_symmetry_space_group_name_H-M "P 2/M"
_symmetry_group_IT_number 10
_symmetry_cell_setting 'monoclinic'
loop_
_space_group_symop_operation_xyz
x,y,z
-x,y,-z
-x,-y,-z
x,-y,z
loop_
_atom_site_type_symbol
_atom_site_label
_atom_site_fract_x
_atom_site_fract_y
_atom_site_fract_z
Si Si1 0.427422 0.163314 0.958431
Si Si2 0.885693 0.668778 0.805167
Si Si3 0.491319 0.834496 0.759560
Si Si4 0.719894 0.167366 0.580696
Si Si5 0.973874 0.330885 0.112001
Si Si6 0.028414 0.833874 0.319313
Si Si7 0.703218 0.338682 0.485703
O O1 0.629475 0.261356 0.877617
O O2 0.424360 0.000000 0.938435
O O3 0.500000 0.154438 0.000000
O O4 0.178977 0.240902 0.026446
O O5 0.875525 0.500000 0.797369
O O6 0.021341 0.749412 0.720518
O O7 0.990418 0.689176 0.834411
O O8 0.607648 0.804080 0.669436
O O9 0.277483 0.730990 0.831138
O O10 0.699509 0.824003 0.742762
O O11 0.408862 0.000000 0.781619
O O12 0.621011 0.270384 0.563643
O O13 0.000000 0.188033 0.500000
O O14 0.677611 0.000000 0.580000
O O15 0.996326 0.500000 0.094623
O O16 0.895144 0.763027 0.405679
O O17 0.965483 0.000000 0.332015
O O18 0.500000 0.343342 0.500000
O O19 0.791609 0.500000 0.469182
#
# Coordination Sequence:
#
# PCOD9151544 Si02
#       7
#     4   4   4   4   4   4   4
#     4   9  17  33  58  86 115 150 193 234 279 335
#     4  10  21  37  58  87 121 152 187 234 287 340
#     4  10  22  39  59  84 115 149 192 241 283 335
#     4  10  20  40  63  84 111 149 195 238 283 338
#     4  10  21  36  58  87 119 152 188 233 286 340
#     4  11  23  41  61  83 114 153 194 236 287 339
#     4  11  25  41  58  85 119 150 188 238 289 342
#
# _framework density 20.651430999999999
#
# number of rings (size 3 to 8) (size 9 to 14) (size 15 to 20)
#    0.000    1.857    1.429    2.143    2.000    6.571 
#    0.000    0.714    0.000    4.286    0.000    0.000 
#    0.000    0.000    0.000    0.000    0.000    0.000 
#
# Total GULP energy -156482.903899 kJ/mol
# GULP energy per Si atom -5588.675139 kJ/mol
# Density = 2.060443 g / cm^3
# Si number density = 20.651431 Si / 1000 Ang^3
#
#
#
# Elastic Constant Matrix: (Units=GPa)
#
#
# Indices 1 2 3 4 5 6 
#
# 1 23.7123 30.2753 -1.4931 0.0000 1.1244 0.0000
# 2 30.2753 100.2053 14.7624 0.0000 -5.7475 0.0000
# 3 -1.4931 14.7624 31.3457 0.0000 -9.8163 0.0000
# 4 0.0000 0.0000 0.0000-1061.1532 0.0000 2768.8765
# 5 1.1244 -5.7475 -9.8163 0.0000 32.6505 0.0000
# 6 0.0000 0.0000 0.0000 2768.8765 0.0000-7298.6035
#
#
#
# Elastic Compliance Matrix: (Units=1/GPa)
#
#
# Indices 1 2 3 4 5 6 
#
# 1 0.075107 -0.024982 0.014523 0.000000 -0.002618 0.000000
# 2 -0.024982 0.019038 -0.009756 0.000000 0.001279 0.000000
# 3 0.014523 -0.009756 0.040287 0.000000 0.009895 0.000000
# 4 0.000000 0.000000 0.000000 -0.093262 0.000000 -0.035381
# 5 -0.002618 0.001279 0.009895 0.000000 0.033918 0.000000
# 6 0.000000 0.000000 0.000000 -0.035381 0.000000 -0.013560
#
#
# Mechanical properties :
#
#
# Convention : Reuss Voigt Hill
#
# Bulk Modulus (GPa) = 10.63791 26.92806 18.78298
# Shear Modulus (GPa) = 37.51182 -1657.97333 -810.23075
#
# Velocity S-wave (km/s) = 4.26658 -28.36512 -19.82897
# Velocity P-wave (km/s) = 5.42531 32.55312 22.69660
#
# Compressibility (1/GPa) = 0.09400343
#
# Stress axis : x y z
#
# Youngs Moduli (GPa) = 13.31433 52.52674 24.82173
#
# Poissons Ratio (x) = 1.31222 -0.36049
# Poissons Ratio (y) = 0.33262 0.24215
# Poissons Ratio (z) = -0.19337 0.51243
#
# Static dielectric constant tensor:
#      x y z
#    x 1.743040 0.000000 0.004120 
#    y 0.000000 1.701190 0.000000 
#    z 0.004120 0.000000 1.727340 
# 
# From -- ./inp_files/36919.got.cif
#   From: 2010.05.17/outbox.cif.g08.bks.cpg/sg10_19_cif.got.tgz:36919.got - 2010.06.03 11:33:40.
