data_PCOD9151585
_publ_section_title
;
Structure prediction by ZEFSAII (Michael W. Deem and Ramdas Pophale) SiO2 
 PCOD9151585
Probable space group: P 2/M
;
_chemical_formula_sum "Si O2"
_cell_formula_units_Z 28
_cell_length_a 16.926994
_cell_length_b 15.398324
_cell_length_c 9.526215
_cell_angle_alpha 90.000000
_cell_angle_beta 32.766691
_cell_angle_gamma 90.000000
_cell_volume 1343.838476
_symmetry_space_group_name_H-M "P 2/M"
_symmetry_group_IT_number 10
_symmetry_cell_setting 'monoclinic'
loop_
_space_group_symop_operation_xyz
x,y,z
-x,y,-z
-x,-y,-z
x,-y,z
loop_
_atom_site_type_symbol
_atom_site_label
_atom_site_fract_x
_atom_site_fract_y
_atom_site_fract_z
Si Si1 0.452914 0.595375 0.907133
Si Si2 0.968170 0.097628 0.383080
Si Si3 0.887513 0.270053 0.906139
Si Si4 0.171613 0.404280 0.771870
Si Si5 0.793330 0.340063 0.587615
Si Si6 0.643495 0.154409 0.870152
Si Si7 0.581679 0.246316 0.231267
O O1 0.496032 0.500000 0.794985
O O2 0.277628 0.600298 0.188597
O O3 0.500000 0.606829 0.000000
O O4 0.489427 0.671619 0.744151
O O5 0.792458 0.100959 0.631199
O O6 0.000000 0.118046 0.500000
O O7 0.050400 0.171712 0.170249
O O8 0.020009 0.000000 0.276036
O O9 0.036093 0.320732 0.644344
O O10 0.819189 0.322053 0.139429
O O11 0.752787 0.265778 0.002000
O O12 0.217555 0.500000 0.756846
O O13 0.230803 0.382175 0.529282
O O14 0.000000 0.410889 0.000000
O O15 0.702136 0.249961 0.733980
O O16 0.500000 0.127485 0.000000
O O17 0.588321 0.167034 0.112152
O O18 0.500000 0.230527 0.500000
#
# Coordination Sequence:
#
# PCOD9151585 Si02
#       7
#     4   4   4   4   4   4   4
#     4  10  22  38  55  77 114 161 208 257 304 358
#     4  10  20  40  68  93 121 157 199 255 316 375
#     4  10  21  35  59  88 119 154 200 250 310 362
#     4   9  18  32  52  83 119 159 200 243 299 357
#     4   9  18  34  58  83 114 157 210 251 297 354
#     4  10  21  37  62  91 118 159 208 248 300 366
#     4  11  23  37  56  84 119 157 203 247 308 370
#
# _framework density 20.835836
#
# number of rings (size 3 to 8) (size 9 to 14) (size 15 to 20)
#    0.000    2.143    1.429    2.143    4.000    1.714 
#    0.000    0.714    0.000   12.429    0.000    0.000 
#    0.000    0.000    0.000    0.000    0.000    0.000 
#
# Total GULP energy -156026.629250 kJ/mol
# GULP energy per Si atom -5572.379616 kJ/mol
# Density = 2.078841 g / cm^3
# Si number density = 20.835836 Si / 1000 Ang^3
#
#
#
# Elastic Constant Matrix: (Units=GPa)
#
#
# Indices 1 2 3 4 5 6 
#
# 1 95.7338 15.4132 32.9096 0.0000 -16.0238 0.0000
# 2 15.4132 103.9418 26.3061 0.0000 11.6217 0.0000
# 3 32.9096 26.3061 121.0952 0.0000 1.1710 0.0000
# 4 0.0000 0.0000 0.0000 -13.4343 0.0000 -0.0172
# 5 -16.0238 11.6217 1.1710 0.0000 42.3910 0.0000
# 6 0.0000 0.0000 0.0000 -0.0172 0.0000 12.7571
#
#
#
# Elastic Compliance Matrix: (Units=1/GPa)
#
#
# Indices 1 2 3 4 5 6 
#
# 1 0.012689 -0.001686 -0.003134 0.000000 0.005345 0.000000
# 2 -0.001686 0.010731 -0.001839 0.000000 -0.003528 0.000000
# 3 -0.003134 -0.001839 0.009518 0.000000 -0.000943 0.000000
# 4 0.000000 0.000000 0.000000 -0.074436 0.000000 -0.000100
# 5 0.005345 -0.003528 -0.000943 0.000000 0.026604 0.000000
# 6 0.000000 0.000000 0.000000 -0.000100 0.000000 0.078387
#
#
# Mechanical properties :
#
#
# Convention : Reuss Voigt Hill
#
# Bulk Modulus (GPa) = 50.96711 52.22541 51.59626
# Shear Modulus (GPa) = 59.98730 24.75222 42.36976
#
# Velocity S-wave (km/s) = 5.37149 3.45042 4.51433
# Velocity P-wave (km/s) = 7.93631 6.40262 7.21036
#
# Compressibility (1/GPa) = 0.01962049
#
# Stress axis : x y z
#
# Youngs Moduli (GPa) = 78.80779 93.19089 105.06181
#
# Poissons Ratio (x) = 0.15713 0.32925
# Poissons Ratio (y) = 0.13288 0.19318
# Poissons Ratio (z) = 0.24697 0.17135
#
# Static dielectric constant tensor:
#      x y z
#    x 1.788990 0.000000 -0.030880 
#    y 0.000000 1.781600 0.000000 
#    z -0.030880 0.000000 1.826330 
# 
# From -- ./inp_files/30109.got.cif
#   From: 2010.05.17/outbox.cif.g08.bks.cpg/sg10_16_cif.got.tgz:30109.got - 2010.06.03 11:33:40.
