data_PCOD9151748
_publ_section_title
;
Structure prediction by ZEFSAII (Michael W. Deem and Ramdas Pophale) SiO2 
 PCOD9151748
Probable space group: P 2/M
;
_chemical_formula_sum "Si O2"
_cell_formula_units_Z 26
_cell_length_a 9.865990
_cell_length_b 11.291556
_cell_length_c 23.519700
_cell_angle_alpha 90.000000
_cell_angle_beta 151.036419
_cell_angle_gamma 90.000000
_cell_volume 1268.817288
_symmetry_space_group_name_H-M "P 2/M"
_symmetry_group_IT_number 10
_symmetry_cell_setting 'monoclinic'
loop_
_space_group_symop_operation_xyz
x,y,z
-x,y,-z
-x,-y,-z
x,-y,z
loop_
_atom_site_type_symbol
_atom_site_label
_atom_site_fract_x
_atom_site_fract_y
_atom_site_fract_z
Si Si1 0.729650 0.763094 0.765735
Si Si2 0.165245 0.860500 0.003978
Si Si3 0.814801 0.140507 0.377581
Si Si4 0.730211 0.500000 0.263659
Si Si5 0.326883 0.749532 0.383685
Si Si6 0.520540 0.500000 0.703178
Si Si7 0.245035 0.751741 0.762644
Si Si8 0.368207 0.500000 0.525533
O O1 0.501804 0.827140 0.722080
O O2 0.660986 0.799934 0.675714
O O3 0.691383 0.621903 0.759039
O O4 0.030096 0.800025 0.899326
O O5 0.114975 0.000000 0.981483
O O6 0.494244 0.836158 0.129997
O O7 0.000000 0.817101 0.000000
O O8 0.885361 0.211836 0.346508
O O9 0.000000 0.175996 0.500000
O O10 0.846184 0.000000 0.379820
O O11 0.629754 0.500000 0.291672
O O12 0.633580 0.619962 0.198990
O O13 0.068394 0.500000 0.385819
O O14 0.500000 0.805455 0.500000
O O15 0.455442 0.617188 0.424085
O O16 0.004462 0.751104 0.284097
O O17 0.315123 0.500000 0.573679
#
# Coordination Sequence:
#
# PCOD9151748 Si02
#       8
#     4   4   4   2   4   2   4   2
#     4  11  23  41  66  95 132 176 215 269 332 391
#     4  11  23  45  71  91 123 175 231 278 322 382
#     4  11  23  40  62  91 125 168 225 279 325 378
#     4  12  20  35  64 102 136 168 217 269 327 401
#     4  11  22  40  61  97 139 173 211 257 326 405
#     4  10  21  34  61 105 134 161 219 277 324 389
#     4  12  24  38  66  98 129 173 218 270 325 387
#     4  10  21  36  62  93 140 186 204 244 336 414
#
# _framework density 20.491523999999998
#
# number of rings (size 3 to 8) (size 9 to 14) (size 15 to 20)
#    0.000    0.923    4.615    2.769    2.154    1.231 
#    0.000    5.385    0.000    9.231    0.000    0.000 
#    0.000    0.000    0.000    0.000    0.000    0.000 
#
# Total GULP energy -145308.323487 kJ/mol
# GULP energy per Si atom -5588.781673 kJ/mol
# Density = 2.044488 g / cm^3
# Si number density = 20.491524 Si / 1000 Ang^3
#
#
#
# Elastic Constant Matrix: (Units=GPa)
#
#
# Indices 1 2 3 4 5 6 
#
# 1 95.9324 -2.1064 5.5027 0.0000 7.1127 0.0000
# 2 -2.1064 49.2818 0.9275 0.0000 -7.0914 0.0000
# 3 5.5027 0.9275 72.2080 0.0000 -7.1026 0.0000
# 4 0.0000 0.0000 0.0000 23.4551 0.0000 -0.6245
# 5 7.1127 -7.0914 -7.1026 0.0000 28.1022 0.0000
# 6 0.0000 0.0000 0.0000 -0.6245 0.0000 11.5220
#
#
#
# Elastic Compliance Matrix: (Units=1/GPa)
#
#
# Indices 1 2 3 4 5 6 
#
# 1 0.010710 0.000050 -0.001110 0.000000 -0.002978 0.000000
# 2 0.000050 0.021061 0.000253 0.000000 0.005366 0.000000
# 3 -0.001110 0.000253 0.014320 0.000000 0.003964 0.000000
# 4 0.000000 0.000000 0.000000 0.042696 0.000000 0.002314
# 5 -0.002978 0.005366 0.003964 0.000000 0.038694 0.000000
# 6 0.000000 0.000000 0.000000 0.002314 0.000000 0.086916
#
#
# Mechanical properties :
#
#
# Convention : Reuss Voigt Hill
#
# Bulk Modulus (GPa) = 22.48292 25.11888 23.80090
# Shear Modulus (GPa) = 21.66047 26.82244 24.24145
#
# Velocity S-wave (km/s) = 3.25475 3.62187 3.44321
# Velocity P-wave (km/s) = 5.01200 5.45668 5.23906
#
# Compressibility (1/GPa) = 0.04447821
#
# Stress axis : x y z
#
# Youngs Moduli (GPa) = 93.37420 47.48119 69.83184
#
# Poissons Ratio (x) = -0.00238 0.07750
# Poissons Ratio (y) = -0.00467 -0.01770
# Poissons Ratio (z) = 0.10362 -0.01204
#
# Static dielectric constant tensor:
#      x y z
#    x 1.736240 0.000000 -0.019880 
#    y 0.000000 1.725800 0.000000 
#    z -0.019880 0.000000 1.738860 
# 
# From -- ./inp_files/88154.got.cif
#   From: 2010.05.17/outbox.cif.g08.bks.cpg/sg10_45_cif.got.tgz:88154.got - 2010.06.03 11:33:40.
