data_PCOD9151207
_publ_section_title
;
Structure prediction by ZEFSAII (Michael W. Deem and Ramdas Pophale) SiO2 
 PCOD9151207
Probable space group: P 2/M
;
_chemical_formula_sum "Si O2"
_cell_formula_units_Z 14
_cell_length_a 5.072823
_cell_length_b 8.431957
_cell_length_c 14.503488
_cell_angle_alpha 90.000000
_cell_angle_beta 106.335017
_cell_angle_gamma 90.000000
_cell_volume 595.327561
_symmetry_space_group_name_H-M "P 2/M"
_symmetry_group_IT_number 10
_symmetry_cell_setting 'monoclinic'
loop_
_space_group_symop_operation_xyz
x,y,z
-x,y,-z
-x,-y,-z
x,-y,z
loop_
_atom_site_type_symbol
_atom_site_label
_atom_site_fract_x
_atom_site_fract_y
_atom_site_fract_z
Si Si1 0.027692 0.000000 0.846636
Si Si2 0.746943 0.329507 0.305867
Si Si3 0.198027 0.500000 0.429649
Si Si4 0.231252 0.674607 0.910026
Si Si5 0.572009 0.000000 0.289814
O O1 0.744443 0.000000 0.765278
O O2 0.057016 0.835066 0.904254
O O3 0.262280 0.000000 0.791094
O O4 0.618099 0.500000 0.321718
O O5 0.695000 0.323532 0.191483
O O6 0.072566 0.353441 0.358085
O O7 0.650018 0.167868 0.342518
O O8 0.500000 0.500000 0.500000
O O9 0.000000 0.500000 0.500000
O O10 0.099427 0.500000 0.912381
O O11 0.500000 0.684451 0.000000
#
# Coordination Sequence:
#
# PCOD9151207 Si02
#       5
#     2   4   2   4   2
#     4  10  21  34  56  85 122 156 196 231 282 336
#     4   8  19  38  59  86 119 152 193 238 290 342
#     4  10  22  40  63  86 113 150 192 242 300 348
#     4   9  17  34  59  88 121 158 196 235 285 344
#     4  10  20  38  59  87 114 156 194 237 287 344
#
# _framework density 23.516466000000001
#
# number of rings (size 3 to 8) (size 9 to 14) (size 15 to 20)
#    0.857    2.000    0.000    0.429    0.000    5.714 
#    0.000   12.857    0.000   15.429    0.000    0.000 
#    0.000    0.000    0.000    0.000    0.000    0.000 
#
# Total GULP energy -77959.717001 kJ/mol
# GULP energy per Si atom -5568.551214 kJ/mol
# Density = 2.346294 g / cm^3
# Si number density = 23.516466 Si / 1000 Ang^3
#
#
#
# Elastic Constant Matrix: (Units=GPa)
#
#
# Indices 1 2 3 4 5 6 
#
# 1 95.1956 -9.8065 14.4943 0.0000 62.1888 0.0000
# 2 -9.8065 287.2942 30.0652 0.0000 34.9094 0.0000
# 3 14.4943 30.0652 150.8099 0.0000 29.0784 0.0000
# 4 0.0000 0.0000 0.0000 31.7546 0.0000 46.8785
# 5 62.1888 34.9094 29.0784 0.0000 96.1192 0.0000
# 6 0.0000 0.0000 0.0000 46.8785 0.0000 23.5788
#
#
#
# Elastic Compliance Matrix: (Units=1/GPa)
#
#
# Indices 1 2 3 4 5 6 
#
# 1 0.019566 0.002288 0.000281 0.000000 -0.013575 0.000000
# 2 0.002288 0.003945 -0.000472 0.000000 -0.002770 0.000000
# 3 0.000281 -0.000472 0.007115 0.000000 -0.002163 0.000000
# 4 0.000000 0.000000 0.000000 -0.016274 0.000000 0.032356
# 5 -0.013575 -0.002770 -0.002163 0.000000 0.020847 0.000000
# 6 0.000000 0.000000 0.000000 0.032356 0.000000 -0.021917
#
#
# Mechanical properties :
#
#
# Convention : Reuss Voigt Hill
#
# Bulk Modulus (GPa) = 28.72008 66.97842 47.84925
# Shear Modulus (GPa) = 241.60928 63.52698 152.56813
#
# Velocity S-wave (km/s) = 10.14709 5.20312 8.06337
# Velocity P-wave (km/s) = 12.22800 8.03990 10.34804
#
# Compressibility (1/GPa) = 0.03481884
#
# Stress axis : x y z
#
# Youngs Moduli (GPa) = 51.10976 253.49355 140.54799
#
# Poissons Ratio (x) = -0.57998 -0.03947
# Poissons Ratio (y) = -0.11694 0.06637
# Poissons Ratio (z) = -0.01435 0.11970
#
# Static dielectric constant tensor:
#      x y z
#    x 1.941060 0.000000 -0.000030 
#    y 0.000000 2.050810 0.000000 
#    z -0.000030 0.000000 1.854420 
# 
# From -- ./inp_files/8371.got.cif
#   From: 2010.05.17/outbox.cif.g08.bks.cpg/sg10_5_cif.got.tgz:8371.got - 2010.06.03 11:33:40.
