data_PCOD9151466
_publ_section_title
;
Structure prediction by ZEFSAII (Michael W. Deem and Ramdas Pophale) SiO2 
 PCOD9151466
Probable space group: P 2/M
;
_chemical_formula_sum "Si O2"
_cell_formula_units_Z 32
_cell_length_a 15.386349
_cell_length_b 14.952854
_cell_length_c 21.320192
_cell_angle_alpha 90.000000
_cell_angle_beta 162.538001
_cell_angle_gamma 90.000000
_cell_volume 1471.898881
_symmetry_space_group_name_H-M "P 2/M"
_symmetry_group_IT_number 10
_symmetry_cell_setting 'monoclinic'
loop_
_space_group_symop_operation_xyz
x,y,z
-x,y,-z
-x,-y,-z
x,-y,z
loop_
_atom_site_type_symbol
_atom_site_label
_atom_site_fract_x
_atom_site_fract_y
_atom_site_fract_z
Si Si1 0.636323 0.737569 0.991294
Si Si2 0.648146 0.660093 0.392323
Si Si3 0.744210 0.296284 0.772963
Si Si4 0.739979 0.594273 0.220125
Si Si5 0.949763 0.830486 0.631029
Si Si6 0.491990 0.898172 0.417991
Si Si7 0.729120 0.900919 0.267328
Si Si8 0.121133 0.394801 0.938408
O O1 0.815881 0.764529 0.176077
O O2 0.344254 0.680395 0.798666
O O3 0.519828 0.831194 0.886011
O O4 0.835709 0.671471 0.089700
O O5 0.528053 0.659127 0.380164
O O6 0.402234 0.625248 0.176042
O O7 0.937765 0.604448 0.582493
O O8 0.728347 0.765719 0.440656
O O9 0.690781 0.191977 0.721471
O O10 0.000000 0.299161 0.000000
O O11 0.845747 0.356409 0.785595
O O12 0.710009 0.500000 0.234834
O O13 0.500000 0.592802 0.000000
O O14 0.134617 0.886392 0.708289
O O15 0.776912 0.879579 0.569106
O O16 0.500000 0.898397 0.500000
O O17 0.393329 0.000000 0.333186
O O18 0.000000 0.892387 0.500000
O O19 0.606783 0.000000 0.187115
O O20 0.103367 0.500000 0.912538
#
# Coordination Sequence:
#
# PCOD9151466 Si02
#       8
#     4   4   4   4   4   4   4   4
#     4  12  23  39  61  89 131 167 210 264 316 379
#     4  10  20  39  62  89 122 166 215 266 321 378
#     4   9  21  40  64  89 123 165 214 267 322 378
#     4  11  21  35  57  88 122 162 208 258 316 376
#     4  11  21  40  65  91 130 173 210 259 324 379
#     4  10  21  38  64  97 129 164 211 262 318 387
#     4  11  24  41  63  93 128 167 213 263 321 389
#     4  11  24  41  62  91 127 171 218 268 323 382
#
# _framework density 21.740625000000001
#
# number of rings (size 3 to 8) (size 9 to 14) (size 15 to 20)
#    0.000    1.375    2.500    3.000    0.000    4.500 
#    0.000    1.875    0.000    3.375    0.000    0.000 
#    0.000    0.000    0.000    0.000    0.000    0.000 
#
# Total GULP energy -178527.132197 kJ/mol
# GULP energy per Si atom -5578.972881 kJ/mol
# Density = 2.169114 g / cm^3
# Si number density = 21.740625 Si / 1000 Ang^3
#
#
#
# Elastic Constant Matrix: (Units=GPa)
#
#
# Indices 1 2 3 4 5 6 
#
# 1 82.7810 32.3740 9.8894 0.0000 3.0386 0.0000
# 2 32.3740 136.6112 5.0686 0.0000 -8.6642 0.0000
# 3 9.8894 5.0686 30.4542 0.0000 7.5419 0.0000
# 4 0.0000 0.0000 0.0000 -12.7497 0.0000 33.4975
# 5 3.0386 -8.6642 7.5419 0.0000 20.7190 0.0000
# 6 0.0000 0.0000 0.0000 33.4975 0.0000 -109.5489
#
#
#
# Elastic Compliance Matrix: (Units=1/GPa)
#
#
# Indices 1 2 3 4 5 6 
#
# 1 0.013856 -0.003294 -0.003415 0.000000 -0.002167 0.000000
# 2 -0.003294 0.008443 -0.001461 0.000000 0.004546 0.000000
# 3 -0.003415 -0.001461 0.037606 0.000000 -0.013799 0.000000
# 4 0.000000 0.000000 0.000000 -0.398890 0.000000 -0.121971
# 5 -0.002167 0.004546 -0.013799 0.000000 0.055507 0.000000
# 6 0.000000 0.000000 0.000000 -0.121971 0.000000 -0.046424
#
#
# Mechanical properties :
#
#
# Convention : Reuss Voigt Hill
#
# Bulk Modulus (GPa) = 22.95448 38.27893 30.61671
# Shear Modulus (GPa) = -16.72009 -6.81495 -11.76752
#
# Velocity S-wave (km/s) = -2.77622 -1.77242 -2.32904
# Velocity P-wave (km/s) = 0.55201 3.66834 2.62311
#
# Compressibility (1/GPa) = 0.04356447
#
# Stress axis : x y z
#
# Youngs Moduli (GPa) = 72.17171 118.43798 26.59185
#
# Poissons Ratio (x) = 0.39017 0.09080
# Poissons Ratio (y) = 0.23775 0.03886
# Poissons Ratio (z) = 0.24643 0.17307
#
# Static dielectric constant tensor:
#      x y z
#    x 1.876500 0.000000 0.023580 
#    y 0.000000 1.808430 0.000000 
#    z 0.023580 0.000000 1.804500 
# 
# From -- ./inp_files/85427.got.cif
#   From: 2010.05.17/outbox.cif.g08.bks.cpg/sg10_43_cif.got.tgz:85427.got - 2010.06.03 11:33:40.
