data_PCOD9151283
_publ_section_title
;
Structure prediction by ZEFSAII (Michael W. Deem and Ramdas Pophale) SiO2 
 PCOD9151283
Probable space group: P 2/M
;
_chemical_formula_sum "Si O2"
_cell_formula_units_Z 32
_cell_length_a 9.857061
_cell_length_b 14.527622
_cell_length_c 14.048122
_cell_angle_alpha 90.000000
_cell_angle_beta 118.762135
_cell_angle_gamma 90.000000
_cell_volume 1763.494179
_symmetry_space_group_name_H-M "P 2/M"
_symmetry_group_IT_number 10
_symmetry_cell_setting 'monoclinic'
loop_
_space_group_symop_operation_xyz
x,y,z
-x,y,-z
-x,-y,-z
x,-y,z
loop_
_atom_site_type_symbol
_atom_site_label
_atom_site_fract_x
_atom_site_fract_y
_atom_site_fract_z
Si Si1 0.572846 0.723783 0.922014
Si Si2 0.426283 0.779847 0.578671
Si Si3 0.534008 0.606608 0.732140
Si Si4 0.125035 0.105015 0.457823
Si Si5 0.859022 0.105907 0.221656
Si Si6 0.091099 0.598845 0.134186
Si Si7 0.545546 0.109117 0.225448
Si Si8 0.912004 0.763934 0.066347
O O1 0.495583 0.655109 0.820042
O O2 0.551235 0.828765 0.879841
O O3 0.500000 0.711090 0.000000
O O4 0.756144 0.710284 0.985729
O O5 0.500000 0.791695 0.500000
O O6 0.463884 0.677077 0.630416
O O7 0.249845 0.814798 0.509788
O O8 0.488174 0.848797 0.682079
O O9 0.483693 0.500000 0.706699
O O10 0.722707 0.604790 0.797200
O O11 0.000000 0.108659 0.500000
O O12 0.024026 0.114486 0.328668
O O13 0.193905 0.000000 0.484694
O O14 0.722489 0.129044 0.250852
O O15 0.859464 0.162374 0.125330
O O16 0.832255 0.000000 0.188826
O O17 0.048701 0.500000 0.163567
O O18 0.024723 0.691476 0.156049
O O19 0.000000 0.598348 0.000000
O O20 0.519296 0.000000 0.213185
O O21 0.000000 0.797550 0.000000
#
# Coordination Sequence:
#
# PCOD9151283 Si02
#       8
#     4   4   4   4   4   4   4   4
#     4  11  21  35  58  92 119 160 196 235 288 346
#     4  11  24  38  62  91 114 147 198 256 304 336
#     4  10  22  41  61  85 118 154 195 241 297 361
#     4  10  20  38  62  85 113 153 197 239 292 353
#     4  10  21  36  58  84 116 160 200 235 283 346
#     4   9  17  34  60  82 107 147 186 230 289 350
#     4  10  21  38  58  85 121 162 199 232 288 358
#     4  11  21  35  57  84 122 152 196 240 282 341
#
# _framework density 18.145793000000001
#
# number of rings (size 3 to 8) (size 9 to 14) (size 15 to 20)
#    0.000    1.750    5.000    0.375    1.750    2.500 
#    0.000    1.250    0.000    0.375    0.000    0.000 
#    0.000    0.000    0.000    0.000    0.000    0.000 
#
# Total GULP energy -178142.399897 kJ/mol
# GULP energy per Si atom -5566.949997 kJ/mol
# Density = 1.810449 g / cm^3
# Si number density = 18.145793 Si / 1000 Ang^3
#
#
#
# Elastic Constant Matrix: (Units=GPa)
#
#
# Indices 1 2 3 4 5 6 
#
# 1 79.6750 48.9212 42.5318 0.0000 -18.0492 0.0000
# 2 48.9212 124.2511 47.2762 0.0000 -5.2555 0.0000
# 3 42.5318 47.2762 54.1759 0.0000 -9.7595 0.0000
# 4 0.0000 0.0000 0.0000 27.2783 0.0000 0.9450
# 5 -18.0492 -5.2555 -9.7595 0.0000 28.3534 0.0000
# 6 0.0000 0.0000 0.0000 0.9450 0.0000 20.0610
#
#
#
# Elastic Compliance Matrix: (Units=1/GPa)
#
#
# Indices 1 2 3 4 5 6 
#
# 1 0.024903 -0.003944 -0.014270 0.000000 0.010210 0.000000
# 2 -0.003944 0.012732 -0.008573 0.000000 -0.003101 0.000000
# 3 -0.014270 -0.008573 0.037548 0.000000 0.002251 0.000000
# 4 0.000000 0.000000 0.000000 0.036719 0.000000 -0.001730
# 5 0.010210 -0.003101 0.002251 0.000000 0.041969 0.000000
# 6 0.000000 0.000000 0.000000 -0.001730 0.000000 0.049930
#
#
# Mechanical properties :
#
#
# Convention : Reuss Voigt Hill
#
# Bulk Modulus (GPa) = 46.27553 59.50671 52.89112
# Shear Modulus (GPa) = 18.89824 23.09672 20.99748
#
# Velocity S-wave (km/s) = 3.23068 3.57156 3.40539
# Velocity P-wave (km/s) = 6.28282 7.06208 6.68381
#
# Compressibility (1/GPa) = 0.02160969
#
# Stress axis : x y z
#
# Youngs Moduli (GPa) = 40.15627 78.54465 26.63276
#
# Poissons Ratio (x) = 0.30975 0.38004
# Poissons Ratio (y) = 0.15836 0.22832
# Poissons Ratio (z) = 0.57302 0.67335
#
# Static dielectric constant tensor:
#      x y z
#    x 1.628880 0.000000 0.011060 
#    y 0.000000 1.653540 0.000000 
#    z 0.011060 0.000000 1.654780 
# 
# From -- ./inp_files/61867.got.cif
#   From: 2010.05.17/outbox.cif.g08.bks.cpg/sg10_31_cif.got.tgz:61867.got - 2010.06.03 11:33:40.
