data_PCOD9151770
_publ_section_title
;
Structure prediction by ZEFSAII (Michael W. Deem and Ramdas Pophale) SiO2 
 PCOD9151770
Probable space group: P 2/M
;
_chemical_formula_sum "Si O2"
_cell_formula_units_Z 32
_cell_length_a 7.084547
_cell_length_b 13.086132
_cell_length_c 14.158256
_cell_angle_alpha 90.000000
_cell_angle_beta 64.682070
_cell_angle_gamma 90.000000
_cell_volume 1186.525185
_symmetry_space_group_name_H-M "P 2/M"
_symmetry_group_IT_number 10
_symmetry_cell_setting 'monoclinic'
loop_
_space_group_symop_operation_xyz
x,y,z
-x,y,-z
-x,-y,-z
x,-y,z
loop_
_atom_site_type_symbol
_atom_site_label
_atom_site_fract_x
_atom_site_fract_y
_atom_site_fract_z
Si Si1 0.300893 0.836619 0.921715
Si Si2 0.903957 0.890964 0.371555
Si Si3 0.224175 0.160160 0.138970
Si Si4 0.456534 0.889828 0.696184
Si Si5 0.114907 0.390283 0.191746
Si Si6 0.283020 0.609112 0.864122
Si Si7 0.838206 0.334268 0.419007
Si Si8 0.560890 0.332099 0.639734
O O1 0.538873 0.870386 0.891516
O O2 0.288002 0.873199 0.816689
O O3 0.281299 0.713361 0.922395
O O4 0.172742 0.868703 0.041485
O O5 0.677442 0.892728 0.370018
O O6 0.903149 0.782956 0.422579
O O7 0.070793 0.881827 0.250769
O O8 0.929735 0.000000 0.414617
O O9 0.226778 0.283588 0.148975
O O10 0.591404 0.787071 0.662299
O O11 0.560947 0.000000 0.686041
O O12 0.221625 0.500000 0.156340
O O13 0.918660 0.387642 0.161181
O O14 0.018015 0.384408 0.318036
O O15 0.277470 0.500000 0.916138
O O16 0.482008 0.614435 0.751295
O O17 0.750365 0.374153 0.537012
O O18 0.639511 0.335280 0.388685
#
# Coordination Sequence:
#
# PCOD9151770 Si02
#       8
#     4   4   4   4   4   4   4   4
#     4  10  21  35  50  69  94 125 161 200 240 284
#     4   9  18  32  50  73  99 126 158 196 237 281
#     4  10  21  35  50  69  94 125 161 200 240 284
#     4   9  18  32  50  73  99 126 158 196 237 281
#     4   9  18  32  50  73  99 126 158 196 237 281
#     4   9  18  32  50  73  99 126 158 196 237 281
#     4   8  14  26  46  73 102 127 153 190 234 278
#     4   8  14  26  46  73 102 127 153 190 234 278
#
# _framework density 26.969508999999999
#
# number of rings (size 3 to 8) (size 9 to 14) (size 15 to 20)
#    0.000    3.000    0.000    2.250    0.000    5.000 
#    0.000   10.000    0.000   12.000    0.000   14.000 
#    0.000    0.000    0.000    0.000    0.000    0.000 
#
# Total GULP energy -179006.271869 kJ/mol
# GULP energy per Si atom -5593.945996 kJ/mol
# Density = 2.690813 g / cm^3
# Si number density = 26.969509 Si / 1000 Ang^3
#
#
#
# Elastic Constant Matrix: (Units=GPa)
#
#
# Indices 1 2 3 4 5 6 
#
# 1 73.9748 -2.5167 17.9907 0.0000 5.8970 0.0000
# 2 -2.5167 140.2043 -5.8824 0.0000 8.0472 0.0000
# 3 17.9907 -5.8824 132.6988 0.0000 3.4038 0.0000
# 4 0.0000 0.0000 0.0000 -24.2498 0.0000 -4.6295
# 5 5.8970 8.0472 3.4038 0.0000 35.7353 0.0000
# 6 0.0000 0.0000 0.0000 -4.6295 0.0000 -12.6422
#
#
#
# Elastic Compliance Matrix: (Units=1/GPa)
#
#
# Indices 1 2 3 4 5 6 
#
# 1 0.014156 0.000304 -0.001849 0.000000 -0.002228 0.000000
# 2 0.000304 0.007250 0.000324 0.000000 -0.001714 0.000000
# 3 -0.001849 0.000324 0.007814 0.000000 -0.000512 0.000000
# 4 0.000000 0.000000 0.000000 -0.044337 0.000000 0.016236
# 5 -0.002228 -0.001714 -0.000512 0.000000 0.028786 0.000000
# 6 0.000000 0.000000 0.000000 0.016236 0.000000 -0.085046
#
#
# Mechanical properties :
#
#
# Convention : Reuss Voigt Hill
#
# Bulk Modulus (GPa) = 37.34196 40.67347 39.00771
# Shear Modulus (GPa) = -83.31827 22.25442 -30.53193
#
# Velocity S-wave (km/s) = -5.56422 2.87569 -3.36831
# Velocity P-wave (km/s) = 5.23495 5.11275 0.79516
#
# Compressibility (1/GPa) = 0.02677952
#
# Stress axis : x y z
#
# Youngs Moduli (GPa) = 70.64303 137.93351 127.97577
#
# Poissons Ratio (x) = -0.04199 0.23656
# Poissons Ratio (y) = -0.02151 -0.04147
# Poissons Ratio (z) = 0.13058 -0.04470
#
# Static dielectric constant tensor:
#      x y z
#    x 2.151730 0.000000 0.030340 
#    y 0.000000 2.059170 0.000000 
#    z 0.030340 0.000000 2.078620 
# 
# From -- ./inp_files/29151.got.cif
#   From: 2010.05.17/outbox.cif.g08.bks.cpg/sg10_15_cif.got.tgz:29151.got - 2010.06.03 11:33:40.
