data_PCOD9151270
_publ_section_title
;
Structure prediction by ZEFSAII (Michael W. Deem and Ramdas Pophale) SiO2 
 PCOD9151270
Probable space group: P 2/M
;
_chemical_formula_sum "Si O2"
_cell_formula_units_Z 18
_cell_length_a 6.283692
_cell_length_b 9.637650
_cell_length_c 13.736361
_cell_angle_alpha 90.000000
_cell_angle_beta 63.394133
_cell_angle_gamma 90.000000
_cell_volume 743.785834
_symmetry_space_group_name_H-M "P 2/M"
_symmetry_group_IT_number 10
_symmetry_cell_setting 'monoclinic'
loop_
_space_group_symop_operation_xyz
x,y,z
-x,y,-z
-x,-y,-z
x,-y,z
loop_
_atom_site_type_symbol
_atom_site_label
_atom_site_fract_x
_atom_site_fract_y
_atom_site_fract_z
Si Si1 0.655771 0.265419 0.573785
Si Si2 0.310140 0.340433 0.209732
Si Si3 0.159237 0.844278 0.704022
Si Si4 0.000000 0.500000 0.500000
Si Si5 0.740634 0.843709 0.088256
Si Si6 0.000000 0.000000 0.500000
O O1 0.636980 0.338023 0.685552
O O2 0.383480 0.224392 0.605319
O O3 0.825471 0.379012 0.490016
O O4 0.796623 0.122364 0.555917
O O5 0.278046 0.500000 0.185830
O O6 0.527890 0.262151 0.112705
O O7 0.075055 0.248003 0.246887
O O8 0.238187 0.857794 0.799636
O O9 0.109834 0.000000 0.671668
O O10 0.698085 0.000000 0.057217
O O11 0.000000 0.796044 0.000000
#
# Coordination Sequence:
#
# PCOD9151270 Si02
#       6
#     4   4   4   1   4   1
#     4  10  21  40  59  83 114 155 191 239 288 338
#     4  11  23  37  58  86 121 156 186 230 290 349
#     4  10  21  37  60  85 115 152 192 237 284 338
#     4  10  20  38  62  78 118 152 188 238 290 342
#     4   9  20  40  64  87 113 150 195 239 281 332
#     4  10  20  38  66  82 110 148 200 246 286 330
#
# _framework density 24.200517000000001
#
# number of rings (size 3 to 8) (size 9 to 14) (size 15 to 20)
#    0.000    2.000    2.222    0.667    4.667    2.222 
#    0.000   11.111    0.000    0.000    0.000    0.000 
#    0.000    0.000    0.000    0.000    0.000    0.000 
#
# Total GULP energy -100231.033304 kJ/mol
# GULP energy per Si atom -5568.390739 kJ/mol
# Density = 2.414544 g / cm^3
# Si number density = 24.200517 Si / 1000 Ang^3
#
#
#
# Elastic Constant Matrix: (Units=GPa)
#
#
# Indices 1 2 3 4 5 6 
#
# 1 128.9338 116.1116 40.2308 0.0000 -63.5338 0.0000
# 2 116.1116 264.8567 44.2371 0.0000 -57.6218 0.0000
# 3 40.2308 44.2371 98.4827 0.0000 -45.8784 0.0000
# 4 0.0000 0.0000 0.0000 -40.5984 0.0000 21.0347
# 5 -63.5338 -57.6218 -45.8784 0.0000 57.3237 0.0000
# 6 0.0000 0.0000 0.0000 21.0347 0.0000 10.9903
#
#
#
# Elastic Compliance Matrix: (Units=1/GPa)
#
#
# Indices 1 2 3 4 5 6 
#
# 1 0.022905 -0.005749 0.003763 0.000000 0.022619 0.000000
# 2 -0.005749 0.006277 -0.000797 0.000000 -0.000700 0.000000
# 3 0.003763 -0.000797 0.016813 0.000000 0.016825 0.000000
# 4 0.000000 0.000000 0.000000 -0.012367 0.000000 0.023671
# 5 0.022619 -0.000700 0.016825 0.000000 0.055275 0.000000
# 6 0.000000 0.000000 0.000000 0.023671 0.000000 0.045686
#
#
# Mechanical properties :
#
#
# Convention : Reuss Voigt Hill
#
# Bulk Modulus (GPa) = 24.73576 99.27026 62.00301
# Shear Modulus (GPa) = 32.54553 24.98934 28.76744
#
# Velocity S-wave (km/s) = 3.67117 3.21689 3.45151
# Velocity P-wave (km/s) = 5.31162 7.40991 6.44671
#
# Compressibility (1/GPa) = 0.04042729
#
# Stress axis : x y z
#
# Youngs Moduli (GPa) = 43.65929 159.32034 59.47747
#
# Poissons Ratio (x) = 0.91590 -0.22378
# Poissons Ratio (y) = 0.25099 0.04742
# Poissons Ratio (z) = -0.16427 0.12702
#
# Static dielectric constant tensor:
#      x y z
#    x 2.342890 0.000000 0.276150 
#    y 0.000000 1.901140 0.000000 
#    z 0.276150 0.000000 2.180030 
# 
# From -- ./inp_files/10672.got.cif
#   From: 2010.05.17/outbox.cif.g08.bks.cpg/sg10_6_cif.got.tgz:10672.got - 2010.06.03 11:33:40.
