data_PCOD9151649
_publ_section_title
;
Structure prediction by ZEFSAII (Michael W. Deem and Ramdas Pophale) SiO2 
 PCOD9151649
Probable space group: P 2/M
;
_chemical_formula_sum "Si O2"
_cell_formula_units_Z 26
_cell_length_a 12.700577
_cell_length_b 19.546040
_cell_length_c 7.347854
_cell_angle_alpha 90.000000
_cell_angle_beta 137.415622
_cell_angle_gamma 90.000000
_cell_volume 1234.306572
_symmetry_space_group_name_H-M "P 2/M"
_symmetry_group_IT_number 10
_symmetry_cell_setting 'monoclinic'
loop_
_space_group_symop_operation_xyz
x,y,z
-x,y,-z
-x,-y,-z
x,-y,z
loop_
_atom_site_type_symbol
_atom_site_label
_atom_site_fract_x
_atom_site_fract_y
_atom_site_fract_z
Si Si1 0.678950 0.000000 0.792937
Si Si2 0.318808 0.000000 0.769403
Si Si3 0.182748 0.856400 0.554671
Si Si4 0.649681 0.424114 0.319312
Si Si5 0.500000 0.627336 0.500000
Si Si6 0.838325 0.864594 0.034292
Si Si7 0.206145 0.714841 0.083005
Si Si8 0.144014 0.296525 0.428873
O O1 0.500000 0.000000 0.500000
O O2 0.761668 0.929786 0.844677
O O3 0.714043 0.000000 0.055784
O O4 0.267663 0.072092 0.616181
O O5 0.500000 0.000000 0.000000
O O6 0.169076 0.864891 0.755110
O O7 0.225494 0.775899 0.586699
O O8 0.022247 0.860036 0.238923
O O9 0.721828 0.500000 0.403105
O O10 0.584661 0.411984 0.442327
O O11 0.765451 0.364573 0.397631
O O12 0.500000 0.422778 0.000000
O O13 0.360251 0.672410 0.233147
O O14 0.756479 0.795064 0.873076
O O15 0.163121 0.699067 0.235722
O O16 0.042260 0.705131 0.765650
#
# Coordination Sequence:
#
# PCOD9151649 Si02
#       8
#     2   2   4   4   2   4   4   4
#     4  10  21  33  47  71 107 140 178 225 276 328
#     4  10  21  35  47  73 107 136 184 228 277 327
#     4   9  18  34  55  74 101 142 182 231 271 324
#     4  10  22  40  61  87 119 152 189 234 287 346
#     4  10  21  38  60  85 118 154 186 235 284 342
#     4   9  18  33  53  75  99 141 185 224 273 329
#     4   9  19  35  56  83 112 143 188 233 277 339
#     4   9  19  37  57  83 112 146 187 231 282 338
#
# _framework density 21.064457999999998
#
# number of rings (size 3 to 8) (size 9 to 14) (size 15 to 20)
#    0.000    2.615    0.000    0.692    3.231    3.692 
#    5.538    6.923    0.000    6.462    0.000    0.000 
#    0.000    0.000    0.000    0.000    0.000    0.000 
#
# Total GULP energy -144741.426023 kJ/mol
# GULP energy per Si atom -5566.977924 kJ/mol
# Density = 2.101651 g / cm^3
# Si number density = 21.064458 Si / 1000 Ang^3
#
#
#
# Elastic Constant Matrix: (Units=GPa)
#
#
# Indices 1 2 3 4 5 6 
#
# 1 30.3436 21.0969 10.7945 0.0000 -1.4459 0.0000
# 2 21.0969 209.4845 65.1529 0.0000 26.8529 0.0000
# 3 10.7945 65.1529 67.0437 0.0000 -2.1342 0.0000
# 4 0.0000 0.0000 0.0000 63.9912 0.0000 -6.4130
# 5 -1.4459 26.8529 -2.1342 0.0000 28.7282 0.0000
# 6 0.0000 0.0000 0.0000 -6.4130 0.0000 30.9188
#
#
#
# Elastic Compliance Matrix: (Units=1/GPa)
#
#
# Indices 1 2 3 4 5 6 
#
# 1 0.036511 -0.003658 -0.002161 0.000000 0.005096 0.000000
# 2 -0.003658 0.008915 -0.008366 0.000000 -0.009139 0.000000
# 3 -0.002161 -0.008366 0.023695 0.000000 0.009471 0.000000
# 4 0.000000 0.000000 0.000000 0.015959 0.000000 0.003310
# 5 0.005096 -0.009139 0.009471 0.000000 0.044312 0.000000
# 6 0.000000 0.000000 0.000000 0.003310 0.000000 0.033029
#
#
# Mechanical properties :
#
#
# Convention : Reuss Voigt Hill
#
# Bulk Modulus (GPa) = 24.53943 55.66224 40.10084
# Shear Modulus (GPa) = 24.46472 38.71615 31.59043
#
# Velocity S-wave (km/s) = 3.41166 4.29182 3.87680
# Velocity P-wave (km/s) = 5.21481 7.14435 6.25444
#
# Compressibility (1/GPa) = 0.04075074
#
# Stress axis : x y z
#
# Youngs Moduli (GPa) = 27.38908 112.16458 42.20257
#
# Poissons Ratio (x) = 0.41029 0.09122
# Poissons Ratio (y) = 0.10019 0.35307
# Poissons Ratio (z) = 0.05920 0.93837
#
# Static dielectric constant tensor:
#      x y z
#    x 1.815120 0.000000 -0.037700 
#    y 0.000000 1.758930 0.000000 
#    z -0.037700 0.000000 1.789010 
# 
# From -- ./inp_files/30349.got.cif
#   From: 2010.05.17/outbox.cif.g08.bks.cpg/sg10_16_cif.got.tgz:30349.got - 2010.06.03 11:33:40.
