data_PCOD9151309
_publ_section_title
;
Structure prediction by ZEFSAII (Michael W. Deem and Ramdas Pophale) SiO2 
 PCOD9151309
Probable space group: P 2/M
;
_chemical_formula_sum "Si O2"
_cell_formula_units_Z 30
_cell_length_a 17.739964
_cell_length_b 19.044990
_cell_length_c 5.425046
_cell_angle_alpha 90.000000
_cell_angle_beta 119.013930
_cell_angle_gamma 90.000000
_cell_volume 1602.867496
_symmetry_space_group_name_H-M "P 2/M"
_symmetry_group_IT_number 10
_symmetry_cell_setting 'monoclinic'
loop_
_space_group_symop_operation_xyz
x,y,z
-x,y,-z
-x,-y,-z
x,-y,z
loop_
_atom_site_type_symbol
_atom_site_label
_atom_site_fract_x
_atom_site_fract_y
_atom_site_fract_z
Si Si1 0.395583 0.080026 0.344413
Si Si2 0.335519 0.647922 0.087583
Si Si3 0.719695 0.200155 0.088000
Si Si4 0.500000 0.289478 0.500000
Si Si5 0.408507 0.185762 0.720419
Si Si6 0.096601 0.769500 0.668947
Si Si7 0.264058 0.583454 0.466002
Si Si8 0.096531 0.677246 0.168817
O O1 0.500000 0.086754 0.500000
O O2 0.379418 0.108234 0.593047
O O3 0.372889 0.000000 0.258140
O O4 0.341878 0.137294 0.105018
O O5 0.437204 0.665625 0.229899
O O6 0.319335 0.604705 0.312004
O O7 0.287770 0.723136 0.047060
O O8 0.302553 0.611776 0.785903
O O9 0.674070 0.216709 0.275428
O O10 0.819746 0.181162 0.229593
O O11 0.437152 0.238692 0.551901
O O12 0.500000 0.178398 0.000000
O O13 0.103366 0.717759 0.442040
O O14 0.000000 0.800923 0.500000
O O15 0.102689 0.729447 0.941992
O O16 0.256391 0.500000 0.467198
O O17 0.171669 0.620442 0.280565
O O18 0.000000 0.646421 0.000000
#
# Coordination Sequence:
#
# PCOD9151309 Si02
#       8
#     4   4   4   2   4   4   4   4
#     4  11  23  38  55  90 137 167 200 254 315 381
#     4  12  24  40  65  88 120 166 214 267 301 373
#     4  12  22  36  66  88 122 165 218 249 316 367
#     4  12  24  38  60  94 120 160 218 274 308 368
#     4  12  20  35  57  92 123 161 210 253 309 378
#     4  10  22  38  62  96 126 156 211 272 313 362
#     4  12  25  42  61  91 126 165 207 260 326 378
#     4  10  20  38  62  92 125 159 197 255 329 387
#
# _framework density 18.716455
#
# number of rings (size 3 to 8) (size 9 to 14) (size 15 to 20)
#    0.000    0.667    7.333    1.200    1.867    1.067 
#    0.000    2.000    0.000    4.400    0.000    0.933 
#    0.000    0.000    0.000    0.000    0.000    0.000 
#
# Total GULP energy -167140.419290 kJ/mol
# GULP energy per Si atom -5571.347310 kJ/mol
# Density = 1.867386 g / cm^3
# Si number density = 18.716455 Si / 1000 Ang^3
#
#
#
# Elastic Constant Matrix: (Units=GPa)
#
#
# Indices 1 2 3 4 5 6 
#
# 1 122.0895 32.3010 38.0600 0.0000 15.2212 0.0000
# 2 32.3010 77.3257 35.5402 0.0000 7.5251 0.0000
# 3 38.0600 35.5402 98.6125 0.0000 -2.2704 0.0000
# 4 0.0000 0.0000 0.0000 21.9040 0.0000 5.5112
# 5 15.2212 7.5251 -2.2704 0.0000 36.0304 0.0000
# 6 0.0000 0.0000 0.0000 5.5112 0.0000 16.3660
#
#
#
# Elastic Compliance Matrix: (Units=1/GPa)
#
#
# Indices 1 2 3 4 5 6 
#
# 1 0.010344 -0.002455 -0.003201 0.000000 -0.004059 0.000000
# 2 -0.002455 0.016562 -0.005085 0.000000 -0.002742 0.000000
# 3 -0.003201 -0.005085 0.013284 0.000000 0.003251 0.000000
# 4 0.000000 0.000000 0.000000 0.049880 0.000000 -0.016797
# 5 -0.004059 -0.002742 0.003251 0.000000 0.030247 0.000000
# 6 0.000000 0.000000 0.000000 -0.016797 0.000000 0.066759
#
#
# Mechanical properties :
#
#
# Convention : Reuss Voigt Hill
#
# Bulk Modulus (GPa) = 53.45193 56.64780 55.04986
# Shear Modulus (GPa) = 23.27839 27.66850 25.47344
#
# Velocity S-wave (km/s) = 3.53049 3.84904 3.69320
# Velocity P-wave (km/s) = 6.72607 7.07711 6.90382
#
# Compressibility (1/GPa) = 0.01870840
#
# Stress axis : x y z
#
# Youngs Moduli (GPa) = 96.67336 60.38082 75.28112
#
# Poissons Ratio (x) = 0.14822 0.24098
# Poissons Ratio (y) = 0.23731 0.38277
# Poissons Ratio (z) = 0.30946 0.30701
#
# Static dielectric constant tensor:
#      x y z
#    x 1.728090 0.000000 -0.041340 
#    y 0.000000 1.632840 0.000000 
#    z -0.041340 0.000000 1.788990 
# 
# From -- ./inp_files/11643.got.cif
#   From: 2010.05.17/outbox.cif.g08.bks.cpg/sg10_6_cif.got.tgz:11643.got - 2010.06.03 11:33:40.
