data_PCOD9151846
_publ_section_title
;
Structure prediction by ZEFSAII (Michael W. Deem and Ramdas Pophale) SiO2 
 PCOD9151846
Probable space group: P 2/M
;
_chemical_formula_sum "Si O2"
_cell_formula_units_Z 26
_cell_length_a 12.090485
_cell_length_b 15.480731
_cell_length_c 8.845821
_cell_angle_alpha 90.000000
_cell_angle_beta 123.556662
_cell_angle_gamma 90.000000
_cell_volume 1379.733930
_symmetry_space_group_name_H-M "P 2/M"
_symmetry_group_IT_number 10
_symmetry_cell_setting 'monoclinic'
loop_
_space_group_symop_operation_xyz
x,y,z
-x,y,-z
-x,-y,-z
x,-y,z
loop_
_atom_site_type_symbol
_atom_site_label
_atom_site_fract_x
_atom_site_fract_y
_atom_site_fract_z
Si Si1 0.852734 0.205272 0.899091
Si Si2 0.324240 0.299102 0.983711
Si Si3 0.782940 0.642214 0.650068
Si Si4 0.384762 0.747933 0.693732
Si Si5 0.703901 0.500000 0.091760
Si Si6 0.650677 0.099105 0.554573
Si Si7 0.870787 0.500000 0.499661
Si Si8 0.844094 0.500000 0.915676
O O1 0.860927 0.277534 0.774090
O O2 0.744290 0.137746 0.756574
O O3 0.794310 0.257479 0.002372
O O4 0.000000 0.166055 0.000000
O O5 0.312527 0.270456 0.799012
O O6 0.350280 0.404117 0.991545
O O7 0.459450 0.259720 0.154455
O O8 0.656433 0.677694 0.464910
O O9 0.864447 0.584330 0.596641
O O10 0.767306 0.580186 0.782330
O O11 0.344648 0.838658 0.588017
O O12 0.741420 0.500000 0.294749
O O13 0.834528 0.500000 0.086783
O O14 0.500000 0.103116 0.500000
O O15 0.684485 0.000000 0.546403
O O16 0.000000 0.500000 0.500000
O O17 0.000000 0.500000 0.000000
#
# Coordination Sequence:
#
# PCOD9151846 Si02
#       8
#     4   4   4   4   2   4   2   2
#     4  11  23  39  64  93 128 164 204 258 316 374
#     4  11  23  39  59  89 127 170 209 257 307 358
#     4  10  21  35  54  80 114 163 213 253 301 351
#     4  10  22  41  61  86 126 158 206 256 312 376
#     4  12  22  35  52  81 120 170 209 257 295 343
#     4  10  21  43  72  97 121 156 203 254 315 385
#     4  11  23  34  51  80 120 168 219 263 299 360
#     4  11  21  34  50  76 116 159 213 261 293 353
#
# _framework density 18.844213
#
# number of rings (size 3 to 8) (size 9 to 14) (size 15 to 20)
#    0.000    1.385    4.615    1.385    2.154    2.769 
#    0.000    5.385    0.000    0.923    0.000    0.000 
#    0.000    0.000    0.000    0.000    0.000    0.000 
#
# Total GULP energy -144747.468687 kJ/mol
# GULP energy per Si atom -5567.210334 kJ/mol
# Density = 1.880132 g / cm^3
# Si number density = 18.844213 Si / 1000 Ang^3
#
#
#
# Elastic Constant Matrix: (Units=GPa)
#
#
# Indices 1 2 3 4 5 6 
#
# 1 76.1173 23.0366 26.7215 0.0000 -6.8233 0.0000
# 2 23.0366 127.8884 37.7878 0.0000 -5.8029 0.0000
# 3 26.7215 37.7878 94.1887 0.0000 -8.0367 0.0000
# 4 0.0000 0.0000 0.0000 8.1124 0.0000 -11.9709
# 5 -6.8233 -5.8029 -8.0367 0.0000 28.8726 0.0000
# 6 0.0000 0.0000 0.0000 -11.9709 0.0000 10.2162
#
#
#
# Elastic Compliance Matrix: (Units=1/GPa)
#
#
# Indices 1 2 3 4 5 6 
#
# 1 0.015027 -0.001590 -0.003431 0.000000 0.002277 0.000000
# 2 -0.001590 0.009058 -0.003134 0.000000 0.000572 0.000000
# 3 -0.003431 -0.003134 0.013034 0.000000 0.002187 0.000000
# 4 0.000000 0.000000 0.000000 -0.169078 0.000000 -0.198117
# 5 0.002277 0.000572 0.002187 0.000000 0.035897 0.000000
# 6 0.000000 0.000000 0.000000 -0.198117 0.000000 -0.134260
#
#
# Mechanical properties :
#
#
# Convention : Reuss Voigt Hill
#
# Bulk Modulus (GPa) = 48.05502 52.58737 50.32120
# Shear Modulus (GPa) = -24.14578 23.48348 -0.33115
#
# Velocity S-wave (km/s) = -3.58346 3.53397 -0.41966
# Velocity P-wave (km/s) = 2.90431 6.67974 5.15043
#
# Compressibility (1/GPa) = 0.02080948
#
# Stress axis : x y z
#
# Youngs Moduli (GPa) = 66.54513 110.40364 76.71999
#
# Poissons Ratio (x) = 0.17551 0.26325
# Poissons Ratio (y) = 0.10579 0.24044
# Poissons Ratio (z) = 0.22833 0.34601
#
# Static dielectric constant tensor:
#      x y z
#    x 1.680960 0.000000 0.003960 
#    y 0.000000 1.668810 0.000000 
#    z 0.003960 0.000000 1.680020 
# 
# From -- ./inp_files/25154.got.cif
#   From: 2010.05.17/outbox.cif.g08.bks.cpg/sg10_13_cif.got.tgz:25154.got - 2010.06.03 11:33:40.
