data_PCOD9151756
_publ_section_title
;
Structure prediction by ZEFSAII (Michael W. Deem and Ramdas Pophale) SiO2 
 PCOD9151756
Probable space group: P 2/M
;
_chemical_formula_sum "Si O2"
_cell_formula_units_Z 22
_cell_length_a 12.528117
_cell_length_b 19.776023
_cell_length_c 5.101316
_cell_angle_alpha 90.000000
_cell_angle_beta 100.200609
_cell_angle_gamma 90.000000
_cell_volume 1243.906043
_symmetry_space_group_name_H-M "P 2/M"
_symmetry_group_IT_number 10
_symmetry_cell_setting 'monoclinic'
loop_
_space_group_symop_operation_xyz
x,y,z
-x,y,-z
-x,-y,-z
x,-y,z
loop_
_atom_site_type_symbol
_atom_site_label
_atom_site_fract_x
_atom_site_fract_y
_atom_site_fract_z
Si Si1 0.204763 0.209130 0.974139
Si Si2 0.922194 0.924280 0.217777
Si Si3 0.422017 0.000000 0.217698
Si Si4 0.078064 0.574260 0.282815
Si Si5 0.577935 0.147926 0.783307
Si Si6 0.876949 0.282057 0.557147
O O1 0.325959 0.200388 0.134948
O O2 0.135351 0.235596 0.191328
O O3 0.160517 0.136979 0.852520
O O4 0.194975 0.257733 0.718481
O O5 0.000000 0.912675 0.500000
O O6 0.872809 0.000000 0.223407
O O7 0.000000 0.924836 0.000000
O O8 0.500000 0.000000 0.500000
O O9 0.366462 0.072944 0.206225
O O10 0.500000 0.000000 0.000000
O O11 0.130978 0.500000 0.274424
O O12 0.147607 0.641309 0.361101
O O13 0.000000 0.570259 0.500000
O O14 0.000000 0.585677 0.000000
O O15 0.500000 0.157614 0.500000
O O16 0.500000 0.148742 0.000000
O O17 0.000000 0.279174 0.500000
#
# Coordination Sequence:
#
# PCOD9151756 Si02
#       6
#     4   4   2   4   4   4
#     4  12  22  33  55  74 101 138 173 210 261 309
#     4  10  21  35  48  67  97 132 171 207 239 289
#     4   8  16  32  52  68  87 116 155 212 272 310
#     4   9  17  30  49  73 105 142 170 199 242 292
#     4  10  21  37  53  74  98 125 168 224 271 316
#     4  11  21  34  51  79 109 139 171 204 242 304
#
# _framework density 17.686222999999998
#
# number of rings (size 3 to 8) (size 9 to 14) (size 15 to 20)
#    0.000    1.818    0.000    6.545    1.273    0.000 
#    0.000    0.000    0.000    0.000    0.000    0.000 
#    0.000   14.545    0.000    0.000    0.000    0.000 
#
# Total GULP energy -122703.189775 kJ/mol
# GULP energy per Si atom -5577.417717 kJ/mol
# Density = 1.764597 g / cm^3
# Si number density = 17.686223 Si / 1000 Ang^3
#
#
#
# Elastic Constant Matrix: (Units=GPa)
#
#
# Indices 1 2 3 4 5 6 
#
# 1 28.0443 33.3262 28.1485 0.0000 9.1352 0.0000
# 2 33.3262 126.0598 56.6342 0.0000 17.9406 0.0000
# 3 28.1485 56.6342 162.7152 0.0000 -1.3409 0.0000
# 4 0.0000 0.0000 0.0000 31.8639 0.0000 2.2426
# 5 9.1352 17.9406 -1.3409 0.0000 24.9534 0.0000
# 6 0.0000 0.0000 0.0000 2.2426 0.0000 7.3204
#
#
#
# Elastic Compliance Matrix: (Units=1/GPa)
#
#
# Indices 1 2 3 4 5 6 
#
# 1 0.059950 -0.010738 -0.006754 0.000000 -0.014589 0.000000
# 2 -0.010738 0.012704 -0.002608 0.000000 -0.005342 0.000000
# 3 -0.006754 -0.002608 0.008261 0.000000 0.004791 0.000000
# 4 0.000000 0.000000 0.000000 0.032075 0.000000 -0.009826
# 5 -0.014589 -0.005342 0.004791 0.000000 0.049514 0.000000
# 6 0.000000 0.000000 0.000000 -0.009826 0.000000 0.139615
#
#
# Mechanical properties :
#
#
# Convention : Reuss Voigt Hill
#
# Bulk Modulus (GPa) = 24.56104 61.44854 43.00479
# Shear Modulus (GPa) = 14.04927 26.07488 20.06208
#
# Velocity S-wave (km/s) = 2.82150 3.84383 3.37164
# Velocity P-wave (km/s) = 4.95295 7.38371 6.28693
#
# Compressibility (1/GPa) = 0.04071488
#
# Stress axis : x y z
#
# Youngs Moduli (GPa) = 16.68067 78.71787 121.04749
#
# Poissons Ratio (x) = 0.84530 0.81750
# Poissons Ratio (y) = 0.17912 0.31569
# Poissons Ratio (z) = 0.11265 0.20529
#
# Static dielectric constant tensor:
#      x y z
#    x 1.573880 0.000000 -0.005290 
#    y 0.000000 1.692760 0.000000 
#    z -0.005290 0.000000 1.586080 
# 
# From -- ./inp_files/7288.got.cif
#   From: 2010.05.17/outbox.cif.g08.bks.cpg/sg10_4_cif.got.tgz:7288.got - 2010.06.03 11:33:40.
