data_PCOD9151563
_publ_section_title
;
Structure prediction by ZEFSAII (Michael W. Deem and Ramdas Pophale) SiO2 
 PCOD9151563
Probable space group: P 2/M
;
_chemical_formula_sum "Si O2"
_cell_formula_units_Z 32
_cell_length_a 21.326129
_cell_length_b 7.753990
_cell_length_c 14.728669
_cell_angle_alpha 90.000000
_cell_angle_beta 147.296962
_cell_angle_gamma 90.000000
_cell_volume 1315.902258
_symmetry_space_group_name_H-M "P 2/M"
_symmetry_group_IT_number 10
_symmetry_cell_setting 'monoclinic'
loop_
_space_group_symop_operation_xyz
x,y,z
-x,y,-z
-x,-y,-z
x,-y,z
loop_
_atom_site_type_symbol
_atom_site_label
_atom_site_fract_x
_atom_site_fract_y
_atom_site_fract_z
Si Si1 0.395018 0.790889 0.934009
Si Si2 0.821046 0.804812 0.825500
Si Si3 0.998557 0.291641 0.188331
Si Si4 0.247708 0.696738 0.452585
Si Si5 0.506808 0.703768 0.755809
Si Si6 0.148632 0.802345 0.615665
Si Si7 0.614657 0.298540 0.701896
Si Si8 0.093787 0.305694 0.741751
O O1 0.274200 0.736049 0.742310
O O2 0.392140 0.000000 0.933300
O O3 0.500000 0.732827 0.000000
O O4 0.417996 0.726049 0.062857
O O5 0.785622 0.695108 0.694878
O O6 0.718074 0.789913 0.773691
O O7 0.830706 0.000000 0.804572
O O8 0.937828 0.753285 0.019996
O O9 0.002446 0.500000 0.200404
O O10 0.131254 0.225945 0.356192
O O11 0.914691 0.230974 0.167779
O O12 0.257217 0.500000 0.497768
O O13 0.376654 0.776794 0.614806
O O14 0.489575 0.500000 0.714977
O O15 0.575178 0.773087 0.751486
O O16 0.042269 0.691151 0.451899
O O17 0.149522 0.796758 0.727025
O O18 0.129039 0.000000 0.563963
O O19 0.500000 0.292686 0.500000
O O20 0.649910 0.500000 0.755500
O O21 0.141831 0.500000 0.801548
#
# Coordination Sequence:
#
# PCOD9151563 Si02
#       8
#     4   4   4   4   4   4   4   4
#     4  10  24  43  61  87 126 165 196 237 301 367
#     4  12  25  38  58  90 125 158 199 245 293 352
#     4  10  23  40  62  87 117 157 200 248 299 351
#     4  10  21  42  64  85 118 159 201 244 299 356
#     4  10  22  39  65  94 117 153 204 255 299 349
#     4  10  21  39  61  84 118 158 193 233 294 358
#     4  10  20  40  65  88 120 160 201 247 301 359
#     4  10  21  38  62  90 114 146 196 250 298 344
#
# _framework density 24.317916
#
# number of rings (size 3 to 8) (size 9 to 14) (size 15 to 20)
#    0.000    1.750    1.250    3.000    3.500    5.500 
#    0.000    0.000    0.000    0.000    0.000    0.000 
#    0.000    0.000    0.000    0.000    0.000    0.000 
#
# Total GULP energy -178957.382064 kJ/mol
# GULP energy per Si atom -5592.418190 kJ/mol
# Density = 2.426257 g / cm^3
# Si number density = 24.317916 Si / 1000 Ang^3
#
#
#
# Elastic Constant Matrix: (Units=GPa)
#
#
# Indices 1 2 3 4 5 6 
#
# 1 55.5835 0.2831 -11.9209 0.0000 1.5065 0.0000
# 2 0.2831 56.8449 -3.1641 0.0000 2.2198 0.0000
# 3 -11.9209 -3.1641 56.5417 0.0000 7.6905 0.0000
# 4 0.0000 0.0000 0.0000 43.9363 0.0000 7.7390
# 5 1.5065 2.2198 7.6905 0.0000 46.4019 0.0000
# 6 0.0000 0.0000 0.0000 7.7390 0.0000 3.7815
#
#
#
# Elastic Compliance Matrix: (Units=1/GPa)
#
#
# Indices 1 2 3 4 5 6 
#
# 1 0.018922 0.000190 0.004179 0.000000 -0.001316 0.000000
# 2 0.000190 0.017697 0.001173 0.000000 -0.001047 0.000000
# 3 0.004179 0.001173 0.019089 0.000000 -0.003356 0.000000
# 4 0.000000 0.000000 0.000000 0.035590 0.000000 -0.072836
# 5 -0.001316 -0.001047 -0.003356 0.000000 0.022200 0.000000
# 6 0.000000 0.000000 0.000000 -0.072836 0.000000 0.413509
#
#
# Mechanical properties :
#
#
# Convention : Reuss Voigt Hill
#
# Bulk Modulus (GPa) = 14.97207 15.48515 15.22861
# Shear Modulus (GPa) = 9.29045 31.07541 20.18293
#
# Velocity S-wave (km/s) = 1.95671 3.57862 2.88403
# Velocity P-wave (km/s) = 3.35784 4.84325 4.16726
#
# Compressibility (1/GPa) = 0.06679104
#
# Stress axis : x y z
#
# Youngs Moduli (GPa) = 52.84881 56.50692 52.38580
#
# Poissons Ratio (x) = -0.01072 -0.21892
# Poissons Ratio (y) = -0.01003 -0.06144
# Poissons Ratio (z) = -0.22085 -0.06627
#
# Static dielectric constant tensor:
#      x y z
#    x 1.988040 0.000000 0.014390 
#    y 0.000000 1.884030 0.000000 
#    z 0.014390 0.000000 1.906990 
# 
# From -- ./inp_files/71674.got.cif
#   From: 2010.05.17/outbox.cif.g08.bks.cpg/sg10_36_cif.got.tgz:71674.got - 2010.06.03 11:33:40.
