data_PCOD9151759
_publ_section_title
;
Structure prediction by ZEFSAII (Michael W. Deem and Ramdas Pophale) SiO2 
 PCOD9151759
Probable space group: P 2/M
;
_chemical_formula_sum "Si O2"
_cell_formula_units_Z 32
_cell_length_a 12.903733
_cell_length_b 7.536266
_cell_length_c 13.168040
_cell_angle_alpha 90.000000
_cell_angle_beta 90.902366
_cell_angle_gamma 90.000000
_cell_volume 1280.379939
_symmetry_space_group_name_H-M "P 2/M"
_symmetry_group_IT_number 10
_symmetry_cell_setting 'monoclinic'
loop_
_space_group_symop_operation_xyz
x,y,z
-x,y,-z
-x,-y,-z
x,-y,z
loop_
_atom_site_type_symbol
_atom_site_label
_atom_site_fract_x
_atom_site_fract_y
_atom_site_fract_z
Si Si1 0.823747 0.716543 0.891800
Si Si2 0.338900 0.797771 0.609880
Si Si3 0.404763 0.285958 0.173636
Si Si4 0.888923 0.283786 0.669831
Si Si5 0.152812 0.700786 0.893207
Si Si6 0.112723 0.283747 0.665266
Si Si7 0.628695 0.207917 0.165675
Si Si8 0.663341 0.709132 0.611519
O O1 0.823571 0.500000 0.896206
O O2 0.703853 0.772862 0.876558
O O3 0.881834 0.763583 0.789092
O O4 0.871593 0.781885 0.997966
O O5 0.213742 0.783199 0.609525
O O6 0.370336 0.715850 0.718558
O O7 0.377170 0.729028 0.502655
O O8 0.372100 0.000000 0.614574
O O9 0.406221 0.500000 0.170215
O O10 0.511763 0.224947 0.126546
O O11 0.398901 0.222480 0.291790
O O12 0.888996 0.500000 0.663372
O O13 0.781284 0.219924 0.620566
O O14 0.999170 0.227717 0.627369
O O15 0.110498 0.500000 0.891814
O O16 0.123045 0.775997 0.783276
O O17 0.278775 0.698105 0.891900
O O18 0.118991 0.500000 0.662212
O O19 0.656868 0.000000 0.169087
O O20 0.671187 0.500000 0.630383
#
# Coordination Sequence:
#
# PCOD9151759 Si02
#       8
#     4   4   4   4   4   4   4   4
#     4   8  15  29  49  74 101 125 153 193 238 279
#     4  10  21  35  49  67  95 128 159 196 240 282
#     4   9  18  33  52  72  95 124 157 194 236 283
#     4   8  15  29  49  74 101 125 153 193 238 279
#     4   9  17  30  50  74  98 126 160 195 230 274
#     4   9  17  30  50  74  98 126 160 195 230 274
#     4  10  21  35  49  67  95 128 159 196 240 282
#     4   9  18  33  52  72  95 124 157 194 236 283
#
# _framework density 24.99258
#
# number of rings (size 3 to 8) (size 9 to 14) (size 15 to 20)
#    0.000    3.000    0.000    2.250    0.000    4.000 
#    0.000   11.250    0.000    2.250    0.000    3.500 
#    0.000    0.000    0.000    0.000    0.000    0.000 
#
# Total GULP energy -178694.255778 kJ/mol
# GULP energy per Si atom -5584.195493 kJ/mol
# Density = 2.493570 g / cm^3
# Si number density = 24.992580 Si / 1000 Ang^3
#
#
#
# Elastic Constant Matrix: (Units=GPa)
#
#
# Indices 1 2 3 4 5 6 
#
# 1 122.0268 -7.9714 -4.4387 0.0000 -6.6311 0.0000
# 2 -7.9714 66.5662 -4.0616 0.0000 7.7126 0.0000
# 3 -4.4387 -4.0616 114.2691 0.0000 -1.5418 0.0000
# 4 0.0000 0.0000 0.0000 -52.8560 0.0000 21.3306
# 5 -6.6311 7.7126 -1.5418 0.0000 -13.9380 0.0000
# 6 0.0000 0.0000 0.0000 21.3306 0.0000 19.5585
#
#
#
# Elastic Compliance Matrix: (Units=1/GPa)
#
#
# Indices 1 2 3 4 5 6 
#
# 1 0.008124 0.001357 0.000321 0.000000 -0.003150 0.000000
# 2 0.001357 0.014387 0.000662 0.000000 0.007242 0.000000
# 3 0.000321 0.000662 0.008777 0.000000 -0.000758 0.000000
# 4 0.000000 0.000000 0.000000 -0.013137 0.000000 0.014328
# 5 -0.003150 0.007242 -0.000758 0.000000 -0.066157 0.000000
# 6 0.000000 0.000000 0.000000 0.014328 0.000000 0.035503
#
#
# Mechanical properties :
#
#
# Convention : Reuss Voigt Hill
#
# Bulk Modulus (GPa) = 27.80191 29.99096 28.89644
# Shear Modulus (GPa) = -962.46313 11.84181 -475.31066
#
# Velocity S-wave (km/s) = -19.64524 2.17909 -13.80556
# Velocity P-wave (km/s) = 22.43730 4.28453 15.57362
#
# Compressibility (1/GPa) = 0.03596875
#
# Stress axis : x y z
#
# Youngs Moduli (GPa) = 123.09001 69.50957 113.93339
#
# Poissons Ratio (x) = -0.09435 -0.03661
# Poissons Ratio (y) = -0.16708 -0.07540
# Poissons Ratio (z) = -0.03955 -0.04600
#
# Static dielectric constant tensor:
#      x y z
#    x 1.959570 0.000000 0.019520 
#    y 0.000000 1.962370 0.000000 
#    z 0.019520 0.000000 1.991540 
# 
# From -- ./inp_files/66160.got.cif
#   From: 2010.05.17/outbox.cif.g08.bks.cpg/sg10_34_cif.got.tgz:66160.got - 2010.06.03 11:33:40.
