data_PCOD9151973
_publ_section_title
;
Structure prediction by ZEFSAII (Michael W. Deem and Ramdas Pophale) SiO2 
 PCOD9151973
Probable space group: P 2/M
;
_chemical_formula_sum "Si O2"
_cell_formula_units_Z 28
_cell_length_a 15.656878
_cell_length_b 12.694568
_cell_length_c 9.400248
_cell_angle_alpha 90.000000
_cell_angle_beta 63.418461
_cell_angle_gamma 90.000000
_cell_volume 1670.878568
_symmetry_space_group_name_H-M "P 2/M"
_symmetry_group_IT_number 10
_symmetry_cell_setting 'monoclinic'
loop_
_space_group_symop_operation_xyz
x,y,z
-x,y,-z
-x,-y,-z
x,-y,z
loop_
_atom_site_type_symbol
_atom_site_label
_atom_site_fract_x
_atom_site_fract_y
_atom_site_fract_z
Si Si1 0.868760 0.119978 0.218909
Si Si2 0.076002 0.879717 0.157926
Si Si3 0.397422 0.627433 0.151289
Si Si4 0.920865 0.500000 0.177093
Si Si5 0.581072 0.377272 0.539317
Si Si6 0.209285 0.690451 0.125935
Si Si7 0.069352 0.500000 0.314182
Si Si8 0.768560 0.675991 0.231608
O O1 0.788393 0.208527 0.281303
O O2 0.963259 0.148897 0.239859
O O3 0.841264 0.000000 0.275666
O O4 0.898421 0.119926 0.029665
O O5 0.147456 0.798081 0.178246
O O6 0.085924 0.000000 0.202130
O O7 0.379935 0.500000 0.158843
O O8 0.404122 0.662694 0.311319
O O9 0.308619 0.682480 0.137629
O O10 0.500000 0.646157 0.000000
O O11 0.856056 0.602201 0.210310
O O12 0.986150 0.500000 0.262617
O O13 0.000000 0.500000 0.000000
O O14 0.500000 0.326851 0.500000
O O15 0.554407 0.500000 0.581616
O O16 0.675674 0.370129 0.374892
O O17 0.138977 0.599675 0.237539
O O18 0.233191 0.674795 0.939409
O O19 0.000000 0.500000 0.500000
#
# Coordination Sequence:
#
# PCOD9151973 Si02
#       8
#     4   4   4   2   4   4   2   4
#     4   8  15  28  48  75 105 137 176 215 253 296
#     4   8  15  29  50  75 102 137 179 216 249 299
#     4  10  21  36  54  74 106 139 173 211 260 317
#     4  12  22  34  47  76 111 142 173 208 255 306
#     4  10  21  36  54  78 103 135 174 217 259 310
#     4  11  20  34  52  78 105 141 172 212 262 310
#     4  12  26  34  47  72 113 146 175 206 257 312
#     4  11  20  31  55  78 106 136 175 216 259 306
#
# _framework density 16.757650000000002
#
# number of rings (size 3 to 8) (size 9 to 14) (size 15 to 20)
#    0.000    2.000    2.857    2.571    4.000    1.143 
#    0.000    0.000    0.000    2.143    0.000    0.000 
#    0.000    0.000    0.000    0.000    0.000    0.000 
#
# Total GULP energy -155921.415863 kJ/mol
# GULP energy per Si atom -5568.621995 kJ/mol
# Density = 1.671951 g / cm^3
# Si number density = 16.757650 Si / 1000 Ang^3
#
#
#
# Elastic Constant Matrix: (Units=GPa)
#
#
# Indices 1 2 3 4 5 6 
#
# 1 149.2112 45.4680 52.3228 0.0000 16.4426 0.0000
# 2 45.4680 67.5878 14.0823 0.0000 9.2147 0.0000
# 3 52.3228 14.0823 89.2221 0.0000 4.3508 0.0000
# 4 0.0000 0.0000 0.0000 5.9226 0.0000 1.1506
# 5 16.4426 9.2147 4.3508 0.0000 19.9168 0.0000
# 6 0.0000 0.0000 0.0000 1.1506 0.0000 22.6995
#
#
#
# Elastic Compliance Matrix: (Units=1/GPa)
#
#
# Indices 1 2 3 4 5 6 
#
# 1 0.010758 -0.005442 -0.005195 0.000000 -0.005229 0.000000
# 2 -0.005442 0.018967 0.000411 0.000000 -0.004372 0.000000
# 3 -0.005195 0.000411 0.014140 0.000000 0.001010 0.000000
# 4 0.000000 0.000000 0.000000 0.170523 0.000000 -0.008644
# 5 -0.005229 -0.004372 0.001010 0.000000 0.056328 0.000000
# 6 0.000000 0.000000 0.000000 -0.008644 0.000000 0.044492
#
#
# Mechanical properties :
#
#
# Convention : Reuss Voigt Hill
#
# Bulk Modulus (GPa) = 42.71048 58.86303 50.78676
# Shear Modulus (GPa) = 14.55754 22.65100 18.60427
#
# Velocity S-wave (km/s) = 2.95059 3.68051 3.33557
# Velocity P-wave (km/s) = 6.09512 7.29821 6.72363
#
# Compressibility (1/GPa) = 0.02341345
#
# Stress axis : x y z
#
# Youngs Moduli (GPa) = 92.95331 52.72312 70.71927
#
# Poissons Ratio (x) = 0.28692 0.36739
# Poissons Ratio (y) = 0.50585 -0.02906
# Poissons Ratio (z) = 0.48289 -0.02166
#
# Static dielectric constant tensor:
#      x y z
#    x 1.554290 0.000000 0.023390 
#    y 0.000000 1.605340 0.000000 
#    z 0.023390 0.000000 1.532580 
# 
# From -- ./inp_files/28256.got.cif
#   From: 2010.05.17/outbox.cif.g08.bks.cpg/sg10_15_cif.got.tgz:28256.got - 2010.06.03 11:33:40.
