data_PCOD9151623
_publ_section_title
;
Structure prediction by ZEFSAII (Michael W. Deem and Ramdas Pophale) SiO2 
 PCOD9151623
Probable space group: P 2/M
;
_chemical_formula_sum "Si O2"
_cell_formula_units_Z 25
_cell_length_a 9.937307
_cell_length_b 18.938550
_cell_length_c 10.209974
_cell_angle_alpha 90.000000
_cell_angle_beta 45.454756
_cell_angle_gamma 90.000000
_cell_volume 1369.445792
_symmetry_space_group_name_H-M "P 2/M"
_symmetry_group_IT_number 10
_symmetry_cell_setting 'monoclinic'
loop_
_space_group_symop_operation_xyz
x,y,z
-x,y,-z
-x,-y,-z
x,-y,z
loop_
_atom_site_type_symbol
_atom_site_label
_atom_site_fract_x
_atom_site_fract_y
_atom_site_fract_z
Si Si1 0.852951 0.500000 0.477008
Si Si2 0.446433 0.500000 0.886482
Si Si3 0.844995 0.359510 0.305644
Si Si4 0.426108 0.214714 0.903745
Si Si5 0.334532 0.785926 0.502514
Si Si6 0.000000 0.000000 0.000000
Si Si7 0.972303 0.853758 0.876037
Si Si8 0.738234 0.641724 0.083542
O O1 0.641339 0.500000 0.675540
O O2 0.866645 0.429683 0.378135
O O3 0.000000 0.500000 0.500000
O O4 0.328690 0.569055 0.932766
O O5 0.500000 0.500000 0.000000
O O6 0.744922 0.294471 0.447365
O O7 0.736912 0.369091 0.241134
O O8 0.054771 0.340537 0.113378
O O9 0.575628 0.187264 0.694358
O O10 0.387751 0.293409 0.876275
O O11 0.500000 0.216490 0.000000
O O12 0.229833 0.172083 0.035431
O O13 0.500000 0.789802 0.500000
O O14 0.153036 0.831489 0.668765
O O15 0.973953 0.063378 0.907630
O O16 0.000000 0.817140 0.000000
#
# Coordination Sequence:
#
# PCOD9151623 Si02
#       8
#     2   2   4   4   4   1   4   4
#     4  12  27  42  55  85 127 164 224 287 342 399
#     4  12  25  40  57  77 120 169 213 271 340 395
#     4  11  23  39  65  88 116 168 220 277 329 395
#     4  12  25  40  64 102 141 175 220 279 341 392
#     4  12  21  39  71  97 129 175 227 273 326 398
#     4   8  20  40  80  98 138 178 220 272 320 400
#     4  10  20  43  68 103 133 172 220 268 321 395
#     4  11  22  41  62  88 121 167 219 275 333 397
#
# _framework density 18.255561
#
# number of rings (size 3 to 8) (size 9 to 14) (size 15 to 20)
#    0.480    0.320    4.800    3.360    0.000    3.840 
#    0.000    4.000    0.000    0.960    0.000    0.000 
#    0.000    0.000    0.000    0.000    0.000    0.000 
#
# Total GULP energy -139304.938065 kJ/mol
# GULP energy per Si atom -5572.197523 kJ/mol
# Density = 1.821401 g / cm^3
# Si number density = 18.255561 Si / 1000 Ang^3
#
#
#
# Elastic Constant Matrix: (Units=GPa)
#
#
# Indices 1 2 3 4 5 6 
#
# 1 128.5049 56.9330 62.5176 0.0000 10.3508 0.0000
# 2 56.9330 130.1500 40.8607 0.0000 -4.3753 0.0000
# 3 62.5176 40.8607 134.7342 0.0000 -2.7570 0.0000
# 4 0.0000 0.0000 0.0000 6.0364 0.0000 -2.9821
# 5 10.3508 -4.3753 -2.7570 0.0000 32.7694 0.0000
# 6 0.0000 0.0000 0.0000 -2.9821 0.0000 -13.2153
#
#
#
# Elastic Compliance Matrix: (Units=1/GPa)
#
#
# Indices 1 2 3 4 5 6 
#
# 1 0.012158 -0.004064 -0.004507 0.000000 -0.004762 0.000000
# 2 -0.004064 0.009878 -0.001059 0.000000 0.002513 0.000000
# 3 -0.004507 -0.001059 0.009877 0.000000 0.002113 0.000000
# 4 0.000000 0.000000 0.000000 0.149047 0.000000 -0.033633
# 5 -0.004762 0.002513 0.002113 0.000000 0.032534 0.000000
# 6 0.000000 0.000000 0.000000 -0.033633 0.000000 -0.068081
#
#
# Mechanical properties :
#
#
# Convention : Reuss Voigt Hill
#
# Bulk Modulus (GPa) = 79.01582 79.33463 79.17523
# Shear Modulus (GPa) = 29.60499 20.65661 25.13080
#
# Velocity S-wave (km/s) = 4.03140 3.36746 3.71430
# Velocity P-wave (km/s) = 8.06515 7.65976 7.86507
#
# Compressibility (1/GPa) = 0.01265569
#
# Stress axis : x y z
#
# Youngs Moduli (GPa) = 82.24885 101.23552 101.24152
#
# Poissons Ratio (x) = 0.41140 0.45625
# Poissons Ratio (y) = 0.33424 0.10718
# Poissons Ratio (z) = 0.37066 0.10717
#
# Static dielectric constant tensor:
#      x y z
#    x 1.625330 0.000000 -0.016750 
#    y 0.000000 1.613360 0.000000 
#    z -0.016750 0.000000 1.641070 
# 
# From -- ./inp_files/20203.got.cif
#   From: 2010.05.17/outbox.cif.g08.bks.cpg/sg10_11_cif.got.tgz:20203.got - 2010.06.03 11:33:40.
