data_PCOD9151962
_publ_section_title
;
Structure prediction by ZEFSAII (Michael W. Deem and Ramdas Pophale) SiO2 
 PCOD9151962
Probable space group: P 2/M
;
_chemical_formula_sum "Si O2"
_cell_formula_units_Z 32
_cell_length_a 30.805887
_cell_length_b 8.642947
_cell_length_c 17.001416
_cell_angle_alpha 90.000000
_cell_angle_beta 154.216788
_cell_angle_gamma 90.000000
_cell_volume 1968.961629
_symmetry_space_group_name_H-M "P 2/M"
_symmetry_group_IT_number 10
_symmetry_cell_setting 'monoclinic'
loop_
_space_group_symop_operation_xyz
x,y,z
-x,y,-z
-x,-y,-z
x,-y,z
loop_
_atom_site_type_symbol
_atom_site_label
_atom_site_fract_x
_atom_site_fract_y
_atom_site_fract_z
Si Si1 0.556529 0.685205 0.208627
Si Si2 0.644393 0.815748 0.195225
Si Si3 0.227705 0.817859 0.006616
Si Si4 0.459241 0.184143 0.652022
Si Si5 0.403326 0.684228 0.395675
Si Si6 0.678449 0.677777 0.990828
Si Si7 0.188475 0.678528 0.635537
Si Si8 0.993350 0.186993 0.397122
O O1 0.553575 0.500000 0.205636
O O2 0.626144 0.744433 0.251504
O O3 0.587449 0.752360 0.343435
O O4 0.445703 0.747050 0.005114
O O5 0.750045 0.769108 0.330488
O O6 0.633128 0.000000 0.179504
O O7 0.302202 0.728490 0.185694
O O8 0.231232 0.000000 0.030694
O O9 0.270709 0.787120 0.989945
O O10 0.112641 0.766606 0.813517
O O11 0.406741 0.232863 0.485440
O O12 0.469346 0.000000 0.672866
O O13 0.567340 0.264444 0.823779
O O14 0.500000 0.731054 0.500000
O O15 0.410307 0.500000 0.418272
O O16 0.676694 0.500000 0.958603
O O17 0.740756 0.682190 0.172213
O O18 0.175612 0.500000 0.590953
O O19 0.084512 0.749376 0.494817
O O20 0.000000 0.238330 0.500000
O O21 0.997407 0.000000 0.404720
#
# Coordination Sequence:
#
# PCOD9151962 Si02
#       8
#     4   4   4   4   4   4   4   4
#     4  11  21  35  53  76 109 141 175 217 266 318
#     4  11  21  34  53  77 107 141 179 219 264 314
#     4  11  22  36  54  75 104 141 183 226 267 312
#     4  12  23  35  54  78 105 141 183 219 263 318
#     4  11  23  37  54  76 106 140 179 223 268 317
#     4  11  21  32  49  74 107 142 179 221 264 311
#     4  11  22  34  52  77 107 144 183 219 264 317
#     4  10  21  36  53  76 106 140 180 223 266 314
#
# _framework density 16.252222
#
# number of rings (size 3 to 8) (size 9 to 14) (size 15 to 20)
#    0.000    1.000    3.750    5.625    0.000    2.750 
#    0.000    0.000    0.000    0.000    0.000    0.875 
#    0.000    7.000    0.000    0.000    0.000    0.000 
#
# Total GULP energy -178773.018819 kJ/mol
# GULP energy per Si atom -5586.656838 kJ/mol
# Density = 1.621523 g / cm^3
# Si number density = 16.252222 Si / 1000 Ang^3
#
#
#
# Elastic Constant Matrix: (Units=GPa)
#
#
# Indices 1 2 3 4 5 6 
#
# 1 97.3020 10.4952 39.0787 0.0000 1.2275 0.0000
# 2 10.4952 48.7834 24.1088 0.0000 -6.0142 0.0000
# 3 39.0787 24.1088 85.4738 0.0000 6.1739 0.0000
# 4 0.0000 0.0000 0.0000 20.2212 0.0000 -2.8088
# 5 1.2275 -6.0142 6.1739 0.0000 22.7262 0.0000
# 6 0.0000 0.0000 0.0000 -2.8088 0.0000 41.3851
#
#
#
# Elastic Compliance Matrix: (Units=1/GPa)
#
#
# Indices 1 2 3 4 5 6 
#
# 1 0.012612 0.000348 -0.005938 0.000000 0.001024 0.000000
# 2 0.000348 0.025466 -0.007984 0.000000 0.008889 0.000000
# 3 -0.005938 -0.007984 0.017132 0.000000 -0.006446 0.000000
# 4 0.000000 0.000000 0.000000 0.049924 0.000000 0.003388
# 5 0.001024 0.008889 -0.006446 0.000000 0.048050 0.000000
# 6 0.000000 0.000000 0.000000 0.003388 0.000000 0.024393
#
#
# Mechanical properties :
#
#
# Convention : Reuss Voigt Hill
#
# Bulk Modulus (GPa) = 35.63727 42.10276 38.87002
# Shear Modulus (GPa) = 23.35589 27.39161 25.37375
#
# Velocity S-wave (km/s) = 3.79501 4.10982 3.95555
# Velocity P-wave (km/s) = 6.41701 6.96297 6.69556
#
# Compressibility (1/GPa) = 0.02806051
#
# Stress axis : x y z
#
# Youngs Moduli (GPa) = 79.29114 39.26873 58.37045
#
# Poissons Ratio (x) = -0.01365 0.34661
# Poissons Ratio (y) = -0.02756 0.46602
# Poissons Ratio (z) = 0.47084 0.31352
#
# Static dielectric constant tensor:
#      x y z
#    x 1.545360 0.000000 -0.002070 
#    y 0.000000 1.545720 0.000000 
#    z -0.002070 0.000000 1.541320 
# 
# From -- ./inp_files/72237.got.cif
#   From: 2010.05.17/outbox.cif.g08.bks.cpg/sg10_37_cif.got.tgz:72237.got - 2010.06.03 11:33:40.
