data_PCOD9151901
_publ_section_title
;
Structure prediction by ZEFSAII (Michael W. Deem and Ramdas Pophale) SiO2 
 PCOD9151901
Probable space group: P 2/M
;
_chemical_formula_sum "Si O2"
_cell_formula_units_Z 24
_cell_length_a 5.541131
_cell_length_b 14.249131
_cell_length_c 13.086305
_cell_angle_alpha 90.000000
_cell_angle_beta 110.454911
_cell_angle_gamma 90.000000
_cell_volume 968.097480
_symmetry_space_group_name_H-M "P 2/M"
_symmetry_group_IT_number 10
_symmetry_cell_setting 'monoclinic'
loop_
_space_group_symop_operation_xyz
x,y,z
-x,y,-z
-x,-y,-z
x,-y,z
loop_
_atom_site_type_symbol
_atom_site_label
_atom_site_fract_x
_atom_site_fract_y
_atom_site_fract_z
Si Si1 0.665288 0.395128 0.392673
Si Si2 0.078494 0.106168 0.791140
Si Si3 0.766628 0.759554 0.855720
Si Si4 0.500000 0.820020 0.000000
Si Si5 0.307589 0.000000 0.564782
Si Si6 0.056912 0.397985 0.256387
Si Si7 0.283571 0.794684 0.646825
O O1 0.725711 0.500000 0.446110
O O2 0.353099 0.396701 0.341257
O O3 0.732968 0.288323 0.439540
O O4 0.845163 0.392669 0.315674
O O5 0.345176 0.120527 0.892583
O O6 0.053039 0.176422 0.690306
O O7 0.875077 0.138263 0.844523
O O8 0.049589 0.000000 0.752783
O O9 0.946262 0.681759 0.830185
O O10 0.500994 0.754763 0.754237
O O11 0.697050 0.757344 0.963625
O O12 0.500000 0.000000 0.500000
O O13 0.362185 0.898440 0.622914
O O14 0.000000 0.000000 0.500000
O O15 0.019783 0.500000 0.201996
#
# Coordination Sequence:
#
# PCOD9151901 Si02
#       7
#     4   4   4   2   2   4   4
#     4   9  17  32  59  91 118 150 201 257 298 352
#     4  11  21  35  58  81 117 159 206 258 300 369
#     4  10  21  35  58  82 118 161 207 259 300 362
#     4  10  23  36  47  82 120 162 207 258 315 354
#     4  12  30  46  68  97 134 165 196 248 306 374
#     4   9  17  31  53  85 117 153 203 255 305 348
#     4  10  22  39  62  91 121 160 210 244 306 366
#
# _framework density 24.790890999999998
#
# number of rings (size 3 to 8) (size 9 to 14) (size 15 to 20)
#    0.000    2.000    2.500    0.750    3.500    2.000 
#    0.000    0.417    0.000    4.000    0.000    0.000 
#    0.000    0.000    0.000    0.000    0.000    0.000 
#
# Total GULP energy -133690.368786 kJ/mol
# GULP energy per Si atom -5570.432033 kJ/mol
# Density = 2.473447 g / cm^3
# Si number density = 24.790891 Si / 1000 Ang^3
#
#
#
# Elastic Constant Matrix: (Units=GPa)
#
#
# Indices 1 2 3 4 5 6 
#
# 1 135.1422 27.2607 32.7426 0.0000 -22.9145 0.0000
# 2 27.2607 198.7686 34.6660 0.0000 -23.5633 0.0000
# 3 32.7426 34.6660 53.2828 0.0000 -12.9875 0.0000
# 4 0.0000 0.0000 0.0000 -125.7491 0.0000 1.3374
# 5 -22.9145 -23.5633 -12.9875 0.0000 58.3737 0.0000
# 6 0.0000 0.0000 0.0000 1.3374 0.0000 26.9016
#
#
#
# Elastic Compliance Matrix: (Units=1/GPa)
#
#
# Indices 1 2 3 4 5 6 
#
# 1 0.009012 -0.000098 -0.004887 0.000000 0.002411 0.000000
# 2 -0.000098 0.005812 -0.003340 0.000000 0.001565 0.000000
# 3 -0.004887 -0.003340 0.024475 0.000000 0.002179 0.000000
# 4 0.000000 0.000000 0.000000 -0.007948 0.000000 0.000395
# 5 0.002411 0.001565 0.002179 0.000000 0.019194 0.000000
# 6 0.000000 0.000000 0.000000 0.000395 0.000000 0.037153
#
#
# Mechanical properties :
#
#
# Convention : Reuss Voigt Hill
#
# Bulk Modulus (GPa) = 44.14981 64.05914 54.10448
# Shear Modulus (GPa) = 44.68397 11.40685 28.04541
#
# Velocity S-wave (km/s) = 4.25012 2.14737 3.36710
# Velocity P-wave (km/s) = 6.47551 5.66076 6.08179
#
# Compressibility (1/GPa) = 0.02265015
#
# Stress axis : x y z
#
# Youngs Moduli (GPa) = 110.96181 172.04575 40.85841
#
# Poissons Ratio (x) = 0.01685 0.19966
# Poissons Ratio (y) = 0.01087 0.13647
# Poissons Ratio (z) = 0.54223 0.57463
#
# Static dielectric constant tensor:
#      x y z
#    x 1.913650 0.000000 0.101660 
#    y 0.000000 2.096140 0.000000 
#    z 0.101660 0.000000 1.954550 
# 
# From -- ./inp_files/9229.got.cif
#   From: 2010.05.17/outbox.cif.g08.bks.cpg/sg10_5_cif.got.tgz:9229.got - 2010.06.03 11:33:40.
