data_PCOD9151246
_publ_section_title
;
Structure prediction by ZEFSAII (Michael W. Deem and Ramdas Pophale) SiO2 
 PCOD9151246
Probable space group: P 2/M
;
_chemical_formula_sum "Si O2"
_cell_formula_units_Z 26
_cell_length_a 7.972989
_cell_length_b 8.104825
_cell_length_c 26.804443
_cell_angle_alpha 90.000000
_cell_angle_beta 40.391308
_cell_angle_gamma 90.000000
_cell_volume 1122.404826
_symmetry_space_group_name_H-M "P 2/M"
_symmetry_group_IT_number 10
_symmetry_cell_setting 'monoclinic'
loop_
_space_group_symop_operation_xyz
x,y,z
-x,y,-z
-x,-y,-z
x,-y,z
loop_
_atom_site_type_symbol
_atom_site_label
_atom_site_fract_x
_atom_site_fract_y
_atom_site_fract_z
Si Si1 0.510743 0.304286 0.343930
Si Si2 0.637310 0.808220 0.870902
Si Si3 0.114778 0.189033 0.028984
Si Si4 0.118148 0.692038 0.822551
Si Si5 0.210709 0.312542 0.561209
Si Si6 0.009837 0.804346 0.292316
Si Si7 0.000000 0.752139 0.500000
O O1 0.431601 0.500000 0.364477
O O2 0.758064 0.278240 0.323686
O O3 0.275116 0.190528 0.415060
O O4 0.613256 0.265729 0.265234
O O5 0.891534 0.793485 0.847005
O O6 0.734966 0.742629 0.795094
O O7 0.562864 0.000000 0.880273
O O8 0.399064 0.733953 0.955888
O O9 0.923553 0.279217 0.109961
O O10 0.138985 0.000000 0.042131
O O11 0.000000 0.185981 0.000000
O O12 0.074142 0.500000 0.820533
O O13 0.500000 0.237882 0.500000
O O14 0.231087 0.500000 0.575009
O O15 0.014646 0.226085 0.643493
O O16 0.115684 0.317689 0.525964
O O17 0.993701 0.000000 0.286444
#
# Coordination Sequence:
#
# PCOD9151246 Si02
#       7
#     4   4   4   4   4   4   2
#     4  10  20  38  61  85 114 151 196 240 290 354
#     4   9  19  37  60  83 110 152 194 228 277 346
#     4  10  21  37  57  80 111 153 196 233 279 346
#     4  10  21  35  56  86 116 145 185 241 291 336
#     4  11  22  38  62  86 113 153 200 243 288 349
#     4  10  21  38  59  85 120 153 188 241 296 344
#     4  12  23  40  65  88 113 156 205 242 287 354
#
# _framework density 23.164546000000001
#
# number of rings (size 3 to 8) (size 9 to 14) (size 15 to 20)
#    0.000    1.846    1.538    2.769    0.000    5.538 
#    0.000    1.538    0.000    0.000    0.000    0.000 
#    0.000    0.000    0.000    0.000    0.000    0.000 
#
# Total GULP energy -144909.363932 kJ/mol
# GULP energy per Si atom -5573.437074 kJ/mol
# Density = 2.311182 g / cm^3
# Si number density = 23.164546 Si / 1000 Ang^3
#
#
#
# Elastic Constant Matrix: (Units=GPa)
#
#
# Indices 1 2 3 4 5 6 
#
# 1 61.1685 4.8265 46.5234 0.0000 9.6692 0.0000
# 2 4.8265 40.6159 35.7955 0.0000 -1.5973 0.0000
# 3 46.5234 35.7955 214.1006 0.0000 18.7155 0.0000
# 4 0.0000 0.0000 0.0000 36.9860 0.0000 -1.6633
# 5 9.6692 -1.5973 18.7155 0.0000 42.9452 0.0000
# 6 0.0000 0.0000 0.0000 -1.6633 0.0000 -8.9815
#
#
#
# Elastic Compliance Matrix: (Units=1/GPa)
#
#
# Indices 1 2 3 4 5 6 
#
# 1 0.019943 0.001352 -0.004337 0.000000 -0.002550 0.000000
# 2 0.001352 0.029425 -0.005492 0.000000 0.003183 0.000000
# 3 -0.004337 -0.005492 0.006720 0.000000 -0.002156 0.000000
# 4 0.000000 0.000000 0.000000 0.026814 0.000000 -0.004966
# 5 -0.002550 0.003183 -0.002156 0.000000 0.024918 0.000000
# 6 0.000000 0.000000 0.000000 -0.004966 0.000000 -0.110420
#
#
# Mechanical properties :
#
#
# Convention : Reuss Voigt Hill
#
# Bulk Modulus (GPa) = 25.55249 54.46397 40.00823
# Shear Modulus (GPa) = 182.49547 29.43924 105.96735
#
# Velocity S-wave (km/s) = 8.88556 3.56880 6.77088
# Velocity P-wave (km/s) = 10.78545 6.36746 8.85637
#
# Compressibility (1/GPa) = 0.03913514
#
# Stress axis : x y z
#
# Youngs Moduli (GPa) = 50.14270 33.98433 148.81650
#
# Poissons Ratio (x) = -0.04594 0.64537
# Poissons Ratio (y) = -0.06778 0.81725
# Poissons Ratio (z) = 0.21745 0.18663
#
# Static dielectric constant tensor:
#      x y z
#    x 1.850710 0.000000 -0.010080 
#    y 0.000000 1.859080 0.000000 
#    z -0.010080 0.000000 1.943650 
# 
# From -- ./inp_files/91814.got.cif
#   From: 2010.05.17/outbox.cif.g08.bks.cpg/sg10_46_cif.got.tgz:91814.got - 2010.06.03 11:33:40.
