data_PCOD9151419
_publ_section_title
;
Structure prediction by ZEFSAII (Michael W. Deem and Ramdas Pophale) SiO2 
 PCOD9151419
Probable space group: P 2/M
;
_chemical_formula_sum "Si O2"
_cell_formula_units_Z 28
_cell_length_a 33.286054
_cell_length_b 8.166737
_cell_length_c 33.705830
_cell_angle_alpha 90.000000
_cell_angle_beta 170.994843
_cell_angle_gamma 90.000000
_cell_volume 1434.151658
_symmetry_space_group_name_H-M "P 2/M"
_symmetry_group_IT_number 10
_symmetry_cell_setting 'monoclinic'
loop_
_space_group_symop_operation_xyz
x,y,z
-x,y,-z
-x,-y,-z
x,-y,z
loop_
_atom_site_type_symbol
_atom_site_label
_atom_site_fract_x
_atom_site_fract_y
_atom_site_fract_z
Si Si1 0.598419 0.811266 0.245536
Si Si2 0.222950 0.500000 0.749881
Si Si3 0.277296 0.500000 0.250112
Si Si4 0.860383 0.685630 0.254557
Si Si5 0.885618 0.308038 0.754413
Si Si6 0.971558 0.189833 0.751440
Si Si7 0.484762 0.690099 0.748852
Si Si8 0.340516 0.189711 0.253573
O O1 0.559961 0.708335 0.247914
O O2 0.871425 0.771417 0.492244
O O3 0.588738 0.000000 0.247995
O O4 0.373299 0.773078 0.994981
O O5 0.191245 0.653152 0.749244
O O6 0.000000 0.500000 0.500000
O O7 0.500000 0.500000 0.000000
O O8 0.500000 0.500000 0.500000
O O9 0.304043 0.333314 0.250485
O O10 0.000000 0.500000 0.000000
O O11 0.877482 0.500000 0.254386
O O12 0.874977 0.500000 0.755389
O O13 0.618631 0.222855 0.505610
O O14 0.930536 0.292510 0.751356
O O15 0.118982 0.222465 0.005121
O O16 0.752239 0.231993 0.505842
O O17 0.953656 0.000000 0.745016
O O18 0.248908 0.226275 0.003480
O O19 0.500858 0.500000 0.753673
O O20 0.325373 0.000000 0.252732
#
# Coordination Sequence:
#
# PCOD9151419 Si02
#       8
#     4   2   2   4   4   4   4   4
#     4  12  23  40  61  89 127 167 207 259 314 369
#     4  10  20  38  68  96 118 152 202 252 304 368
#     4  12  26  46  72 102 138 170 212 270 328 398
#     4  10  22  38  64  92 118 158 209 251 298 373
#     4  12  23  44  69  96 134 176 225 272 324 384
#     4  12  25  42  62  95 129 172 220 272 326 374
#     4  12  25  42  62  88 128 171 220 268 317 371
#     4  12  25  45  71 103 133 177 219 271 328 395
#
# _framework density 19.523736
#
# number of rings (size 3 to 8) (size 9 to 14) (size 15 to 20)
#    0.429    0.000    1.429    9.000    0.000    0.571 
#    0.000    0.000    0.000    8.571    0.000    0.000 
#    0.000    0.000    0.000    0.000    0.000    0.000 
#
# Total GULP energy -156603.641466 kJ/mol
# GULP energy per Si atom -5592.987195 kJ/mol
# Density = 1.947930 g / cm^3
# Si number density = 19.523736 Si / 1000 Ang^3
#
#
#
# Elastic Constant Matrix: (Units=GPa)
#
#
# Indices 1 2 3 4 5 6 
#
# 1 108.4884 2.7005 45.3205 0.0000 -8.2817 0.0000
# 2 2.7005 110.6440 12.2157 0.0000 -2.0980 0.0000
# 3 45.3205 12.2157 141.8154 0.0000 -11.2710 0.0000
# 4 0.0000 0.0000 0.0000 18.6421 0.0000 1.1728
# 5 -8.2817 -2.0980 -11.2710 0.0000 9.7870 0.0000
# 6 0.0000 0.0000 0.0000 1.1728 0.0000 13.4221
#
#
#
# Elastic Compliance Matrix: (Units=1/GPa)
#
#
# Indices 1 2 3 4 5 6 
#
# 1 0.010927 0.000179 -0.003049 0.000000 0.005774 0.000000
# 2 0.000179 0.009140 -0.000745 0.000000 0.001253 0.000000
# 3 -0.003049 -0.000745 0.008665 0.000000 0.007240 0.000000
# 4 0.000000 0.000000 0.000000 0.053939 0.000000 -0.004713
# 5 0.005774 0.001253 0.007240 0.000000 0.115668 0.000000
# 6 0.000000 0.000000 0.000000 -0.004713 0.000000 0.074916
#
#
# Mechanical properties :
#
#
# Convention : Reuss Voigt Hill
#
# Bulk Modulus (GPa) = 46.50352 53.49123 49.99737
# Shear Modulus (GPa) = 17.38217 28.41766 22.89991
#
# Velocity S-wave (km/s) = 2.98704 3.81930 3.42852
# Velocity P-wave (km/s) = 5.98057 6.84886 6.42939
#
# Compressibility (1/GPa) = 0.02150375
#
# Stress axis : x y z
#
# Youngs Moduli (GPa) = 91.51259 109.41359 115.40344
#
# Poissons Ratio (x) = -0.01963 0.35183
# Poissons Ratio (y) = -0.01641 0.08598
# Poissons Ratio (z) = 0.27899 0.08151
#
# Static dielectric constant tensor:
#      x y z
#    x 1.650310 0.000000 -0.001490 
#    y 0.000000 1.693330 0.000000 
#    z -0.001490 0.000000 1.663270 
# 
# From -- ./inp_files/96060.got.cif
#   From: 2010.05.17/outbox.cif.g08.bks.cpg/sg10_49_cif.got.tgz:96060.got - 2010.06.03 11:33:40.
