data_PCOD9151832
_publ_section_title
;
Structure prediction by ZEFSAII (Michael W. Deem and Ramdas Pophale) SiO2 
 PCOD9151832
Probable space group: P 2/M
;
_chemical_formula_sum "Si O2"
_cell_formula_units_Z 24
_cell_length_a 5.157697
_cell_length_b 13.285393
_cell_length_c 21.157369
_cell_angle_alpha 90.000000
_cell_angle_beta 52.670025
_cell_angle_gamma 90.000000
_cell_volume 1152.774652
_symmetry_space_group_name_H-M "P 2/M"
_symmetry_group_IT_number 10
_symmetry_cell_setting 'monoclinic'
loop_
_space_group_symop_operation_xyz
x,y,z
-x,y,-z
-x,-y,-z
x,-y,z
loop_
_atom_site_type_symbol
_atom_site_label
_atom_site_fract_x
_atom_site_fract_y
_atom_site_fract_z
Si Si1 0.781639 0.245181 0.415100
Si Si2 0.194808 0.681214 0.244036
Si Si3 0.072783 0.613091 0.848704
Si Si4 0.485080 0.110649 0.788666
Si Si5 0.361733 0.883153 0.380227
Si Si6 0.871235 0.188864 0.947847
O O1 0.500000 0.292161 0.500000
O O2 0.601894 0.165871 0.395325
O O3 0.982813 0.318503 0.339269
O O4 0.035416 0.182800 0.420375
O O5 0.539841 0.625932 0.199761
O O6 0.295922 0.798177 0.217859
O O7 0.006550 0.638133 0.212228
O O8 0.971277 0.500000 0.879385
O O9 0.897846 0.697833 0.916486
O O10 0.484517 0.121620 0.712949
O O11 0.124783 0.124935 0.869104
O O12 0.615860 0.000000 0.784826
O O13 0.296677 0.000000 0.404128
O O14 0.500000 0.153766 0.000000
O O15 0.000000 0.187827 0.000000
#
# Coordination Sequence:
#
# PCOD9151832 Si02
#       6
#     4   4   4   4   4   4
#     4  11  21  34  55  82 117 155 185 234 299 336
#     4  10  21  40  61  88 117 147 199 240 273 345
#     4  11  23  42  67  86 109 149 191 240 297 347
#     4   9  20  39  60  82 117 163 200 231 275 333
#     4  10  21  35  53  79 112 156 207 243 270 325
#     4  11  23  38  57  87 122 148 186 240 288 344
#
# _framework density 20.819334000000001
#
# number of rings (size 3 to 8) (size 9 to 14) (size 15 to 20)
#    0.000    1.667    0.000    6.500    0.000    5.333 
#    0.000   10.000    0.000    3.000    0.000    0.000 
#    0.000    0.000    0.000    0.000    0.000    0.000 
#
# Total GULP energy -134236.992249 kJ/mol
# GULP energy per Si atom -5593.208010 kJ/mol
# Density = 2.077195 g / cm^3
# Si number density = 20.819334 Si / 1000 Ang^3
#
#
#
# Elastic Constant Matrix: (Units=GPa)
#
#
# Indices 1 2 3 4 5 6 
#
# 1 85.3211 -1.3475 6.2583 0.0000 9.3070 0.0000
# 2 -1.3475 53.1098 -13.2307 0.0000 6.4603 0.0000
# 3 6.2583 -13.2307 99.1064 0.0000 -18.4088 0.0000
# 4 0.0000 0.0000 0.0000 -6.6907 0.0000 -5.8728
# 5 9.3070 6.4603 -18.4088 0.0000 30.7296 0.0000
# 6 0.0000 0.0000 0.0000 -5.8728 0.0000 2.5122
#
#
#
# Elastic Compliance Matrix: (Units=1/GPa)
#
#
# Indices 1 2 3 4 5 6 
#
# 1 0.012372 0.000499 -0.001609 0.000000 -0.004816 0.000000
# 2 0.000499 0.019722 0.002029 0.000000 -0.003082 0.000000
# 3 -0.001609 0.002029 0.011785 0.000000 0.007121 0.000000
# 4 0.000000 0.000000 0.000000 -0.048973 0.000000 -0.114483
# 5 -0.004816 -0.003082 0.007121 0.000000 0.038914 0.000000
# 6 0.000000 0.000000 0.000000 -0.114483 0.000000 0.130427
#
#
# Mechanical properties :
#
#
# Convention : Reuss Voigt Hill
#
# Bulk Modulus (GPa) = 21.87414 24.54416 23.20915
# Shear Modulus (GPa) = 28.14533 21.70070 24.92301
#
# Velocity S-wave (km/s) = 3.68079 3.23202 3.46368
# Velocity P-wave (km/s) = 5.34731 5.07372 5.21231
#
# Compressibility (1/GPa) = 0.04571608
#
# Stress axis : x y z
#
# Youngs Moduli (GPa) = 80.82992 50.70503 84.85117
#
# Poissons Ratio (x) = -0.02529 0.13654
# Poissons Ratio (y) = -0.04032 -0.17216
# Poissons Ratio (z) = 0.13007 -0.10288
#
# Static dielectric constant tensor:
#      x y z
#    x 1.720510 0.000000 0.000220 
#    y 0.000000 1.735220 0.000000 
#    z 0.000220 0.000000 1.807440 
# 
# From -- ./inp_files/81284.got.cif
#   From: 2010.05.17/outbox.cif.g08.bks.cpg/sg10_41_cif.got.tgz:81284.got - 2010.06.03 11:33:40.
