data_PCOD9151646
_publ_section_title
;
Structure prediction by ZEFSAII (Michael W. Deem and Ramdas Pophale) SiO2 
 PCOD9151646
Probable space group: P 2/M
;
_chemical_formula_sum "Si O2"
_cell_formula_units_Z 32
_cell_length_a 19.415675
_cell_length_b 14.122816
_cell_length_c 20.934309
_cell_angle_alpha 90.000000
_cell_angle_beta 21.704512
_cell_angle_gamma 90.000000
_cell_volume 2122.866729
_symmetry_space_group_name_H-M "P 2/M"
_symmetry_group_IT_number 10
_symmetry_cell_setting 'monoclinic'
loop_
_space_group_symop_operation_xyz
x,y,z
-x,y,-z
-x,-y,-z
x,-y,z
loop_
_atom_site_type_symbol
_atom_site_label
_atom_site_fract_x
_atom_site_fract_y
_atom_site_fract_z
Si Si1 0.515919 0.613182 0.560078
Si Si2 0.092991 0.701869 0.737679
Si Si3 0.263496 0.108875 0.632069
Si Si4 0.857933 0.700913 0.065383
Si Si5 0.867115 0.614984 0.556205
Si Si6 0.067820 0.614830 0.251996
Si Si7 0.706793 0.891496 0.241566
Si Si8 0.477685 0.385008 0.945606
O O1 0.500000 0.646949 0.500000
O O2 0.515568 0.500000 0.560476
O O3 0.709645 0.650591 0.420545
O O4 0.337794 0.650216 0.752205
O O5 0.142235 0.813092 0.700855
O O6 0.006663 0.667007 0.746124
O O7 0.954155 0.677927 0.915645
O O8 0.252633 0.124472 0.718089
O O9 0.483545 0.119553 0.426182
O O10 0.211569 0.000000 0.664072
O O11 0.814040 0.812791 0.109419
O O12 0.000000 0.675181 0.000000
O O13 0.868662 0.500000 0.556584
O O14 0.947498 0.640855 0.418206
O O15 0.657182 0.646436 0.751059
O O16 0.000000 0.646031 0.500000
O O17 0.057739 0.500000 0.252189
O O18 0.280784 0.640944 0.084907
O O19 0.756831 0.000000 0.183074
O O20 0.479889 0.500000 0.945294
O O21 0.500000 0.354012 0.000000
#
# Coordination Sequence:
#
# PCOD9151646 Si02
#       8
#     4   4   4   4   4   4   4   4
#     4  11  23  38  52  65  90 134 185 224 249 283
#     4  12  23  36  52  73 105 131 167 215 264 299
#     4   9  17  32  56  76  97 126 158 205 268 324
#     4  12  22  34  54  74  94 129 176 220 259 308
#     4   9  15  27  50  73  93 127 166 197 241 294
#     4  10  21  33  46  71 103 135 167 202 245 290
#     4   9  17  32  55  80  96 115 160 218 269 320
#     4   9  15  27  49  73  97 124 159 201 239 287
#
# _framework density 15.073956000000001
#
# number of rings (size 3 to 8) (size 9 to 14) (size 15 to 20)
#    0.000    1.875    5.000    1.125    0.000    3.000 
#    0.000    1.250    0.000    0.000    0.000    0.000 
#    0.000    1.000    0.000    0.000    0.000    0.250 
#
# Total GULP energy -178549.461975 kJ/mol
# GULP energy per Si atom -5579.670687 kJ/mol
# Density = 1.503965 g / cm^3
# Si number density = 15.073956 Si / 1000 Ang^3
#
#
#
# Elastic Constant Matrix: (Units=GPa)
#
#
# Indices 1 2 3 4 5 6 
#
# 1 135.7195 39.7009 78.9420 0.0000 -3.4808 0.0000
# 2 39.7009 53.3630 36.4656 0.0000 -2.9309 0.0000
# 3 78.9420 36.4656 146.8572 0.0000 3.1784 0.0000
# 4 0.0000 0.0000 0.0000 4.0845 0.0000 -6.7247
# 5 -3.4808 -2.9309 3.1784 0.0000 23.6297 0.0000
# 6 0.0000 0.0000 0.0000 -6.7247 0.0000 11.4254
#
#
#
# Elastic Compliance Matrix: (Units=1/GPa)
#
#
# Indices 1 2 3 4 5 6 
#
# 1 0.011956 -0.005272 -0.005157 0.000000 0.001801 0.000000
# 2 -0.005272 0.025197 -0.003484 0.000000 0.002817 0.000000
# 3 -0.005157 -0.003484 0.010503 0.000000 -0.002604 0.000000
# 4 0.000000 0.000000 0.000000 7.903487 0.000000 4.651807
# 5 0.001801 0.002817 -0.002604 0.000000 0.043285 0.000000
# 6 0.000000 0.000000 0.000000 4.651807 0.000000 2.825469
#
#
# Mechanical properties :
#
#
# Convention : Reuss Voigt Hill
#
# Bulk Modulus (GPa) = 50.42643 71.79519 61.11081
# Shear Modulus (GPa) = 0.46065 19.88334 10.17199
#
# Velocity S-wave (km/s) = 0.55340 3.63582 2.60052
# Velocity P-wave (km/s) = 5.82526 8.08440 7.04596
#
# Compressibility (1/GPa) = 0.01983087
#
# Stress axis : x y z
#
# Youngs Moduli (GPa) = 83.64002 39.68688 95.21418
#
# Poissons Ratio (x) = 0.20924 0.49099
# Poissons Ratio (y) = 0.44097 0.33168
# Poissons Ratio (z) = 0.43131 0.13825
#
# Static dielectric constant tensor:
#      x y z
#    x 1.472110 0.000000 0.004760 
#    y 0.000000 1.499490 0.000000 
#    z 0.004760 0.000000 1.528470 
# 
# From -- ./inp_files/85941.got.cif
#   From: 2010.05.17/outbox.cif.g08.bks.cpg/sg10_43_cif.got.tgz:85941.got - 2010.06.03 11:33:40.
