data_PCOD9151835
_publ_section_title
;
Structure prediction by ZEFSAII (Michael W. Deem and Ramdas Pophale) SiO2 
 PCOD9151835
Probable space group: P 2/M
;
_chemical_formula_sum "Si O2"
_cell_formula_units_Z 24
_cell_length_a 11.976551
_cell_length_b 8.686746
_cell_length_c 12.744958
_cell_angle_alpha 90.000000
_cell_angle_beta 90.931011
_cell_angle_gamma 90.000000
_cell_volume 1325.775418
_symmetry_space_group_name_H-M "P 2/M"
_symmetry_group_IT_number 10
_symmetry_cell_setting 'monoclinic'
loop_
_space_group_symop_operation_xyz
x,y,z
-x,y,-z
-x,-y,-z
x,-y,z
loop_
_atom_site_type_symbol
_atom_site_label
_atom_site_fract_x
_atom_site_fract_y
_atom_site_fract_z
Si Si1 0.733570 0.816559 0.283182
Si Si2 0.505083 0.814334 0.622810
Si Si3 0.134943 0.317296 0.902483
Si Si4 0.260459 0.683376 0.312133
Si Si5 0.894793 0.182814 0.870102
Si Si6 0.871879 0.315492 0.475803
O O1 0.610418 0.772673 0.322038
O O2 0.770987 0.734140 0.177483
O O3 0.819846 0.769171 0.375637
O O4 0.736659 0.000000 0.268185
O O5 0.500000 0.768332 0.500000
O O6 0.612599 0.739334 0.677563
O O7 0.516457 0.000000 0.626002
O O8 0.134094 0.500000 0.916699
O O9 0.014703 0.263903 0.855486
O O10 0.145334 0.236178 0.015430
O O11 0.255215 0.500000 0.296455
O O12 0.192028 0.765269 0.219194
O O13 0.201110 0.719093 0.422318
O O14 0.910639 0.000000 0.869134
O O15 0.867821 0.500000 0.456872
O O16 0.000000 0.273223 0.500000
#
# Coordination Sequence:
#
# PCOD9151835 Si02
#       6
#     4   4   4   4   4   4
#     4  11  22  37  59  85 115 153 199 242 290 348
#     4  10  21  39  59  82 116 159 200 243 293 347
#     4  11  22  39  62  88 121 154 192 240 295 349
#     4  11  22  36  58  87 119 155 197 242 293 348
#     4  11  22  39  63  89 119 154 196 238 289 351
#     4  10  21  35  53  81 117 152 187 236 294 351
#
# _framework density 18.102613999999999
#
# number of rings (size 3 to 8) (size 9 to 14) (size 15 to 20)
#    0.000    1.333    1.667    6.000    0.000    4.000 
#    0.000    0.833    0.000    5.000    0.000    0.000 
#    0.000    0.000    0.000    0.000    0.000    0.000 
#
# Total GULP energy -134192.082817 kJ/mol
# GULP energy per Si atom -5591.336784 kJ/mol
# Density = 1.806141 g / cm^3
# Si number density = 18.102614 Si / 1000 Ang^3
#
#
#
# Elastic Constant Matrix: (Units=GPa)
#
#
# Indices 1 2 3 4 5 6 
#
# 1 48.1241 0.8529 9.7394 0.0000 -22.5029 0.0000
# 2 0.8529 38.5589 8.8011 0.0000 -8.0737 0.0000
# 3 9.7394 8.8011 47.0563 0.0000 -12.0394 0.0000
# 4 0.0000 0.0000 0.0000 33.8669 0.0000 5.4175
# 5 -22.5029 -8.0737 -12.0394 0.0000 30.5082 0.0000
# 6 0.0000 0.0000 0.0000 5.4175 0.0000 27.5616
#
#
#
# Elastic Compliance Matrix: (Units=1/GPa)
#
#
# Indices 1 2 3 4 5 6 
#
# 1 0.032525 0.004755 -0.001292 0.000000 0.024739 0.000000
# 2 0.004755 0.028725 -0.003909 0.000000 0.009567 0.000000
# 3 -0.001292 -0.003909 0.024183 0.000000 0.007556 0.000000
# 4 0.000000 0.000000 0.000000 0.030486 0.000000 -0.005992
# 5 0.024739 0.009567 0.007556 0.000000 0.056539 0.000000
# 6 0.000000 0.000000 0.000000 -0.005992 0.000000 0.037460
#
#
# Mechanical properties :
#
#
# Convention : Reuss Voigt Hill
#
# Bulk Modulus (GPa) = 11.82849 19.16956 15.49903
# Shear Modulus (GPa) = 20.92150 26.01040 23.46595
#
# Velocity S-wave (km/s) = 3.40327 3.79467 3.60429
# Velocity P-wave (km/s) = 4.68949 5.46001 5.08935
#
# Compressibility (1/GPa) = 0.08454165
#
# Stress axis : x y z
#
# Youngs Moduli (GPa) = 30.74578 34.81338 41.35166
#
# Poissons Ratio (x) = -0.16555 0.05341
# Poissons Ratio (y) = -0.14621 0.16165
# Poissons Ratio (z) = 0.03971 0.13609
#
# Static dielectric constant tensor:
#      x y z
#    x 1.598700 0.000000 -0.014650 
#    y 0.000000 1.606930 0.000000 
#    z -0.014650 0.000000 1.598730 
# 
# From -- ./inp_files/45168.got.cif
#   From: 2010.05.17/outbox.cif.g08.bks.cpg/sg10_23_cif.got.tgz:45168.got - 2010.06.03 11:33:40.
