data_PCOD9151955
_publ_section_title
;
Structure prediction by ZEFSAII (Michael W. Deem and Ramdas Pophale) SiO2 
 PCOD9151955
Probable space group: P 2/M
;
_chemical_formula_sum "Si O2"
_cell_formula_units_Z 24
_cell_length_a 16.258348
_cell_length_b 15.364282
_cell_length_c 9.251064
_cell_angle_alpha 90.000000
_cell_angle_beta 30.834336
_cell_angle_gamma 90.000000
_cell_volume 1184.467056
_symmetry_space_group_name_H-M "P 2/M"
_symmetry_group_IT_number 10
_symmetry_cell_setting 'monoclinic'
loop_
_space_group_symop_operation_xyz
x,y,z
-x,y,-z
-x,-y,-z
x,-y,z
loop_
_atom_site_type_symbol
_atom_site_label
_atom_site_fract_x
_atom_site_fract_y
_atom_site_fract_z
Si Si1 0.338600 0.644514 0.180171
Si Si2 0.356826 0.397568 0.819337
Si Si3 0.170566 0.897626 0.811923
Si Si4 0.993720 0.360859 0.676981
Si Si5 0.005024 0.849649 0.657711
Si Si6 0.666733 0.158225 0.695755
O O1 0.335199 0.741842 0.249917
O O2 0.163030 0.606686 0.485067
O O3 0.500000 0.602538 0.000000
O O4 0.350512 0.647145 0.987110
O O5 0.500000 0.365973 0.500000
O O6 0.382999 0.500000 0.808300
O O7 0.182701 0.387578 0.005876
O O8 0.306886 0.849310 0.515747
O O9 0.188859 0.000000 0.758197
O O10 0.000000 0.867819 0.000000
O O11 0.143447 0.881212 0.021447
O O12 0.000000 0.389332 0.500000
O O13 0.000130 0.255728 0.670988
O O14 0.173399 0.880965 0.472400
O O15 0.000000 0.876775 0.500000
O O16 0.500000 0.118298 0.000000
#
# Coordination Sequence:
#
# PCOD9151955 Si02
#       6
#     4   4   4   4   4   4
#     4   9  18  33  53  78 102 131 175 219 259 300
#     4  10  21  36  53  75 105 139 172 209 260 320
#     4   9  18  32  51  75 105 142 175 207 258 317
#     4   8  16  31  51  73  99 134 172 207 253 312
#     4   9  17  32  53  77 103 133 176 219 254 301
#     4   9  18  33  51  74 103 136 174 213 259 311
#
# _framework density 20.262277999999998
#
# number of rings (size 3 to 8) (size 9 to 14) (size 15 to 20)
#    0.000    3.000    0.000    1.000    0.000    6.667 
#    0.000    3.333    0.000    3.000    0.000    0.000 
#    0.000    0.000    0.000    0.000    0.000    0.000 
#
# Total GULP energy -133613.738940 kJ/mol
# GULP energy per Si atom -5567.239122 kJ/mol
# Density = 2.021616 g / cm^3
# Si number density = 20.262278 Si / 1000 Ang^3
#
#
#
# Elastic Constant Matrix: (Units=GPa)
#
#
# Indices 1 2 3 4 5 6 
#
# 1 78.8182 4.4953 61.9980 0.0000 -10.4793 0.0000
# 2 4.4953 39.5241 25.2370 0.0000 9.1815 0.0000
# 3 61.9980 25.2370 196.9409 0.0000 -1.6850 0.0000
# 4 0.0000 0.0000 0.0000 27.5106 0.0000 8.1630
# 5 -10.4793 9.1815 -1.6850 0.0000 44.7210 0.0000
# 6 0.0000 0.0000 0.0000 8.1630 0.0000 55.8954
#
#
#
# Elastic Compliance Matrix: (Units=1/GPa)
#
#
# Indices 1 2 3 4 5 6 
#
# 1 0.017534 0.000694 -0.005576 0.000000 0.003756 0.000000
# 2 0.000694 0.029169 -0.004008 0.000000 -0.005977 0.000000
# 3 -0.005576 -0.004008 0.007345 0.000000 -0.000207 0.000000
# 4 0.000000 0.000000 0.000000 0.037996 0.000000 -0.005549
# 5 0.003756 -0.005977 -0.000207 0.000000 0.024460 0.000000
# 6 0.000000 0.000000 0.000000 -0.005549 0.000000 0.018701
#
#
# Mechanical properties :
#
#
# Convention : Reuss Voigt Hill
#
# Bulk Modulus (GPa) = 27.57251 55.41597 41.49424
# Shear Modulus (GPa) = 30.28931 40.52893 35.40912
#
# Velocity S-wave (km/s) = 3.87054 4.47723 4.18489
# Velocity P-wave (km/s) = 5.79760 7.35773 6.62375
#
# Compressibility (1/GPa) = 0.03626800
#
# Stress axis : x y z
#
# Youngs Moduli (GPa) = 57.03322 34.28243 136.14812
#
# Poissons Ratio (x) = -0.02379 0.75923
# Poissons Ratio (y) = -0.03958 0.54562
# Poissons Ratio (z) = 0.31804 0.13739
#
# Static dielectric constant tensor:
#      x y z
#    x 1.771880 0.000000 -0.027710 
#    y 0.000000 1.731570 0.000000 
#    z -0.027710 0.000000 1.770130 
# 
# From -- ./inp_files/32961.got.cif
#   From: 2010.05.17/outbox.cif.g08.bks.cpg/sg10_17_cif.got.tgz:32961.got - 2010.06.03 11:33:40.
