data_PCOD9151328
_publ_section_title
;
Structure prediction by ZEFSAII (Michael W. Deem and Ramdas Pophale) SiO2 
 PCOD9151328
Probable space group: P 2/M
;
_chemical_formula_sum "Si O2"
_cell_formula_units_Z 28
_cell_length_a 28.030715
_cell_length_b 8.744149
_cell_length_c 9.454646
_cell_angle_alpha 90.000000
_cell_angle_beta 142.741970
_cell_angle_gamma 90.000000
_cell_volume 1402.953865
_symmetry_space_group_name_H-M "P 2/M"
_symmetry_group_IT_number 10
_symmetry_cell_setting 'monoclinic'
loop_
_space_group_symop_operation_xyz
x,y,z
-x,y,-z
-x,-y,-z
x,-y,z
loop_
_atom_site_type_symbol
_atom_site_label
_atom_site_fract_x
_atom_site_fract_y
_atom_site_fract_z
Si Si1 0.479054 0.817222 0.289840
Si Si2 0.619628 0.317686 0.438801
Si Si3 0.204955 0.819122 0.645219
Si Si4 0.074393 0.676405 0.780114
Si Si5 0.967836 0.678324 0.766871
Si Si6 0.232340 0.317322 0.006118
Si Si7 0.662910 0.316981 0.221265
O O1 0.500000 0.767656 0.500000
O O2 0.548572 0.768715 0.347273
O O3 0.469901 0.000000 0.269476
O O4 0.400327 0.742535 0.041541
O O5 0.601464 0.500000 0.393777
O O6 0.696837 0.295367 0.717471
O O7 0.637066 0.269286 0.318630
O O8 0.114947 0.762524 0.439189
O O9 0.252455 0.745153 0.627545
O O10 0.208583 0.000000 0.642839
O O11 0.244171 0.764084 0.884681
O O12 0.096588 0.500000 0.866534
O O13 0.000000 0.675456 0.500000
O O14 0.037052 0.746402 0.832445
O O15 0.151203 0.741478 0.885968
O O16 0.954455 0.500000 0.691083
O O17 0.000000 0.678338 0.000000
O O18 0.224563 0.500000 0.960156
O O19 0.664963 0.500000 0.224330
#
# Coordination Sequence:
#
# PCOD9151328 Si02
#       7
#     4   4   4   4   4   4   4
#     4  11  24  42  65  93 127 163 199 238 295 365
#     4  10  23  40  64  95 123 154 200 255 302 351
#     4  12  25  40  58  86 126 165 203 246 304 367
#     4   9  16  31  58  88 114 147 197 253 301 345
#     4  10  21  37  62  88 116 156 206 257 305 356
#     4  10  20  38  63  89 119 156 204 255 301 354
#     4  11  24  42  65  92 123 157 204 254 300 353
#
# _framework density 19.957892000000001
#
# number of rings (size 3 to 8) (size 9 to 14) (size 15 to 20)
#    0.000    1.571    1.429    3.429    2.000    7.143 
#    0.000    1.429    0.000    0.000    0.000    0.000 
#    0.000    0.000    0.000    0.000    0.000    0.000 
#
# Total GULP energy -156442.369357 kJ/mol
# GULP energy per Si atom -5587.227477 kJ/mol
# Density = 1.991247 g / cm^3
# Si number density = 19.957892 Si / 1000 Ang^3
#
#
#
# Elastic Constant Matrix: (Units=GPa)
#
#
# Indices 1 2 3 4 5 6 
#
# 1 136.9310 30.4181 12.9063 0.0000 -7.1095 0.0000
# 2 30.4181 52.0238 22.0799 0.0000 -2.4407 0.0000
# 3 12.9063 22.0799 47.0944 0.0000 -10.6038 0.0000
# 4 0.0000 0.0000 0.0000 -235.0661 0.0000 -109.7533
# 5 -7.1095 -2.4407 -10.6038 0.0000 35.3429 0.0000
# 6 0.0000 0.0000 0.0000 -109.7533 0.0000 -61.9002
#
#
#
# Elastic Compliance Matrix: (Units=1/GPa)
#
#
# Indices 1 2 3 4 5 6 
#
# 1 0.008463 -0.005038 0.000373 0.000000 0.001466 0.000000
# 2 -0.005038 0.027108 -0.011942 0.000000 -0.002724 0.000000
# 3 0.000373 -0.011942 0.028486 0.000000 0.007797 0.000000
# 4 0.000000 0.000000 0.000000 -0.024712 0.000000 0.043816
# 5 0.001466 -0.002724 0.007797 0.000000 0.030740 0.000000
# 6 0.000000 0.000000 0.000000 0.043816 0.000000 -0.093844
#
#
# Mechanical properties :
#
#
# Convention : Reuss Voigt Hill
#
# Bulk Modulus (GPa) = 32.42213 40.76199 36.59206
# Shear Modulus (GPa) = 253.32801 -40.94835 106.18983
#
# Velocity S-wave (km/s) = 11.27860 -4.53452 7.30222
# Velocity P-wave (km/s) = 13.63413 2.63582 9.45891
#
# Compressibility (1/GPa) = 0.03084313
#
# Stress axis : x y z
#
# Youngs Moduli (GPa) = 118.16096 36.88916 35.10443
#
# Poissons Ratio (x) = 0.18584 -0.01309
# Poissons Ratio (y) = 0.59526 0.41923
# Poissons Ratio (z) = -0.04404 0.44054
#
# Static dielectric constant tensor:
#      x y z
#    x 1.747570 0.000000 -0.010460 
#    y 0.000000 1.682740 0.000000 
#    z -0.010460 0.000000 1.685730 
# 
# From -- ./inp_files/37327.got.cif
#   From: 2010.05.17/outbox.cif.g08.bks.cpg/sg10_19_cif.got.tgz:37327.got - 2010.06.03 11:33:40.
