data_PCOD9151209
_publ_section_title
;
Structure prediction by ZEFSAII (Michael W. Deem and Ramdas Pophale) SiO2 
 PCOD9151209
Probable space group: P 2/M
;
_chemical_formula_sum "Si O2"
_cell_formula_units_Z 26
_cell_length_a 5.352772
_cell_length_b 21.077414
_cell_length_c 13.105130
_cell_angle_alpha 90.000000
_cell_angle_beta 123.705096
_cell_angle_gamma 90.000000
_cell_volume 1230.016731
_symmetry_space_group_name_H-M "P 2/M"
_symmetry_group_IT_number 10
_symmetry_cell_setting 'monoclinic'
loop_
_space_group_symop_operation_xyz
x,y,z
-x,y,-z
-x,-y,-z
x,-y,z
loop_
_atom_site_type_symbol
_atom_site_label
_atom_site_fract_x
_atom_site_fract_y
_atom_site_fract_z
Si Si1 0.818880 0.637351 0.130673
Si Si2 0.236820 0.252590 0.201097
Si Si3 0.292644 0.880530 0.134853
Si Si4 0.841951 0.190846 0.610895
Si Si5 0.135743 0.500000 0.918545
Si Si6 0.165147 0.318351 0.630438
Si Si7 0.052767 0.073331 0.742445
O O1 0.957818 0.567175 0.150682
O O2 0.815990 0.651831 0.251610
O O3 0.000062 0.694203 0.117587
O O4 0.500000 0.636339 0.000000
O O5 0.349318 0.196811 0.152200
O O6 0.103158 0.208976 0.259005
O O7 0.498356 0.294361 0.312350
O O8 0.593678 0.911930 0.157738
O O9 0.183885 0.911069 0.218885
O O10 0.000000 0.889619 0.000000
O O11 0.500000 0.186439 0.500000
O O12 0.981198 0.253059 0.594805
O O13 0.985589 0.121959 0.634009
O O14 0.500000 0.500000 0.000000
O O15 0.000000 0.500000 0.000000
O O16 0.000000 0.354941 0.500000
O O17 0.019936 0.000000 0.709078
#
# Coordination Sequence:
#
# PCOD9151209 Si02
#       7
#     4   4   4   4   2   4   4
#     4  10  25  40  67 104 137 179 228 277 331 400
#     4  10  22  36  63  92 130 164 219 279 334 393
#     4  11  24  39  61  87 123 165 216 275 338 399
#     4  10  20  38  59  88 122 166 216 278 339 405
#     4  10  24  46  69  99 147 191 227 269 333 398
#     4  11  21  39  67  97 132 176 224 280 346 398
#     4  11  24  41  59  87 122 168 219 273 334 408
#
# _framework density 21.137924999999999
#
# number of rings (size 3 to 8) (size 9 to 14) (size 15 to 20)
#    0.000    1.538    3.077    0.923    6.462    2.154 
#    0.000    0.385    0.000    4.154    0.000    0.000 
#    0.000    0.000    0.000    0.000    0.000    0.000 
#
# Total GULP energy -144748.364365 kJ/mol
# GULP energy per Si atom -5567.244783 kJ/mol
# Density = 2.108981 g / cm^3
# Si number density = 21.137925 Si / 1000 Ang^3
#
#
#
# Elastic Constant Matrix: (Units=GPa)
#
#
# Indices 1 2 3 4 5 6 
#
# 1 64.2440 22.4002 18.9525 0.0000 2.8628 0.0000
# 2 22.4002 157.5750 34.3098 0.0000 -3.5217 0.0000
# 3 18.9525 34.3098 92.8598 0.0000 0.3249 0.0000
# 4 0.0000 0.0000 0.0000 23.0078 0.0000 22.2596
# 5 2.8628 -3.5217 0.3249 0.0000 38.5125 0.0000
# 6 0.0000 0.0000 0.0000 22.2596 0.0000 18.1032
#
#
#
# Elastic Compliance Matrix: (Units=1/GPa)
#
#
# Indices 1 2 3 4 5 6 
#
# 1 0.017101 -0.001853 -0.002801 0.000000 -0.001417 0.000000
# 2 -0.001853 0.007119 -0.002255 0.000000 0.000808 0.000000
# 3 -0.002801 -0.002255 0.012174 0.000000 -0.000101 0.000000
# 4 0.000000 0.000000 0.000000 -0.229221 0.000000 0.281850
# 5 -0.001417 0.000808 -0.000101 0.000000 0.026146 0.000000
# 6 0.000000 0.000000 0.000000 0.281850 0.000000 -0.291323
#
#
# Mechanical properties :
#
#
# Convention : Reuss Voigt Hill
#
# Bulk Modulus (GPa) = 44.29326 51.77821 48.03573
# Shear Modulus (GPa) = -11.45051 31.85911 10.20430
#
# Velocity S-wave (km/s) = -2.32998 3.88648 2.19954
# Velocity P-wave (km/s) = 3.70965 6.68493 5.40600
#
# Compressibility (1/GPa) = 0.02257680
#
# Stress axis : x y z
#
# Youngs Moduli (GPa) = 58.47582 140.47730 82.14213
#
# Poissons Ratio (x) = 0.26029 0.23006
# Poissons Ratio (y) = 0.10835 0.18522
# Poissons Ratio (z) = 0.16378 0.31675
#
# Static dielectric constant tensor:
#      x y z
#    x 1.797020 0.000000 -0.286110 
#    y 0.000000 1.773580 0.000000 
#    z -0.286110 0.000000 1.366700 
# 
# From -- ./inp_files/59653.got.cif
#   From: 2010.05.17/outbox.cif.g08.bks.cpg/sg10_30_cif.got.tgz:59653.got - 2010.06.03 11:33:40.
