data_PCOD9151590
_publ_section_title
;
Structure prediction by ZEFSAII (Michael W. Deem and Ramdas Pophale) SiO2 
 PCOD9151590
Probable space group: P 2/M
;
_chemical_formula_sum "Si O2"
_cell_formula_units_Z 32
_cell_length_a 16.256219
_cell_length_b 15.231410
_cell_length_c 11.519259
_cell_angle_alpha 90.000000
_cell_angle_beta 146.352626
_cell_angle_gamma 90.000000
_cell_volume 1580.362455
_symmetry_space_group_name_H-M "P 2/M"
_symmetry_group_IT_number 10
_symmetry_cell_setting 'monoclinic'
loop_
_space_group_symop_operation_xyz
x,y,z
-x,y,-z
-x,-y,-z
x,-y,z
loop_
_atom_site_type_symbol
_atom_site_label
_atom_site_fract_x
_atom_site_fract_y
_atom_site_fract_z
Si Si1 0.172531 0.806236 0.211477
Si Si2 0.416291 0.343742 0.515733
Si Si3 0.843491 0.101389 0.559884
Si Si4 0.037414 0.600710 0.679840
Si Si5 0.659588 0.765169 0.199348
Si Si6 0.807151 0.902804 0.001481
Si Si7 0.298007 0.272654 0.014031
Si Si8 0.713412 0.595596 0.407843
O O1 0.298162 0.732162 0.341750
O O2 0.192367 0.852370 0.359189
O O3 0.191234 0.877731 0.132269
O O4 0.000000 0.773868 0.000000
O O5 0.500000 0.380990 0.500000
O O6 0.323460 0.400794 0.499052
O O7 0.553352 0.307314 0.752599
O O8 0.774915 0.164757 0.383020
O O9 0.021292 0.099842 0.758072
O O10 0.792148 0.000000 0.495772
O O11 0.093833 0.500000 0.745959
O O12 0.156446 0.666263 0.875128
O O13 0.000000 0.621732 0.500000
O O14 0.886657 0.603382 0.577414
O O15 0.698976 0.727815 0.120805
O O16 0.645498 0.681388 0.267627
O O17 0.500000 0.809770 0.000000
O O18 0.723764 0.826231 0.969452
O O19 0.747008 0.000000 0.949895
O O20 0.662206 0.500000 0.302508
#
# Coordination Sequence:
#
# PCOD9151590 Si02
#       8
#     4   4   4   4   4   4   4   4
#     4  10  20  40  70  92 122 169 228 281 324 382
#     4  12  25  44  66  96 132 173 224 268 338 396
#     4  10  21  38  64  95 128 169 221 275 328 391
#     4  10  22  41  69 103 131 167 223 272 324 392
#     4  12  23  40  62  95 135 176 218 262 335 402
#     4  10  22  39  63  96 128 172 226 272 323 386
#     4  12  24  39  66  98 136 174 213 276 333 391
#     4  11  24  43  68  96 131 170 218 274 325 391
#
# _framework density 20.248519000000002
#
# number of rings (size 3 to 8) (size 9 to 14) (size 15 to 20)
#    0.000    1.125    5.000    1.125    1.750    3.250 
#    0.000    4.375    0.000    1.875    0.000    0.000 
#    0.000    0.000    0.000    0.000    0.000    0.000 
#
# Total GULP energy -178638.780068 kJ/mol
# GULP energy per Si atom -5582.461877 kJ/mol
# Density = 2.020243 g / cm^3
# Si number density = 20.248519 Si / 1000 Ang^3
#
#
#
# Elastic Constant Matrix: (Units=GPa)
#
#
# Indices 1 2 3 4 5 6 
#
# 1 111.1573 16.9847 17.4031 0.0000 -3.1632 0.0000
# 2 16.9847 76.0659 41.3584 0.0000 6.0440 0.0000
# 3 17.4031 41.3584 83.4327 0.0000 -4.0546 0.0000
# 4 0.0000 0.0000 0.0000 10.8066 0.0000 -33.0463
# 5 -3.1632 6.0440 -4.0546 0.0000 22.5748 0.0000
# 6 0.0000 0.0000 0.0000 -33.0463 0.0000 44.8993
#
#
#
# Elastic Compliance Matrix: (Units=1/GPa)
#
#
# Indices 1 2 3 4 5 6 
#
# 1 0.009462 -0.001651 -0.001079 0.000000 0.001574 0.000000
# 2 -0.001651 0.019276 -0.009556 0.000000 -0.007109 0.000000
# 3 -0.001079 -0.009556 0.017215 0.000000 0.005499 0.000000
# 4 0.000000 0.000000 0.000000 -0.073988 0.000000 -0.054456
# 5 0.001574 -0.007109 0.005499 0.000000 0.047409 0.000000
# 6 0.000000 0.000000 0.000000 -0.054456 0.000000 -0.017808
#
#
# Mechanical properties :
#
#
# Convention : Reuss Voigt Hill
#
# Bulk Modulus (GPa) = 46.77113 46.90536 46.83825
# Shear Modulus (GPa) = 150.30498 28.65013 89.47755
#
# Velocity S-wave (km/s) = 8.62504 3.76563 6.65474
# Velocity P-wave (km/s) = 11.06061 6.49013 9.06804
#
# Compressibility (1/GPa) = 0.02138071
#
# Stress axis : x y z
#
# Youngs Moduli (GPa) = 105.68295 51.87801 58.08863
#
# Poissons Ratio (x) = 0.08568 0.06265
# Poissons Ratio (y) = 0.17453 0.55511
# Poissons Ratio (z) = 0.11399 0.49576
#
# Static dielectric constant tensor:
#      x y z
#    x 1.749520 0.000000 0.001150 
#    y 0.000000 1.704070 0.000000 
#    z 0.001150 0.000000 1.708530 
# 
# From -- ./inp_files/54036.got.cif
#   From: 2010.05.17/outbox.cif.g08.bks.cpg/sg10_28_cif.got.tgz:54036.got - 2010.06.03 11:33:40.
