data_PCOD9151817
_publ_section_title
;
Structure prediction by ZEFSAII (Michael W. Deem and Ramdas Pophale) SiO2 
 PCOD9151817
Probable space group: P 2/M
;
_chemical_formula_sum "Si O2"
_cell_formula_units_Z 28
_cell_length_a 9.712228
_cell_length_b 7.594700
_cell_length_c 31.535409
_cell_angle_alpha 90.000000
_cell_angle_beta 39.650809
_cell_angle_gamma 90.000000
_cell_volume 1484.299297
_symmetry_space_group_name_H-M "P 2/M"
_symmetry_group_IT_number 10
_symmetry_cell_setting 'monoclinic'
loop_
_space_group_symop_operation_xyz
x,y,z
-x,y,-z
-x,-y,-z
x,-y,z
loop_
_atom_site_type_symbol
_atom_site_label
_atom_site_fract_x
_atom_site_fract_y
_atom_site_fract_z
Si Si1 0.153293 0.290314 0.300736
Si Si2 0.156970 0.709685 0.699265
Si Si3 0.031644 0.788054 0.425055
Si Si4 0.656918 0.788053 0.574946
Si Si5 0.352891 0.290570 0.823677
Si Si6 0.246043 0.000000 0.066904
Si Si7 0.971276 0.709430 0.176323
Si Si8 0.919440 0.000000 0.066903
O O1 0.164748 0.500000 0.292328
O O2 0.063123 0.260706 0.369116
O O3 0.400027 0.228726 0.238349
O O4 0.995250 0.218114 0.301900
O O5 0.126380 0.500000 0.707674
O O6 0.408701 0.739289 0.630885
O O7 0.091772 0.771271 0.761651
O O8 0.227901 0.726535 0.408839
O O9 0.810314 0.727163 0.500000
O O10 0.031251 0.000000 0.426954
O O11 0.666014 0.000000 0.573048
O O12 0.345028 0.500000 0.835509
O O13 0.231507 0.266830 0.807398
O O14 0.223620 0.171249 0.887587
O O15 0.161554 0.171249 0.112414
O O16 0.500000 0.000000 0.000000
O O17 0.119690 0.000000 0.052124
O O18 0.022572 0.500000 0.164490
O O19 0.000000 0.000000 0.000000
#
# Coordination Sequence:
#
# PCOD9151817 Si02
#       8
#     4   4   4   4   4   2   4   2
#     4  10  21  35  52  78 109 140 177 223 276 327
#     4  10  21  35  52  78 109 140 177 223 276 327
#     4   9  19  35  53  74 102 139 183 227 271 322
#     4   9  19  35  53  74 102 139 183 227 271 322
#     4   9  19  37  58  80 110 147 185 225 268 319
#     4  10  22  38  58  86 113 142 181 220 266 327
#     4   9  19  37  58  80 110 147 185 225 268 319
#     4  10  22  38  58  86 113 142 181 220 266 327
#
# _framework density 18.86412
#
# number of rings (size 3 to 8) (size 9 to 14) (size 15 to 20)
#    0.000    2.571    0.000    1.714    2.000    5.143 
#    0.000    4.286    0.000    0.000    0.000    0.000 
#    0.000    0.000    0.000    0.000    0.000    0.000 
#
# Total GULP energy -156227.094964 kJ/mol
# GULP energy per Si atom -5579.539106 kJ/mol
# Density = 1.882118 g / cm^3
# Si number density = 18.864120 Si / 1000 Ang^3
#
#
#
# Elastic Constant Matrix: (Units=GPa)
#
#
# Indices 1 2 3 4 5 6 
#
# 1 139.2417 42.0391 130.9980 0.0000 -3.2596 0.0000
# 2 42.0391 58.6841 40.0140 0.0000 0.1040 0.0000
# 3 130.9980 40.0140 180.2495 0.0000 1.1881 0.0000
# 4 0.0000 0.0000 0.0000 33.6228 0.0000 -0.8474
# 5 -3.2596 0.1040 1.1881 0.0000 36.1279 0.0000
# 6 0.0000 0.0000 0.0000 -0.8474 0.0000 16.8598
#
#
#
# Elastic Compliance Matrix: (Units=1/GPa)
#
#
# Indices 1 2 3 4 5 6 
#
# 1 0.024873 -0.006463 -0.016660 0.000000 0.002811 0.000000
# 2 -0.006463 0.021759 -0.000129 0.000000 -0.000642 0.000000
# 3 -0.016660 -0.000129 0.017698 0.000000 -0.002085 0.000000
# 4 0.000000 0.000000 0.000000 0.029779 0.000000 0.001497
# 5 0.002811 -0.000642 -0.002085 0.000000 0.028003 0.000000
# 6 0.000000 0.000000 0.000000 0.001497 0.000000 0.059388
#
#
# Mechanical properties :
#
#
# Convention : Reuss Voigt Hill
#
# Bulk Modulus (GPa) = 56.09912 89.36419 72.73165
# Shear Modulus (GPa) = 21.37225 28.33037 24.85131
#
# Velocity S-wave (km/s) = 3.36960 3.87953 3.63352
# Velocity P-wave (km/s) = 6.70388 8.21846 7.49950
#
# Compressibility (1/GPa) = 0.01782559
#
# Stress axis : x y z
#
# Youngs Moduli (GPa) = 40.20451 45.95705 56.50245
#
# Poissons Ratio (x) = 0.29702 0.94135
# Poissons Ratio (y) = 0.25984 0.00730
# Poissons Ratio (z) = 0.66982 0.00594
#
# Static dielectric constant tensor:
#      x y z
#    x 1.657400 0.000000 0.002080 
#    y 0.000000 1.689120 0.000000 
#    z 0.002080 0.000000 1.616340 
# 
# From -- ./inp_files/37199.got.cif
#   From: 2010.05.17/outbox.cif.g08.bks.cpg/sg10_19_cif.got.tgz:37199.got - 2010.06.03 11:33:40.
