data_PCOD9151753
_publ_section_title
;
Structure prediction by ZEFSAII (Michael W. Deem and Ramdas Pophale) SiO2 
 PCOD9151753
Probable space group: P 2/M
;
_chemical_formula_sum "Si O2"
_cell_formula_units_Z 32
_cell_length_a 21.059435
_cell_length_b 7.350237
_cell_length_c 15.132518
_cell_angle_alpha 90.000000
_cell_angle_beta 38.850842
_cell_angle_gamma 90.000000
_cell_volume 1469.369987
_symmetry_space_group_name_H-M "P 2/M"
_symmetry_group_IT_number 10
_symmetry_cell_setting 'monoclinic'
loop_
_space_group_symop_operation_xyz
x,y,z
-x,y,-z
-x,-y,-z
x,-y,z
loop_
_atom_site_type_symbol
_atom_site_label
_atom_site_fract_x
_atom_site_fract_y
_atom_site_fract_z
Si Si1 0.258144 0.276772 0.897526
Si Si2 0.706438 0.277009 0.446132
Si Si3 0.236255 0.709352 0.423327
Si Si4 0.512507 0.291253 0.381442
Si Si5 0.611003 0.782199 0.901564
Si Si6 0.891409 0.276921 0.586304
Si Si7 0.248258 0.712178 0.105547
Si Si8 0.118629 0.721391 0.883730
O O1 0.259735 0.500000 0.892421
O O2 0.374617 0.215512 0.756221
O O3 0.175757 0.222628 0.912999
O O4 0.233981 0.215670 0.023332
O O5 0.702761 0.500000 0.445047
O O6 0.727611 0.214362 0.523217
O O7 0.593603 0.214429 0.540248
O O8 0.800615 0.224598 0.280554
O O9 0.213164 0.500000 0.469405
O O10 0.317548 0.714278 0.255492
O O11 0.139757 0.788278 0.476804
O O12 0.500000 0.294883 0.500000
O O13 0.517364 0.500000 0.342399
O O14 0.642331 0.726383 0.966891
O O15 0.613917 0.000000 0.894840
O O16 0.500000 0.717062 0.000000
O O17 0.885799 0.500000 0.589794
O O18 0.818121 0.210039 0.743128
O O19 0.000000 0.224054 0.500000
O O20 0.222021 0.500000 0.127314
O O21 0.115497 0.500000 0.886823
O O22 0.000000 0.779426 0.000000
#
# Coordination Sequence:
#
# PCOD9151753 Si02
#       8
#     4   4   4   4   4   4   4   4
#     4   9  16  25  38  61  90 120 156 191 229 269
#     4   9  16  25  38  61  90 120 156 191 229 269
#     4   9  18  30  47  71  93 120 162 201 230 273
#     4   9  14  22  36  53  83 120 146 185 231 266
#     4  10  21  35  48  65  94 127 153 188 246 302
#     4   8  14  26  42  61  88 117 145 186 236 274
#     4   9  18  30  47  71  93 120 162 201 230 273
#     4   9  16  25  37  59  98 136 156 180 228 288
#
# _framework density 21.778040000000001
#
# number of rings (size 3 to 8) (size 9 to 14) (size 15 to 20)
#    0.000    3.000    1.250    1.125    1.750    2.000 
#    0.000    5.000    0.000    6.000    0.000    0.875 
#    0.000    4.000    0.000    0.000    0.000    0.000 
#
# Total GULP energy -178216.665852 kJ/mol
# GULP energy per Si atom -5569.270808 kJ/mol
# Density = 2.172847 g / cm^3
# Si number density = 21.778040 Si / 1000 Ang^3
#
#
#
# Elastic Constant Matrix: (Units=GPa)
#
#
# Indices 1 2 3 4 5 6 
#
# 1 254.6993 2.9757 103.3011 0.0000 -3.0010 0.0000
# 2 2.9757 81.6130 1.7926 0.0000 1.0919 0.0000
# 3 103.3011 1.7926 74.5469 0.0000 -5.5048 0.0000
# 4 0.0000 0.0000 0.0000 36.2916 0.0000 5.4455
# 5 -3.0010 1.0919 -5.5048 0.0000 41.3305 0.0000
# 6 0.0000 0.0000 0.0000 5.4455 0.0000 4.3521
#
#
#
# Elastic Compliance Matrix: (Units=1/GPa)
#
#
# Indices 1 2 3 4 5 6 
#
# 1 0.009007 -0.000039 -0.012555 0.000000 -0.001017 0.000000
# 2 -0.000039 0.012265 -0.000268 0.000000 -0.000363 0.000000
# 3 -0.012555 -0.000268 0.031057 0.000000 0.003232 0.000000
# 4 0.000000 0.000000 0.000000 0.033924 0.000000 -0.042447
# 5 -0.001017 -0.000363 0.003232 0.000000 0.024561 0.000000
# 6 0.000000 0.000000 0.000000 -0.042447 0.000000 0.282886
#
#
# Mechanical properties :
#
#
# Convention : Reuss Voigt Hill
#
# Bulk Modulus (GPa) = 37.58587 69.66643 53.62615
# Shear Modulus (GPa) = 11.67429 36.58082 24.12756
#
# Velocity S-wave (km/s) = 2.31780 4.10287 3.33210
# Velocity P-wave (km/s) = 4.94561 7.38265 6.28341
#
# Compressibility (1/GPa) = 0.02660575
#
# Stress axis : x y z
#
# Youngs Moduli (GPa) = 111.02820 81.53213 32.19871
#
# Poissons Ratio (x) = 0.00318 0.40425
# Poissons Ratio (y) = 0.00433 0.00862
# Poissons Ratio (z) = 1.39396 0.02182
#
# Static dielectric constant tensor:
#      x y z
#    x 1.831940 0.000000 -0.053930 
#    y 0.000000 1.825630 0.000000 
#    z -0.053930 0.000000 1.795610 
# 
# From -- ./inp_files/69992.got.cif
#   From: 2010.05.17/outbox.cif.g08.bks.cpg/sg10_35_cif.got.tgz:69992.got - 2010.06.03 11:33:40.
