data_PCOD9151253
_publ_section_title
;
Structure prediction by ZEFSAII (Michael W. Deem and Ramdas Pophale) SiO2 
 PCOD9151253
Probable space group: P 2/M
;
_chemical_formula_sum "Si O2"
_cell_formula_units_Z 28
_cell_length_a 13.019038
_cell_length_b 7.686076
_cell_length_c 13.691028
_cell_angle_alpha 90.000000
_cell_angle_beta 66.969194
_cell_angle_gamma 90.000000
_cell_volume 1260.800926
_symmetry_space_group_name_H-M "P 2/M"
_symmetry_group_IT_number 10
_symmetry_cell_setting 'monoclinic'
loop_
_space_group_symop_operation_xyz
x,y,z
-x,y,-z
-x,-y,-z
x,-y,z
loop_
_atom_site_type_symbol
_atom_site_label
_atom_site_fract_x
_atom_site_fract_y
_atom_site_fract_z
Si Si1 0.489797 0.788993 0.283866
Si Si2 0.598430 0.789925 0.892231
Si Si3 0.126426 0.287624 0.429853
Si Si4 0.155586 0.293432 0.200752
Si Si5 0.686223 0.705808 0.489261
Si Si6 0.725698 0.800299 0.255099
Si Si7 0.975644 0.295314 0.116193
O O1 0.426280 0.729551 0.209577
O O2 0.424601 0.732893 0.405417
O O3 0.617904 0.726807 0.238825
O O4 0.491505 0.000000 0.283128
O O5 0.719674 0.733783 0.883862
O O6 0.596961 0.000000 0.891302
O O7 0.500000 0.730538 0.000000
O O8 0.133301 0.500000 0.428200
O O9 0.154266 0.222337 0.311394
O O10 0.213440 0.228164 0.478991
O O11 0.000000 0.239783 0.500000
O O12 0.135636 0.500000 0.218165
O O13 0.058594 0.221079 0.167658
O O14 0.700565 0.500000 0.466922
O O15 0.692406 0.791791 0.381496
O O16 0.846146 0.717679 0.192873
O O17 0.738659 0.000000 0.219972
O O18 0.003828 0.500000 0.100221
O O19 0.000000 0.220101 0.000000
#
# Coordination Sequence:
#
# PCOD9151253 Si02
#       7
#     4   4   4   4   4   4   4
#     4  10  22  40  59  85 122 159 195 243 296 350
#     4  10  22  39  61  87 118 156 198 243 293 347
#     4   9  17  31  54  82 113 150 186 228 285 344
#     4  10  20  38  61  87 119 152 191 241 297 348
#     4  11  21  36  60  89 119 154 198 244 295 352
#     4  11  24  40  60  86 120 162 201 239 293 354
#     4  10  23  42  63  89 120 155 197 247 296 346
#
# _framework density 22.208105
#
# number of rings (size 3 to 8) (size 9 to 14) (size 15 to 20)
#    0.000    1.857    1.429    2.143    2.000    6.286 
#    0.000    0.000    0.000    2.143    0.000    0.000 
#    0.000    0.000    0.000    0.000    0.000    0.000 
#
# Total GULP energy -156493.479897 kJ/mol
# GULP energy per Si atom -5589.052853 kJ/mol
# Density = 2.215756 g / cm^3
# Si number density = 22.208105 Si / 1000 Ang^3
#
#
#
# Elastic Constant Matrix: (Units=GPa)
#
#
# Indices 1 2 3 4 5 6 
#
# 1 144.1873 -7.2730 16.2246 0.0000 -11.2091 0.0000
# 2 -7.2730 35.9359 -15.1406 0.0000 10.2421 0.0000
# 3 16.2246 -15.1406 67.6534 0.0000 -9.9778 0.0000
# 4 0.0000 0.0000 0.0000 10.6094 0.0000 -9.3863
# 5 -11.2091 10.2421 -9.9778 0.0000 29.7124 0.0000
# 6 0.0000 0.0000 0.0000 -9.3863 0.0000 15.3976
#
#
#
# Elastic Compliance Matrix: (Units=1/GPa)
#
#
# Indices 1 2 3 4 5 6 
#
# 1 0.007273 0.000274 -0.001359 0.000000 0.002193 0.000000
# 2 0.000274 0.033040 0.005959 0.000000 -0.009285 0.000000
# 3 -0.001359 0.005959 0.016899 0.000000 0.003108 0.000000
# 4 0.000000 0.000000 0.000000 0.204600 0.000000 0.124723
# 5 0.002193 -0.009285 0.003108 0.000000 0.038727 0.000000
# 6 0.000000 0.000000 0.000000 0.124723 0.000000 0.140975
#
#
# Mechanical properties :
#
#
# Convention : Reuss Voigt Hill
#
# Bulk Modulus (GPa) = 14.93439 26.15539 20.54489
# Shear Modulus (GPa) = 11.01113 28.07491 19.54302
#
# Velocity S-wave (km/s) = 2.22911 3.55938 2.96969
# Velocity P-wave (km/s) = 3.65576 5.35679 4.58584
#
# Compressibility (1/GPa) = 0.06695954
#
# Stress axis : x y z
#
# Youngs Moduli (GPa) = 137.50104 30.26661 59.17426
#
# Poissons Ratio (x) = -0.00830 0.08044
# Poissons Ratio (y) = -0.03771 -0.35262
# Poissons Ratio (z) = 0.18692 -0.18036
#
# Static dielectric constant tensor:
#      x y z
#    x 1.816810 0.000000 0.017940 
#    y 0.000000 1.831310 0.000000 
#    z 0.017940 0.000000 1.786250 
# 
# From -- ./inp_files/63669.got.cif
#   From: 2010.05.17/outbox.cif.g08.bks.cpg/sg10_32_cif.got.tgz:63669.got - 2010.06.03 11:33:40.
