data_PCOD9151580
_publ_section_title
;
Structure prediction by ZEFSAII (Michael W. Deem and Ramdas Pophale) SiO2 
 PCOD9151580
Probable space group: P 2/M
;
_chemical_formula_sum "Si O2"
_cell_formula_units_Z 32
_cell_length_a 18.523269
_cell_length_b 13.792793
_cell_length_c 12.247028
_cell_angle_alpha 90.000000
_cell_angle_beta 149.689490
_cell_angle_gamma 90.000000
_cell_volume 1579.144286
_symmetry_space_group_name_H-M "P 2/M"
_symmetry_group_IT_number 10
_symmetry_cell_setting 'monoclinic'
loop_
_space_group_symop_operation_xyz
x,y,z
-x,y,-z
-x,-y,-z
x,-y,z
loop_
_atom_site_type_symbol
_atom_site_label
_atom_site_fract_x
_atom_site_fract_y
_atom_site_fract_z
Si Si1 0.874636 0.198387 0.507628
Si Si2 0.193109 0.802459 0.000654
Si Si3 0.298938 0.116388 0.913513
Si Si4 0.621115 0.882625 0.327446
Si Si5 0.375055 0.384950 0.246625
Si Si6 0.735496 0.614938 0.326431
Si Si7 0.372791 0.115439 0.413311
Si Si8 0.515779 0.616330 0.848360
O O1 0.825623 0.157873 0.326144
O O2 0.749962 0.158307 0.424025
O O3 0.868832 0.315196 0.497272
O O4 0.031118 0.175857 0.754918
O O5 0.282472 0.845026 0.014902
O O6 0.244480 0.691024 0.087588
O O7 0.232382 0.857778 0.162720
O O8 0.290703 0.000000 0.903545
O O9 0.458580 0.143376 0.079818
O O10 0.631328 0.850489 0.467492
O O11 0.630056 0.000000 0.333815
O O12 0.500000 0.375741 0.500000
O O13 0.332964 0.500000 0.189275
O O14 0.446723 0.357352 0.224603
O O15 0.762971 0.500000 0.363188
O O16 0.636274 0.643748 0.299847
O O17 0.640275 0.641071 0.096231
O O18 0.500000 0.153021 0.500000
O O19 0.391452 0.000000 0.444464
O O20 0.511782 0.500000 0.846185
#
# Coordination Sequence:
#
# PCOD9151580 Si02
#       8
#     4   4   4   4   4   4   4   4
#     4  12  26  37  58  94 130 165 198 245 315 372
#     4  12  25  39  60  93 126 164 203 249 310 370
#     4  11  24  43  65  89 123 166 209 254 306 367
#     4  10  23  42  65  90 118 159 209 259 304 358
#     4  10  22  39  62  90 119 158 210 260 302 353
#     4   9  19  35  57  85 118 156 196 244 299 354
#     4  10  20  40  67  90 112 152 208 255 301 360
#     4   8  16  33  57  84 107 141 200 252 289 335
#
# _framework density 20.264139
#
# number of rings (size 3 to 8) (size 9 to 14) (size 15 to 20)
#    0.000    1.750    1.250    3.375    5.250    4.500 
#    0.000    1.250    0.000    3.750    0.000    5.250 
#    0.000    0.000    0.000    0.000    0.000    0.000 
#
# Total GULP energy -178671.611320 kJ/mol
# GULP energy per Si atom -5583.487854 kJ/mol
# Density = 2.021802 g / cm^3
# Si number density = 20.264139 Si / 1000 Ang^3
#
#
#
# Elastic Constant Matrix: (Units=GPa)
#
#
# Indices 1 2 3 4 5 6 
#
# 1 51.7213 7.6662 12.9617 0.0000 -11.2012 0.0000
# 2 7.6662 60.8553 -1.0885 0.0000 9.8364 0.0000
# 3 12.9617 -1.0885 83.0840 0.0000 2.2704 0.0000
# 4 0.0000 0.0000 0.0000 22.6095 0.0000 -5.7388
# 5 -11.2012 9.8364 2.2704 0.0000 27.0435 0.0000
# 6 0.0000 0.0000 0.0000 -5.7388 0.0000 1.3215
#
#
#
# Elastic Compliance Matrix: (Units=1/GPa)
#
#
# Indices 1 2 3 4 5 6 
#
# 1 0.023692 -0.004993 -0.004089 0.000000 0.011972 0.000000
# 2 -0.004993 0.018525 0.001265 0.000000 -0.008912 0.000000
# 3 -0.004089 0.001265 0.012779 0.000000 -0.003226 0.000000
# 4 0.000000 0.000000 0.000000 -0.432416 0.000000 -1.877874
# 5 0.011972 -0.008912 -0.003226 0.000000 0.045449 0.000000
# 6 0.000000 0.000000 0.000000 -1.877874 0.000000 -7.398405
#
#
# Mechanical properties :
#
#
# Convention : Reuss Voigt Hill
#
# Bulk Modulus (GPa) = 25.40501 26.08214 25.74358
# Shear Modulus (GPa) = -0.64921 21.93630 10.64354
#
# Velocity S-wave (km/s) = -0.56663 3.29373 2.29430
# Velocity P-wave (km/s) = 3.48368 5.23105 4.44410
#
# Compressibility (1/GPa) = 0.03936231
#
# Stress axis : x y z
#
# Youngs Moduli (GPa) = 42.20852 53.98249 78.25569
#
# Poissons Ratio (x) = 0.26953 0.31996
# Poissons Ratio (y) = 0.21074 -0.09900
# Poissons Ratio (z) = 0.17258 -0.06830
#
# Static dielectric constant tensor:
#      x y z
#    x 1.681280 0.000000 -0.024790 
#    y 0.000000 1.759620 0.000000 
#    z -0.024790 0.000000 1.690460 
# 
# From -- ./inp_files/54035.got.cif
#   From: 2010.05.17/outbox.cif.g08.bks.cpg/sg10_28_cif.got.tgz:54035.got - 2010.06.03 11:33:40.
