data_PCOD9151249
_publ_section_title
;
Structure prediction by ZEFSAII (Michael W. Deem and Ramdas Pophale) SiO2 
 PCOD9151249
Probable space group: P 2/M
;
_chemical_formula_sum "Si O2"
_cell_formula_units_Z 32
_cell_length_a 14.572484
_cell_length_b 8.299554
_cell_length_c 25.152081
_cell_angle_alpha 90.000000
_cell_angle_beta 30.165272
_cell_angle_gamma 90.000000
_cell_volume 1528.603592
_symmetry_space_group_name_H-M "P 2/M"
_symmetry_group_IT_number 10
_symmetry_cell_setting 'monoclinic'
loop_
_space_group_symop_operation_xyz
x,y,z
-x,y,-z
-x,-y,-z
x,-y,z
loop_
_atom_site_type_symbol
_atom_site_label
_atom_site_fract_x
_atom_site_fract_y
_atom_site_fract_z
Si Si1 0.965345 0.805410 0.855195
Si Si2 0.595450 0.814049 0.508929
Si Si3 0.495224 0.307141 0.336442
Si Si4 0.959369 0.317930 0.293004
Si Si5 0.808434 0.185597 0.736749
Si Si6 0.127842 0.805117 0.887334
Si Si7 0.911400 0.307680 0.490154
Si Si8 0.447704 0.803351 0.966502
O O1 0.072572 0.732404 0.751564
O O2 0.039622 0.754070 0.875193
O O3 0.977676 0.000000 0.846219
O O4 0.754645 0.757500 0.950294
O O5 0.500000 0.796794 0.500000
O O6 0.475745 0.768583 0.619609
O O7 0.772113 0.701521 0.418919
O O8 0.655084 0.000000 0.484072
O O9 0.491663 0.500000 0.342647
O O10 0.664529 0.256348 0.215165
O O11 0.294516 0.248103 0.418119
O O12 0.026541 0.500000 0.262700
O O13 0.103504 0.200671 0.248640
O O14 0.603989 0.250323 0.846847
O O15 0.945743 0.273417 0.628414
O O16 0.801323 0.000000 0.724000
O O17 0.132612 0.000000 0.885579
O O18 0.000000 0.751768 0.000000
O O19 0.893976 0.500000 0.504278
O O20 0.000000 0.242300 0.500000
O O21 0.454351 0.000000 0.963864
O O22 0.500000 0.748756 0.000000
#
# Coordination Sequence:
#
# PCOD9151249 Si02
#       8
#     4   4   4   4   4   4   4   4
#     4  10  20  38  61  85 118 160 204 252 307 361
#     4  11  23  38  59  88 121 159 201 248 303 361
#     4  11  23  40  64  91 121 160 201 248 304 363
#     4  12  23  35  55  86 124 159 196 245 303 365
#     4  11  21  36  61  89 118 157 203 250 300 355
#     4  10  23  42  64  89 119 158 204 256 305 353
#     4  10  23  43  63  87 123 163 200 246 308 367
#     4   9  17  32  56  85 116 153 198 246 299 357
#
# _framework density 20.934138999999998
#
# number of rings (size 3 to 8) (size 9 to 14) (size 15 to 20)
#    0.000    1.500    2.500    3.000    0.000    6.500 
#    0.000    3.125    0.000    0.000    0.000    0.000 
#    0.000    0.000    0.000    0.000    0.000    0.000 
#
# Total GULP energy -178786.439508 kJ/mol
# GULP energy per Si atom -5587.076235 kJ/mol
# Density = 2.088649 g / cm^3
# Si number density = 20.934139 Si / 1000 Ang^3
#
#
#
# Elastic Constant Matrix: (Units=GPa)
#
#
# Indices 1 2 3 4 5 6 
#
# 1 84.9485 11.0939 44.5671 0.0000 6.7870 0.0000
# 2 11.0939 18.8649 5.2188 0.0000 -3.0915 0.0000
# 3 44.5671 5.2188 144.9925 0.0000 -1.0671 0.0000
# 4 0.0000 0.0000 0.0000 35.7365 0.0000 6.6911
# 5 6.7870 -3.0915 -1.0671 0.0000 31.0097 0.0000
# 6 0.0000 0.0000 0.0000 6.6911 0.0000 13.5046
#
#
#
# Elastic Compliance Matrix: (Units=1/GPa)
#
#
# Indices 1 2 3 4 5 6 
#
# 1 0.015633 -0.008669 -0.004526 0.000000 -0.004442 0.000000
# 2 -0.008669 0.059225 0.000591 0.000000 0.007822 0.000000
# 3 -0.004526 0.000591 0.008277 0.000000 0.001334 0.000000
# 4 0.000000 0.000000 0.000000 0.030844 0.000000 -0.015282
# 5 -0.004442 0.007822 0.001334 0.000000 0.034046 0.000000
# 6 0.000000 0.000000 0.000000 -0.015282 0.000000 0.081621
#
#
# Mechanical properties :
#
#
# Convention : Reuss Voigt Hill
#
# Bulk Modulus (GPa) = 17.26351 41.17397 29.21874
# Shear Modulus (GPa) = 18.23726 28.57856 23.40791
#
# Velocity S-wave (km/s) = 2.95477 3.69882 3.34753
# Velocity P-wave (km/s) = 4.46154 6.16058 5.37857
#
# Compressibility (1/GPa) = 0.05792566
#
# Stress axis : x y z
#
# Youngs Moduli (GPa) = 63.96570 16.88472 120.82202
#
# Poissons Ratio (x) = 0.14638 0.54684
# Poissons Ratio (y) = 0.55454 -0.07136
# Poissons Ratio (z) = 0.28951 -0.00997
#
# Static dielectric constant tensor:
#      x y z
#    x 1.763730 0.000000 -0.012860 
#    y 0.000000 1.723800 0.000000 
#    z -0.012860 0.000000 1.759540 
# 
# From -- ./inp_files/89568.got.cif
#   From: 2010.05.17/outbox.cif.g08.bks.cpg/sg10_45_cif.got.tgz:89568.got - 2010.06.03 11:33:40.
