data_PCOD9151111
_publ_section_title
;
Structure prediction by ZEFSAII (Michael W. Deem and Ramdas Pophale) SiO2 
 PCOD9151111
Probable space group: P 2/M
;
_chemical_formula_sum "Si O2"
_cell_formula_units_Z 28
_cell_length_a 9.103588
_cell_length_b 8.559418
_cell_length_c 29.264765
_cell_angle_alpha 90.000000
_cell_angle_beta 39.046453
_cell_angle_gamma 90.000000
_cell_volume 1436.508274
_symmetry_space_group_name_H-M "P 2/M"
_symmetry_group_IT_number 10
_symmetry_cell_setting 'monoclinic'
loop_
_space_group_symop_operation_xyz
x,y,z
-x,y,-z
-x,-y,-z
x,-y,z
loop_
_atom_site_type_symbol
_atom_site_label
_atom_site_fract_x
_atom_site_fract_y
_atom_site_fract_z
Si Si1 0.972663 0.813270 0.279073
Si Si2 0.200621 0.814003 0.851760
Si Si3 0.887676 0.811168 0.576006
Si Si4 0.763807 0.809663 0.427217
Si Si5 0.630476 0.684288 0.285210
Si Si6 0.665447 0.188293 0.002429
Si Si7 0.510095 0.315472 0.858793
O O1 0.860815 0.762598 0.354389
O O2 0.797097 0.771134 0.280876
O O3 0.221174 0.733680 0.211246
O O4 0.007074 0.000000 0.272161
O O5 0.292791 0.729535 0.784368
O O6 0.358752 0.770382 0.856733
O O7 0.210843 0.000000 0.841454
O O8 0.932614 0.771216 0.926777
O O9 0.635037 0.736839 0.642936
O O10 0.000000 0.772011 0.500000
O O11 0.061195 0.762168 0.574752
O O12 0.862598 0.000000 0.584044
O O13 0.500000 0.755519 0.500000
O O14 0.758084 0.000000 0.428890
O O15 0.653437 0.500000 0.286505
O O16 0.580381 0.266126 0.069523
O O17 0.651832 0.000000 0.011382
O O18 0.500000 0.231592 0.000000
O O19 0.485343 0.500000 0.858633
#
# Coordination Sequence:
#
# PCOD9151111 Si02
#       7
#     4   4   4   4   4   4   4
#     4  11  22  39  63  87 118 161 207 251 300 365
#     4  11  23  41  65  90 120 161 208 251 297 362
#     4  10  20  37  63  91 120 159 207 253 301 364
#     4   9  18  34  59  90 117 147 196 253 299 345
#     4  12  25  40  60  89 125 159 199 255 316 367
#     4  10  22  41  65  91 119 157 207 256 301 357
#     4  12  25  40  61  91 127 161 198 250 310 364
#
# _framework density 19.491707999999999
#
# number of rings (size 3 to 8) (size 9 to 14) (size 15 to 20)
#    0.000    1.286    0.000    6.429    0.000    8.000 
#    0.000    0.714    0.000    3.000    0.000    0.000 
#    0.000    0.000    0.000    0.000    0.000    0.000 
#
# Total GULP energy -156665.822687 kJ/mol
# GULP energy per Si atom -5595.207953 kJ/mol
# Density = 1.944734 g / cm^3
# Si number density = 19.491708 Si / 1000 Ang^3
#
#
#
# Elastic Constant Matrix: (Units=GPa)
#
#
# Indices 1 2 3 4 5 6 
#
# 1 103.8660 -13.9463 30.0687 0.0000 -4.3440 0.0000
# 2 -13.9463 21.9284 13.7136 0.0000 -1.4631 0.0000
# 3 30.0687 13.7136 128.1780 0.0000 -4.3824 0.0000
# 4 0.0000 0.0000 0.0000 -5.7022 0.0000 0.3983
# 5 -4.3440 -1.4631 -4.3824 0.0000 42.8850 0.0000
# 6 0.0000 0.0000 0.0000 0.3983 0.0000 11.1953
#
#
#
# Elastic Compliance Matrix: (Units=1/GPa)
#
#
# Indices 1 2 3 4 5 6 
#
# 1 0.012193 0.010286 -0.003920 0.000000 0.001185 0.000000
# 2 0.010286 0.057605 -0.008503 0.000000 0.002138 0.000000
# 3 -0.003920 -0.008503 0.009641 0.000000 0.000298 0.000000
# 4 0.000000 0.000000 0.000000 -0.174937 0.000000 0.006224
# 5 0.001185 0.002138 0.000298 0.000000 0.023542 0.000000
# 6 0.000000 0.000000 0.000000 0.006224 0.000000 0.089102
#
#
# Mechanical properties :
#
#
# Convention : Reuss Voigt Hill
#
# Bulk Modulus (GPa) = 13.30418 34.84938 24.07678
# Shear Modulus (GPa) = 107.58371 24.61806 66.10089
#
# Velocity S-wave (km/s) = 7.43737 3.55773 5.82975
# Velocity P-wave (km/s) = 8.97736 5.89868 7.59564
#
# Compressibility (1/GPa) = 0.07516436
#
# Stress axis : x y z
#
# Youngs Moduli (GPa) = 82.01186 17.35969 103.72157
#
# Poissons Ratio (x) = -0.17856 0.40662
# Poissons Ratio (y) = -0.84355 0.88193
# Poissons Ratio (z) = 0.32151 0.14761
#
# Static dielectric constant tensor:
#      x y z
#    x 1.640430 0.000000 0.000060 
#    y 0.000000 1.654670 0.000000 
#    z 0.000060 0.000000 1.641960 
# 
# From -- ./inp_files/91953.got.cif
#   From: 2010.05.17/outbox.cif.g08.bks.cpg/sg10_46_cif.got.tgz:91953.got - 2010.06.03 11:33:40.
