data_PCOD9151076
_publ_section_title
;
Structure prediction by ZEFSAII (Michael W. Deem and Ramdas Pophale) SiO2 
 PCOD9151076
Probable space group: P 2/M
;
_chemical_formula_sum "Si O2"
_cell_formula_units_Z 18
_cell_length_a 8.443682
_cell_length_b 15.881917
_cell_length_c 6.865695
_cell_angle_alpha 90.000000
_cell_angle_beta 120.786545
_cell_angle_gamma 90.000000
_cell_volume 790.957167
_symmetry_space_group_name_H-M "P 2/M"
_symmetry_group_IT_number 10
_symmetry_cell_setting 'monoclinic'
loop_
_space_group_symop_operation_xyz
x,y,z
-x,y,-z
-x,-y,-z
x,-y,z
loop_
_atom_site_type_symbol
_atom_site_label
_atom_site_fract_x
_atom_site_fract_y
_atom_site_fract_z
Si Si1 0.315206 0.683531 0.472083
Si Si2 0.500000 0.841805 0.500000
Si Si3 0.684804 0.904733 0.983551
Si Si4 0.281144 0.592485 0.831833
Si Si5 0.944083 0.250578 0.233422
O O1 0.500000 0.642907 0.500000
O O2 0.403729 0.774413 0.588030
O O3 0.247151 0.616512 0.585649
O O4 0.135075 0.720388 0.252913
O O5 0.627454 0.895306 0.720530
O O6 0.748326 0.000000 0.063072
O O7 0.500000 0.891712 0.000000
O O8 0.841742 0.835554 0.120160
O O9 0.209812 0.500000 0.838033
O O10 0.194613 0.671764 0.883336
O O11 0.500000 0.593237 0.000000
O O12 0.000000 0.245408 0.500000
#
# Coordination Sequence:
#
# PCOD9151076 Si02
#       5
#     4   2   4   4   4
#     4   9  21  37  58  86 120 168 202 257 313 374
#     4  10  21  42  61  90 128 168 209 262 323 374
#     4  11  23  40  66  94 127 169 216 266 318 384
#     4  10  20  37  62  91 122 164 212 259 315 381
#     4  10  20  38  64  92 123 167 214 259 318 381
#
# _framework density 22.757238999999998
#
# number of rings (size 3 to 8) (size 9 to 14) (size 15 to 20)
#    0.667    1.333    0.000    5.000    0.000    5.778 
#    0.000    3.333    0.000    2.667    0.000    0.000 
#    0.000    0.000    0.000    0.000    0.000    0.000 
#
# Total GULP energy -100214.796024 kJ/mol
# GULP energy per Si atom -5567.488668 kJ/mol
# Density = 2.270544 g / cm^3
# Si number density = 22.757239 Si / 1000 Ang^3
#
#
#
# Elastic Constant Matrix: (Units=GPa)
#
#
# Indices 1 2 3 4 5 6 
#
# 1 61.6992 30.5307 21.1841 0.0000 9.5895 0.0000
# 2 30.5307 168.9201 56.2548 0.0000 16.4343 0.0000
# 3 21.1841 56.2548 89.7774 0.0000 7.8174 0.0000
# 4 0.0000 0.0000 0.0000 26.1055 0.0000 0.3072
# 5 9.5895 16.4343 7.8174 0.0000 38.9706 0.0000
# 6 0.0000 0.0000 0.0000 0.3072 0.0000 -15.8561
#
#
#
# Elastic Compliance Matrix: (Units=1/GPa)
#
#
# Indices 1 2 3 4 5 6 
#
# 1 0.018718 -0.002146 -0.002799 0.000000 -0.003140 0.000000
# 2 -0.002146 0.007927 -0.004290 0.000000 -0.001954 0.000000
# 3 -0.002799 -0.004290 0.014524 0.000000 -0.000415 0.000000
# 4 0.000000 0.000000 0.000000 0.038297 0.000000 0.000742
# 5 -0.003140 -0.001954 -0.000415 0.000000 0.027340 0.000000
# 6 0.000000 0.000000 0.000000 0.000742 0.000000 -0.063053
#
#
# Mechanical properties :
#
#
# Convention : Reuss Voigt Hill
#
# Bulk Modulus (GPa) = 44.05535 59.59285 51.82410
# Shear Modulus (GPa) = 71.64347 24.00580 47.82464
#
# Velocity S-wave (km/s) = 5.61694 3.25139 4.58920
# Velocity P-wave (km/s) = 7.84012 6.35127 7.13464
#
# Compressibility (1/GPa) = 0.02269872
#
# Stress axis : x y z
#
# Youngs Moduli (GPa) = 53.42339 126.15581 68.85291
#
# Poissons Ratio (x) = 0.27067 0.19272
# Poissons Ratio (y) = 0.11462 0.29541
# Poissons Ratio (z) = 0.14953 0.54127
#
# Static dielectric constant tensor:
#      x y z
#    x 2.025040 0.000000 -0.055570 
#    y 0.000000 1.786790 0.000000 
#    z -0.055570 0.000000 1.911650 
# 
# From -- ./inp_files/18030.got.cif
#   From: 2010.05.17/outbox.cif.g08.bks.cpg/sg10_10_cif.got.tgz:18030.got - 2010.06.03 11:33:40.
