data_PCOD9151317
_publ_section_title
;
Structure prediction by ZEFSAII (Michael W. Deem and Ramdas Pophale) SiO2 
 PCOD9151317
Probable space group: P 2/M
;
_chemical_formula_sum "Si O2"
_cell_formula_units_Z 24
_cell_length_a 8.163458
_cell_length_b 7.380835
_cell_length_c 22.946054
_cell_angle_alpha 90.000000
_cell_angle_beta 122.252467
_cell_angle_gamma 90.000000
_cell_volume 1169.247606
_symmetry_space_group_name_H-M "P 2/M"
_symmetry_group_IT_number 10
_symmetry_cell_setting 'monoclinic'
loop_
_space_group_symop_operation_xyz
x,y,z
-x,y,-z
-x,-y,-z
x,-y,z
loop_
_atom_site_type_symbol
_atom_site_label
_atom_site_fract_x
_atom_site_fract_y
_atom_site_fract_z
Si Si1 0.826535 0.000000 0.921195
Si Si2 0.380749 0.278656 0.420499
Si Si3 0.571137 0.279192 0.335236
Si Si4 0.934571 0.720808 0.335236
Si Si5 0.562951 0.000000 0.078805
Si Si6 0.836739 0.711423 0.187063
Si Si7 0.775550 0.288577 0.812937
O O1 0.829490 0.828083 0.878949
O O2 0.627466 0.000000 0.918310
O O3 0.000000 0.000000 0.000000
O O4 0.500000 0.223643 0.500000
O O5 0.378173 0.500000 0.418782
O O6 0.487276 0.219631 0.381427
O O7 0.157005 0.219631 0.381427
O O8 0.569506 0.500000 0.336091
O O9 0.786751 0.222387 0.357834
O O10 0.420755 0.226306 0.255942
O O11 0.938766 0.500000 0.336091
O O12 0.847072 0.773694 0.255942
O O13 0.692642 0.171917 0.121051
O O14 0.500000 0.000000 0.000000
O O15 0.781926 0.500000 0.175764
O O16 0.051875 0.727009 0.201250
O O17 0.754633 0.500000 0.824236
#
# Coordination Sequence:
#
# PCOD9151317 Si02
#       7
#     2   4   4   4   2   4   4
#     4  12  26  42  60  88 122 153 194 244 299 364
#     4   9  16  26  42  71 113 153 192 247 303 346
#     4   9  16  28  48  75 107 148 199 244 289 351
#     4   9  16  28  48  75 107 148 199 244 289 351
#     4  12  26  42  60  88 122 153 194 244 299 364
#     4  10  20  38  63  87 116 156 199 247 299 352
#     4  10  20  38  63  87 116 156 199 247 299 352
#
# _framework density 20.526019999999999
#
# number of rings (size 3 to 8) (size 9 to 14) (size 15 to 20)
#    0.000    2.167    1.667    2.500    0.000    3.333 
#    0.000    3.333    0.000    0.000    0.000    2.333 
#    0.000    4.000    0.000    0.333    0.000    0.000 
#
# Total GULP energy -134151.295293 kJ/mol
# GULP energy per Si atom -5589.637304 kJ/mol
# Density = 2.047930 g / cm^3
# Si number density = 20.526020 Si / 1000 Ang^3
#
#
#
# Elastic Constant Matrix: (Units=GPa)
#
#
# Indices 1 2 3 4 5 6 
#
# 1 153.9823 36.4852 83.6640 0.0000 -0.0006 0.0000
# 2 36.4852 75.4263 34.1113 0.0000 -0.0001 0.0000
# 3 83.6640 34.1113 163.4516 0.0000 0.0011 0.0000
# 4 0.0000 0.0000 0.0000 201.2187 0.0000 0.0085
# 5 -0.0006 -0.0001 0.0011 0.0000 26.6743 0.0000
# 6 0.0000 0.0000 0.0000 0.0085 0.0000 11.2829
#
#
#
# Elastic Compliance Matrix: (Units=1/GPa)
#
#
# Indices 1 2 3 4 5 6 
#
# 1 0.009446 -0.002631 -0.004286 0.000000 0.000000 0.000000
# 2 -0.002631 0.015372 -0.001861 0.000000 0.000000 0.000000
# 3 -0.004286 -0.001861 0.008700 0.000000 0.000000 0.000000
# 4 0.000000 0.000000 0.000000 0.004970 0.000000 -0.000004
# 5 0.000000 0.000000 0.000000 0.000000 0.037489 0.000000
# 6 0.000000 0.000000 0.000000 -0.000004 0.000000 0.088629
#
#
# Mechanical properties :
#
#
# Convention : Reuss Voigt Hill
#
# Bulk Modulus (GPa) = 62.64843 77.93125 70.28984
# Shear Modulus (GPa) = 26.66869 63.74184 45.20527
#
# Velocity S-wave (km/s) = 3.60844 5.57867 4.69800
# Velocity P-wave (km/s) = 6.92451 8.91880 7.98416
#
# Compressibility (1/GPa) = 0.01596209
#
# Stress axis : x y z
#
# Youngs Moduli (GPa) = 105.85938 65.05129 114.93726
#
# Poissons Ratio (x) = 0.17115 0.49264
# Poissons Ratio (y) = 0.27852 0.21395
# Poissons Ratio (z) = 0.45373 0.12109
#
# Static dielectric constant tensor:
#      x y z
#    x 1.724000 0.000000 0.000000 
#    y 0.000000 1.767220 0.000000 
#    z 0.000000 0.000000 1.688310 
# 
# From -- ./inp_files/82080.got.cif
#   From: 2010.05.17/outbox.cif.g08.bks.cpg/sg10_42_cif.got.tgz:82080.got - 2010.06.03 11:33:40.
