data_PCOD9151834
_publ_section_title
;
Structure prediction by ZEFSAII (Michael W. Deem and Ramdas Pophale) SiO2 
 PCOD9151834
Probable space group: P 2/M
;
_chemical_formula_sum "Si O2"
_cell_formula_units_Z 28
_cell_length_a 13.651623
_cell_length_b 14.136173
_cell_length_c 11.746813
_cell_angle_alpha 90.000000
_cell_angle_beta 137.661226
_cell_angle_gamma 90.000000
_cell_volume 1526.799843
_symmetry_space_group_name_H-M "P 2/M"
_symmetry_group_IT_number 10
_symmetry_cell_setting 'monoclinic'
loop_
_space_group_symop_operation_xyz
x,y,z
-x,y,-z
-x,-y,-z
x,-y,z
loop_
_atom_site_type_symbol
_atom_site_label
_atom_site_fract_x
_atom_site_fract_y
_atom_site_fract_z
Si Si1 0.377083 0.211886 0.486963
Si Si2 0.488640 0.889461 0.182624
Si Si3 0.210641 0.106634 0.667002
Si Si4 0.185113 0.208038 0.866030
Si Si5 0.209172 0.389809 0.277744
Si Si6 0.128307 0.610712 0.947603
Si Si7 0.097510 0.109184 0.309077
O O1 0.500000 0.193701 0.500000
O O2 0.447909 0.176904 0.664216
O O3 0.323603 0.319906 0.433518
O O4 0.226943 0.153354 0.346059
O O5 0.615062 0.887495 0.196263
O O6 0.478038 0.000000 0.209190
O O7 0.333101 0.848326 0.017054
O O8 0.156393 0.184514 0.708775
O O9 0.149414 0.114903 0.486408
O O10 0.173827 0.000000 0.677817
O O11 0.190440 0.316778 0.908540
O O12 0.053382 0.164085 0.825864
O O13 0.247983 0.500000 0.323238
O O14 0.046741 0.377581 0.189728
O O15 0.194556 0.368711 0.129950
O O16 0.155269 0.500000 0.945727
O O17 0.077750 0.000000 0.264001
#
# Coordination Sequence:
#
# PCOD9151834 Si02
#       7
#     4   4   4   4   4   4   4
#     4  11  21  36  54  78 112 149 179 219 278 327
#     4  10  22  36  52  81 117 152 185 219 267 322
#     4   9  19  35  55  79 111 147 184 227 270 313
#     4  12  19  33  59  83 106 141 188 232 266 322
#     4   9  18  37  60  80 105 138 182 232 276 322
#     4   9  19  35  58  85 109 134 174 234 287 321
#     4  10  21  35  53  81 111 145 190 228 263 318
#
# _framework density 18.339012
#
# number of rings (size 3 to 8) (size 9 to 14) (size 15 to 20)
#    0.000    2.000    1.429    5.143    0.000    3.714 
#    0.000    0.714    0.000    9.429    0.000    0.000 
#    0.000    0.000    0.000    0.000    0.000    0.000 
#
# Total GULP energy -156213.362810 kJ/mol
# GULP energy per Si atom -5579.048672 kJ/mol
# Density = 1.829727 g / cm^3
# Si number density = 18.339012 Si / 1000 Ang^3
#
#
#
# Elastic Constant Matrix: (Units=GPa)
#
#
# Indices 1 2 3 4 5 6 
#
# 1 76.7913 52.0382 22.5399 0.0000 11.2118 0.0000
# 2 52.0382 121.6161 34.1469 0.0000 -9.8813 0.0000
# 3 22.5399 34.1469 49.4675 0.0000 15.6470 0.0000
# 4 0.0000 0.0000 0.0000 38.9615 0.0000 4.6289
# 5 11.2118 -9.8813 15.6470 0.0000 28.6859 0.0000
# 6 0.0000 0.0000 0.0000 4.6289 0.0000 35.5755
#
#
#
# Elastic Compliance Matrix: (Units=1/GPa)
#
#
# Indices 1 2 3 4 5 6 
#
# 1 0.021839 -0.010926 0.001791 0.000000 -0.013276 0.000000
# 2 -0.010926 0.017963 -0.012966 0.000000 0.017531 0.000000
# 3 0.001791 -0.012966 0.036236 0.000000 -0.024931 0.000000
# 4 0.000000 0.000000 0.000000 0.026069 0.000000 -0.003392
# 5 -0.013276 0.017531 -0.024931 0.000000 0.059687 0.000000
# 6 0.000000 0.000000 0.000000 -0.003392 0.000000 0.028551
#
#
# Mechanical properties :
#
#
# Convention : Reuss Voigt Hill
#
# Bulk Modulus (GPa) = 31.41250 51.70277 41.55763
# Shear Modulus (GPa) = 20.39487 29.92126 25.15806
#
# Velocity S-wave (km/s) = 3.33844 4.04364 3.70784
# Velocity P-wave (km/s) = 5.65917 7.07498 6.40631
#
# Compressibility (1/GPa) = 0.03183446
#
# Stress axis : x y z
#
# Youngs Moduli (GPa) = 45.78882 55.67079 27.59712
#
# Poissons Ratio (x) = 0.60828 -0.04942
# Poissons Ratio (y) = 0.50030 0.35782
# Poissons Ratio (z) = -0.08199 0.72183
#
# Static dielectric constant tensor:
#      x y z
#    x 1.649020 0.000000 0.005530 
#    y 0.000000 1.621310 0.000000 
#    z 0.005530 0.000000 1.668160 
# 
# From -- ./inp_files/51407.got.cif
#   From: 2010.05.17/outbox.cif.g08.bks.cpg/sg10_26_cif.got.tgz:51407.got - 2010.06.03 11:33:40.
