data_PCOD9151757
_publ_section_title
;
Structure prediction by ZEFSAII (Michael W. Deem and Ramdas Pophale) SiO2 
 PCOD9151757
Probable space group: P 2/M
;
_chemical_formula_sum "Si O2"
_cell_formula_units_Z 32
_cell_length_a 21.376635
_cell_length_b 8.786170
_cell_length_c 15.238325
_cell_angle_alpha 90.000000
_cell_angle_beta 42.214655
_cell_angle_gamma 90.000000
_cell_volume 1923.035546
_symmetry_space_group_name_H-M "P 2/M"
_symmetry_group_IT_number 10
_symmetry_cell_setting 'monoclinic'
loop_
_space_group_symop_operation_xyz
x,y,z
-x,y,-z
-x,-y,-z
x,-y,z
loop_
_atom_site_type_symbol
_atom_site_label
_atom_site_fract_x
_atom_site_fract_y
_atom_site_fract_z
Si Si1 0.537202 0.179303 0.839812
Si Si2 0.014608 0.819036 0.383102
Si Si3 0.380742 0.816993 0.874419
Si Si4 0.210287 0.682801 0.133507
Si Si5 0.511059 0.317821 0.588615
Si Si6 0.332702 0.681906 0.443680
Si Si7 0.163594 0.323297 0.515323
Si Si8 0.313284 0.322627 0.201619
O O1 0.440535 0.237722 0.898202
O O2 0.608208 0.220443 0.686839
O O3 0.591638 0.243771 0.867117
O O4 0.528364 0.000000 0.860506
O O5 0.105608 0.742544 0.246966
O O6 0.000000 0.766540 0.500000
O O7 0.924039 0.776115 0.420718
O O8 0.027595 0.000000 0.371819
O O9 0.438418 0.760790 0.730184
O O10 0.377709 0.000000 0.878865
O O11 0.277887 0.748178 0.988530
O O12 0.210143 0.500000 0.131510
O O13 0.259426 0.737161 0.172948
O O14 0.500000 0.267184 0.500000
O O15 0.494492 0.500000 0.609598
O O16 0.615386 0.292327 0.518362
O O17 0.343555 0.500000 0.411324
O O18 0.224407 0.716523 0.538545
O O19 0.134309 0.500000 0.551432
O O20 0.238902 0.311799 0.358247
O O21 0.334369 0.500000 0.166135
#
# Coordination Sequence:
#
# PCOD9151757 Si02
#       8
#     4   4   4   4   4   4   4   4
#     4   9  17  28  44  64  91 127 162 197 238 284
#     4  11  22  33  47  69  95 126 166 214 257 290
#     4  10  21  35  48  69 101 131 160 199 245 293
#     4  11  22  35  50  66  90 128 171 210 247 290
#     4   9  17  32  56  82 105 130 161 195 234 289
#     4   8  15  28  46  71 100 127 158 197 238 281
#     4   9  16  29  47  66  93 128 166 206 244 284
#     4   9  18  30  45  65  89 123 166 208 244 280
#
# _framework density 16.640357999999999
#
# number of rings (size 3 to 8) (size 9 to 14) (size 15 to 20)
#    0.000    2.500    1.250    2.250    0.000    5.750 
#    0.000    2.500    0.000    0.000    0.000    0.875 
#    0.000    7.000    0.000    0.000    0.000    0.000 
#
# Total GULP energy -178315.090382 kJ/mol
# GULP energy per Si atom -5572.346574 kJ/mol
# Density = 1.660248 g / cm^3
# Si number density = 16.640358 Si / 1000 Ang^3
#
#
#
# Elastic Constant Matrix: (Units=GPa)
#
#
# Indices 1 2 3 4 5 6 
#
# 1 101.0044 24.4732 49.9418 0.0000 -6.4616 0.0000
# 2 24.4732 31.9612 28.7599 0.0000 -10.0870 0.0000
# 3 49.9418 28.7599 69.3828 0.0000 -15.8988 0.0000
# 4 0.0000 0.0000 0.0000 13.6184 0.0000 -4.4888
# 5 -6.4616 -10.0870 -15.8988 0.0000 28.2622 0.0000
# 6 0.0000 0.0000 0.0000 -4.4888 0.0000 2.2877
#
#
#
# Elastic Compliance Matrix: (Units=1/GPa)
#
#
# Indices 1 2 3 4 5 6 
#
# 1 0.015868 -0.003637 -0.010768 0.000000 -0.003728 0.000000
# 2 -0.003637 0.052002 -0.017076 0.000000 0.008122 0.000000
# 3 -0.010768 -0.017076 0.031318 0.000000 0.009061 0.000000
# 4 0.000000 0.000000 0.000000 0.207858 0.000000 0.407838
# 5 -0.003728 0.008122 0.009061 0.000000 0.042527 0.000000
# 6 0.000000 0.000000 0.000000 0.407838 0.000000 1.237333
#
#
# Mechanical properties :
#
#
# Convention : Reuss Voigt Hill
#
# Bulk Modulus (GPa) = 27.60510 45.41090 36.50800
# Shear Modulus (GPa) = 3.00853 15.44523 9.22688
#
# Velocity S-wave (km/s) = 1.34607 3.04991 2.35731
# Velocity P-wave (km/s) = 4.36361 6.30487 5.42183
#
# Compressibility (1/GPa) = 0.03622519
#
# Stress axis : x y z
#
# Youngs Moduli (GPa) = 63.02118 19.23003 31.93009
#
# Poissons Ratio (x) = 0.06994 0.34383
# Poissons Ratio (y) = 0.22921 0.54525
# Poissons Ratio (z) = 0.67863 0.32838
#
# Static dielectric constant tensor:
#      x y z
#    x 1.596790 0.000000 -0.002370 
#    y 0.000000 1.561170 0.000000 
#    z -0.002370 0.000000 1.561030 
# 
# From -- ./inp_files/58289.got.cif
#   From: 2010.05.17/outbox.cif.g08.bks.cpg/sg10_30_cif.got.tgz:58289.got - 2010.06.03 11:33:40.
