data_PCOD9151463
_publ_section_title
;
Structure prediction by ZEFSAII (Michael W. Deem and Ramdas Pophale) SiO2 
 PCOD9151463
Probable space group: P 2/M
;
_chemical_formula_sum "Si O2"
_cell_formula_units_Z 28
_cell_length_a 16.215514
_cell_length_b 7.993282
_cell_length_c 11.770825
_cell_angle_alpha 90.000000
_cell_angle_beta 52.990425
_cell_angle_gamma 90.000000
_cell_volume 1218.306815
_symmetry_space_group_name_H-M "P 2/M"
_symmetry_group_IT_number 10
_symmetry_cell_setting 'monoclinic'
loop_
_space_group_symop_operation_xyz
x,y,z
-x,y,-z
-x,-y,-z
x,-y,z
loop_
_atom_site_type_symbol
_atom_site_label
_atom_site_fract_x
_atom_site_fract_y
_atom_site_fract_z
Si Si1 0.728586 0.185936 0.231311
Si Si2 0.858553 0.297821 0.316873
Si Si3 0.543703 0.702135 0.087360
Si Si4 0.085120 0.307806 0.065600
Si Si5 0.778190 0.194450 0.856073
Si Si6 0.480513 0.689325 0.643218
Si Si7 0.886423 0.702382 0.552263
O O1 0.761243 0.223493 0.332638
O O2 0.644127 0.312168 0.254898
O O3 0.686993 0.000000 0.251135
O O4 0.834364 0.205512 0.074918
O O5 0.852855 0.500000 0.316117
O O6 0.866749 0.245985 0.439939
O O7 0.967477 0.249727 0.168160
O O8 0.534764 0.500000 0.097013
O O9 0.495095 0.760069 0.250021
O O10 0.500000 0.759374 0.000000
O O11 0.664126 0.750982 0.985540
O O12 0.087309 0.500000 0.024476
O O13 0.133861 0.297697 0.150799
O O14 0.799517 0.226829 0.706824
O O15 0.792178 0.000000 0.871613
O O16 0.500000 0.765987 0.500000
O O17 0.523686 0.500000 0.603134
O O18 0.883771 0.500000 0.559063
O O19 0.000000 0.756878 0.500000
#
# Coordination Sequence:
#
# PCOD9151463 Si02
#       7
#     4   4   4   4   4   4   4
#     4  12  25  39  59  92 130 164 201 254 321 378
#     4  10  22  39  62  89 121 166 216 259 301 359
#     4  10  22  42  68  94 120 159 211 264 313 376
#     4  11  21  39  64  88 118 163 216 258 295 357
#     4  12  24  37  60  94 128 163 199 249 319 375
#     4  10  22  42  68  93 120 161 213 264 313 375
#     4  10  20  39  62  86 118 164 216 257 297 357
#
# _framework density 22.982717999999998
#
# number of rings (size 3 to 8) (size 9 to 14) (size 15 to 20)
#    0.000    1.286    2.857    3.429    0.000    5.429 
#    0.000    2.857    0.000    0.000    0.000    0.000 
#    0.000    0.000    0.000    0.000    0.000    0.000 
#
# Total GULP energy -156425.881542 kJ/mol
# GULP energy per Si atom -5586.638627 kJ/mol
# Density = 2.293041 g / cm^3
# Si number density = 22.982718 Si / 1000 Ang^3
#
#
#
# Elastic Constant Matrix: (Units=GPa)
#
#
# Indices 1 2 3 4 5 6 
#
# 1 67.1245 6.3368 14.9308 0.0000 25.8036 0.0000
# 2 6.3368 41.2971 7.4296 0.0000 5.2936 0.0000
# 3 14.9308 7.4296 133.2825 0.0000 33.3470 0.0000
# 4 0.0000 0.0000 0.0000 94.0237 0.0000 -63.5184
# 5 25.8036 5.2936 33.3470 0.0000 36.5683 0.0000
# 6 0.0000 0.0000 0.0000 -63.5184 0.0000 44.8502
#
#
#
# Elastic Compliance Matrix: (Units=1/GPa)
#
#
# Indices 1 2 3 4 5 6 
#
# 1 0.020833 -0.001451 0.001778 0.000000 -0.016112 0.000000
# 2 -0.001451 0.024814 -0.000749 0.000000 -0.001885 0.000000
# 3 0.001778 -0.000749 0.009888 0.000000 -0.010164 0.000000
# 4 0.000000 0.000000 0.000000 0.245885 0.000000 0.348230
# 5 -0.016112 -0.001885 -0.010164 0.000000 0.048256 0.000000
# 6 0.000000 0.000000 0.000000 0.348230 0.000000 0.515471
#
#
# Mechanical properties :
#
#
# Convention : Reuss Voigt Hill
#
# Bulk Modulus (GPa) = 18.28467 33.23315 25.75891
# Shear Modulus (GPa) = 5.65469 49.28891 27.47180
#
# Velocity S-wave (km/s) = 1.57027 4.63601 3.46110
# Velocity P-wave (km/s) = 3.35571 6.56874 5.21580
#
# Compressibility (1/GPa) = 0.05469062
#
# Stress axis : x y z
#
# Youngs Moduli (GPa) = 48.00144 40.30008 101.12943
#
# Poissons Ratio (x) = 0.05849 -0.17983
# Poissons Ratio (y) = 0.06967 0.07575
# Poissons Ratio (z) = -0.08536 0.03019
#
# Static dielectric constant tensor:
#      x y z
#    x 1.844540 0.000000 0.068370 
#    y 0.000000 1.829650 0.000000 
#    z 0.068370 0.000000 1.921010 
# 
# From -- ./inp_files/49591.got.cif
#   From: 2010.05.17/outbox.cif.g08.bks.cpg/sg10_25_cif.got.tgz:49591.got - 2010.06.03 11:33:40.
