data_PCOD9151672
_publ_section_title
;
Structure prediction by ZEFSAII (Michael W. Deem and Ramdas Pophale) SiO2 
 PCOD9151672
Probable space group: P 2/M
;
_chemical_formula_sum "Si O2"
_cell_formula_units_Z 32
_cell_length_a 20.617335
_cell_length_b 14.816370
_cell_length_c 18.714386
_cell_angle_alpha 90.000000
_cell_angle_beta 158.702834
_cell_angle_gamma 90.000000
_cell_volume 2076.356485
_symmetry_space_group_name_H-M "P 2/M"
_symmetry_group_IT_number 10
_symmetry_cell_setting 'monoclinic'
loop_
_space_group_symop_operation_xyz
x,y,z
-x,y,-z
-x,-y,-z
x,-y,z
loop_
_atom_site_type_symbol
_atom_site_label
_atom_site_fract_x
_atom_site_fract_y
_atom_site_fract_z
Si Si1 0.256851 0.099604 0.205486
Si Si2 0.105177 0.605977 0.948719
Si Si3 0.795610 0.390111 0.298651
Si Si4 0.516189 0.609500 0.129199
Si Si5 0.147828 0.902793 0.260075
Si Si6 0.691096 0.299440 0.714723
Si Si7 0.462184 0.392595 0.236390
Si Si8 0.760497 0.288365 0.622586
O O1 0.219623 0.095137 0.252227
O O2 0.344019 0.198684 0.287721
O O3 0.336834 0.000000 0.268354
O O4 0.066098 0.106680 0.969889
O O5 0.066822 0.500000 0.915339
O O6 0.197191 0.642754 0.115296
O O7 0.253515 0.619511 0.039872
O O8 0.923579 0.660306 0.752842
O O9 0.800342 0.500000 0.303604
O O10 0.691108 0.362538 0.263752
O O11 0.000000 0.359105 0.500000
O O12 0.661834 0.363183 0.097116
O O13 0.515788 0.500000 0.128539
O O14 0.509290 0.636581 0.204452
O O15 0.229698 0.817610 0.383396
O O16 0.186307 0.000000 0.332510
O O17 0.500000 0.341043 0.500000
O O18 0.785857 0.292864 0.734795
O O19 0.500097 0.500000 0.283561
O O20 0.580174 0.335987 0.412791
#
# Coordination Sequence:
#
# PCOD9151672 Si02
#       8
#     4   4   4   4   4   4   4   4
#     4   8  14  26  44  65  84  99 125 176 240 291
#     4  11  23  35  45  59  80 113 158 198 227 256
#     4   8  13  23  43  67  87 110 139 171 208 249
#     4   8  15  27  41  61  89 114 141 177 210 243
#     4   8  14  26  46  66  83 102 130 175 232 287
#     4  11  20  32  46  62  82 106 145 198 239 272
#     4  10  21  34  45  62  89 121 155 187 215 251
#     4  11  20  33  50  62  82 113 149 187 234 275
#
# _framework density 15.411611000000001
#
# number of rings (size 3 to 8) (size 9 to 14) (size 15 to 20)
#    0.000    2.625    2.500    2.250    0.000    3.000 
#    0.000    3.750    0.000    0.750    0.000    0.000 
#    0.000    0.000    0.000    2.250    0.000    9.000 
#
# Total GULP energy -178164.800614 kJ/mol
# GULP energy per Si atom -5567.650019 kJ/mol
# Density = 1.537653 g / cm^3
# Si number density = 15.411611 Si / 1000 Ang^3
#
#
#
# Elastic Constant Matrix: (Units=GPa)
#
#
# Indices 1 2 3 4 5 6 
#
# 1 62.8967 20.8195 15.9515 0.0000 -0.4694 0.0000
# 2 20.8195 63.5676 14.4182 0.0000 5.9549 0.0000
# 3 15.9515 14.4182 33.9910 0.0000 15.6560 0.0000
# 4 0.0000 0.0000 0.0000 11.6049 0.0000 3.3587
# 5 -0.4694 5.9549 15.6560 0.0000 18.8380 0.0000
# 6 0.0000 0.0000 0.0000 3.3587 0.0000 -5.9397
#
#
#
# Elastic Compliance Matrix: (Units=1/GPa)
#
#
# Indices 1 2 3 4 5 6 
#
# 1 0.021305 -0.005044 -0.014318 0.000000 0.014025 0.000000
# 2 -0.005044 0.018612 -0.004472 0.000000 -0.002293 0.000000
# 3 -0.014318 -0.004472 0.060837 0.000000 -0.049503 0.000000
# 4 0.000000 0.000000 0.000000 0.074051 0.000000 0.041874
# 5 0.014025 -0.002293 -0.049503 0.000000 0.095300 0.000000
# 6 0.000000 0.000000 0.000000 0.041874 0.000000 -0.144681
#
#
# Mechanical properties :
#
#
# Convention : Reuss Voigt Hill
#
# Bulk Modulus (GPa) = 18.83749 29.20374 24.02061
# Shear Modulus (GPa) = 26.20729 12.18506 19.19618
#
# Velocity S-wave (km/s) = 4.12817 2.81489 3.53309
# Velocity P-wave (km/s) = 5.91370 5.43646 5.68010
#
# Compressibility (1/GPa) = 0.05308562
#
# Stress axis : x y z
#
# Youngs Moduli (GPa) = 46.93819 53.72792 16.43750
#
# Poissons Ratio (x) = 0.27100 0.23536
# Poissons Ratio (y) = 0.23675 0.07351
# Poissons Ratio (z) = 0.67207 0.24026
#
# Static dielectric constant tensor:
#      x y z
#    x 1.533880 0.000000 0.035650 
#    y 0.000000 1.526530 0.000000 
#    z 0.035650 0.000000 1.529320 
# 
# From -- ./inp_files/79730.got.cif
#   From: 2010.05.17/outbox.cif.g08.bks.cpg/sg10_40_cif.got.tgz:79730.got - 2010.06.03 11:33:40.
