data_PCOD9151252
_publ_section_title
;
Structure prediction by ZEFSAII (Michael W. Deem and Ramdas Pophale) SiO2 
 PCOD9151252
Probable space group: P 2/M
;
_chemical_formula_sum "Si O2"
_cell_formula_units_Z 32
_cell_length_a 14.334337
_cell_length_b 14.389841
_cell_length_c 8.726719
_cell_angle_alpha 90.000000
_cell_angle_beta 115.454851
_cell_angle_gamma 90.000000
_cell_volume 1625.308898
_symmetry_space_group_name_H-M "P 2/M"
_symmetry_group_IT_number 10
_symmetry_cell_setting 'monoclinic'
loop_
_space_group_symop_operation_xyz
x,y,z
-x,y,-z
-x,-y,-z
x,-y,z
loop_
_atom_site_type_symbol
_atom_site_label
_atom_site_fract_x
_atom_site_fract_y
_atom_site_fract_z
Si Si1 0.891745 0.111294 0.840227
Si Si2 0.919073 0.763956 0.568446
Si Si3 0.297836 0.111233 0.075044
Si Si4 0.274431 0.393809 0.969003
Si Si5 0.282783 0.775430 0.761943
Si Si6 0.464578 0.603115 0.299399
Si Si7 0.968236 0.390383 0.153046
Si Si8 0.488164 0.795601 0.809351
O O1 0.894475 0.161404 0.680483
O O2 0.791314 0.139450 0.868389
O O3 0.888292 0.000000 0.821725
O O4 0.000000 0.134916 0.000000
O O5 0.815406 0.744362 0.402636
O O6 0.000000 0.799774 0.500000
O O7 0.968749 0.674640 0.687024
O O8 0.412687 0.152235 0.190972
O O9 0.304260 0.000000 0.074783
O O10 0.263858 0.151602 0.885760
O O11 0.283120 0.500000 0.917721
O O12 0.316627 0.317212 0.880632
O O13 0.154321 0.373546 0.914556
O O14 0.342406 0.389757 0.172718
O O15 0.367723 0.820625 0.708005
O O16 0.500000 0.610955 0.500000
O O17 0.496821 0.500000 0.268686
O O18 0.509691 0.689423 0.241254
O O19 0.987267 0.500000 0.195883
O O20 0.000000 0.371100 0.000000
O O21 0.500000 0.807725 0.000000
#
# Coordination Sequence:
#
# PCOD9151252 Si02
#       8
#     4   4   4   4   4   4   4   4
#     4  10  23  42  65  92 122 165 211 260 325 389
#     4  12  24  38  64  95 129 163 209 267 324 376
#     4  10  22  43  68  89 122 170 214 258 321 393
#     4  10  20  38  61  86 126 170 214 256 310 379
#     4  11  23  38  60  98 121 166 211 261 324 374
#     4  10  21  36  59  88 122 162 205 259 315 370
#     4  10  23  40  62  91 128 176 219 260 312 382
#     4  10  21  38  60  89 125 161 211 257 317 379
#
# _framework density 19.688564
#
# number of rings (size 3 to 8) (size 9 to 14) (size 15 to 20)
#    0.000    1.625    3.750    1.125    1.750    6.500 
#    0.000    1.250    0.000    1.875    0.000    0.000 
#    0.000    0.000    0.000    0.000    0.000    0.000 
#
# Total GULP energy -178437.847473 kJ/mol
# GULP energy per Si atom -5576.182734 kJ/mol
# Density = 1.964375 g / cm^3
# Si number density = 19.688564 Si / 1000 Ang^3
#
#
#
# Elastic Constant Matrix: (Units=GPa)
#
#
# Indices 1 2 3 4 5 6 
#
# 1 152.5711 50.2854 53.6336 0.0000 -3.7622 0.0000
# 2 50.2854 71.6918 31.6745 0.0000 -7.7693 0.0000
# 3 53.6336 31.6745 102.6842 0.0000 15.4493 0.0000
# 4 0.0000 0.0000 0.0000 -103.9598 0.0000 96.3051
# 5 -3.7622 -7.7693 15.4493 0.0000 26.8647 0.0000
# 6 0.0000 0.0000 0.0000 96.3051 0.0000 -86.6518
#
#
#
# Elastic Compliance Matrix: (Units=1/GPa)
#
#
# Indices 1 2 3 4 5 6 
#
# 1 0.009521 -0.004750 -0.003833 0.000000 0.002164 0.000000
# 2 -0.004750 0.020382 -0.005028 0.000000 0.008121 0.000000
# 3 -0.003833 -0.005028 0.014879 0.000000 -0.010547 0.000000
# 4 0.000000 0.000000 0.000000 0.325312 0.000000 0.361553
# 5 0.002164 0.008121 -0.010547 0.000000 0.045941 0.000000
# 6 0.000000 0.000000 0.000000 0.361553 0.000000 0.390291
#
#
# Mechanical properties :
#
#
# Convention : Reuss Voigt Hill
#
# Bulk Modulus (GPa) = 56.95103 66.45936 61.70519
# Shear Modulus (GPa) = 5.95664 -19.99246 -7.01791
#
# Velocity S-wave (km/s) = 1.74126 -3.19005 -1.89003
# Velocity P-wave (km/s) = 5.74730 4.50112 5.16195
#
# Compressibility (1/GPa) = 0.01755895
#
# Stress axis : x y z
#
# Youngs Moduli (GPa) = 105.03482 49.06389 67.21082
#
# Poissons Ratio (x) = 0.23304 0.25763
# Poissons Ratio (y) = 0.49889 0.33793
# Poissons Ratio (z) = 0.40262 0.24669
#
# Static dielectric constant tensor:
#      x y z
#    x 1.749780 0.000000 0.032630 
#    y 0.000000 1.693110 0.000000 
#    z 0.032630 0.000000 1.707250 
# 
# From -- ./inp_files/29566.got.cif
#   From: 2010.05.17/outbox.cif.g08.bks.cpg/sg10_15_cif.got.tgz:29566.got - 2010.06.03 11:33:40.
