data_PCOD9151686
_publ_section_title
;
Structure prediction by ZEFSAII (Michael W. Deem and Ramdas Pophale) SiO2 
 PCOD9151686
Probable space group: P 2/M
;
_chemical_formula_sum "Si O2"
_cell_formula_units_Z 28
_cell_length_a 17.558868
_cell_length_b 7.332532
_cell_length_c 14.283800
_cell_angle_alpha 90.000000
_cell_angle_beta 138.384391
_cell_angle_gamma 90.000000
_cell_volume 1221.370092
_symmetry_space_group_name_H-M "P 2/M"
_symmetry_group_IT_number 10
_symmetry_cell_setting 'monoclinic'
loop_
_space_group_symop_operation_xyz
x,y,z
-x,y,-z
-x,-y,-z
x,-y,z
loop_
_atom_site_type_symbol
_atom_site_label
_atom_site_fract_x
_atom_site_fract_y
_atom_site_fract_z
Si Si1 0.613994 0.778002 0.158427
Si Si2 0.480187 0.777207 0.587519
Si Si3 0.195850 0.222924 0.810497
Si Si4 0.042667 0.207590 0.341075
Si Si5 0.293083 0.219253 0.099148
Si Si6 0.951690 0.712966 0.053548
Si Si7 0.298762 0.222826 0.564122
O O1 0.728465 0.722128 0.208038
O O2 0.625160 0.724788 0.276435
O O3 0.611109 0.000000 0.154160
O O4 0.500000 0.716389 0.000000
O O5 0.500000 0.717139 0.500000
O O6 0.587139 0.717738 0.749350
O O7 0.362124 0.719773 0.527765
O O8 0.480352 0.000000 0.586887
O O9 0.064681 0.286930 0.700182
O O10 0.192095 0.000000 0.807769
O O11 0.261894 0.280523 0.965826
O O12 0.169166 0.289014 0.458820
O O13 0.001723 0.203431 0.194995
O O14 0.055407 0.000000 0.387332
O O15 0.298284 0.000000 0.099893
O O16 0.185315 0.267875 0.065361
O O17 0.982106 0.500000 0.086223
O O18 0.000000 0.786152 0.000000
O O19 0.294322 0.000000 0.557718
#
# Coordination Sequence:
#
# PCOD9151686 Si02
#       7
#     4   4   4   4   4   4   4
#     4   9  15  23  39  63  97 134 159 192 244 290
#     4   9  17  27  41  65  96 127 158 198 241 280
#     4   8  14  25  40  63  92 122 156 194 237 279
#     4   9  18  31  48  71  99 127 161 201 239 287
#     4   9  17  30  49  71  94 123 160 198 237 285
#     4  10  21  34  49  69  94 125 162 203 244 288
#     4   9  17  27  41  68 101 130 163 198 238 291
#
# _framework density 22.925075
#
# number of rings (size 3 to 8) (size 9 to 14) (size 15 to 20)
#    0.000    3.000    0.000    2.143    2.000    5.143 
#    0.000    2.857    0.000    1.286    0.000    8.000 
#    0.000   14.286    0.000    0.000    0.000    0.000 
#
# Total GULP energy -156375.141688 kJ/mol
# GULP energy per Si atom -5584.826489 kJ/mol
# Density = 2.287290 g / cm^3
# Si number density = 22.925075 Si / 1000 Ang^3
#
#
#
# Elastic Constant Matrix: (Units=GPa)
#
#
# Indices 1 2 3 4 5 6 
#
# 1 165.3275 -1.7848 53.4765 0.0000 5.1916 0.0000
# 2 -1.7848 89.6917 -1.3058 0.0000 0.2322 0.0000
# 3 53.4765 -1.3058 91.5432 0.0000 27.2257 0.0000
# 4 0.0000 0.0000 0.0000 11.1528 0.0000 71.9979
# 5 5.1916 0.2322 27.2257 0.0000 28.2865 0.0000
# 6 0.0000 0.0000 0.0000 71.9979 0.0000 40.5768
#
#
#
# Elastic Compliance Matrix: (Units=1/GPa)
#
#
# Indices 1 2 3 4 5 6 
#
# 1 0.007788 0.000060 -0.005777 0.000000 0.004131 0.000000
# 2 0.000060 0.011154 0.000216 0.000000 -0.000311 0.000000
# 3 -0.005777 0.000216 0.019597 0.000000 -0.017803 0.000000
# 4 0.000000 0.000000 0.000000 -0.008577 0.000000 0.015218
# 5 0.004131 -0.000311 -0.017803 0.000000 0.051732 0.000000
# 6 0.000000 0.000000 0.000000 0.015218 0.000000 -0.002357
#
#
# Mechanical properties :
#
#
# Convention : Reuss Voigt Hill
#
# Bulk Modulus (GPa) = 36.31355 49.70378 43.00867
# Shear Modulus (GPa) = 50.24198 35.74833 42.99516
#
# Velocity S-wave (km/s) = 4.68650 3.95315 4.33536
# Velocity P-wave (km/s) = 6.72004 6.52415 6.62282
#
# Compressibility (1/GPa) = 0.02753793
#
# Stress axis : x y z
#
# Youngs Moduli (GPa) = 128.39875 89.65026 51.02941
#
# Poissons Ratio (x) = -0.00539 0.29481
# Poissons Ratio (y) = -0.00773 -0.01104
# Poissons Ratio (z) = 0.74179 -0.01940
#
# Static dielectric constant tensor:
#      x y z
#    x 1.831280 0.000000 0.012420 
#    y 0.000000 1.868180 0.000000 
#    z 0.012420 0.000000 1.808120 
# 
# From -- ./inp_files/68703.got.cif
#   From: 2010.05.17/outbox.cif.g08.bks.cpg/sg10_35_cif.got.tgz:68703.got - 2010.06.03 11:33:40.
