data_PCOD9151229
_publ_section_title
;
Structure prediction by ZEFSAII (Michael W. Deem and Ramdas Pophale) SiO2 
 PCOD9151229
Probable space group: P 2/M
;
_chemical_formula_sum "Si O2"
_cell_formula_units_Z 28
_cell_length_a 9.632637
_cell_length_b 11.464418
_cell_length_c 14.947052
_cell_angle_alpha 90.000000
_cell_angle_beta 62.217575
_cell_angle_gamma 90.000000
_cell_volume 1460.362115
_symmetry_space_group_name_H-M "P 2/M"
_symmetry_group_IT_number 10
_symmetry_cell_setting 'monoclinic'
loop_
_space_group_symop_operation_xyz
x,y,z
-x,y,-z
-x,-y,-z
x,-y,z
loop_
_atom_site_type_symbol
_atom_site_label
_atom_site_fract_x
_atom_site_fract_y
_atom_site_fract_z
Si Si1 0.074666 0.230822 0.738863
Si Si2 0.378961 0.123928 0.703888
Si Si3 0.852314 0.362308 0.101737
Si Si4 0.473795 0.370333 0.401367
Si Si5 0.724416 0.137063 0.873048
Si Si6 0.399054 0.199033 0.895125
Si Si7 0.885386 0.635305 0.458457
O O1 0.204696 0.131474 0.715283
O O2 0.117962 0.318359 0.806883
O O3 0.103913 0.292228 0.635475
O O4 0.896410 0.187327 0.801671
O O5 0.456894 0.248628 0.655223
O O6 0.373718 0.124930 0.813095
O O7 0.453339 0.000000 0.652537
O O8 0.853998 0.500000 0.099447
O O9 0.692533 0.316417 0.104784
O O10 0.000000 0.316094 0.000000
O O11 0.500000 0.371328 0.500000
O O12 0.530248 0.500000 0.350982
O O13 0.287421 0.364874 0.447736
O O14 0.583863 0.202787 0.862517
O O15 0.716306 0.000000 0.852293
O O16 0.682622 0.150242 0.990811
O O17 0.926318 0.500000 0.426008
O O18 0.000000 0.681685 0.500000
#
# Coordination Sequence:
#
# PCOD9151229 Si02
#       7
#     4   4   4   4   4   4   4
#     4  11  22  38  62  90 122 162 205 251 308 370
#     4  11  23  38  62  95 125 158 206 257 308 365
#     4  10  20  38  60  88 124 158 198 251 306 364
#     4  10  21  41  65  88 117 159 204 249 305 368
#     4  11  22  40  61  84 122 164 204 249 303 367
#     4  10  22  40  61  87 119 164 207 247 301 367
#     4  10  22  41  63  88 118 158 207 255 304 370
#
# _framework density 19.173327
#
# number of rings (size 3 to 8) (size 9 to 14) (size 15 to 20)
#    0.000    1.571    2.857    2.571    2.000    2.571 
#    0.000    5.000    0.000    2.143    0.000    0.000 
#    0.000    0.000    0.000    0.000    0.000    0.000 
#
# Total GULP energy -156108.186370 kJ/mol
# GULP energy per Si atom -5575.292370 kJ/mol
# Density = 1.912969 g / cm^3
# Si number density = 19.173327 Si / 1000 Ang^3
#
#
#
# Elastic Constant Matrix: (Units=GPa)
#
#
# Indices 1 2 3 4 5 6 
#
# 1 139.8352 48.2804 39.6785 0.0000 0.8214 0.0000
# 2 48.2804 129.9390 45.8252 0.0000 -1.4964 0.0000
# 3 39.6785 45.8252 71.2893 0.0000 5.0251 0.0000
# 4 0.0000 0.0000 0.0000 0.1839 0.0000 -32.2328
# 5 0.8214 -1.4964 5.0251 0.0000 34.7746 0.0000
# 6 0.0000 0.0000 0.0000 -32.2328 0.0000 -37.5514
#
#
#
# Elastic Compliance Matrix: (Units=1/GPa)
#
#
# Indices 1 2 3 4 5 6 
#
# 1 0.008884 -0.002003 -0.003674 0.000000 0.000235 0.000000
# 2 -0.002003 0.010468 -0.005708 0.000000 0.001323 0.000000
# 3 -0.003674 -0.005708 0.019956 0.000000 -0.003042 0.000000
# 4 0.000000 0.000000 0.000000 0.035905 0.000000 -0.030820
# 5 0.000235 0.001323 -0.003042 0.000000 0.029248 0.000000
# 6 0.000000 0.000000 0.000000 -0.030820 0.000000 -0.000176
#
#
# Mechanical properties :
#
#
# Convention : Reuss Voigt Hill
#
# Bulk Modulus (GPa) = 60.46182 67.62574 64.04378
# Shear Modulus (GPa) = 37.71725 13.30003 25.50864
#
# Velocity S-wave (km/s) = 4.44009 2.63663 3.65145
# Velocity P-wave (km/s) = 7.60846 6.67955 7.15909
#
# Compressibility (1/GPa) = 0.01653936
#
# Stress axis : x y z
#
# Youngs Moduli (GPa) = 112.56482 95.52839 50.11143
#
# Poissons Ratio (x) = 0.19130 0.18410
# Poissons Ratio (y) = 0.22541 0.28602
# Poissons Ratio (z) = 0.41355 0.54524
#
# Static dielectric constant tensor:
#      x y z
#    x 1.713720 0.000000 -0.052780 
#    y 0.000000 1.691520 0.000000 
#    z -0.052780 0.000000 1.694480 
# 
# From -- ./inp_files/61133.got.cif
#   From: 2010.05.17/outbox.cif.g08.bks.cpg/sg10_31_cif.got.tgz:61133.got - 2010.06.03 11:33:40.
