data_PCOD9151534
_publ_section_title
;
Structure prediction by ZEFSAII (Michael W. Deem and Ramdas Pophale) SiO2 
 PCOD9151534
Probable space group: P 2/M
;
_chemical_formula_sum "Si O2"
_cell_formula_units_Z 24
_cell_length_a 18.480683
_cell_length_b 15.087993
_cell_length_c 10.676930
_cell_angle_alpha 90.000000
_cell_angle_beta 157.556376
_cell_angle_gamma 90.000000
_cell_volume 1136.586417
_symmetry_space_group_name_H-M "P 2/M"
_symmetry_group_IT_number 10
_symmetry_cell_setting 'monoclinic'
loop_
_space_group_symop_operation_xyz
x,y,z
-x,y,-z
-x,-y,-z
x,-y,z
loop_
_atom_site_type_symbol
_atom_site_label
_atom_site_fract_x
_atom_site_fract_y
_atom_site_fract_z
Si Si1 0.886268 0.325522 0.688158
Si Si2 0.542124 0.698212 0.296760
Si Si3 0.819100 0.806157 0.920033
Si Si4 0.432549 0.000000 0.241822
Si Si5 0.533451 0.500000 0.268293
Si Si6 0.843803 0.000000 0.859671
Si Si7 0.773875 0.185683 0.124987
Si Si8 0.190442 0.500000 0.525031
O O1 0.665708 0.312454 0.367900
O O2 0.920220 0.408473 0.651965
O O3 0.000000 0.343277 0.000000
O O4 0.980268 0.239194 0.782718
O O5 0.671983 0.764395 0.586549
O O6 0.533398 0.596516 0.333762
O O7 0.339556 0.746277 0.967680
O O8 0.853607 0.910167 0.955534
O O9 0.740694 0.782926 0.929814
O O10 0.500000 0.000000 0.500000
O O11 0.624603 0.000000 0.467095
O O12 0.315369 0.087399 0.019080
O O13 0.710972 0.500000 0.455593
O O14 0.349552 0.500000 0.884710
O O15 0.000000 0.000000 0.000000
O O16 0.000000 0.182635 0.500000
#
# Coordination Sequence:
#
# PCOD9151534 Si02
#       8
#     4   4   4   2   2   2   4   2
#     4   9  19  34  61  92 121 158 211 255 306 369
#     4  10  20  40  61  87 121 161 208 253 306 366
#     4  11  22  39  63  93 123 161 204 254 304 365
#     4  12  21  44  69  87 119 169 203 242 301 370
#     4   9  20  34  59  89 120 164 207 256 308 375
#     4  12  22  38  70 100 122 150 204 258 296 356
#     4  12  25  40  62  90 124 163 208 249 304 368
#     4   9  17  34  57  86 128 163 199 251 323 366
#
# _framework density 21.115862
#
# number of rings (size 3 to 8) (size 9 to 14) (size 15 to 20)
#    0.000    1.500    3.333    2.500    2.333    2.000 
#    0.000    2.917    0.000    1.000    0.000    0.000 
#    0.000    0.000    0.000    0.000    0.000    0.000 
#
# Total GULP energy -133872.325246 kJ/mol
# GULP energy per Si atom -5578.013552 kJ/mol
# Density = 2.106780 g / cm^3
# Si number density = 21.115862 Si / 1000 Ang^3
#
#
#
# Elastic Constant Matrix: (Units=GPa)
#
#
# Indices 1 2 3 4 5 6 
#
# 1 43.7698 17.8721 22.0234 0.0000 22.3796 0.0000
# 2 17.8721 180.4779 48.7836 0.0000 19.0774 0.0000
# 3 22.0234 48.7836 90.4912 0.0000 33.6755 0.0000
# 4 0.0000 0.0000 0.0000 1541.7396 0.0000 1809.4099
# 5 22.3796 19.0774 33.6755 0.0000 35.8281 0.0000
# 6 0.0000 0.0000 0.0000 1809.4099 0.0000 2143.5503
#
#
#
# Elastic Compliance Matrix: (Units=1/GPa)
#
#
# Indices 1 2 3 4 5 6 
#
# 1 0.033804 -0.001192 0.000057 0.000000 -0.020534 0.000000
# 2 -0.001192 0.006530 -0.003404 0.000000 0.000467 0.000000
# 3 0.000057 -0.003404 0.018779 0.000000 -0.015875 0.000000
# 4 0.000000 0.000000 0.000000 0.069523 0.000000 -0.058686
# 5 -0.020534 0.000467 -0.015875 0.000000 0.055409 0.000000
# 6 0.000000 0.000000 0.000000 -0.058686 0.000000 0.050004
#
#
# Mechanical properties :
#
#
# Convention : Reuss Voigt Hill
#
# Bulk Modulus (GPa) = 19.98588 54.67745 37.33167
# Shear Modulus (GPa) = 19.24515 759.29426 389.26971
#
# Velocity S-wave (km/s) = 3.02223 18.98329 13.59226
# Velocity P-wave (km/s) = 4.65445 22.50417 16.24964
#
# Compressibility (1/GPa) = 0.05003532
#
# Stress axis : x y z
#
# Youngs Moduli (GPa) = 29.58231 153.14926 53.24993
#
# Poissons Ratio (x) = 0.18262 -0.00306
# Poissons Ratio (y) = 0.03527 0.18125
# Poissons Ratio (z) = -0.00170 0.52129
#
# Static dielectric constant tensor:
#      x y z
#    x 1.771460 0.000000 0.008910 
#    y 0.000000 1.796050 0.000000 
#    z 0.008910 0.000000 1.809780 
# 
# From -- ./inp_files/56072.got.cif
#   From: 2010.05.17/outbox.cif.g08.bks.cpg/sg10_29_cif.got.tgz:56072.got - 2010.06.03 11:33:40.
