data_PCOD9151056
_publ_section_title
;
Structure prediction by ZEFSAII (Michael W. Deem and Ramdas Pophale) SiO2 
 PCOD9151056
Probable space group: P 2/M
;
_chemical_formula_sum "Si O2"
_cell_formula_units_Z 24
_cell_length_a 15.132320
_cell_length_b 8.794585
_cell_length_c 15.462982
_cell_angle_alpha 90.000000
_cell_angle_beta 40.009998
_cell_angle_gamma 90.000000
_cell_volume 1323.036768
_symmetry_space_group_name_H-M "P 2/M"
_symmetry_group_IT_number 10
_symmetry_cell_setting 'monoclinic'
loop_
_space_group_symop_operation_xyz
x,y,z
-x,y,-z
-x,-y,-z
x,-y,z
loop_
_atom_site_type_symbol
_atom_site_label
_atom_site_fract_x
_atom_site_fract_y
_atom_site_fract_z
Si Si1 0.846699 0.683140 0.147748
Si Si2 0.157905 0.816749 0.157514
Si Si3 0.345130 0.316616 0.868118
Si Si4 0.848311 0.182277 0.334859
Si Si5 0.336763 0.317673 0.375191
Si Si6 0.842656 0.816816 0.643097
O O1 0.841036 0.500000 0.161982
O O2 0.738436 0.729252 0.155252
O O3 0.820159 0.759259 0.259643
O O4 0.000000 0.722562 0.000000
O O5 0.181807 0.772087 0.239148
O O6 0.003720 0.770911 0.244814
O O7 0.163813 0.000000 0.149014
O O8 0.267072 0.748649 0.009633
O O9 0.339889 0.500000 0.876440
O O10 0.503850 0.269753 0.745138
O O11 0.743183 0.250232 0.482832
O O12 0.841990 0.000000 0.342967
O O13 0.331418 0.500000 0.383137
O O14 0.259839 0.260217 0.347104
O O15 0.000000 0.779676 0.500000
O O16 0.828958 0.000000 0.646317
#
# Coordination Sequence:
#
# PCOD9151056 Si02
#       6
#     4   4   4   4   4   4
#     4  10  20  37  62  88 115 155 199 241 290 345
#     4  10  21  37  61  88 115 152 195 240 293 348
#     4  10  23  41  59  85 123 156 191 243 296 346
#     4  11  22  38  61  89 119 153 195 244 292 348
#     4  11  24  40  59  87 121 157 194 240 295 349
#     4  10  20  39  62  86 118 154 195 243 290 344
#
# _framework density 18.140086
#
# number of rings (size 3 to 8) (size 9 to 14) (size 15 to 20)
#    0.000    1.667    3.333    1.000    0.000    5.333 
#    0.000    6.667    0.000    0.000    0.000    0.000 
#    0.000    0.000    0.000    0.000    0.000    0.000 
#
# Total GULP energy -134099.235207 kJ/mol
# GULP energy per Si atom -5587.468134 kJ/mol
# Density = 1.809880 g / cm^3
# Si number density = 18.140086 Si / 1000 Ang^3
#
#
#
# Elastic Constant Matrix: (Units=GPa)
#
#
# Indices 1 2 3 4 5 6 
#
# 1 181.7585 48.2667 122.3677 0.0000 7.7988 0.0000
# 2 48.2667 25.6130 49.8945 0.0000 0.9801 0.0000
# 3 122.3677 49.8945 193.8045 0.0000 6.6858 0.0000
# 4 0.0000 0.0000 0.0000 34.9624 0.0000 5.6938
# 5 7.7988 0.9801 6.6858 0.0000 40.6905 0.0000
# 6 0.0000 0.0000 0.0000 5.6938 0.0000 31.9180
#
#
#
# Elastic Compliance Matrix: (Units=1/GPa)
#
#
# Indices 1 2 3 4 5 6 
#
# 1 0.012199 -0.016096 -0.003511 0.000000 -0.001373 0.000000
# 2 -0.016096 0.099645 -0.015602 0.000000 0.003249 0.000000
# 3 -0.003511 -0.015602 0.011422 0.000000 -0.000828 0.000000
# 4 0.000000 0.000000 0.000000 0.029458 0.000000 -0.005255
# 5 -0.001373 0.003249 -0.000828 0.000000 0.024897 0.000000
# 6 0.000000 0.000000 0.000000 -0.005255 0.000000 0.032268
#
#
# Mechanical properties :
#
#
# Convention : Reuss Voigt Hill
#
# Bulk Modulus (GPa) = 18.92268 93.58154 56.25211
# Shear Modulus (GPa) = 16.78284 33.55731 25.17008
#
# Velocity S-wave (km/s) = 3.04498 4.30571 3.72901
# Velocity P-wave (km/s) = 4.77667 8.74180 7.04399
#
# Compressibility (1/GPa) = 0.05284665
#
# Stress axis : x y z
#
# Youngs Moduli (GPa) = 81.97378 10.03563 87.55035
#
# Poissons Ratio (x) = 0.16154 0.30739
# Poissons Ratio (y) = 1.31949 1.36597
# Poissons Ratio (z) = 0.28781 0.15658
#
# Static dielectric constant tensor:
#      x y z
#    x 1.605580 0.000000 -0.006800 
#    y 0.000000 1.613640 0.000000 
#    z -0.006800 0.000000 1.586520 
# 
# From -- ./inp_files/26997.got.cif
#   From: 2010.05.17/outbox.cif.g08.bks.cpg/sg10_14_cif.got.tgz:26997.got - 2010.06.03 11:33:40.
