data_PCOD9151690
_publ_section_title
;
Structure prediction by ZEFSAII (Michael W. Deem and Ramdas Pophale) SiO2 
 PCOD9151690
Probable space group: P 2/M
;
_chemical_formula_sum "Si O2"
_cell_formula_units_Z 28
_cell_length_a 24.446884
_cell_length_b 7.509253
_cell_length_c 21.424856
_cell_angle_alpha 90.000000
_cell_angle_beta 19.170177
_cell_angle_gamma 90.000000
_cell_volume 1291.541323
_symmetry_space_group_name_H-M "P 2/M"
_symmetry_group_IT_number 10
_symmetry_cell_setting 'monoclinic'
loop_
_space_group_symop_operation_xyz
x,y,z
-x,y,-z
-x,-y,-z
x,-y,z
loop_
_atom_site_type_symbol
_atom_site_label
_atom_site_fract_x
_atom_site_fract_y
_atom_site_fract_z
Si Si1 0.381913 0.282768 0.184623
Si Si2 0.174373 0.784648 0.123568
Si Si3 0.012268 0.202593 0.554786
Si Si4 0.022120 0.212285 0.906234
Si Si5 0.554635 0.708335 0.743877
Si Si6 0.620110 0.287959 0.538909
Si Si7 0.766732 0.786494 0.075999
O O1 0.376219 0.500000 0.190860
O O2 0.204987 0.202597 0.360700
O O3 0.423511 0.220775 0.209888
O O4 0.500000 0.231540 0.000000
O O5 0.069089 0.716064 0.295598
O O6 0.156554 0.000000 0.141634
O O7 0.361316 0.730725 0.937480
O O8 0.150012 0.721581 0.078840
O O9 0.000000 0.290307 0.500000
O O10 0.943717 0.000000 0.622551
O O11 0.213000 0.237760 0.678027
O O12 0.995264 0.000000 0.938062
O O13 0.000000 0.284426 0.000000
O O14 0.879509 0.280938 0.011949
O O15 0.601113 0.500000 0.697027
O O16 0.636596 0.785243 0.592428
O O17 0.619318 0.500000 0.544449
O O18 0.434899 0.245189 0.710335
O O19 0.780732 0.000000 0.061088
#
# Coordination Sequence:
#
# PCOD9151690 Si02
#       7
#     4   4   4   4   4   4   4
#     4  10  21  35  51  73 102 138 180 220 262 318
#     4   9  18  33  53  77 102 134 176 219 265 321
#     4  10  21  34  49  74 106 136 172 220 271 319
#     4  10  22  39  60  86 115 149 190 235 281 335
#     4   9  19  35  53  77 106 137 176 222 269 320
#     4  10  21  37  58  85 117 150 186 232 286 339
#     4   9  19  37  59  82 111 148 190 232 276 333
#
# _framework density 21.679523
#
# number of rings (size 3 to 8) (size 9 to 14) (size 15 to 20)
#    0.000    2.429    0.000    1.286    2.000    3.714 
#    0.000    2.857    0.000    0.000    0.000    0.000 
#    0.000    0.000    0.000    0.000    0.000    0.000 
#
# Total GULP energy -156009.577516 kJ/mol
# GULP energy per Si atom -5571.770626 kJ/mol
# Density = 2.163018 g / cm^3
# Si number density = 21.679523 Si / 1000 Ang^3
#
#
#
# Elastic Constant Matrix: (Units=GPa)
#
#
# Indices 1 2 3 4 5 6 
#
# 1 241.3235 14.3431 96.8624 0.0000 23.1782 0.0000
# 2 14.3431 59.6392 -8.3656 0.0000 5.1909 0.0000
# 3 96.8624 -8.3656 132.7008 0.0000 38.4384 0.0000
# 4 0.0000 0.0000 0.0000 -41.8552 0.0000 -50.9385
# 5 23.1782 5.1909 38.4384 0.0000 32.3296 0.0000
# 6 0.0000 0.0000 0.0000 -50.9385 0.0000 -19.0809
#
#
#
# Elastic Compliance Matrix: (Units=1/GPa)
#
#
# Indices 1 2 3 4 5 6 
#
# 1 0.006221 -0.002450 -0.005365 0.000000 0.002312 0.000000
# 2 -0.002450 0.018703 0.005077 0.000000 -0.007282 0.000000
# 3 -0.005365 0.005077 0.016616 0.000000 -0.016725 0.000000
# 4 0.000000 0.000000 0.000000 0.010624 0.000000 -0.028361
# 5 0.002312 -0.007282 -0.016725 0.000000 0.050328 0.000000
# 6 0.000000 0.000000 0.000000 -0.028361 0.000000 0.023303
#
#
# Mechanical properties :
#
#
# Convention : Reuss Voigt Hill
#
# Bulk Modulus (GPa) = 27.72870 71.03813 49.38342
# Shear Modulus (GPa) = 34.89382 16.33361 25.61371
#
# Velocity S-wave (km/s) = 4.01625 2.74781 3.44098
# Velocity P-wave (km/s) = 5.85876 6.55025 6.21413
#
# Compressibility (1/GPa) = 0.03606372
#
# Stress axis : x y z
#
# Youngs Moduli (GPa) = 160.75394 53.46840 60.18192
#
# Poissons Ratio (x) = 0.13099 0.32286
# Poissons Ratio (y) = 0.39382 -0.30552
# Poissons Ratio (z) = 0.86241 -0.27144
#
# Static dielectric constant tensor:
#      x y z
#    x 2.485250 0.000000 -0.015860 
#    y 0.000000 1.863610 0.000000 
#    z -0.015860 0.000000 1.863230 
# 
# From -- ./inp_files/38034.got.cif
#   From: 2010.05.17/outbox.cif.g08.bks.cpg/sg10_20_cif.got.tgz:38034.got - 2010.06.03 11:33:40.
