data_PCOD9151293
_publ_section_title
;
Structure prediction by ZEFSAII (Michael W. Deem and Ramdas Pophale) SiO2 
 PCOD9151293
Probable space group: P 2/M
;
_chemical_formula_sum "Si O2"
_cell_formula_units_Z 32
_cell_length_a 15.848337
_cell_length_b 7.882946
_cell_length_c 11.906729
_cell_angle_alpha 90.000000
_cell_angle_beta 86.680919
_cell_angle_gamma 90.000000
_cell_volume 1485.031333
_symmetry_space_group_name_H-M "P 2/M"
_symmetry_group_IT_number 10
_symmetry_cell_setting 'monoclinic'
loop_
_space_group_symop_operation_xyz
x,y,z
-x,y,-z
-x,-y,-z
x,-y,z
loop_
_atom_site_type_symbol
_atom_site_label
_atom_site_fract_x
_atom_site_fract_y
_atom_site_fract_z
Si Si1 0.006638 0.207192 0.867088
Si Si2 0.419363 0.301493 0.929963
Si Si3 0.753189 0.695219 0.996974
Si Si4 0.521158 0.805394 0.309010
Si Si5 0.331018 0.194395 0.315955
Si Si6 0.680736 0.695249 0.437704
Si Si7 0.807550 0.203652 0.232122
Si Si8 0.837088 0.190841 0.788325
O O1 0.094927 0.251674 0.799914
O O2 0.930041 0.269665 0.792642
O O3 0.001590 0.000000 0.870403
O O4 0.000000 0.263397 0.000000
O O5 0.405423 0.500000 0.900428
O O6 0.342404 0.250206 0.015303
O O7 0.433487 0.201260 0.815145
O O8 0.500000 0.288719 0.000000
O O9 0.768451 0.500000 0.964195
O O10 0.761876 0.716651 0.128381
O O11 0.814059 0.812330 0.922219
O O12 0.426417 0.729971 0.299943
O O13 0.588546 0.722239 0.387968
O O14 0.510033 0.000000 0.347009
O O15 0.313035 0.197092 0.449949
O O16 0.246896 0.269816 0.262371
O O17 0.337217 0.000000 0.273116
O O18 0.688091 0.500000 0.470030
O O19 0.755907 0.738618 0.345172
O O20 0.802178 0.000000 0.227520
O O21 0.845104 0.000000 0.741001
#
# Coordination Sequence:
#
# PCOD9151293 Si02
#       8
#     4   4   4   4   4   4   4   4
#     4   9  17  33  60  92 118 148 193 237 287 347
#     4  10  21  35  51  77 118 161 196 235 286 346
#     4  11  21  33  53  84 121 156 192 234 287 347
#     4  11  22  37  59  86 115 150 198 248 288 341
#     4  10  23  41  61  87 116 152 199 246 291 340
#     4  12  25  41  61  85 116 155 198 243 295 353
#     4  11  21  37  62  87 115 150 192 243 290 338
#     4  10  20  38  62  87 119 155 194 242 290 347
#
# _framework density 21.548365
#
# number of rings (size 3 to 8) (size 9 to 14) (size 15 to 20)
#    0.000    1.500    2.500    3.375    0.000    3.750 
#    0.000    2.500    0.000    3.750    0.000    0.000 
#    0.000    0.000    0.000    0.000    0.000    0.000 
#
# Total GULP energy -178490.678045 kJ/mol
# GULP energy per Si atom -5577.833689 kJ/mol
# Density = 2.149932 g / cm^3
# Si number density = 21.548365 Si / 1000 Ang^3
#
#
#
# Elastic Constant Matrix: (Units=GPa)
#
#
# Indices 1 2 3 4 5 6 
#
# 1 159.3262 7.5175 9.9758 0.0000 7.0579 0.0000
# 2 7.5175 45.5282 -0.5874 0.0000 1.7246 0.0000
# 3 9.9758 -0.5874 49.1364 0.0000 4.3004 0.0000
# 4 0.0000 0.0000 0.0000 195.0794 0.0000 -78.2662
# 5 7.0579 1.7246 4.3004 0.0000 25.8496 0.0000
# 6 0.0000 0.0000 0.0000 -78.2662 0.0000 30.0075
#
#
#
# Elastic Compliance Matrix: (Units=1/GPa)
#
#
# Indices 1 2 3 4 5 6 
#
# 1 0.006466 -0.001026 -0.001194 0.000000 -0.001498 0.000000
# 2 -0.001026 0.022191 0.000587 0.000000 -0.001298 0.000000
# 3 -0.001194 0.000587 0.020880 0.000000 -0.003187 0.000000
# 4 0.000000 0.000000 0.000000 -0.110421 0.000000 -0.288002
# 5 -0.001498 -0.001298 -0.003187 0.000000 0.039711 0.000000
# 6 0.000000 0.000000 0.000000 -0.288002 0.000000 -0.717848
#
#
# Mechanical properties :
#
#
# Convention : Reuss Voigt Hill
#
# Bulk Modulus (GPa) = 21.61203 31.97807 26.79505
# Shear Modulus (GPa) = -6.94125 65.99295 29.52585
#
# Velocity S-wave (km/s) = -1.79673 5.54003 3.70565
# Velocity P-wave (km/s) = 2.39729 7.46961 5.54716
#
# Compressibility (1/GPa) = 0.04627052
#
# Stress axis : x y z
#
# Youngs Moduli (GPa) = 154.65556 45.06412 47.89313
#
# Poissons Ratio (x) = 0.04625 0.05718
# Poissons Ratio (y) = 0.15872 -0.02812
# Poissons Ratio (z) = 0.18464 -0.02646
#
# Static dielectric constant tensor:
#      x y z
#    x 1.884570 0.000000 0.026170 
#    y 0.000000 1.805160 0.000000 
#    z 0.026170 0.000000 1.756970 
# 
# From -- ./inp_files/49812.got.cif
#   From: 2010.05.17/outbox.cif.g08.bks.cpg/sg10_25_cif.got.tgz:49812.got - 2010.06.03 11:33:40.
