data_PCOD9151243
_publ_section_title
;
Structure prediction by ZEFSAII (Michael W. Deem and Ramdas Pophale) SiO2 
 PCOD9151243
Probable space group: P 2/M
;
_chemical_formula_sum "Si O2"
_cell_formula_units_Z 28
_cell_length_a 26.930672
_cell_length_b 8.357786
_cell_length_c 8.574040
_cell_angle_alpha 90.000000
_cell_angle_beta 40.425780
_cell_angle_gamma 90.000000
_cell_volume 1251.436449
_symmetry_space_group_name_H-M "P 2/M"
_symmetry_group_IT_number 10
_symmetry_cell_setting 'monoclinic'
loop_
_space_group_symop_operation_xyz
x,y,z
-x,y,-z
-x,-y,-z
x,-y,z
loop_
_atom_site_type_symbol
_atom_site_label
_atom_site_fract_x
_atom_site_fract_y
_atom_site_fract_z
Si Si1 0.545480 0.684690 0.677013
Si Si2 0.333523 0.317543 0.850278
Si Si3 0.160166 0.190211 0.957608
Si Si4 0.839621 0.305872 0.709514
Si Si5 0.308181 0.321722 0.464550
Si Si6 0.909841 0.307625 0.205449
Si Si7 0.386035 0.175546 0.018518
O O1 0.522249 0.500000 0.696908
O O2 0.599885 0.757406 0.413059
O O3 0.606906 0.672590 0.667797
O O4 0.471031 0.790622 0.877913
O O5 0.325390 0.500000 0.810711
O O6 0.368817 0.312027 0.936309
O O7 0.248727 0.248741 0.068919
O O8 0.244552 0.269046 0.739011
O O9 0.121242 0.238424 0.884905
O O10 0.165332 0.000000 0.952687
O O11 0.125323 0.250571 0.206876
O O12 0.841521 0.500000 0.704006
O O13 0.873401 0.254636 0.459880
O O14 0.288582 0.500000 0.454113
O O15 0.318313 0.193888 0.305200
O O16 0.898955 0.500000 0.222413
O O17 0.000000 0.273627 0.000000
O O18 0.383282 0.000000 0.953725
#
# Coordination Sequence:
#
# PCOD9151243 Si02
#       7
#     4   4   4   4   4   4   4
#     4  10  21  38  59  82 110 155 214 265 314 376
#     4  10  20  38  61  84 112 159 217 264 310 375
#     4  12  25  41  67 101 137 173 210 266 336 397
#     4  10  21  42  70  97 128 172 223 272 320 378
#     4  11  22  41  64  85 114 159 215 264 308 374
#     4  10  23  44  72 104 136 175 224 269 308 372
#     4  12  25  36  52  85 124 162 202 260 334 386
#
# _framework density 22.374289999999998
#
# number of rings (size 3 to 8) (size 9 to 14) (size 15 to 20)
#    0.000    1.286    1.429    4.714    0.000    8.286 
#    0.000    2.857    0.000    0.000    0.000    0.000 
#    0.000    0.000    0.000    0.000    0.000    0.000 
#
# Total GULP energy -156147.905958 kJ/mol
# GULP energy per Si atom -5576.710927 kJ/mol
# Density = 2.232336 g / cm^3
# Si number density = 22.374290 Si / 1000 Ang^3
#
#
#
# Elastic Constant Matrix: (Units=GPa)
#
#
# Indices 1 2 3 4 5 6 
#
# 1 100.3292 21.1549 50.9593 0.0000 12.5861 0.0000
# 2 21.1549 71.1972 24.5164 0.0000 4.5941 0.0000
# 3 50.9593 24.5164 105.9499 0.0000 13.7744 0.0000
# 4 0.0000 0.0000 0.0000 14.6538 0.0000 -1.7379
# 5 12.5861 4.5941 13.7744 0.0000 28.0322 0.0000
# 6 0.0000 0.0000 0.0000 -1.7379 0.0000 2.9449
#
#
#
# Elastic Compliance Matrix: (Units=1/GPa)
#
#
# Indices 1 2 3 4 5 6 
#
# 1 0.013658 -0.001887 -0.005742 0.000000 -0.003001 0.000000
# 2 -0.001887 0.015540 -0.002636 0.000000 -0.000404 0.000000
# 3 -0.005742 -0.002636 0.013266 0.000000 -0.003509 0.000000
# 4 0.000000 0.000000 0.000000 0.073377 0.000000 0.043303
# 5 -0.003001 -0.000404 -0.003509 0.000000 0.038811 0.000000
# 6 0.000000 0.000000 0.000000 0.043303 0.000000 0.365129
#
#
# Mechanical properties :
#
#
# Convention : Reuss Voigt Hill
#
# Bulk Modulus (GPa) = 45.59110 52.30419 48.94765
# Shear Modulus (GPa) = 9.13035 21.18256 15.15646
#
# Velocity S-wave (km/s) = 2.02227 3.08025 2.60552
# Velocity P-wave (km/s) = 5.08661 6.00652 5.56560
#
# Compressibility (1/GPa) = 0.02193410
#
# Stress axis : x y z
#
# Youngs Moduli (GPa) = 73.21535 64.35049 75.37846
#
# Poissons Ratio (x) = 0.12145 0.43285
# Poissons Ratio (y) = 0.13818 0.19867
# Poissons Ratio (z) = 0.42043 0.16960
#
# Static dielectric constant tensor:
#      x y z
#    x 1.882520 0.000000 0.035540 
#    y 0.000000 1.788680 0.000000 
#    z 0.035540 0.000000 1.860860 
# 
# From -- ./inp_files/36895.got.cif
#   From: 2010.05.17/outbox.cif.g08.bks.cpg/sg10_19_cif.got.tgz:36895.got - 2010.06.03 11:33:40.
