data_PCOD9151172
_publ_section_title
;
Structure prediction by ZEFSAII (Michael W. Deem and Ramdas Pophale) SiO2 
 PCOD9151172
Probable space group: P 2/M
;
_chemical_formula_sum "Si O2"
_cell_formula_units_Z 32
_cell_length_a 24.643065
_cell_length_b 7.782502
_cell_length_c 18.425890
_cell_angle_alpha 90.000000
_cell_angle_beta 149.514875
_cell_angle_gamma 90.000000
_cell_volume 1792.750461
_symmetry_space_group_name_H-M "P 2/M"
_symmetry_group_IT_number 10
_symmetry_cell_setting 'monoclinic'
loop_
_space_group_symop_operation_xyz
x,y,z
-x,y,-z
-x,-y,-z
x,-y,z
loop_
_atom_site_type_symbol
_atom_site_label
_atom_site_fract_x
_atom_site_fract_y
_atom_site_fract_z
Si Si1 0.373893 0.298896 0.376220
Si Si2 0.424645 0.701911 0.747832
Si Si3 0.821288 0.301331 0.132599
Si Si4 0.263242 0.208257 0.686188
Si Si5 0.679158 0.710900 0.839040
Si Si6 0.970180 0.798541 0.544585
Si Si7 0.343039 0.199151 0.935219
Si Si8 0.563021 0.709937 0.399456
O O1 0.500000 0.294010 0.500000
O O2 0.343672 0.500000 0.346090
O O3 0.313833 0.227828 0.236264
O O4 0.371232 0.225994 0.454534
O O5 0.449658 0.500000 0.771111
O O6 0.328357 0.726886 0.692377
O O7 0.400906 0.764275 0.638747
O O8 0.532571 0.786720 0.902446
O O9 0.847342 0.500000 0.149986
O O10 0.928195 0.217178 0.286393
O O11 0.729641 0.290666 0.088607
O O12 0.769045 0.229630 0.998702
O O13 0.319417 0.261297 0.826576
O O14 0.140569 0.269432 0.550373
O O15 0.267155 0.000000 0.686755
O O16 0.680655 0.500000 0.840211
O O17 0.561595 0.758764 0.733591
O O18 0.000000 0.722419 0.500000
O O19 0.948291 0.000000 0.506776
O O20 0.309463 0.000000 0.899245
O O21 0.566342 0.500000 0.406811
#
# Coordination Sequence:
#
# PCOD9151172 Si02
#       8
#     4   4   4   4   4   4   4   4
#     4   7  10  18  36  60  90 128 155 174 215 280
#     4  11  21  32  48  74 103 124 153 201 244 278
#     4  11  20  30  49  77 102 121 152 202 251 281
#     4  10  22  38  52  65  88 126 169 201 228 280
#     4   8  13  23  39  65  99 124 149 186 230 279
#     4  10  20  38  55  67  88 124 166 201 235 284
#     4  11  21  35  51  67  93 132 169 193 227 285
#     4   8  13  23  39  64  97 127 152 181 226 279
#
# _framework density 17.849667
#
# number of rings (size 3 to 8) (size 9 to 14) (size 15 to 20)
#    0.000    2.500    2.500    3.000    0.000    3.250 
#    0.000    0.000    0.000    0.000    0.000    5.250 
#    0.000    7.000    0.000    0.000    0.000    0.000 
#
# Total GULP energy -178372.997394 kJ/mol
# GULP energy per Si atom -5574.156169 kJ/mol
# Density = 1.780904 g / cm^3
# Si number density = 17.849667 Si / 1000 Ang^3
#
#
#
# Elastic Constant Matrix: (Units=GPa)
#
#
# Indices 1 2 3 4 5 6 
#
# 1 117.0034 -3.1089 83.9285 0.0000 -23.2870 0.0000
# 2 -3.1089 23.4195 -4.4963 0.0000 -2.2546 0.0000
# 3 83.9285 -4.4963 104.1337 0.0000 -28.3604 0.0000
# 4 0.0000 0.0000 0.0000 -41.3592 0.0000 56.5786
# 5 -23.2870 -2.2546 -28.3604 0.0000 34.7680 0.0000
# 6 0.0000 0.0000 0.0000 56.5786 0.0000 -31.4684
#
#
#
# Elastic Compliance Matrix: (Units=1/GPa)
#
#
# Indices 1 2 3 4 5 6 
#
# 1 0.020266 -0.000409 -0.016278 0.000000 0.000269 0.000000
# 2 -0.000409 0.043911 0.003762 0.000000 0.005643 0.000000
# 3 -0.016278 0.003762 0.025689 0.000000 0.010296 0.000000
# 4 0.000000 0.000000 0.000000 0.016565 0.000000 0.029784
# 5 0.000269 0.005643 0.010296 0.000000 0.037707 0.000000
# 6 0.000000 0.000000 0.000000 0.029784 0.000000 0.021772
#
#
# Mechanical properties :
#
#
# Convention : Reuss Voigt Hill
#
# Bulk Modulus (GPa) = 15.62099 44.13366 29.87733
# Shear Modulus (GPa) = 23.46328 3.60364 13.53346
#
# Velocity S-wave (km/s) = 3.62953 1.42242 2.75651
# Velocity P-wave (km/s) = 5.13177 5.24181 5.18708
#
# Compressibility (1/GPa) = 0.06401642
#
# Stress axis : x y z
#
# Youngs Moduli (GPa) = 49.34354 22.77348 38.92677
#
# Poissons Ratio (x) = 0.00932 0.63366
# Poissons Ratio (y) = 0.02018 -0.14646
# Poissons Ratio (z) = 0.80322 -0.08568
#
# Static dielectric constant tensor:
#      x y z
#    x 1.610200 0.000000 -0.045630 
#    y 0.000000 1.666670 0.000000 
#    z -0.045630 0.000000 1.610290 
# 
# From -- ./inp_files/54838.got.cif
#   From: 2010.05.17/outbox.cif.g08.bks.cpg/sg10_28_cif.got.tgz:54838.got - 2010.06.03 11:33:40.
