data_PCOD9151595
_publ_section_title
;
Structure prediction by ZEFSAII (Michael W. Deem and Ramdas Pophale) SiO2 
 PCOD9151595
Probable space group: P 2/M
;
_chemical_formula_sum "Si O2"
_cell_formula_units_Z 28
_cell_length_a 9.201960
_cell_length_b 18.166460
_cell_length_c 15.943316
_cell_angle_alpha 90.000000
_cell_angle_beta 30.673315
_cell_angle_gamma 90.000000
_cell_volume 1359.629935
_symmetry_space_group_name_H-M "P 2/M"
_symmetry_group_IT_number 10
_symmetry_cell_setting 'monoclinic'
loop_
_space_group_symop_operation_xyz
x,y,z
-x,y,-z
-x,-y,-z
x,-y,z
loop_
_atom_site_type_symbol
_atom_site_label
_atom_site_fract_x
_atom_site_fract_y
_atom_site_fract_z
Si Si1 0.077384 0.682050 0.125791
Si Si2 0.123788 0.167770 0.843866
Si Si3 0.669491 0.178394 0.671960
Si Si4 0.327579 0.581836 0.759830
Si Si5 0.890820 0.413186 0.377268
Si Si6 0.626934 0.343380 0.757677
Si Si7 0.390652 0.913921 0.960555
O O1 0.963116 0.764693 0.173288
O O2 0.915572 0.640524 0.131615
O O3 0.975049 0.637360 0.257244
O O4 0.411737 0.674566 0.941229
O O5 0.459488 0.160560 0.697630
O O6 0.000000 0.182133 0.000000
O O7 0.944365 0.101051 0.892672
O O8 0.654463 0.266231 0.695266
O O9 0.548102 0.136307 0.813631
O O10 0.000000 0.158212 0.500000
O O11 0.210608 0.500000 0.812167
O O12 0.565183 0.590805 0.569046
O O13 0.486185 0.596752 0.767324
O O14 0.956567 0.500000 0.330685
O O15 0.081184 0.377852 0.355864
O O16 0.452262 0.000000 0.916688
O O17 0.500000 0.894761 0.000000
#
# Coordination Sequence:
#
# PCOD9151595 Si02
#       7
#     4   4   4   4   4   4   4
#     4  12  22  38  61  88 121 158 213 267 318 382
#     4  10  20  41  65  96 131 168 213 260 313 379
#     4  11  23  41  67  99 133 171 219 264 313 376
#     4  11  23  41  60  82 121 166 211 267 324 379
#     4  11  26  41  56  86 124 165 212 269 337 387
#     4  12  23  39  62  88 121 163 216 270 312 381
#     4  10  23  44  72 104 136 171 206 248 311 381
#
# _framework density 20.593838000000002
#
# number of rings (size 3 to 8) (size 9 to 14) (size 15 to 20)
#    0.000    1.000    4.286    3.429    2.000    8.571 
#    0.000    0.714    0.000    1.714    0.000    0.000 
#    0.000    0.000    0.000    0.000    0.000    0.000 
#
# Total GULP energy -156391.563133 kJ/mol
# GULP energy per Si atom -5585.412969 kJ/mol
# Density = 2.054697 g / cm^3
# Si number density = 20.593838 Si / 1000 Ang^3
#
#
#
# Elastic Constant Matrix: (Units=GPa)
#
#
# Indices 1 2 3 4 5 6 
#
# 1 73.9857 10.6205 15.2415 0.0000 -7.6608 0.0000
# 2 10.6205 69.5733 4.5385 0.0000 -0.2806 0.0000
# 3 15.2415 4.5385 76.4373 0.0000 -14.9537 0.0000
# 4 0.0000 0.0000 0.0000 12.9578 0.0000 2.4909
# 5 -7.6608 -0.2806 -14.9537 0.0000 37.6423 0.0000
# 6 0.0000 0.0000 0.0000 2.4909 0.0000 33.0409
#
#
#
# Elastic Compliance Matrix: (Units=1/GPa)
#
#
# Indices 1 2 3 4 5 6 
#
# 1 0.014507 -0.002051 -0.002381 0.000000 0.001991 0.000000
# 2 -0.002051 0.014721 -0.000570 0.000000 -0.000534 0.000000
# 3 -0.002381 -0.000570 0.014633 0.000000 0.005324 0.000000
# 4 0.000000 0.000000 0.000000 0.078308 0.000000 -0.005904
# 5 0.001991 -0.000534 0.005324 0.000000 0.029082 0.000000
# 6 0.000000 0.000000 0.000000 -0.005904 0.000000 0.030711
#
#
# Mechanical properties :
#
#
# Convention : Reuss Voigt Hill
#
# Bulk Modulus (GPa) = 29.53570 31.19969 30.36770
# Shear Modulus (GPa) = 24.59990 29.36792 26.98391
#
# Velocity S-wave (km/s) = 3.45994 3.78041 3.62372
# Velocity P-wave (km/s) = 5.50770 5.85134 5.68212
#
# Compressibility (1/GPa) = 0.03385733
#
# Stress axis : x y z
#
# Youngs Moduli (GPa) = 68.93071 67.92808 68.33933
#
# Poissons Ratio (x) = 0.13933 0.16274
# Poissons Ratio (y) = 0.14139 0.03892
# Poissons Ratio (z) = 0.16415 0.03869
#
# Static dielectric constant tensor:
#      x y z
#    x 1.779660 0.000000 -0.011560 
#    y 0.000000 1.678600 0.000000 
#    z -0.011560 0.000000 1.772480 
# 
# From -- ./inp_files/62554.got.cif
#   From: 2010.05.17/outbox.cif.g08.bks.cpg/sg10_32_cif.got.tgz:62554.got - 2010.06.03 11:33:40.
