data_PCOD9151089
_publ_section_title
;
Structure prediction by ZEFSAII (Michael W. Deem and Ramdas Pophale) SiO2 
 PCOD9151089
Probable space group: P 2/M
;
_chemical_formula_sum "Si O2"
_cell_formula_units_Z 29
_cell_length_a 10.999116
_cell_length_b 7.921643
_cell_length_c 22.081233
_cell_angle_alpha 90.000000
_cell_angle_beta 132.360296
_cell_angle_gamma 90.000000
_cell_volume 1421.658283
_symmetry_space_group_name_H-M "P 2/M"
_symmetry_group_IT_number 10
_symmetry_cell_setting 'monoclinic'
loop_
_space_group_symop_operation_xyz
x,y,z
-x,y,-z
-x,-y,-z
x,-y,z
loop_
_atom_site_type_symbol
_atom_site_label
_atom_site_fract_x
_atom_site_fract_y
_atom_site_fract_z
Si Si1 0.179077 0.809976 0.987227
Si Si2 0.811779 0.305751 0.883760
Si Si3 0.556934 0.700355 0.452886
Si Si4 0.278224 0.807969 0.271690
Si Si5 0.050588 0.702477 0.420918
Si Si6 0.670864 0.691176 0.078391
Si Si7 0.972138 0.702824 0.254020
Si Si8 0.000000 0.000000 0.500000
O O1 0.229122 0.687340 0.950581
O O2 0.984297 0.787869 0.930555
O O3 0.215338 0.000000 0.980419
O O4 0.262125 0.771093 0.079705
O O5 0.845932 0.500000 0.908535
O O6 0.716300 0.294092 0.788843
O O7 0.500000 0.761002 0.500000
O O8 0.520442 0.500000 0.438129
O O9 0.444893 0.785958 0.365103
O O10 0.750766 0.722536 0.509198
O O11 0.125468 0.761067 0.264162
O O12 0.255626 0.000000 0.245573
O O13 0.014233 0.500000 0.421474
O O14 0.000386 0.737155 0.334235
O O15 0.980027 0.846499 0.441304
O O16 0.630884 0.500000 0.086088
O O17 0.798144 0.768420 0.169292
O O18 0.500000 0.774169 0.000000
O O19 0.968403 0.500000 0.245928
#
# Coordination Sequence:
#
# PCOD9151089 Si02
#       8
#     4   4   4   4   4   4   4   1
#     4  11  21  35  56  84 119 154 198 253 308 360
#     4  11  21  36  57  82 116 162 204 241 300 376
#     4  10  20  37  62  94 130 161 199 257 325 383
#     4  12  23  33  57  95 131 158 197 253 317 386
#     4  10  23  43  69  98 128 169 219 267 318 383
#     4  10  21  38  62  90 119 160 211 256 302 362
#     4  10  20  38  63  91 125 161 205 258 314 375
#     4  12  26  44  70  90 130 180 222 266 310 382
#
# _framework density 20.398712
#
# number of rings (size 3 to 8) (size 9 to 14) (size 15 to 20)
#    0.000    1.379    2.759    4.759    1.931    0.552 
#    0.000    1.379    3.034    4.966    0.000    0.000 
#    0.000    0.000    0.000    0.000    0.000    0.000 
#
# Total GULP energy -161529.014634 kJ/mol
# GULP energy per Si atom -5569.966022 kJ/mol
# Density = 2.035228 g / cm^3
# Si number density = 20.398712 Si / 1000 Ang^3
#
#
#
# Elastic Constant Matrix: (Units=GPa)
#
#
# Indices 1 2 3 4 5 6 
#
# 1 12.3493 7.4428 25.1374 0.0000 1.6374 0.0000
# 2 7.4428 86.5506 20.9034 0.0000 -2.3558 0.0000
# 3 25.1374 20.9034 138.9337 0.0000 3.0589 0.0000
# 4 0.0000 0.0000 0.0000 -187.9218 0.0000 200.0529
# 5 1.6374 -2.3558 3.0589 0.0000 28.7156 0.0000
# 6 0.0000 0.0000 0.0000 200.0529 0.0000 -194.6305
#
#
#
# Elastic Compliance Matrix: (Units=1/GPa)
#
#
# Indices 1 2 3 4 5 6 
#
# 1 0.131763 -0.005971 -0.022819 0.000000 -0.005572 0.000000
# 2 -0.005971 0.012300 -0.000802 0.000000 0.001435 0.000000
# 3 -0.022819 -0.000802 0.011447 0.000000 0.000016 0.000000
# 4 0.000000 0.000000 0.000000 0.056482 0.000000 0.058056
# 5 -0.005572 0.001435 0.000016 0.000000 0.035258 0.000000
# 6 0.000000 0.000000 0.000000 0.058056 0.000000 0.054535
#
#
# Mechanical properties :
#
#
# Convention : Reuss Voigt Hill
#
# Bulk Modulus (GPa) = 10.38147 38.31120 24.34633
# Shear Modulus (GPa) = 12.72015 -58.47734 -22.87860
#
# Velocity S-wave (km/s) = 2.49986 -5.35998 -3.35262
# Velocity P-wave (km/s) = 3.66507 4.41406 1.73942
#
# Compressibility (1/GPa) = 0.09632547
#
# Stress axis : x y z
#
# Youngs Moduli (GPa) = 7.58941 81.29987 87.36226
#
# Poissons Ratio (x) = 0.48546 1.99350
# Poissons Ratio (y) = 0.04532 0.07005
# Poissons Ratio (z) = 0.17318 0.06519
#
# Static dielectric constant tensor:
#      x y z
#    x 1.724960 0.000000 0.003030 
#    y 0.000000 1.766060 0.000000 
#    z 0.003030 0.000000 1.761480 
# 
# From -- ./inp_files/83425.got.cif
#   From: 2010.05.17/outbox.cif.g08.bks.cpg/sg10_42_cif.got.tgz:83425.got - 2010.06.03 11:33:40.
