data_PCOD9151978
_publ_section_title
;
Structure prediction by ZEFSAII (Michael W. Deem and Ramdas Pophale) SiO2 
 PCOD9151978
Probable space group: P 2/M
;
_chemical_formula_sum "Si O2"
_cell_formula_units_Z 32
_cell_length_a 14.294016
_cell_length_b 7.401094
_cell_length_c 12.304731
_cell_angle_alpha 90.000000
_cell_angle_beta 93.550781
_cell_angle_gamma 90.000000
_cell_volume 1299.235238
_symmetry_space_group_name_H-M "P 2/M"
_symmetry_group_IT_number 10
_symmetry_cell_setting 'monoclinic'
loop_
_space_group_symop_operation_xyz
x,y,z
-x,y,-z
-x,-y,-z
x,-y,z
loop_
_atom_site_type_symbol
_atom_site_label
_atom_site_fract_x
_atom_site_fract_y
_atom_site_fract_z
Si Si1 0.941580 0.203230 0.593086
Si Si2 0.156840 0.715042 0.014634
Si Si3 0.710379 0.220007 0.264393
Si Si4 0.366527 0.795396 0.964230
Si Si5 0.801528 0.783397 0.747539
Si Si6 0.921108 0.708247 0.211778
Si Si7 0.595865 0.220842 0.803208
Si Si8 0.451660 0.779948 0.606780
O O1 0.849635 0.286871 0.641482
O O2 0.000000 0.291232 0.500000
O O3 0.011880 0.192859 0.700101
O O4 0.916402 0.000000 0.552772
O O5 0.166526 0.500000 0.999767
O O6 0.258506 0.800702 0.999459
O O7 0.088944 0.777014 0.912955
O O8 0.137375 0.746558 0.139581
O O9 0.648760 0.284084 0.155949
O O10 0.815716 0.284562 0.253696
O O11 0.653977 0.273201 0.368368
O O12 0.713905 0.000000 0.259924
O O13 0.400484 0.000000 0.949216
O O14 0.418624 0.716997 0.073419
O O15 0.697127 0.717956 0.766126
O O16 0.796779 0.000000 0.735752
O O17 0.952086 0.500000 0.210301
O O18 0.518049 0.271953 0.711632
O O19 0.598177 0.000000 0.808471
O O20 0.500000 0.716057 0.500000
O O21 0.450909 0.000000 0.602076
#
# Coordination Sequence:
#
# PCOD9151978 Si02
#       8
#     4   4   4   4   4   4   4   4
#     4  10  22  38  55  77 103 133 173 215 252 297
#     4   9  17  30  50  76 103 130 165 207 252 306
#     4   9  17  30  50  74  99 130 167 206 249 298
#     4   8  14  26  45  69  97 128 163 203 249 300
#     4   9  18  33  53  76 103 134 165 205 258 308
#     4  10  21  36  54  76 104 137 169 208 258 305
#     4   8  14  26  44  67  97 128 157 195 244 295
#     4   9  17  27  43  72 103 129 163 207 251 295
#
# _framework density 24.629874999999998
#
# number of rings (size 3 to 8) (size 9 to 14) (size 15 to 20)
#    0.000    3.000    0.000    1.500    0.000    4.250 
#    0.000    8.750    0.000    3.375    0.000   11.375 
#    0.000    0.000    0.000    0.000    0.000    0.000 
#
# Total GULP energy -178678.654897 kJ/mol
# GULP energy per Si atom -5583.707966 kJ/mol
# Density = 2.457382 g / cm^3
# Si number density = 24.629875 Si / 1000 Ang^3
#
#
#
# Elastic Constant Matrix: (Units=GPa)
#
#
# Indices 1 2 3 4 5 6 
#
# 1 77.5414 -5.5523 28.7677 0.0000 -28.8170 0.0000
# 2 -5.5523 91.3425 -2.8983 0.0000 -3.2480 0.0000
# 3 28.7677 -2.8983 76.1000 0.0000 -44.8287 0.0000
# 4 0.0000 0.0000 0.0000 2.4431 0.0000 4.9097
# 5 -28.8170 -3.2480 -44.8287 0.0000 50.9448 0.0000
# 6 0.0000 0.0000 0.0000 4.9097 0.0000 42.2648
#
#
#
# Elastic Compliance Matrix: (Units=1/GPa)
#
#
# Indices 1 2 3 4 5 6 
#
# 1 0.016555 0.001258 -0.001343 0.000000 0.008263 0.000000
# 2 0.001258 0.011178 0.001639 0.000000 0.002866 0.000000
# 3 -0.001343 0.001639 0.027665 0.000000 0.023689 0.000000
# 4 0.000000 0.000000 0.000000 0.533960 0.000000 -0.062027
# 5 0.008263 0.002866 0.023689 0.000000 0.045331 0.000000
# 6 0.000000 0.000000 0.000000 -0.062027 0.000000 0.030866
#
#
# Mechanical properties :
#
#
# Convention : Reuss Voigt Hill
#
# Bulk Modulus (GPa) = 17.09251 31.73534 24.41393
# Shear Modulus (GPa) = 7.33191 34.10833 20.72012
#
# Velocity S-wave (km/s) = 1.72722 3.72537 2.90359
# Velocity P-wave (km/s) = 3.30644 5.60513 4.60163
#
# Compressibility (1/GPa) = 0.05850515
#
# Stress axis : x y z
#
# Youngs Moduli (GPa) = 60.40303 89.46030 36.14663
#
# Poissons Ratio (x) = -0.11250 0.04854
# Poissons Ratio (y) = -0.07596 -0.05923
# Poissons Ratio (z) = 0.08111 -0.14658
#
# Static dielectric constant tensor:
#      x y z
#    x 1.974170 0.000000 -0.030010 
#    y 0.000000 1.962480 0.000000 
#    z -0.030010 0.000000 1.955040 
# 
# From -- ./inp_files/49934.got.cif
#   From: 2010.05.17/outbox.cif.g08.bks.cpg/sg10_25_cif.got.tgz:49934.got - 2010.06.03 11:33:40.
