data_PCOD9151081
_publ_section_title
;
Structure prediction by ZEFSAII (Michael W. Deem and Ramdas Pophale) SiO2 
 PCOD9151081
Probable space group: P 2/M
;
_chemical_formula_sum "Si O2"
_cell_formula_units_Z 28
_cell_length_a 12.935704
_cell_length_b 8.584485
_cell_length_c 14.971500
_cell_angle_alpha 90.000000
_cell_angle_beta 58.713772
_cell_angle_gamma 90.000000
_cell_volume 1420.771462
_symmetry_space_group_name_H-M "P 2/M"
_symmetry_group_IT_number 10
_symmetry_cell_setting 'monoclinic'
loop_
_space_group_symop_operation_xyz
x,y,z
-x,y,-z
-x,-y,-z
x,-y,z
loop_
_atom_site_type_symbol
_atom_site_label
_atom_site_fract_x
_atom_site_fract_y
_atom_site_fract_z
Si Si1 0.016513 0.687846 0.891238
Si Si2 0.312781 0.685415 0.508816
Si Si3 0.414412 0.309783 0.119725
Si Si4 0.054327 0.184386 0.573384
Si Si5 0.275069 0.184652 0.719329
Si Si6 0.493056 0.688390 0.727193
Si Si7 0.858522 0.688210 0.799392
O O1 0.026307 0.500000 0.888064
O O2 0.139621 0.752163 0.793578
O O3 0.903433 0.728332 0.878782
O O4 0.000000 0.742872 0.000000
O O5 0.324362 0.500000 0.514051
O O6 0.179723 0.726990 0.532499
O O7 0.324605 0.760319 0.600957
O O8 0.411305 0.738116 0.391939
O O9 0.414565 0.500000 0.120074
O O10 0.463405 0.259760 0.194457
O O11 0.276684 0.260293 0.163564
O O12 0.500000 0.259686 0.000000
O O13 0.000000 0.213741 0.500000
O O14 0.955640 0.239904 0.688771
O O15 0.076750 0.000000 0.573577
O O16 0.362621 0.250675 0.756517
O O17 0.273412 0.000000 0.722911
O O18 0.490187 0.500000 0.728813
O O19 0.862874 0.500000 0.789078
#
# Coordination Sequence:
#
# PCOD9151081 Si02
#       7
#     4   4   4   4   4   4   4
#     4  10  22  39  64  95 123 158 203 251 303 359
#     4  11  22  39  62  90 120 157 205 256 307 360
#     4   9  19  36  62  93 120 152 198 252 302 353
#     4  11  23  37  57  87 124 166 201 242 302 363
#     4  12  25  40  61  90 125 163 202 248 308 370
#     4  10  22  39  62  89 121 160 205 254 304 360
#     4  10  20  37  62  92 121 156 201 250 301 354
#
# _framework density 19.707602999999999
#
# number of rings (size 3 to 8) (size 9 to 14) (size 15 to 20)
#    0.000    1.571    1.429    3.429    2.000    5.429 
#    0.000    0.714    0.000    0.857    0.000    0.000 
#    0.000    0.000    0.000    0.000    0.000    0.000 
#
# Total GULP energy -156530.781340 kJ/mol
# GULP energy per Si atom -5590.385048 kJ/mol
# Density = 1.966275 g / cm^3
# Si number density = 19.707603 Si / 1000 Ang^3
#
#
#
# Elastic Constant Matrix: (Units=GPa)
#
#
# Indices 1 2 3 4 5 6 
#
# 1 129.5683 19.9561 32.5365 0.0000 14.0666 0.0000
# 2 19.9561 10.8624 13.6260 0.0000 10.8146 0.0000
# 3 32.5365 13.6260 79.5583 0.0000 22.2190 0.0000
# 4 0.0000 0.0000 0.0000 -5.2142 0.0000 22.7120
# 5 14.0666 10.8146 22.2190 0.0000 36.2891 0.0000
# 6 0.0000 0.0000 0.0000 22.7120 0.0000 -21.6524
#
#
#
# Elastic Compliance Matrix: (Units=1/GPa)
#
#
# Indices 1 2 3 4 5 6 
#
# 1 0.011101 -0.021288 -0.001766 0.000000 0.003122 0.000000
# 2 -0.021288 0.185843 -0.012015 0.000000 -0.039775 0.000000
# 3 -0.001766 -0.012015 0.017079 0.000000 -0.006192 0.000000
# 4 0.000000 0.000000 0.000000 0.053737 0.000000 0.056367
# 5 0.003122 -0.039775 -0.006192 0.000000 0.041991 0.000000
# 6 0.000000 0.000000 0.000000 0.056367 0.000000 0.012941
#
#
# Mechanical properties :
#
#
# Convention : Reuss Voigt Hill
#
# Bulk Modulus (GPa) = 6.95000 39.13623 23.04311
# Shear Modulus (GPa) = 11.34322 12.14251 11.74287
#
# Velocity S-wave (km/s) = 2.40172 2.48490 2.44366
# Velocity P-wave (km/s) = 3.35041 5.30420 4.43620
#
# Compressibility (1/GPa) = 0.14388497
#
# Stress axis : x y z
#
# Youngs Moduli (GPa) = 90.08016 5.38087 58.55259
#
# Poissons Ratio (x) = 0.11455 0.10340
# Poissons Ratio (y) = 1.91764 0.70351
# Poissons Ratio (z) = 0.15908 0.06465
#
# Static dielectric constant tensor:
#      x y z
#    x 1.677910 0.000000 0.016680 
#    y 0.000000 1.666440 0.000000 
#    z 0.016680 0.000000 1.669120 
# 
# From -- ./inp_files/49538.got.cif
#   From: 2010.05.17/outbox.cif.g08.bks.cpg/sg10_25_cif.got.tgz:49538.got - 2010.06.03 11:33:40.
