data_PCOD9151788
_publ_section_title
;
Structure prediction by ZEFSAII (Michael W. Deem and Ramdas Pophale) SiO2 
 PCOD9151788
Probable space group: P 2/M
;
_chemical_formula_sum "Si O2"
_cell_formula_units_Z 28
_cell_length_a 25.544730
_cell_length_b 7.938701
_cell_length_c 23.177610
_cell_angle_alpha 90.000000
_cell_angle_beta 17.053079
_cell_angle_gamma 90.000000
_cell_volume 1378.378674
_symmetry_space_group_name_H-M "P 2/M"
_symmetry_group_IT_number 10
_symmetry_cell_setting 'monoclinic'
loop_
_space_group_symop_operation_xyz
x,y,z
-x,y,-z
-x,-y,-z
x,-y,z
loop_
_atom_site_type_symbol
_atom_site_label
_atom_site_fract_x
_atom_site_fract_y
_atom_site_fract_z
Si Si1 0.354111 0.200828 0.335696
Si Si2 0.992219 0.691839 0.444934
Si Si3 0.570629 0.691839 0.866524
Si Si4 0.956079 0.799172 0.733727
Si Si5 0.545151 0.297562 0.364550
Si Si6 0.612652 0.796448 0.162038
Si Si7 0.203688 0.705859 0.796313
O O1 0.458070 0.230851 0.166025
O O2 0.460079 0.267076 0.279112
O O3 0.152748 0.270041 0.541753
O O4 0.339132 0.000000 0.357792
O O5 0.059759 0.500000 0.379513
O O6 0.783189 0.688064 0.650432
O O7 0.000000 0.773814 0.500000
O O8 0.082166 0.769150 0.293739
O O9 0.500969 0.500000 0.938304
O O10 0.500000 0.773815 0.000000
O O11 0.963941 0.000000 0.732984
O O12 0.800726 0.732924 0.938464
O O13 0.543290 0.500000 0.370131
O O14 0.578789 0.248130 0.263628
O O15 0.703808 0.241134 0.240690
O O16 0.351696 0.241135 0.592803
O O17 0.614730 0.000000 0.155805
O O18 0.198129 0.500000 0.801872
O O19 0.000000 0.763359 0.000000
#
# Coordination Sequence:
#
# PCOD9151788 Si02
#       7
#     4   4   4   4   4   4   4
#     4   9  19  35  50  66  92 127 165 202 242 294
#     4   9  18  31  47  69  94 119 152 200 255 303
#     4   9  18  31  47  69  94 119 152 200 255 303
#     4   9  19  35  50  66  92 127 165 202 242 294
#     4   9  18  32  52  80 104 130 172 206 236 288
#     4  10  21  35  51  72 102 136 166 204 252 292
#     4   8  15  31  54  78 108 138 164 202 244 282
#
# _framework density 20.31372
#
# number of rings (size 3 to 8) (size 9 to 14) (size 15 to 20)
#    0.000    3.000    0.000    0.857    2.000    2.857 
#    0.000    1.429    0.000    0.857    0.000    0.000 
#    0.000    0.000    0.000    0.000    0.000    0.000 
#
# Total GULP energy -156026.402805 kJ/mol
# GULP energy per Si atom -5572.371529 kJ/mol
# Density = 2.026749 g / cm^3
# Si number density = 20.313720 Si / 1000 Ang^3
#
#
#
# Elastic Constant Matrix: (Units=GPa)
#
#
# Indices 1 2 3 4 5 6 
#
# 1 186.3120 5.4454 117.3695 0.0000 21.4265 0.0000
# 2 5.4454 10.7673 9.4441 0.0000 -3.7762 0.0000
# 3 117.3695 9.4441 154.9240 0.0000 8.2149 0.0000
# 4 0.0000 0.0000 0.0000 56.9027 0.0000 -13.4316
# 5 21.4265 -3.7762 8.2149 0.0000 35.6065 0.0000
# 6 0.0000 0.0000 0.0000 -13.4316 0.0000 42.6776
#
#
#
# Elastic Compliance Matrix: (Units=1/GPa)
#
#
# Indices 1 2 3 4 5 6 
#
# 1 0.011011 -0.000159 -0.008079 0.000000 -0.004779 0.000000
# 2 -0.000159 0.103399 -0.006853 0.000000 0.012642 0.000000
# 3 -0.008079 -0.006853 0.012932 0.000000 0.001151 0.000000
# 4 0.000000 0.000000 0.000000 0.018984 0.000000 0.005975
# 5 -0.004779 0.012642 0.001151 0.000000 0.032036 0.000000
# 6 0.000000 0.000000 0.000000 0.005975 0.000000 0.025312
#
#
# Mechanical properties :
#
#
# Convention : Reuss Voigt Hill
#
# Bulk Modulus (GPa) = 10.29229 68.50234 39.39732
# Shear Modulus (GPa) = 18.77999 41.68698 30.23349
#
# Velocity S-wave (km/s) = 3.04385 4.53499 3.86207
# Velocity P-wave (km/s) = 4.17505 7.82412 6.27089
#
# Compressibility (1/GPa) = 0.09716009
#
# Stress axis : x y z
#
# Youngs Moduli (GPa) = 90.81994 9.67131 77.32843
#
# Poissons Ratio (x) = 0.00153 0.62471
# Poissons Ratio (y) = 0.01441 0.52995
# Poissons Ratio (z) = 0.73370 0.06628
#
# Static dielectric constant tensor:
#      x y z
#    x 1.721420 0.000000 -0.015770 
#    y 0.000000 1.740530 0.000000 
#    z -0.015770 0.000000 1.738120 
# 
# From -- ./inp_files/86431.got.cif
#   From: 2010.05.17/outbox.cif.g08.bks.cpg/sg10_44_cif.got.tgz:86431.got - 2010.06.03 11:33:40.
