data_PCOD9151029
_publ_section_title
;
Structure prediction by ZEFSAII (Michael W. Deem and Ramdas Pophale) SiO2 
 PCOD9151029
Probable space group: P 2/M
;
_chemical_formula_sum "Si O2"
_cell_formula_units_Z 28
_cell_length_a 12.548307
_cell_length_b 8.991031
_cell_length_c 13.898232
_cell_angle_alpha 90.000000
_cell_angle_beta 65.171109
_cell_angle_gamma 90.000000
_cell_volume 1423.089901
_symmetry_space_group_name_H-M "P 2/M"
_symmetry_group_IT_number 10
_symmetry_cell_setting 'monoclinic'
loop_
_space_group_symop_operation_xyz
x,y,z
-x,y,-z
-x,-y,-z
x,-y,z
loop_
_atom_site_type_symbol
_atom_site_label
_atom_site_fract_x
_atom_site_fract_y
_atom_site_fract_z
Si Si1 0.223907 0.679266 0.209972
Si Si2 0.115957 0.171767 0.892074
Si Si3 0.819750 0.675902 0.317016
Si Si4 0.298551 0.677486 0.964149
Si Si5 0.429733 0.174277 0.626065
Si Si6 0.993118 0.177013 0.389152
Si Si7 0.538434 0.322396 0.771686
O O1 0.209420 0.500000 0.219766
O O2 0.106355 0.756154 0.292198
O O3 0.335166 0.720351 0.234416
O O4 0.258121 0.717022 0.087014
O O5 0.102609 0.272426 0.803219
O O6 0.222850 0.232939 0.915292
O O7 0.135454 0.000000 0.856626
O O8 0.000000 0.179722 0.000000
O O9 0.817638 0.500000 0.327104
O O10 0.691563 0.738327 0.341204
O O11 0.876918 0.750399 0.388348
O O12 0.278298 0.500000 0.958573
O O13 0.435590 0.704361 0.889313
O O14 0.500000 0.189351 0.500000
O O15 0.501869 0.239757 0.688264
O O16 0.406385 0.000000 0.651605
O O17 0.000000 0.208253 0.500000
O O18 0.989761 0.000000 0.376110
O O19 0.539654 0.500000 0.752965
#
# Coordination Sequence:
#
# PCOD9151029 Si02
#       7
#     4   4   4   4   4   4   4
#     4  10  22  40  64  95 130 168 213 261 311 374
#     4  11  23  38  60  91 129 168 208 257 314 376
#     4  12  25  43  68  95 125 163 212 264 315 374
#     4  10  20  37  61  92 129 167 207 254 313 373
#     4  11  25  43  65  94 130 168 209 259 319 379
#     4  11  26  46  66  90 125 168 212 261 320 376
#     4  10  21  39  64  96 130 167 209 256 313 374
#
# _framework density 19.675498000000001
#
# number of rings (size 3 to 8) (size 9 to 14) (size 15 to 20)
#    0.000    1.286    1.429    3.857    2.000    8.571 
#    0.000    0.000    0.000    2.571    0.000    0.000 
#    0.000    0.000    0.000    0.000    0.000    0.000 
#
# Total GULP energy -156613.760418 kJ/mol
# GULP energy per Si atom -5593.348586 kJ/mol
# Density = 1.963072 g / cm^3
# Si number density = 19.675498 Si / 1000 Ang^3
#
#
#
# Elastic Constant Matrix: (Units=GPa)
#
#
# Indices 1 2 3 4 5 6 
#
# 1 88.9070 37.7244 10.2100 0.0000 24.5196 0.0000
# 2 37.7244 61.3787 35.7294 0.0000 19.9145 0.0000
# 3 10.2100 35.7294 71.0066 0.0000 16.7361 0.0000
# 4 0.0000 0.0000 0.0000 6.9818 0.0000 34.6434
# 5 24.5196 19.9145 16.7361 0.0000 33.4633 0.0000
# 6 0.0000 0.0000 0.0000 34.6434 0.0000 8.1423
#
#
#
# Elastic Compliance Matrix: (Units=1/GPa)
#
#
# Indices 1 2 3 4 5 6 
#
# 1 0.017824 -0.010979 0.005101 0.000000 -0.009078 0.000000
# 2 -0.010979 0.032453 -0.013712 0.000000 -0.004411 0.000000
# 3 0.005101 -0.013712 0.021773 0.000000 -0.006467 0.000000
# 4 0.000000 0.000000 0.000000 -0.007122 0.000000 0.030301
# 5 -0.009078 -0.004411 -0.006467 0.000000 0.042395 0.000000
# 6 0.000000 0.000000 0.000000 0.030301 0.000000 -0.006107
#
#
# Mechanical properties :
#
#
# Convention : Reuss Voigt Hill
#
# Bulk Modulus (GPa) = 30.42139 43.17998 36.80068
# Shear Modulus (GPa) = 33.03538 18.89273 25.96406
#
# Velocity S-wave (km/s) = 4.10202 3.10210 3.63659
# Velocity P-wave (km/s) = 6.15878 5.90122 6.03137
#
# Compressibility (1/GPa) = 0.03287161
#
# Stress axis : x y z
#
# Youngs Moduli (GPa) = 56.10422 30.81374 45.92745
#
# Poissons Ratio (x) = 0.33831 -0.23428
# Poissons Ratio (y) = 0.61597 0.62973
# Poissons Ratio (z) = -0.28620 0.42250
#
# Static dielectric constant tensor:
#      x y z
#    x 1.670400 0.000000 -0.011790 
#    y 0.000000 1.658670 0.000000 
#    z -0.011790 0.000000 1.696330 
# 
# From -- ./inp_files/63675.got.cif
#   From: 2010.05.17/outbox.cif.g08.bks.cpg/sg10_32_cif.got.tgz:63675.got - 2010.06.03 11:33:40.
