data_PCOD9151507
_publ_section_title
;
Structure prediction by ZEFSAII (Michael W. Deem and Ramdas Pophale) SiO2 
 PCOD9151507
Probable space group: P 2/M
;
_chemical_formula_sum "Si O2"
_cell_formula_units_Z 28
_cell_length_a 9.630893
_cell_length_b 18.707870
_cell_length_c 15.848637
_cell_angle_alpha 90.000000
_cell_angle_beta 29.563200
_cell_angle_gamma 90.000000
_cell_volume 1408.858151
_symmetry_space_group_name_H-M "P 2/M"
_symmetry_group_IT_number 10
_symmetry_cell_setting 'monoclinic'
loop_
_space_group_symop_operation_xyz
x,y,z
-x,y,-z
-x,-y,-z
x,-y,z
loop_
_atom_site_type_symbol
_atom_site_label
_atom_site_fract_x
_atom_site_fract_y
_atom_site_fract_z
Si Si1 0.297347 0.082407 0.030742
Si Si2 0.807528 0.583163 0.679831
Si Si3 0.232333 0.649320 0.948684
Si Si4 0.665143 0.080086 0.665869
Si Si5 0.305022 0.791704 0.813610
Si Si6 0.173798 0.313317 0.170825
Si Si7 0.801601 0.805972 0.311222
O O1 0.026242 0.132517 0.172171
O O2 0.210762 0.000000 0.089528
O O3 0.500000 0.103941 0.000000
O O4 0.492280 0.084808 0.844832
O O5 0.860621 0.500000 0.670248
O O6 0.489599 0.594890 0.816249
O O7 0.854596 0.630682 0.738282
O O8 0.000000 0.606371 0.500000
O O9 0.350923 0.727658 0.855655
O O10 0.134431 0.653887 0.097831
O O11 0.000000 0.632722 0.000000
O O12 0.538136 0.147367 0.684633
O O13 0.000000 0.086832 0.500000
O O14 0.612417 0.000000 0.658253
O O15 0.260917 0.763601 0.742686
O O16 0.000000 0.824009 0.000000
O O17 0.955316 0.248384 0.293264
O O18 0.500000 0.287665 0.000000
O O19 0.500000 0.833435 0.500000
#
# Coordination Sequence:
#
# PCOD9151507 Si02
#       7
#     4   4   4   4   4   4   4
#     4  10  22  41  60  83 122 166 210 264 320 376
#     4  10  24  43  65  96 129 164 205 253 308 378
#     4  10  20  39  65  93 126 163 206 258 317 371
#     4  10  22  39  62  88 118 164 216 264 321 383
#     4  11  21  40  60  89 127 159 207 269 320 375
#     4  10  21  40  66  90 125 167 210 261 307 379
#     4  12  25  38  60  93 125 165 212 263 322 382
#
# _framework density 19.874251000000001
#
# number of rings (size 3 to 8) (size 9 to 14) (size 15 to 20)
#    0.000    1.571    4.286    0.429    4.000    5.714 
#    0.000    0.000    0.000    2.143    0.000    0.000 
#    0.000    0.000    0.000    0.000    0.000    0.000 
#
# Total GULP energy -156162.396713 kJ/mol
# GULP energy per Si atom -5577.228454 kJ/mol
# Density = 1.982902 g / cm^3
# Si number density = 19.874251 Si / 1000 Ang^3
#
#
#
# Elastic Constant Matrix: (Units=GPa)
#
#
# Indices 1 2 3 4 5 6 
#
# 1 106.8348 38.0101 30.5865 0.0000 10.2544 0.0000
# 2 38.0101 68.2698 37.0468 0.0000 5.4639 0.0000
# 3 30.5865 37.0468 109.1484 0.0000 -4.9176 0.0000
# 4 0.0000 0.0000 0.0000 39.0488 0.0000 7.2019
# 5 10.2544 5.4639 -4.9176 0.0000 19.6468 0.0000
# 6 0.0000 0.0000 0.0000 7.2019 0.0000 19.4832
#
#
#
# Elastic Compliance Matrix: (Units=1/GPa)
#
#
# Indices 1 2 3 4 5 6 
#
# 1 0.012343 -0.005432 -0.001858 0.000000 -0.005397 0.000000
# 2 -0.005432 0.021231 -0.005889 0.000000 -0.004544 0.000000
# 3 -0.001858 -0.005889 0.011933 0.000000 0.005595 0.000000
# 4 0.000000 0.000000 0.000000 0.027483 0.000000 -0.010159
# 5 -0.005397 -0.004544 0.005595 0.000000 0.056379 0.000000
# 6 0.000000 0.000000 0.000000 -0.010159 0.000000 0.055081
#
#
# Mechanical properties :
#
#
# Convention : Reuss Voigt Hill
#
# Bulk Modulus (GPa) = 52.22003 55.05995 53.63999
# Shear Modulus (GPa) = 23.02115 27.54308 25.28212
#
# Velocity S-wave (km/s) = 3.40713 3.72676 3.57053
# Velocity P-wave (km/s) = 6.46609 6.80314 6.63675
#
# Compressibility (1/GPa) = 0.01914974
#
# Stress axis : x y z
#
# Youngs Moduli (GPa) = 81.01907 47.10071 83.79832
#
# Poissons Ratio (x) = 0.25583 0.15573
# Poissons Ratio (y) = 0.44007 0.49347
# Poissons Ratio (z) = 0.15056 0.27737
#
# Static dielectric constant tensor:
#      x y z
#    x 1.737500 0.000000 0.017470 
#    y 0.000000 1.698740 0.000000 
#    z 0.017470 0.000000 1.717590 
# 
# From -- ./inp_files/62539.got.cif
#   From: 2010.05.17/outbox.cif.g08.bks.cpg/sg10_32_cif.got.tgz:62539.got - 2010.06.03 11:33:40.
