data_PCOD9151065
_publ_section_title
;
Structure prediction by ZEFSAII (Michael W. Deem and Ramdas Pophale) SiO2 
 PCOD9151065
Probable space group: P 2/M
;
_chemical_formula_sum "Si O2"
_cell_formula_units_Z 32
_cell_length_a 16.768510
_cell_length_b 15.975391
_cell_length_c 12.599423
_cell_angle_alpha 90.000000
_cell_angle_beta 152.171866
_cell_angle_gamma 90.000000
_cell_volume 1575.603572
_symmetry_space_group_name_H-M "P 2/M"
_symmetry_group_IT_number 10
_symmetry_cell_setting 'monoclinic'
loop_
_space_group_symop_operation_xyz
x,y,z
-x,y,-z
-x,-y,-z
x,-y,z
loop_
_atom_site_type_symbol
_atom_site_label
_atom_site_fract_x
_atom_site_fract_y
_atom_site_fract_z
Si Si1 0.392788 0.242445 0.768844
Si Si2 0.299989 0.908796 0.525645
Si Si3 0.171971 0.408249 0.949506
Si Si4 0.299398 0.849646 0.290000
Si Si5 0.694354 0.344477 0.682623
Si Si6 0.001461 0.256265 0.377054
Si Si7 0.916298 0.906727 0.166218
Si Si8 0.555013 0.593868 0.304392
O O1 0.407212 0.168535 0.698789
O O2 0.195938 0.246563 0.570150
O O3 0.440235 0.331885 0.774677
O O4 0.500000 0.224234 0.000000
O O5 0.271524 0.897010 0.367144
O O6 0.113541 0.907700 0.360234
O O7 0.379203 0.000000 0.639246
O O8 0.096819 0.500000 0.839981
O O9 0.076144 0.332533 0.780820
O O10 0.190604 0.392812 0.097208
O O11 0.364588 0.407420 0.129562
O O12 0.500000 0.853013 0.500000
O O13 0.252017 0.752489 0.253559
O O14 0.196231 0.886157 0.069706
O O15 0.500000 0.347404 0.500000
O O16 0.681859 0.382004 0.550480
O O17 0.000000 0.272921 0.500000
O O18 0.902422 0.170245 0.231537
O O19 0.874301 0.000000 0.157249
O O20 0.592716 0.500000 0.309203
#
# Coordination Sequence:
#
# PCOD9151065 Si02
#       8
#     4   4   4   4   4   4   4   4
#     4  11  24  41  61  83 112 150 195 243 290 338
#     4  10  22  40  60  84 117 155 191 232 287 346
#     4  10  20  37  62  89 118 153 190 231 283 341
#     4  11  20  33  59  91 121 152 189 234 281 336
#     4   9  17  32  57  88 120 149 182 228 281 335
#     4  11  24  41  61  83 112 150 195 243 290 338
#     4  10  22  40  60  84 117 155 191 232 287 346
#     4  10  20  37  62  89 118 153 190 231 283 341
#
# _framework density 20.309677000000001
#
# number of rings (size 3 to 8) (size 9 to 14) (size 15 to 20)
#    0.000    1.750    2.500    1.875    0.000    6.000 
#    0.000    0.625    0.000    1.500    0.000    0.000 
#    0.000    0.000    0.000    0.000    0.000    0.000 
#
# Total GULP energy -178787.800397 kJ/mol
# GULP energy per Si atom -5587.118762 kJ/mol
# Density = 2.026345 g / cm^3
# Si number density = 20.309677 Si / 1000 Ang^3
#
#
#
# Elastic Constant Matrix: (Units=GPa)
#
#
# Indices 1 2 3 4 5 6 
#
# 1 3.6363 -14.3921 -1.1934 0.0000 -1.6842 0.0000
# 2 -14.3921 135.0407 50.6990 0.0000 4.7004 0.0000
# 3 -1.1934 50.6990 95.0122 0.0000 -21.6777 0.0000
# 4 0.0000 0.0000 0.0000 5.3546 0.0000 15.0721
# 5 -1.6842 4.7004 -21.6777 0.0000 18.7618 0.0000
# 6 0.0000 0.0000 0.0000 15.0721 0.0000 17.4596
#
#
#
# Elastic Compliance Matrix: (Units=1/GPa)
#
#
# Indices 1 2 3 4 5 6 
#
# 1 0.535324 0.069009 -0.031343 0.000000 -0.005448 0.000000
# 2 0.069009 0.020153 -0.013072 0.000000 -0.013957 0.000000
# 3 -0.031343 -0.013072 0.023373 0.000000 0.027467 0.000000
# 4 0.000000 0.000000 0.000000 -0.130610 0.000000 0.112749
# 5 -0.005448 -0.013957 0.027467 0.000000 0.088043 0.000000
# 6 0.000000 0.000000 0.000000 0.112749 0.000000 -0.040056
#
#
# Mechanical properties :
#
#
# Convention : Reuss Voigt Hill
#
# Bulk Modulus (GPa) = 1.59225 33.76847 17.68036
# Shear Modulus (GPa) = 7.61749 21.55358 14.58554
#
# Velocity S-wave (km/s) = 1.93877 3.26121 2.68275
# Velocity P-wave (km/s) = 2.40779 5.55370 4.28025
#
# Compressibility (1/GPa) = 0.62804049
#
# Stress axis : x y z
#
# Youngs Moduli (GPa) = 1.86803 49.61980 42.78426
#
# Poissons Ratio (x) = -3.42424 1.34098
# Poissons Ratio (y) = -0.12891 0.55926
# Poissons Ratio (z) = 0.05855 0.64861
#
# Static dielectric constant tensor:
#      x y z
#    x 1.710410 0.000000 0.018530 
#    y 0.000000 1.744920 0.000000 
#    z 0.018530 0.000000 1.692170 
# 
# From -- ./inp_files/54046.got.cif
#   From: 2010.05.17/outbox.cif.g08.bks.cpg/sg10_28_cif.got.tgz:54046.got - 2010.06.03 11:33:40.
