data_PCOD9151335
_publ_section_title
;
Structure prediction by ZEFSAII (Michael W. Deem and Ramdas Pophale) SiO2 
 PCOD9151335
Probable space group: P 2/M
;
_chemical_formula_sum "Si O2"
_cell_formula_units_Z 20
_cell_length_a 10.802652
_cell_length_b 10.952106
_cell_length_c 11.190549
_cell_angle_alpha 90.000000
_cell_angle_beta 43.529194
_cell_angle_gamma 90.000000
_cell_volume 911.852703
_symmetry_space_group_name_H-M "P 2/M"
_symmetry_group_IT_number 10
_symmetry_cell_setting 'monoclinic'
loop_
_space_group_symop_operation_xyz
x,y,z
-x,y,-z
-x,-y,-z
x,-y,z
loop_
_atom_site_type_symbol
_atom_site_label
_atom_site_fract_x
_atom_site_fract_y
_atom_site_fract_z
Si Si1 0.434596 0.367048 0.779766
Si Si2 0.147293 0.638610 0.789753
Si Si3 0.919743 0.135165 0.340663
Si Si4 0.324174 0.802033 0.069127
Si Si5 0.196727 0.312670 0.387480
O O1 0.371198 0.500000 0.869403
O O2 0.341311 0.352261 0.717521
O O3 0.650275 0.367945 0.635078
O O4 0.368330 0.259465 0.912180
O O5 0.126862 0.500000 0.753825
O O6 0.120150 0.752277 0.720781
O O7 0.000000 0.648340 0.000000
O O8 0.843887 0.182024 0.520904
O O9 0.135916 0.130144 0.195002
O O10 0.851081 0.000000 0.357051
O O11 0.286931 0.698166 0.194994
O O12 0.500000 0.866190 0.000000
O O13 0.000000 0.366632 0.500000
#
# Coordination Sequence:
#
# PCOD9151335 Si02
#       5
#     4   4   4   4   4
#     4  10  20  38  63  90 122 164 208 251 306 367
#     4  10  21  40  65  89 122 161 203 256 310 361
#     4  11  23  40  63  90 125 164 206 253 304 364
#     4   9  19  37  60  89 121 157 205 253 305 360
#     4   9  21  38  57  87 127 160 198 249 306 362
#
# _framework density 21.933365999999999
#
# number of rings (size 3 to 8) (size 9 to 14) (size 15 to 20)
#    0.000    2.200    2.000    0.000    0.000   10.000 
#    0.000   13.000    0.000    0.000    0.000    0.000 
#    0.000    0.000    0.000    0.000    0.000    0.000 
#
# Total GULP energy -111457.210007 kJ/mol
# GULP energy per Si atom -5572.860500 kJ/mol
# Density = 2.188344 g / cm^3
# Si number density = 21.933366 Si / 1000 Ang^3
#
#
#
# Elastic Constant Matrix: (Units=GPa)
#
#
# Indices 1 2 3 4 5 6 
#
# 1 135.4734 47.6074 19.3274 0.0000 -27.2271 0.0000
# 2 47.6074 143.3786 20.4927 0.0000 14.7061 0.0000
# 3 19.3274 20.4927 71.0107 0.0000 -5.0931 0.0000
# 4 0.0000 0.0000 0.0000 -7.3007 0.0000 -6.7361
# 5 -27.2271 14.7061 -5.0931 0.0000 36.1476 0.0000
# 6 0.0000 0.0000 0.0000 -6.7361 0.0000 1.8326
#
#
#
# Elastic Compliance Matrix: (Units=1/GPa)
#
#
# Indices 1 2 3 4 5 6 
#
# 1 0.011187 -0.004617 -0.000983 0.000000 0.010166 0.000000
# 2 -0.004617 0.009589 -0.002061 0.000000 -0.007669 0.000000
# 3 -0.000983 -0.002061 0.015104 0.000000 0.002226 0.000000
# 4 0.000000 0.000000 0.000000 -0.031191 0.000000 -0.114648
# 5 0.010166 -0.007669 0.002226 0.000000 0.038755 0.000000
# 6 0.000000 0.000000 0.000000 -0.114648 0.000000 0.124258
#
#
# Mechanical properties :
#
#
# Convention : Reuss Voigt Hill
#
# Bulk Modulus (GPa) = 48.64128 58.30198 53.47163
# Shear Modulus (GPa) = 26.33271 23.63157 24.98214
#
# Velocity S-wave (km/s) = 3.46869 3.28598 3.37857
# Velocity P-wave (km/s) = 6.18607 6.40593 6.29696
#
# Compressibility (1/GPa) = 0.02055867
#
# Stress axis : x y z
#
# Youngs Moduli (GPa) = 89.38565 104.29029 66.20613
#
# Poissons Ratio (x) = 0.48150 0.06511
# Poissons Ratio (y) = 0.41268 0.13642
# Poissons Ratio (z) = 0.08790 0.21490
#
# Static dielectric constant tensor:
#      x y z
#    x 1.845790 0.000000 -0.033750 
#    y 0.000000 1.815060 0.000000 
#    z -0.033750 0.000000 1.816210 
# 
# From -- ./inp_files/41627.got.cif
#   From: 2010.05.17/outbox.cif.g08.bks.cpg/sg10_21_cif.got.tgz:41627.got - 2010.06.03 11:33:40.
