data_PCOD9151130
_publ_section_title
;
Structure prediction by ZEFSAII (Michael W. Deem and Ramdas Pophale) SiO2 
 PCOD9151130
Probable space group: P 2/M
;
_chemical_formula_sum "Si O2"
_cell_formula_units_Z 18
_cell_length_a 10.705959
_cell_length_b 12.405995
_cell_length_c 5.595402
_cell_angle_alpha 90.000000
_cell_angle_beta 97.980686
_cell_angle_gamma 90.000000
_cell_volume 735.972855
_symmetry_space_group_name_H-M "P 2/M"
_symmetry_group_IT_number 10
_symmetry_cell_setting 'monoclinic'
loop_
_space_group_symop_operation_xyz
x,y,z
-x,y,-z
-x,-y,-z
x,-y,z
loop_
_atom_site_type_symbol
_atom_site_label
_atom_site_fract_x
_atom_site_fract_y
_atom_site_fract_z
Si Si1 0.114058 0.111854 0.216078
Si Si2 0.423974 0.000000 0.727863
Si Si3 0.863313 0.674879 0.482995
Si Si4 0.384201 0.619803 0.285257
Si Si5 0.697237 0.201482 0.083163
O O1 0.104469 0.215996 0.369540
O O2 0.116836 0.000000 0.357127
O O3 0.238410 0.123493 0.091586
O O4 0.000000 0.110047 0.000000
O O5 0.500000 0.000000 0.500000
O O6 0.354166 0.882476 0.732104
O O7 0.500000 0.000000 0.000000
O O8 0.748049 0.623909 0.602387
O O9 0.800921 0.716779 0.221647
O O10 0.000000 0.618572 0.500000
O O11 0.500000 0.632437 0.500000
O O12 0.607043 0.500000 0.822428
O O13 0.385923 0.717036 0.097231
#
# Coordination Sequence:
#
# PCOD9151130 Si02
#       5
#     4   2   4   4   4
#     4  10  20  37  63  99 146 197 246 300 373 453
#     4  12  32  48  74 114 164 214 261 320 395 468
#     4  11  24  40  69 108 152 197 252 316 387 467
#     4  10  26  51  78 106 145 201 265 332 398 465
#     4  11  25  44  72 106 152 198 254 316 385 472
#
# _framework density 24.457422000000001
#
# number of rings (size 3 to 8) (size 9 to 14) (size 15 to 20)
#    0.000    1.333    3.333    0.000   10.889    1.778 
#    0.000    3.333    0.000    0.667    0.000    0.000 
#    0.000    0.000    0.000    0.000    0.000    0.000 
#
# Total GULP energy -100609.014485 kJ/mol
# GULP energy per Si atom -5589.389694 kJ/mol
# Density = 2.440176 g / cm^3
# Si number density = 24.457422 Si / 1000 Ang^3
#
#
#
# Elastic Constant Matrix: (Units=GPa)
#
#
# Indices 1 2 3 4 5 6 
#
# 1 160.5333 57.6150 51.4666 0.0000 -22.9663 0.0000
# 2 57.6150 178.6732 39.1099 0.0000 -1.3325 0.0000
# 3 51.4666 39.1099 82.6995 0.0000 -18.9029 0.0000
# 4 0.0000 0.0000 0.0000 10.4420 0.0000 -16.2337
# 5 -22.9663 -1.3325 -18.9029 0.0000 56.0704 0.0000
# 6 0.0000 0.0000 0.0000 -16.2337 0.0000 18.7013
#
#
#
# Elastic Compliance Matrix: (Units=1/GPa)
#
#
# Indices 1 2 3 4 5 6 
#
# 1 0.008445 -0.001854 -0.003899 0.000000 0.002101 0.000000
# 2 -0.001854 0.006694 -0.002328 0.000000 -0.001385 0.000000
# 3 -0.003899 -0.002328 0.016514 0.000000 0.003915 0.000000
# 4 0.000000 0.000000 0.000000 -0.273995 0.000000 -0.237843
# 5 0.002101 -0.001385 0.003915 0.000000 0.019982 0.000000
# 6 0.000000 0.000000 0.000000 -0.237843 0.000000 -0.152988
#
#
# Mechanical properties :
#
#
# Convention : Reuss Voigt Hill
#
# Bulk Modulus (GPa) = 64.55398 79.80989 72.18194
# Shear Modulus (GPa) = -14.12343 35.29037 10.58347
#
# Velocity S-wave (km/s) = -2.40567 3.80271 2.08247
# Velocity P-wave (km/s) = 4.32844 7.20998 5.94640
#
# Compressibility (1/GPa) = 0.01549091
#
# Stress axis : x y z
#
# Youngs Moduli (GPa) = 118.41150 149.38625 60.55356
#
# Poissons Ratio (x) = 0.27699 0.23608
# Poissons Ratio (y) = 0.21956 0.14100
# Poissons Ratio (z) = 0.46164 0.34784
#
# Static dielectric constant tensor:
#      x y z
#    x 2.067520 0.000000 -0.005050 
#    y 0.000000 1.905340 0.000000 
#    z -0.005050 0.000000 1.930800 
# 
# From -- ./inp_files/6578.got.cif
#   From: 2010.05.17/outbox.cif.g08.bks.cpg/sg10_4_cif.got.tgz:6578.got - 2010.06.03 11:33:40.
