data_PCOD9151504
_publ_section_title
;
Structure prediction by ZEFSAII (Michael W. Deem and Ramdas Pophale) SiO2 
 PCOD9151504
Probable space group: P 2/M
;
_chemical_formula_sum "Si O2"
_cell_formula_units_Z 18
_cell_length_a 9.550546
_cell_length_b 8.249901
_cell_length_c 13.915898
_cell_angle_alpha 90.000000
_cell_angle_beta 126.494224
_cell_angle_gamma 90.000000
_cell_volume 881.453264
_symmetry_space_group_name_H-M "P 2/M"
_symmetry_group_IT_number 10
_symmetry_cell_setting 'monoclinic'
loop_
_space_group_symop_operation_xyz
x,y,z
-x,y,-z
-x,-y,-z
x,-y,z
loop_
_atom_site_type_symbol
_atom_site_label
_atom_site_fract_x
_atom_site_fract_y
_atom_site_fract_z
Si Si1 0.558350 0.000000 0.836237
Si Si2 0.675800 0.326348 0.506875
Si Si3 0.986445 0.679964 0.220746
Si Si4 0.399006 0.319562 0.856427
Si Si5 0.072256 0.000000 0.923549
Si Si6 0.447430 0.000000 0.592076
O O1 0.457051 0.165273 0.819114
O O2 0.593335 0.000000 0.735058
O O3 0.721017 0.000000 0.974582
O O4 0.500000 0.331361 0.500000
O O5 0.686122 0.500000 0.459261
O O6 0.843244 0.312679 0.643348
O O7 0.660498 0.164518 0.439181
O O8 0.987501 0.500000 0.173390
O O9 0.807023 0.687927 0.207161
O O10 0.984119 0.835887 0.152156
O O11 0.440925 0.500000 0.833841
O O12 0.500000 0.309206 0.000000
O O13 0.000000 0.000000 0.000000
O O14 0.500000 0.000000 0.500000
#
# Coordination Sequence:
#
# PCOD9151504 Si02
#       6
#     2   4   4   4   2   2
#     4  12  24  39  61  96 125 162 207 250 305 373
#     4   9  19  37  61  83 111 159 208 248 293 350
#     4  10  21  40  64  91 123 161 203 250 310 370
#     4  10  20  39  65  92 127 162 196 251 312 371
#     4  12  26  35  57  94 131 161 196 255 311 371
#     4  10  23  39  60  82 120 163 209 251 295 352
#
# _framework density 20.420822000000001
#
# number of rings (size 3 to 8) (size 9 to 14) (size 15 to 20)
#    0.000    1.778    2.222    1.667    6.222    1.333 
#    0.000    2.222    0.000    4.000    0.000    0.000 
#    0.000    0.000    0.000    0.000    0.000    0.000 
#
# Total GULP energy -100359.233748 kJ/mol
# GULP energy per Si atom -5575.512986 kJ/mol
# Density = 2.037434 g / cm^3
# Si number density = 20.420822 Si / 1000 Ang^3
#
#
#
# Elastic Constant Matrix: (Units=GPa)
#
#
# Indices 1 2 3 4 5 6 
#
# 1 53.3175 20.7198 24.1445 0.0000 25.0686 0.0000
# 2 20.7198 233.8725 52.7651 0.0000 -6.0140 0.0000
# 3 24.1445 52.7651 99.0874 0.0000 17.4239 0.0000
# 4 0.0000 0.0000 0.0000 3.2605 0.0000 31.0348
# 5 25.0686 -6.0140 17.4239 0.0000 36.8357 0.0000
# 6 0.0000 0.0000 0.0000 31.0348 0.0000 -3.2320
#
#
#
# Elastic Compliance Matrix: (Units=1/GPa)
#
#
# Indices 1 2 3 4 5 6 
#
# 1 0.030219 -0.002628 -0.002478 0.000000 -0.019822 0.000000
# 2 -0.002628 0.005257 -0.002863 0.000000 0.004001 0.000000
# 3 -0.002478 -0.002863 0.013095 0.000000 -0.004975 0.000000
# 4 0.000000 0.000000 0.000000 0.003319 0.000000 0.031873
# 5 -0.019822 0.004001 -0.004975 0.000000 0.043644 0.000000
# 6 0.000000 0.000000 0.000000 0.031873 0.000000 -0.003349
#
#
# Mechanical properties :
#
#
# Convention : Reuss Voigt Hill
#
# Bulk Modulus (GPa) = 30.64319 64.61513 47.62916
# Shear Modulus (GPa) = 42.01573 26.61605 34.31589
#
# Velocity S-wave (km/s) = 4.54088 3.61415 4.10376
# Velocity P-wave (km/s) = 6.52160 7.00904 6.76971
#
# Compressibility (1/GPa) = 0.03263368
#
# Stress axis : x y z
#
# Youngs Moduli (GPa) = 33.09157 190.20717 76.36297
#
# Poissons Ratio (x) = 0.49983 0.18926
# Poissons Ratio (y) = 0.08696 0.21862
# Poissons Ratio (z) = 0.08202 0.54454
#
# Static dielectric constant tensor:
#      x y z
#    x 1.728230 0.000000 0.033690 
#    y 0.000000 1.794210 0.000000 
#    z 0.033690 0.000000 1.727890 
# 
# From -- ./inp_files/40950.got.cif
#   From: 2010.05.17/outbox.cif.g08.bks.cpg/sg10_21_cif.got.tgz:40950.got - 2010.06.03 11:33:40.
