data_PCOD9151865
_publ_section_title
;
Structure prediction by ZEFSAII (Michael W. Deem and Ramdas Pophale) SiO2 
 PCOD9151865
Probable space group: P 2/M
;
_chemical_formula_sum "Si O2"
_cell_formula_units_Z 32
_cell_length_a 20.210463
_cell_length_b 14.055983
_cell_length_c 9.482890
_cell_angle_alpha 90.000000
_cell_angle_beta 142.305640
_cell_angle_gamma 90.000000
_cell_volume 1647.170463
_symmetry_space_group_name_H-M "P 2/M"
_symmetry_group_IT_number 10
_symmetry_cell_setting 'monoclinic'
loop_
_space_group_symop_operation_xyz
x,y,z
-x,y,-z
-x,-y,-z
x,-y,z
loop_
_atom_site_type_symbol
_atom_site_label
_atom_site_fract_x
_atom_site_fract_y
_atom_site_fract_z
Si Si1 0.040908 0.888106 0.353325
Si Si2 0.796932 0.394393 0.880472
Si Si3 0.187405 0.192731 0.025985
Si Si4 0.621333 0.795541 0.164609
Si Si5 0.730895 0.891051 0.104824
Si Si6 0.037283 0.611976 0.210186
Si Si7 0.814756 0.887373 0.664910
Si Si8 0.267010 0.610159 0.561464
O O1 0.147446 0.877396 0.628215
O O2 0.084142 0.867296 0.268467
O O3 0.939858 0.823256 0.224217
O O4 0.007437 0.000000 0.304023
O O5 0.763225 0.500000 0.871278
O O6 0.762225 0.386849 0.656080
O O7 0.764935 0.299027 0.905827
O O8 0.928221 0.388567 0.114222
O O9 0.257053 0.127575 0.040243
O O10 0.187860 0.164444 0.190569
O O11 0.651877 0.820733 0.055325
O O12 0.708026 0.856210 0.400475
O O13 0.643876 0.685932 0.244305
O O14 0.500000 0.821319 0.000000
O O15 0.699978 0.000000 0.082552
O O16 0.060905 0.500000 0.221178
O O17 0.155777 0.645963 0.451639
O O18 0.000000 0.657432 0.000000
O O19 0.815703 0.000000 0.690454
O O20 0.292651 0.500000 0.638737
#
# Coordination Sequence:
#
# PCOD9151865 Si02
#       8
#     4   4   4   4   4   4   4   4
#     4   9  19  34  53  81 119 155 183 218 271 337
#     4   9  18  30  50  84 120 150 179 220 273 330
#     4  12  20  32  59  86 116 153 184 224 271 337
#     4  11  23  40  60  81 105 146 193 241 299 341
#     4  10  23  40  56  81 117 153 187 225 285 345
#     4   7  12  23  43  74 110 142 172 209 260 316
#     4  10  21  35  55  85 111 140 194 241 274 327
#     4   9  17  33  56  83 113 142 186 239 277 322
#
# _framework density 19.427254000000001
#
# number of rings (size 3 to 8) (size 9 to 14) (size 15 to 20)
#    0.000    2.375    1.250    4.500    3.500    4.250 
#    0.000    1.250    0.000    3.000    0.000    1.750 
#    0.000    0.000    0.000    0.000    0.000    0.000 
#
# Total GULP energy -178325.932814 kJ/mol
# GULP energy per Si atom -5572.685400 kJ/mol
# Density = 1.938304 g / cm^3
# Si number density = 19.427254 Si / 1000 Ang^3
#
#
#
# Elastic Constant Matrix: (Units=GPa)
#
#
# Indices 1 2 3 4 5 6 
#
# 1 65.7327 18.2021 21.8233 0.0000 -0.2383 0.0000
# 2 18.2021 108.3798 4.3121 0.0000 0.6152 0.0000
# 3 21.8233 4.3121 17.4271 0.0000 2.4779 0.0000
# 4 0.0000 0.0000 0.0000 20.4057 0.0000 -6.8969
# 5 -0.2383 0.6152 2.4779 0.0000 18.8906 0.0000
# 6 0.0000 0.0000 0.0000 -6.8969 0.0000 12.2798
#
#
#
# Elastic Compliance Matrix: (Units=1/GPa)
#
#
# Indices 1 2 3 4 5 6 
#
# 1 0.027567 -0.003289 -0.034414 0.000000 0.004969 0.000000
# 2 -0.003289 0.009711 0.001800 0.000000 -0.000594 0.000000
# 3 -0.034414 0.001800 0.102005 0.000000 -0.013873 0.000000
# 4 0.000000 0.000000 0.000000 0.060489 0.000000 0.033973
# 5 0.004969 -0.000594 -0.013873 0.000000 0.054838 0.000000
# 6 0.000000 0.000000 0.000000 0.033973 0.000000 0.100516
#
#
# Mechanical properties :
#
#
# Convention : Reuss Voigt Hill
#
# Bulk Modulus (GPa) = 14.81991 31.13497 22.97744
# Shear Modulus (GPa) = 11.12536 20.12869 15.62702
#
# Velocity S-wave (km/s) = 2.39564 3.22235 2.83925
# Velocity P-wave (km/s) = 3.91115 5.46863 4.75411
#
# Compressibility (1/GPa) = 0.06747681
#
# Stress axis : x y z
#
# Youngs Moduli (GPa) = 36.27469 102.97692 9.80347
#
# Poissons Ratio (x) = 0.33867 0.33738
# Poissons Ratio (y) = 0.11930 -0.01765
# Poissons Ratio (z) = 1.24837 -0.18536
#
# Static dielectric constant tensor:
#      x y z
#    x 1.694620 0.000000 -0.026040 
#    y 0.000000 1.729360 0.000000 
#    z -0.026040 0.000000 1.696230 
# 
# From -- ./inp_files/35141.got.cif
#   From: 2010.05.17/outbox.cif.g08.bks.cpg/sg10_18_cif.got.tgz:35141.got - 2010.06.03 11:33:40.
