data_PCOD9151602
_publ_section_title
;
Structure prediction by ZEFSAII (Michael W. Deem and Ramdas Pophale) SiO2 
 PCOD9151602
Probable space group: P 2/M
;
_chemical_formula_sum "Si O2"
_cell_formula_units_Z 32
_cell_length_a 12.262028
_cell_length_b 9.000711
_cell_length_c 15.599418
_cell_angle_alpha 90.000000
_cell_angle_beta 88.336746
_cell_angle_gamma 90.000000
_cell_volume 1720.935134
_symmetry_space_group_name_H-M "P 2/M"
_symmetry_group_IT_number 10
_symmetry_cell_setting 'monoclinic'
loop_
_space_group_symop_operation_xyz
x,y,z
-x,y,-z
-x,-y,-z
x,-y,z
loop_
_atom_site_type_symbol
_atom_site_label
_atom_site_fract_x
_atom_site_fract_y
_atom_site_fract_z
Si Si1 0.770679 0.322406 0.341158
Si Si2 0.627774 0.820705 0.495138
Si Si3 0.725294 0.177846 0.159939
Si Si4 0.264978 0.324546 0.157032
Si Si5 0.127713 0.820872 0.008141
Si Si6 0.230970 0.176326 0.341461
Si Si7 0.987529 0.329972 0.602295
Si Si8 0.482590 0.831358 0.101911
O O1 0.757732 0.500000 0.344307
O O2 0.690833 0.250484 0.413486
O O3 0.750626 0.260758 0.247003
O O4 0.895773 0.287517 0.362295
O O5 0.500000 0.779456 0.500000
O O6 0.688446 0.778474 0.582489
O O7 0.634362 0.000000 0.487252
O O8 0.802485 0.221503 0.078110
O O9 0.599074 0.205111 0.139820
O O10 0.738783 0.000000 0.171188
O O11 0.249081 0.500000 0.158081
O O12 0.252561 0.258045 0.251978
O O13 0.386697 0.280333 0.125638
O O14 0.181870 0.251666 0.090581
O O15 0.135935 0.000000 0.016546
O O16 0.000000 0.782771 0.000000
O O17 0.108896 0.220634 0.370803
O O18 0.241871 0.000000 0.329591
O O19 0.960770 0.500000 0.630225
O O20 0.000000 0.330870 0.500000
O O21 0.450768 0.000000 0.129618
O O22 0.500000 0.834251 0.000000
#
# Coordination Sequence:
#
# PCOD9151602 Si02
#       8
#     4   4   4   4   4   4   4   4
#     4  11  24  40  62  92 127 163 199 248 309 375
#     4  10  23  43  64  89 121 160 208 258 307 360
#     4  10  22  40  64  92 123 161 205 257 304 355
#     4  12  26  41  62  93 130 164 202 254 313 373
#     4  10  22  43  67  92 123 163 212 257 303 363
#     4  11  24  41  65  92 121 162 213 259 302 363
#     4  10  21  41  64  88 124 162 200 252 313 366
#     4  10  20  41  68  89 118 160 209 257 304 358
#
# _framework density 18.594542000000001
#
# number of rings (size 3 to 8) (size 9 to 14) (size 15 to 20)
#    0.000    1.500    2.500    1.875    3.500    3.500 
#    0.000    0.000    0.000    0.000    0.000    0.000 
#    0.000    0.000    0.000    0.000    0.000    0.000 
#
# Total GULP energy -178800.496088 kJ/mol
# GULP energy per Si atom -5587.515503 kJ/mol
# Density = 1.855222 g / cm^3
# Si number density = 18.594542 Si / 1000 Ang^3
#
#
#
# Elastic Constant Matrix: (Units=GPa)
#
#
# Indices 1 2 3 4 5 6 
#
# 1 129.7325 59.5794 77.1810 0.0000 15.9224 0.0000
# 2 59.5794 53.4788 56.5226 0.0000 5.3969 0.0000
# 3 77.1810 56.5226 148.5833 0.0000 15.7875 0.0000
# 4 0.0000 0.0000 0.0000 -23.0640 0.0000 17.3978
# 5 15.9224 5.3969 15.7875 0.0000 33.9780 0.0000
# 6 0.0000 0.0000 0.0000 17.3978 0.0000 -25.2254
#
#
#
# Elastic Compliance Matrix: (Units=1/GPa)
#
#
# Indices 1 2 3 4 5 6 
#
# 1 0.016963 -0.016113 -0.002219 0.000000 -0.004359 0.000000
# 2 -0.016113 0.046590 -0.009856 0.000000 0.004730 0.000000
# 3 -0.002219 -0.009856 0.011945 0.000000 -0.002945 0.000000
# 4 0.000000 0.000000 0.000000 -0.090376 0.000000 -0.062331
# 5 -0.004359 0.004730 -0.002945 0.000000 0.032090 0.000000
# 6 0.000000 0.000000 0.000000 -0.062331 0.000000 -0.082632
#
#
# Mechanical properties :
#
#
# Convention : Reuss Voigt Hill
#
# Bulk Modulus (GPa) = 52.29504 79.81784 66.05644
# Shear Modulus (GPa) = -1872.98761 6.37182 -933.30789
#
# Velocity S-wave (km/s) = -31.77208 1.85315 -22.42800
# Velocity P-wave (km/s) = 36.30108 6.89909 25.20090
#
# Compressibility (1/GPa) = 0.01912227
#
# Stress axis : x y z
#
# Youngs Moduli (GPa) = 58.95155 21.46378 83.71832
#
# Poissons Ratio (x) = 0.34586 0.18573
# Poissons Ratio (y) = 0.94991 0.82512
# Poissons Ratio (z) = 0.13079 0.21154
#
# Static dielectric constant tensor:
#      x y z
#    x 1.622340 0.000000 0.016560 
#    y 0.000000 1.632150 0.000000 
#    z 0.016560 0.000000 1.871590 
# 
# From -- ./inp_files/63751.got.cif
#   From: 2010.05.17/outbox.cif.g08.bks.cpg/sg10_32_cif.got.tgz:63751.got - 2010.06.03 11:33:40.
