data_PCOD9151022
_publ_section_title
;
Structure prediction by ZEFSAII (Michael W. Deem and Ramdas Pophale) SiO2 
 PCOD9151022
Probable space group: P 2/M
;
_chemical_formula_sum "Si O2"
_cell_formula_units_Z 32
_cell_length_a 15.068458
_cell_length_b 24.096965
_cell_length_c 8.716382
_cell_angle_alpha 90.000000
_cell_angle_beta 153.129805
_cell_angle_gamma 90.000000
_cell_volume 1430.466637
_symmetry_space_group_name_H-M "P 2/M"
_symmetry_group_IT_number 10
_symmetry_cell_setting 'monoclinic'
loop_
_space_group_symop_operation_xyz
x,y,z
-x,y,-z
-x,-y,-z
x,-y,z
loop_
_atom_site_type_symbol
_atom_site_label
_atom_site_fract_x
_atom_site_fract_y
_atom_site_fract_z
Si Si1 0.264257 0.820126 0.128454
Si Si2 0.269228 0.561056 0.583583
Si Si3 0.723326 0.775588 0.186295
Si Si4 0.306688 0.940105 0.594625
Si Si5 0.482712 0.563150 0.294733
Si Si6 0.810960 0.351450 0.312335
Si Si7 0.722508 0.183371 0.516577
Si Si8 0.915986 0.939104 0.199094
O O1 0.500000 0.813862 0.500000
O O2 0.190068 0.798418 0.182673
O O3 0.200308 0.791059 0.868450
O O4 0.210557 0.884770 0.026074
O O5 0.188638 0.500000 0.493799
O O6 0.305786 0.567260 0.460300
O O7 0.157765 0.611132 0.489059
O O8 0.500000 0.562303 0.000000
O O9 0.743631 0.710262 0.244980
O O10 0.800445 0.806381 0.461134
O O11 0.494071 0.790946 0.824934
O O12 0.300786 0.882819 0.496396
O O13 0.106328 0.939555 0.382970
O O14 0.314208 0.000000 0.524287
O O15 0.500000 0.937576 0.000000
O O16 0.500000 0.567833 0.500000
O O17 0.408153 0.500000 0.145405
O O18 0.347516 0.612246 0.024880
O O19 0.000000 0.347727 0.500000
O O20 0.000000 0.934648 0.500000
O O21 0.818316 0.000000 0.035824
#
# Coordination Sequence:
#
# PCOD9151022 Si02
#       8
#     4   4   4   4   4   4   4   4
#     4  10  23  42  64  91 124 161 212 263 318 388
#     4   8  16  33  59  89 119 157 204 244 292 367
#     4  10  22  40  58  89 123 162 215 262 310 372
#     4  10  20  37  61  90 120 155 203 251 314 387
#     4   9  19  37  64  95 126 163 205 254 309 369
#     4  11  23  37  59  89 122 165 207 262 312 360
#     4  10  21  39  66  89 112 166 207 258 325 373
#     4  10  22  38  63  96 128 162 200 259 324 389
#
# _framework density 22.370322000000002
#
# number of rings (size 3 to 8) (size 9 to 14) (size 15 to 20)
#    0.000    2.250    1.250    1.875    7.000    5.250 
#    0.000    1.875    0.000    2.250    0.000    0.000 
#    0.000    0.000    0.000    0.000    0.000    0.000 
#
# Total GULP energy -178471.754170 kJ/mol
# GULP energy per Si atom -5577.242318 kJ/mol
# Density = 2.231941 g / cm^3
# Si number density = 22.370322 Si / 1000 Ang^3
#
#
#
# Elastic Constant Matrix: (Units=GPa)
#
#
# Indices 1 2 3 4 5 6 
#
# 1 132.8119 51.1960 25.1924 0.0000 -42.8254 0.0000
# 2 51.1960 160.0727 18.7132 0.0000 -10.1643 0.0000
# 3 25.1924 18.7132 60.7005 0.0000 -21.8839 0.0000
# 4 0.0000 0.0000 0.0000 6.4184 0.0000 4.7895
# 5 -42.8254 -10.1643 -21.8839 0.0000 34.8532 0.0000
# 6 0.0000 0.0000 0.0000 4.7895 0.0000 52.4636
#
#
#
# Elastic Compliance Matrix: (Units=1/GPa)
#
#
# Indices 1 2 3 4 5 6 
#
# 1 0.014252 -0.003626 0.001467 0.000000 0.017375 0.000000
# 2 -0.003626 0.007422 -0.002080 0.000000 -0.003597 0.000000
# 3 0.001467 -0.002080 0.021894 0.000000 0.014943 0.000000
# 4 0.000000 0.000000 0.000000 0.167192 0.000000 -0.015263
# 5 0.017375 -0.003597 0.014943 0.000000 0.058375 0.000000
# 6 0.000000 0.000000 0.000000 -0.015263 0.000000 0.020454
#
#
# Mechanical properties :
#
#
# Convention : Reuss Voigt Hill
#
# Bulk Modulus (GPa) = 28.49862 60.42092 44.45977
# Shear Modulus (GPa) = 16.14140 35.97928 26.06034
#
# Velocity S-wave (km/s) = 2.68909 4.01477 3.41684
# Velocity P-wave (km/s) = 4.73379 6.96845 5.95684
#
# Compressibility (1/GPa) = 0.03508942
#
# Stress axis : x y z
#
# Youngs Moduli (GPa) = 70.16717 134.74003 45.67465
#
# Poissons Ratio (x) = 0.48861 -0.06702
# Poissons Ratio (y) = 0.25445 0.09500
# Poissons Ratio (z) = -0.10296 0.28025
#
# Static dielectric constant tensor:
#      x y z
#    x 1.947460 0.000000 -0.044860 
#    y 0.000000 1.795250 0.000000 
#    z -0.044860 0.000000 1.832660 
# 
# From -- ./inp_files/30629.got.cif
#   From: 2010.05.17/outbox.cif.g08.bks.cpg/sg10_16_cif.got.tgz:30629.got - 2010.06.03 11:33:40.
