data_PCOD9151319
_publ_section_title
;
Structure prediction by ZEFSAII (Michael W. Deem and Ramdas Pophale) SiO2 
 PCOD9151319
Probable space group: P 2/M
;
_chemical_formula_sum "Si O2"
_cell_formula_units_Z 28
_cell_length_a 11.879245
_cell_length_b 7.843901
_cell_length_c 15.660204
_cell_angle_alpha 90.000000
_cell_angle_beta 118.519341
_cell_angle_gamma 90.000000
_cell_volume 1282.145265
_symmetry_space_group_name_H-M "P 2/M"
_symmetry_group_IT_number 10
_symmetry_cell_setting 'monoclinic'
loop_
_space_group_symop_operation_xyz
x,y,z
-x,y,-z
-x,-y,-z
x,-y,z
loop_
_atom_site_type_symbol
_atom_site_label
_atom_site_fract_x
_atom_site_fract_y
_atom_site_fract_z
Si Si1 0.617098 0.300974 0.484988
Si Si2 0.039859 0.698661 0.790306
Si Si3 0.619695 0.296500 0.806821
Si Si4 0.060945 0.695217 0.609520
Si Si5 0.660954 0.190523 0.312924
Si Si6 0.130941 0.290781 0.998980
Si Si7 0.234604 0.797926 0.305295
O O1 0.500000 0.235113 0.500000
O O2 0.593721 0.500000 0.455715
O O3 0.638789 0.202424 0.406430
O O4 0.734758 0.283023 0.592116
O O5 0.074696 0.500000 0.791901
O O6 0.035988 0.776057 0.693773
O O7 0.896083 0.714218 0.774066
O O8 0.126006 0.767739 0.898437
O O9 0.618951 0.500000 0.809328
O O10 0.476456 0.236972 0.776876
O O11 0.738583 0.234446 0.907430
O O12 0.655508 0.242273 0.723425
O O13 0.010950 0.500000 0.594232
O O14 0.214999 0.695512 0.658746
O O15 0.000000 0.771123 0.500000
O O16 0.696416 0.000000 0.300397
O O17 0.129820 0.500000 0.998729
O O18 0.000000 0.236983 0.000000
O O19 0.220670 0.000000 0.307910
#
# Coordination Sequence:
#
# PCOD9151319 Si02
#       7
#     4   4   4   4   4   4   4
#     4  11  22  36  57  82 113 155 198 240 291 354
#     4  10  20  38  63  88 117 158 207 255 300 355
#     4  11  21  37  60  85 119 159 202 250 301 359
#     4  10  22  41  65  90 118 157 207 251 295 361
#     4  12  25  40  60  87 124 160 197 249 309 366
#     4   9  17  33  60  91 119 153 205 258 303 350
#     4  12  23  34  54  88 126 157 192 242 305 367
#
# _framework density 21.838398999999999
#
# number of rings (size 3 to 8) (size 9 to 14) (size 15 to 20)
#    0.000    1.286    2.857    4.286    0.000    2.571 
#    0.000    2.857    0.000    4.286    0.000    0.000 
#    0.000    0.000    0.000    0.000    0.000    0.000 
#
# Total GULP energy -156369.739307 kJ/mol
# GULP energy per Si atom -5584.633547 kJ/mol
# Density = 2.178869 g / cm^3
# Si number density = 21.838399 Si / 1000 Ang^3
#
#
#
# Elastic Constant Matrix: (Units=GPa)
#
#
# Indices 1 2 3 4 5 6 
#
# 1 77.1031 -6.5106 29.3841 0.0000 9.8075 0.0000
# 2 -6.5106 53.4095 0.1499 0.0000 -4.4502 0.0000
# 3 29.3841 0.1499 141.7832 0.0000 11.5800 0.0000
# 4 0.0000 0.0000 0.0000 4.1901 0.0000 -20.8125
# 5 9.8075 -4.4502 11.5800 0.0000 36.6342 0.0000
# 6 0.0000 0.0000 0.0000 -20.8125 0.0000 8.8510
#
#
#
# Elastic Compliance Matrix: (Units=1/GPa)
#
#
# Indices 1 2 3 4 5 6 
#
# 1 0.014518 0.001543 -0.002780 0.000000 -0.002821 0.000000
# 2 0.001543 0.019085 -0.000509 0.000000 0.002066 0.000000
# 3 -0.002780 -0.000509 0.007775 0.000000 -0.001775 0.000000
# 4 0.000000 0.000000 0.000000 -0.022347 0.000000 -0.052547
# 5 -0.002821 0.002066 -0.001775 0.000000 0.028864 0.000000
# 6 0.000000 0.000000 0.000000 -0.052547 0.000000 -0.010579
#
#
# Mechanical properties :
#
#
# Convention : Reuss Voigt Hill
#
# Bulk Modulus (GPa) = 26.39538 35.37139 30.88339
# Shear Modulus (GPa) = 93.56897 26.55324 60.06110
#
# Velocity S-wave (km/s) = 6.55279 3.49075 5.24997
# Velocity P-wave (km/s) = 8.32857 5.69905 7.13597
#
# Compressibility (1/GPa) = 0.03788541
#
# Stress axis : x y z
#
# Youngs Moduli (GPa) = 68.87917 52.39752 128.62225
#
# Poissons Ratio (x) = -0.08083 0.35758
# Poissons Ratio (y) = -0.10625 0.06542
# Poissons Ratio (z) = 0.19149 0.02665
#
# Static dielectric constant tensor:
#      x y z
#    x 1.805860 0.000000 0.019000 
#    y 0.000000 1.793430 0.000000 
#    z 0.019000 0.000000 1.843040 
# 
# From -- ./inp_files/63487.got.cif
#   From: 2010.05.17/outbox.cif.g08.bks.cpg/sg10_32_cif.got.tgz:63487.got - 2010.06.03 11:33:40.
