data_PCOD9151057
_publ_section_title
;
Structure prediction by ZEFSAII (Michael W. Deem and Ramdas Pophale) SiO2 
 PCOD9151057
Probable space group: P 2/M
;
_chemical_formula_sum "Si O2"
_cell_formula_units_Z 28
_cell_length_a 14.776297
_cell_length_b 11.858934
_cell_length_c 9.610177
_cell_angle_alpha 90.000000
_cell_angle_beta 120.605659
_cell_angle_gamma 90.000000
_cell_volume 1449.406779
_symmetry_space_group_name_H-M "P 2/M"
_symmetry_group_IT_number 10
_symmetry_cell_setting 'monoclinic'
loop_
_space_group_symop_operation_xyz
x,y,z
-x,y,-z
-x,-y,-z
x,-y,z
loop_
_atom_site_type_symbol
_atom_site_label
_atom_site_fract_x
_atom_site_fract_y
_atom_site_fract_z
Si Si1 0.253632 0.755708 0.177517
Si Si2 0.418605 0.000000 0.649322
Si Si3 0.081366 0.370631 0.873745
Si Si4 0.343145 0.000000 0.272001
Si Si5 0.589228 0.224109 0.184781
Si Si6 0.531763 0.365481 0.683270
Si Si7 0.165551 0.370879 0.352722
Si Si8 0.220423 0.627725 0.717675
O O1 0.280781 0.886459 0.187710
O O2 0.353231 0.685454 0.199945
O O3 0.235726 0.716036 0.322295
O O4 0.149515 0.715096 0.017096
O O5 0.367851 0.000000 0.456479
O O6 0.544660 0.000000 0.719425
O O7 0.389066 0.890022 0.714297
O O8 0.101900 0.500000 0.937316
O O9 0.125785 0.361532 0.752167
O O10 0.956882 0.353826 0.779062
O O11 0.546884 0.312854 0.266299
O O12 0.690245 0.279509 0.191674
O O13 0.500000 0.203950 0.000000
O O14 0.500000 0.333109 0.500000
O O15 0.532217 0.500000 0.692973
O O16 0.195396 0.500000 0.337328
O O17 0.180791 0.360922 0.529038
O O18 0.263734 0.500000 0.768819
#
# Coordination Sequence:
#
# PCOD9151057 Si02
#       8
#     4   2   4   2   4   4   4   4
#     4  12  22  37  59  87 113 148 196 245 294 339
#     4  11  23  44  60  81 112 159 207 242 280 351
#     4  10  21  38  60  88 121 153 189 239 294 347
#     4  11  24  40  65  81 111 158 202 243 291 345
#     4  12  24  38  59  88 121 154 197 245 296 347
#     4  11  22  36  57  86 121 157 191 234 291 356
#     4  10  20  37  62  88 117 154 195 236 285 350
#     4  10  21  37  58  87 122 159 192 228 285 352
#
# _framework density 19.318247
#
# number of rings (size 3 to 8) (size 9 to 14) (size 15 to 20)
#    0.000    1.143    1.429    6.214    0.000    7.429 
#    0.000    1.429    0.000    0.000    0.000    4.000 
#    0.000    0.000    0.000    0.000    0.000    0.000 
#
# Total GULP energy -156651.880021 kJ/mol
# GULP energy per Si atom -5594.710001 kJ/mol
# Density = 1.927428 g / cm^3
# Si number density = 19.318247 Si / 1000 Ang^3
#
#
#
# Elastic Constant Matrix: (Units=GPa)
#
#
# Indices 1 2 3 4 5 6 
#
# 1 61.1847 27.3256 -11.1499 0.0000 -4.2484 0.0000
# 2 27.3256 87.8917 8.1449 0.0000 7.0477 0.0000
# 3 -11.1499 8.1449 42.3932 0.0000 1.2139 0.0000
# 4 0.0000 0.0000 0.0000 7.1603 0.0000 3.4113
# 5 -4.2484 7.0477 1.2139 0.0000 35.0114 0.0000
# 6 0.0000 0.0000 0.0000 3.4113 0.0000 -6.6608
#
#
#
# Elastic Compliance Matrix: (Units=1/GPa)
#
#
# Indices 1 2 3 4 5 6 
#
# 1 0.021251 -0.007559 0.006931 0.000000 0.003860 0.000000
# 2 -0.007559 0.014453 -0.004660 0.000000 -0.003665 0.000000
# 3 0.006931 -0.004660 0.026282 0.000000 0.000868 0.000000
# 4 0.000000 0.000000 0.000000 0.112267 0.000000 0.057497
# 5 0.003860 -0.003665 0.000868 0.000000 0.029738 0.000000
# 6 0.000000 0.000000 0.000000 0.057497 0.000000 -0.120686
#
#
# Mechanical properties :
#
#
# Convention : Reuss Voigt Hill
#
# Bulk Modulus (GPa) = 19.45120 26.67896 23.06508
# Shear Modulus (GPa) = 45.03815 18.24545 31.64180
#
# Velocity S-wave (km/s) = 4.83367 3.07655 4.05152
# Velocity P-wave (km/s) = 6.42209 5.14397 5.81823
#
# Compressibility (1/GPa) = 0.05141072
#
# Stress axis : x y z
#
# Youngs Moduli (GPa) = 47.05718 69.18810 38.04880
#
# Poissons Ratio (x) = 0.52297 -0.26371
# Poissons Ratio (y) = 0.35569 0.17731
# Poissons Ratio (z) = -0.32615 0.32241
#
# Static dielectric constant tensor:
#      x y z
#    x 1.655000 0.000000 -0.009030 
#    y 0.000000 1.640970 0.000000 
#    z -0.009030 0.000000 1.702670 
# 
# From -- ./inp_files/28526.got.cif
#   From: 2010.05.17/outbox.cif.g08.bks.cpg/sg10_15_cif.got.tgz:28526.got - 2010.06.03 11:33:40.
