data_PCOD9151482
_publ_section_title
;
Structure prediction by ZEFSAII (Michael W. Deem and Ramdas Pophale) SiO2 
 PCOD9151482
Probable space group: P 2/M
;
_chemical_formula_sum "Si O2"
_cell_formula_units_Z 28
_cell_length_a 9.155374
_cell_length_b 31.829396
_cell_length_c 4.993583
_cell_angle_alpha 90.000000
_cell_angle_beta 120.038115
_cell_angle_gamma 90.000000
_cell_volume 1259.738677
_symmetry_space_group_name_H-M "P 2/M"
_symmetry_group_IT_number 10
_symmetry_cell_setting 'monoclinic'
loop_
_space_group_symop_operation_xyz
x,y,z
-x,y,-z
-x,-y,-z
x,-y,z
loop_
_atom_site_type_symbol
_atom_site_label
_atom_site_fract_x
_atom_site_fract_y
_atom_site_fract_z
Si Si1 0.682594 0.407895 0.539259
Si Si2 0.881653 0.674089 0.647186
Si Si3 0.704045 0.241802 0.689448
Si Si4 0.813126 0.048493 0.702122
Si Si5 0.174395 0.450481 0.808580
Si Si6 0.694538 0.903846 0.088438
Si Si7 0.295044 0.809570 0.808077
O O1 0.500000 0.402537 0.500000
O O2 0.750856 0.363743 0.489016
O O3 0.689287 0.439439 0.294682
O O4 0.793435 0.426112 0.886823
O O5 0.787379 0.716041 0.657854
O O6 0.000000 0.680905 0.500000
O O7 0.000000 0.660903 0.000000
O O8 0.500000 0.246590 0.500000
O O9 0.752483 0.204336 0.531892
O O10 0.758017 0.226464 0.032084
O O11 0.796488 0.067437 0.391434
O O12 0.757361 0.000000 0.648986
O O13 0.705922 0.077063 0.804598
O O14 0.000000 0.049837 0.000000
O O15 0.170118 0.500000 0.862185
O O16 0.000000 0.438297 0.500000
O O17 0.760337 0.856050 0.162353
O O18 0.500000 0.903888 0.000000
O O19 0.500000 0.810139 0.000000
#
# Coordination Sequence:
#
# PCOD9151482 Si02
#       7
#     4   4   4   4   4   4   4
#     4  12  25  42  66  95 127 167 215 261 307 365
#     4  12  25  42  63  89 125 162 203 255 310 361
#     4  10  20  39  63  87 117 156 199 241 299 369
#     4  11  24  41  59  84 123 165 201 246 309 367
#     4  11  24  43  67  95 130 170 208 254 317 375
#     4  11  22  39  64  92 119 155 206 254 299 357
#     4   9  19  36  61  89 119 153 192 247 306 360
#
# _framework density 22.226835000000001
#
# number of rings (size 3 to 8) (size 9 to 14) (size 15 to 20)
#    0.000    1.143    0.000    6.857    0.000    8.000 
#    0.000   11.429    0.000    0.000    0.000    0.000 
#    0.000    0.000    0.000    0.000    0.000    0.000 
#
# Total GULP energy -156721.254654 kJ/mol
# GULP energy per Si atom -5597.187666 kJ/mol
# Density = 2.217625 g / cm^3
# Si number density = 22.226835 Si / 1000 Ang^3
#
#
#
# Elastic Constant Matrix: (Units=GPa)
#
#
# Indices 1 2 3 4 5 6 
#
# 1 102.3594 37.1198 13.4128 0.0000 -16.1313 0.0000
# 2 37.1198 119.9948 8.5338 0.0000 -0.6179 0.0000
# 3 13.4128 8.5338 66.6247 0.0000 -14.3906 0.0000
# 4 0.0000 0.0000 0.0000 36.3360 0.0000 -18.8032
# 5 -16.1313 -0.6179 -14.3906 0.0000 35.7480 0.0000
# 6 0.0000 0.0000 0.0000 -18.8032 0.0000 48.2052
#
#
#
# Elastic Compliance Matrix: (Units=1/GPa)
#
#
# Indices 1 2 3 4 5 6 
#
# 1 0.011983 -0.003619 -0.000870 0.000000 0.004995 0.000000
# 2 -0.003619 0.009507 -0.000883 0.000000 -0.001824 0.000000
# 3 -0.000870 -0.000883 0.016658 0.000000 0.006298 0.000000
# 4 0.000000 0.000000 0.000000 0.034481 0.000000 0.013450
# 5 0.004995 -0.001824 0.006298 0.000000 0.032731 0.000000
# 6 0.000000 0.000000 0.000000 0.013450 0.000000 0.025991
#
#
# Mechanical properties :
#
#
# Convention : Reuss Voigt Hill
#
# Bulk Modulus (GPa) = 36.49240 45.23463 40.86352
# Shear Modulus (GPa) = 33.06215 39.38533 36.22374
#
# Velocity S-wave (km/s) = 3.86098 4.21405 4.04137
# Velocity P-wave (km/s) = 6.02744 6.63876 6.34047
#
# Compressibility (1/GPa) = 0.02740296
#
# Stress axis : x y z
#
# Youngs Moduli (GPa) = 83.45049 105.18862 60.03107
#
# Poissons Ratio (x) = 0.38071 0.05223
# Poissons Ratio (y) = 0.30204 0.05301
# Poissons Ratio (z) = 0.07260 0.09289
#
# Static dielectric constant tensor:
#      x y z
#    x 1.834890 0.000000 0.034790 
#    y 0.000000 1.776250 0.000000 
#    z 0.034790 0.000000 1.778010 
# 
# From -- ./inp_files/5547.got.cif
#   From: 2010.05.17/outbox.cif.g08.bks.cpg/sg10_3_cif.got.tgz:5547.got - 2010.06.03 11:33:40.
