data_PCOD9151220
_publ_section_title
;
Structure prediction by ZEFSAII (Michael W. Deem and Ramdas Pophale) SiO2 
 PCOD9151220
Probable space group: P 2/M
;
_chemical_formula_sum "Si O2"
_cell_formula_units_Z 19
_cell_length_a 5.310703
_cell_length_b 11.669389
_cell_length_c 14.686985
_cell_angle_alpha 90.000000
_cell_angle_beta 96.703630
_cell_angle_gamma 90.000000
_cell_volume 903.968769
_symmetry_space_group_name_H-M "P 2/M"
_symmetry_group_IT_number 10
_symmetry_cell_setting 'monoclinic'
loop_
_space_group_symop_operation_xyz
x,y,z
-x,y,-z
-x,-y,-z
x,-y,z
loop_
_atom_site_type_symbol
_atom_site_label
_atom_site_fract_x
_atom_site_fract_y
_atom_site_fract_z
Si Si1 0.327337 0.273235 0.885724
Si Si2 0.747811 0.264743 0.335486
Si Si3 0.828695 0.868352 0.883004
Si Si4 0.246209 0.870140 0.339682
Si Si5 0.500000 0.500000 0.000000
Si Si6 0.269657 0.500000 0.560259
O O1 0.283447 0.281290 0.774735
O O2 0.588880 0.203461 0.906968
O O3 0.358532 0.397091 0.933429
O O4 0.090594 0.198340 0.910731
O O5 0.523947 0.182948 0.362146
O O6 0.716329 0.387041 0.378924
O O7 0.020984 0.209106 0.367252
O O8 0.799595 0.873457 0.771647
O O9 0.824654 0.000000 0.914289
O O10 0.230204 0.000000 0.373418
O O11 0.500000 0.500000 0.500000
O O12 0.000000 0.500000 0.500000
#
# Coordination Sequence:
#
# PCOD9151220 Si02
#       6
#     4   4   4   4   1   2
#     4  10  22  37  60  84 115 153 185 235 281 336
#     4  10  20  38  60  86 114 149 191 228 283 338
#     4   9  18  36  59  86 112 144 191 235 284 335
#     4   9  17  32  61  91 114 143 184 232 281 344
#     4  12  26  42  54  82 120 154 200 232 282 330
#     4  12  25  40  60  83 114 153 194 240 275 322
#
# _framework density 21.018424
#
# number of rings (size 3 to 8) (size 9 to 14) (size 15 to 20)
#    0.000    2.105    0.000    3.158    0.000    7.579 
#    0.000    9.474    0.000   12.632    0.000    0.000 
#    0.000    0.000    0.000    0.000    0.000    0.000 
#
# Total GULP energy -105989.977229 kJ/mol
# GULP energy per Si atom -5578.419854 kJ/mol
# Density = 2.097058 g / cm^3
# Si number density = 21.018424 Si / 1000 Ang^3
#
#
#
# Elastic Constant Matrix: (Units=GPa)
#
#
# Indices 1 2 3 4 5 6 
#
# 1 163.4110 80.0407 29.0234 0.0000 -15.5241 0.0000
# 2 80.0407 219.4150 29.2400 0.0000 -22.8500 0.0000
# 3 29.0234 29.2400 37.6096 0.0000 -9.8666 0.0000
# 4 0.0000 0.0000 0.0000 -86.5315 0.0000 -6.8069
# 5 -15.5241 -22.8500 -9.8666 0.0000 19.3541 0.0000
# 6 0.0000 0.0000 0.0000 -6.8069 0.0000 23.8979
#
#
#
# Elastic Compliance Matrix: (Units=1/GPa)
#
#
# Indices 1 2 3 4 5 6 
#
# 1 0.008101 -0.002228 -0.004046 0.000000 0.001805 0.000000
# 2 -0.002228 0.006079 -0.001839 0.000000 0.004453 0.000000
# 3 -0.004046 -0.001839 0.034308 0.000000 0.012074 0.000000
# 4 0.000000 0.000000 0.000000 -0.011303 0.000000 -0.003220
# 5 0.001805 0.004453 0.012074 0.000000 0.064528 0.000000
# 6 0.000000 0.000000 0.000000 -0.003220 0.000000 0.040928
#
#
# Mechanical properties :
#
#
# Convention : Reuss Voigt Hill
#
# Bulk Modulus (GPa) = 30.99529 77.44933 54.22231
# Shear Modulus (GPa) = 29.47760 10.15288 19.81524
#
# Velocity S-wave (km/s) = 3.74901 2.20022 3.07376
# Velocity P-wave (km/s) = 5.78955 6.58657 6.20088
#
# Compressibility (1/GPa) = 0.03226296
#
# Stress axis : x y z
#
# Youngs Moduli (GPa) = 123.44340 164.49866 29.14761
#
# Poissons Ratio (x) = 0.36651 0.11792
# Poissons Ratio (y) = 0.27503 0.05360
# Poissons Ratio (z) = 0.49943 0.30247
#
# Static dielectric constant tensor:
#      x y z
#    x 1.716900 0.000000 0.006430 
#    y 0.000000 1.694950 0.000000 
#    z 0.006430 0.000000 1.810180 
# 
# From -- ./inp_files/72937.got.cif
#   From: 2010.05.17/outbox.cif.g08.bks.cpg/sg10_37_cif.got.tgz:72937.got - 2010.06.03 11:33:40.
