data_PCOD9151059
_publ_section_title
;
Structure prediction by ZEFSAII (Michael W. Deem and Ramdas Pophale) SiO2 
 PCOD9151059
Probable space group: P 2/M
;
_chemical_formula_sum "Si O2"
_cell_formula_units_Z 28
_cell_length_a 12.101628
_cell_length_b 8.847077
_cell_length_c 15.348916
_cell_angle_alpha 90.000000
_cell_angle_beta 116.163349
_cell_angle_gamma 90.000000
_cell_volume 1474.943629
_symmetry_space_group_name_H-M "P 2/M"
_symmetry_group_IT_number 10
_symmetry_cell_setting 'monoclinic'
loop_
_space_group_symop_operation_xyz
x,y,z
-x,y,-z
-x,-y,-z
x,-y,z
loop_
_atom_site_type_symbol
_atom_site_label
_atom_site_fract_x
_atom_site_fract_y
_atom_site_fract_z
Si Si1 0.002437 0.819682 0.868405
Si Si2 0.797750 0.320843 0.532972
Si Si3 0.186615 0.680490 0.068010
Si Si4 0.296973 0.819570 0.678502
Si Si5 0.040719 0.819771 0.678631
Si Si6 0.446330 0.680441 0.231159
Si Si7 0.617941 0.176601 0.604814
O O1 0.020149 0.786023 0.773159
O O2 0.885526 0.737521 0.871003
O O3 0.988685 0.000000 0.874221
O O4 0.119037 0.762488 0.964785
O O5 0.787356 0.500000 0.522639
O O6 0.733301 0.243607 0.427892
O O7 0.728643 0.261591 0.595181
O O8 0.938822 0.268567 0.588291
O O9 0.170590 0.500000 0.054578
O O10 0.330335 0.714988 0.129054
O O11 0.178775 0.783681 0.696634
O O12 0.423981 0.747097 0.754227
O O13 0.310846 0.000000 0.678269
O O14 0.021791 0.000000 0.658745
O O15 0.455408 0.500000 0.243250
O O16 0.416153 0.751376 0.314908
O O17 0.500000 0.186921 0.500000
O O18 0.649505 0.000000 0.626774
#
# Coordination Sequence:
#
# PCOD9151059 Si02
#       7
#     4   4   4   4   4   4   4
#     4  10  20  37  62  89 113 143 187 236 281 332
#     4  12  24  37  58  86 116 151 192 238 287 339
#     4  10  21  37  59  88 119 148 179 226 289 346
#     4  11  23  40  59  80 113 156 195 237 283 334
#     4  10  23  41  60  83 113 150 196 240 282 336
#     4  11  23  38  58  86 118 152 191 235 285 341
#     4  11  22  36  57  83 113 151 189 229 282 336
#
# _framework density 18.983778000000001
#
# number of rings (size 3 to 8) (size 9 to 14) (size 15 to 20)
#    0.000    1.286    1.429    5.571    0.000    9.143 
#    0.000    0.714    0.000    4.286    0.000    0.000 
#    0.000    0.000    0.000    0.000    0.000    0.000 
#
# Total GULP energy -156607.000172 kJ/mol
# GULP energy per Si atom -5593.107149 kJ/mol
# Density = 1.894057 g / cm^3
# Si number density = 18.983778 Si / 1000 Ang^3
#
#
#
# Elastic Constant Matrix: (Units=GPa)
#
#
# Indices 1 2 3 4 5 6 
#
# 1 79.9183 21.2612 25.6482 0.0000 26.3503 0.0000
# 2 21.2612 44.4389 19.9943 0.0000 14.7940 0.0000
# 3 25.6482 19.9943 42.5859 0.0000 21.1842 0.0000
# 4 0.0000 0.0000 0.0000 -16.9976 0.0000 32.7747
# 5 26.3503 14.7940 21.1842 0.0000 31.4449 0.0000
# 6 0.0000 0.0000 0.0000 32.7747 0.0000 11.5938
#
#
#
# Elastic Compliance Matrix: (Units=1/GPa)
#
#
# Indices 1 2 3 4 5 6 
#
# 1 0.018332 -0.003278 -0.003951 0.000000 -0.011157 0.000000
# 2 -0.003278 0.030061 -0.009732 0.000000 -0.004839 0.000000
# 3 -0.003951 -0.009732 0.039866 0.000000 -0.018968 0.000000
# 4 0.000000 0.000000 0.000000 -0.009120 0.000000 0.025781
# 5 -0.011157 -0.004839 -0.018968 0.000000 0.056207 0.000000
# 6 0.000000 0.000000 0.000000 0.025781 0.000000 0.013371
#
#
# Mechanical properties :
#
#
# Convention : Reuss Voigt Hill
#
# Bulk Modulus (GPa) = 18.40403 33.41675 25.91039
# Shear Modulus (GPa) = 24.90629 11.87751 18.39190
#
# Velocity S-wave (km/s) = 3.62605 2.50405 3.11597
# Velocity P-wave (km/s) = 5.21983 5.09915 5.15984
#
# Compressibility (1/GPa) = 0.05433592
#
# Stress axis : x y z
#
# Youngs Moduli (GPa) = 54.54999 33.26558 25.08372
#
# Poissons Ratio (x) = 0.10906 0.09911
# Poissons Ratio (y) = 0.17884 0.24412
# Poissons Ratio (z) = 0.21554 0.32374
#
# Static dielectric constant tensor:
#      x y z
#    x 1.662020 0.000000 0.019030 
#    y 0.000000 1.632490 0.000000 
#    z 0.019030 0.000000 1.642850 
# 
# From -- ./inp_files/63402.got.cif
#   From: 2010.05.17/outbox.cif.g08.bks.cpg/sg10_32_cif.got.tgz:63402.got - 2010.06.03 11:33:40.
