data_PCOD9151216
_publ_section_title
;
Structure prediction by ZEFSAII (Michael W. Deem and Ramdas Pophale) SiO2 
 PCOD9151216
Probable space group: P 2/M
;
_chemical_formula_sum "Si O2"
_cell_formula_units_Z 32
_cell_length_a 5.202224
_cell_length_b 20.946541
_cell_length_c 13.491428
_cell_angle_alpha 90.000000
_cell_angle_beta 79.785186
_cell_angle_gamma 90.000000
_cell_volume 1446.839938
_symmetry_space_group_name_H-M "P 2/M"
_symmetry_group_IT_number 10
_symmetry_cell_setting 'monoclinic'
loop_
_space_group_symop_operation_xyz
x,y,z
-x,y,-z
-x,-y,-z
x,-y,z
loop_
_atom_site_type_symbol
_atom_site_label
_atom_site_fract_x
_atom_site_fract_y
_atom_site_fract_z
Si Si1 0.668830 0.673139 0.800444
Si Si2 0.672124 0.802479 0.325152
Si Si3 0.119971 0.322165 0.600535
Si Si4 0.220958 0.808654 0.210517
Si Si5 0.688986 0.427749 0.290504
Si Si6 0.217907 0.931276 0.569428
Si Si7 0.860033 0.566769 0.904332
Si Si8 0.216743 0.071650 0.068987
O O1 0.624305 0.745626 0.837100
O O2 0.472271 0.626928 0.755534
O O3 0.896884 0.680656 0.701393
O O4 0.718021 0.632223 0.894946
O O5 0.689873 0.737988 0.389443
O O6 0.382267 0.815438 0.303266
O O7 0.774016 0.866618 0.369927
O O8 0.911306 0.792956 0.231578
O O9 0.244808 0.391956 0.611335
O O10 0.000000 0.316319 0.500000
O O11 0.237993 0.873880 0.149656
O O12 0.579192 0.500000 0.308685
O O13 0.938847 0.434678 0.201463
O O14 0.500000 0.934017 0.500000
O O15 0.000000 0.926839 0.500000
O O16 0.177482 0.000000 0.625517
O O17 0.703995 0.500000 0.906693
O O18 0.000000 0.567104 0.000000
O O19 0.155494 0.000000 0.111706
O O20 0.500000 0.069113 0.000000
O O21 0.000000 0.086789 0.000000
#
# Coordination Sequence:
#
# PCOD9151216 Si02
#       8
#     4   4   4   4   4   4   4   4
#     4  10  21  38  55  85 121 152 199 264 305 372
#     4  11  22  39  60  89 120 161 203 260 304 373
#     4  10  22  39  58  82 115 160 209 257 318 380
#     4  11  23  39  62  87 125 157 205 254 312 357
#     4  10  20  38  60  82 118 157 197 259 316 369
#     4  10  21  37  57  86 122 156 195 245 302 363
#     4   9  19  36  59  86 116 155 198 242 307 381
#     4  10  22  42  65  92 126 166 210 254 306 373
#
# _framework density 22.117166999999998
#
# number of rings (size 3 to 8) (size 9 to 14) (size 15 to 20)
#    0.000    1.875    1.250    2.250    0.000    4.250 
#    2.250    2.500    0.000    0.000    0.000    0.000 
#    0.000    0.000    0.000    0.000    0.000    0.000 
#
# Total GULP energy -178229.558649 kJ/mol
# GULP energy per Si atom -5569.673708 kJ/mol
# Density = 2.206683 g / cm^3
# Si number density = 22.117167 Si / 1000 Ang^3
#
#
#
# Elastic Constant Matrix: (Units=GPa)
#
#
# Indices 1 2 3 4 5 6 
#
# 1 87.5149 17.7209 16.3866 0.0000 14.1669 0.0000
# 2 17.7209 194.8223 52.8125 0.0000 28.1141 0.0000
# 3 16.3866 52.8125 71.2339 0.0000 22.6080 0.0000
# 4 0.0000 0.0000 0.0000 37.7200 0.0000 8.8813
# 5 14.1669 28.1141 22.6080 0.0000 36.1513 0.0000
# 6 0.0000 0.0000 0.0000 8.8813 0.0000 34.1965
#
#
#
# Elastic Compliance Matrix: (Units=1/GPa)
#
#
# Indices 1 2 3 4 5 6 
#
# 1 0.012354 -0.000168 -0.001525 0.000000 -0.003757 0.000000
# 2 -0.000168 0.006615 -0.004060 0.000000 -0.002540 0.000000
# 3 -0.001525 -0.004060 0.020221 0.000000 -0.008891 0.000000
# 4 0.000000 0.000000 0.000000 0.028238 0.000000 -0.007334
# 5 -0.003757 -0.002540 -0.008891 0.000000 0.036669 0.000000
# 6 0.000000 0.000000 0.000000 -0.007334 0.000000 0.031147
#
#
# Mechanical properties :
#
#
# Convention : Reuss Voigt Hill
#
# Bulk Modulus (GPa) = 36.12129 58.60122 47.36126
# Shear Modulus (GPa) = 32.05573 39.39029 35.72301
#
# Velocity S-wave (km/s) = 3.81118 4.22475 4.02328
# Velocity P-wave (km/s) = 5.97779 7.09587 6.56069
#
# Compressibility (1/GPa) = 0.02768451
#
# Stress axis : x y z
#
# Youngs Moduli (GPa) = 80.94290 151.16703 49.45449
#
# Poissons Ratio (x) = 0.02543 0.07541
# Poissons Ratio (y) = 0.01362 0.20077
# Poissons Ratio (z) = 0.12343 0.61370
#
# Static dielectric constant tensor:
#      x y z
#    x 1.927960 0.000000 -0.011160 
#    y 0.000000 1.937060 0.000000 
#    z -0.011160 0.000000 1.813690 
# 
# From -- ./inp_files/59439.got.cif
#   From: 2010.05.17/outbox.cif.g08.bks.cpg/sg10_30_cif.got.tgz:59439.got - 2010.06.03 11:33:40.
