data_PCOD9151349
_publ_section_title
;
Structure prediction by ZEFSAII (Michael W. Deem and Ramdas Pophale) SiO2 
 PCOD9151349
Probable space group: P 2/M
;
_chemical_formula_sum "Si O2"
_cell_formula_units_Z 32
_cell_length_a 26.634432
_cell_length_b 8.772720
_cell_length_c 20.584847
_cell_angle_alpha 90.000000
_cell_angle_beta 20.769994
_cell_angle_gamma 90.000000
_cell_volume 1705.631946
_symmetry_space_group_name_H-M "P 2/M"
_symmetry_group_IT_number 10
_symmetry_cell_setting 'monoclinic'
loop_
_space_group_symop_operation_xyz
x,y,z
-x,y,-z
-x,-y,-z
x,-y,z
loop_
_atom_site_type_symbol
_atom_site_label
_atom_site_fract_x
_atom_site_fract_y
_atom_site_fract_z
Si Si1 0.651574 0.815955 0.667492
Si Si2 0.180015 0.816509 0.408480
Si Si3 0.331057 0.816778 0.093837
Si Si4 0.341923 0.183610 0.712565
Si Si5 0.632667 0.317229 0.551684
Si Si6 0.329811 0.183125 0.877695
Si Si7 0.870032 0.681362 0.772803
Si Si8 0.161178 0.683795 0.816056
O O1 0.755978 0.771340 0.599449
O O2 0.684464 0.740424 0.558901
O O3 0.656177 0.000000 0.655443
O O4 0.491127 0.773865 0.882027
O O5 0.288873 0.779942 0.218700
O O6 0.029823 0.741003 0.576215
O O7 0.162273 0.000000 0.430259
O O8 0.220864 0.740189 0.178295
O O9 0.319982 0.000000 0.099501
O O10 0.500000 0.232828 0.500000
O O11 0.316571 0.226317 0.818047
O O12 0.229468 0.251523 0.798840
O O13 0.337414 0.000000 0.713761
O O14 0.619480 0.500000 0.567941
O O15 0.479837 0.243991 0.722416
O O16 0.739651 0.271955 0.364687
O O17 0.328493 0.000000 0.884451
O O18 0.206408 0.251548 0.071002
O O19 0.867247 0.500000 0.777967
O O20 0.161761 0.500000 0.819039
O O21 0.000000 0.734549 0.000000
#
# Coordination Sequence:
#
# PCOD9151349 Si02
#       8
#     4   4   4   4   4   4   4   4
#     4  10  21  38  63  90 118 157 202 247 297 352
#     4  10  22  40  61  88 121 158 203 248 298 355
#     4  10  20  38  64  89 117 157 202 249 296 355
#     4  10  21  38  62  91 117 147 196 251 295 339
#     4  11  22  37  60  89 121 158 199 242 294 353
#     4  11  22  39  63  88 118 154 199 250 299 353
#     4  12  25  39  58  88 123 159 200 246 300 356
#     4  10  23  41  60  87 125 164 197 233 289 358
#
# _framework density 18.761374
#
# number of rings (size 3 to 8) (size 9 to 14) (size 15 to 20)
#    0.000    1.500    2.500    2.625    0.000    7.000 
#    0.000    2.500    0.000    2.250    0.000    0.000 
#    0.000    0.000    0.000    0.000    0.000    0.000 
#
# Total GULP energy -178878.471017 kJ/mol
# GULP energy per Si atom -5589.952219 kJ/mol
# Density = 1.871867 g / cm^3
# Si number density = 18.761374 Si / 1000 Ang^3
#
#
#
# Elastic Constant Matrix: (Units=GPa)
#
#
# Indices 1 2 3 4 5 6 
#
# 1 81.9230 14.4686 -18.1106 0.0000 4.2813 0.0000
# 2 14.4686 17.4252 1.2576 0.0000 2.7631 0.0000
# 3 -18.1106 1.2576 18.5290 0.0000 -1.7598 0.0000
# 4 0.0000 0.0000 0.0000 17.8265 0.0000 -11.7724
# 5 4.2813 2.7631 -1.7598 0.0000 38.0768 0.0000
# 6 0.0000 0.0000 0.0000 -11.7724 0.0000 215.0365
#
#
#
# Elastic Compliance Matrix: (Units=1/GPa)
#
#
# Indices 1 2 3 4 5 6 
#
# 1 0.019996 -0.018107 0.020776 0.000000 0.000026 0.000000
# 2 -0.018107 0.074805 -0.023199 0.000000 -0.004465 0.000000
# 3 0.020776 -0.023199 0.076123 0.000000 0.002866 0.000000
# 4 0.000000 0.000000 0.000000 0.058200 0.000000 0.003186
# 5 0.000026 -0.004465 0.002866 0.000000 0.026716 0.000000
# 6 0.000000 0.000000 0.000000 0.003186 0.000000 0.004825
#
#
# Mechanical properties :
#
#
# Convention : Reuss Voigt Hill
#
# Bulk Modulus (GPa) = 7.70036 12.56758 10.13397
# Shear Modulus (GPa) = 14.49223 62.20541 38.34882
#
# Velocity S-wave (km/s) = 2.78231 5.76438 4.52600
# Velocity P-wave (km/s) = 3.79934 7.14264 5.72068
#
# Compressibility (1/GPa) = 0.12986413
#
# Stress axis : x y z
#
# Youngs Moduli (GPa) = 50.01007 13.36810 13.13669
#
# Poissons Ratio (x) = 0.24205 -0.27293
# Poissons Ratio (y) = 0.90552 0.30476
# Poissons Ratio (z) = -1.03900 0.31012
#
# Static dielectric constant tensor:
#      x y z
#    x 1.626460 0.000000 0.012490 
#    y 0.000000 1.632190 0.000000 
#    z 0.012490 0.000000 1.626070 
# 
# From -- ./inp_files/86846.got.cif
#   From: 2010.05.17/outbox.cif.g08.bks.cpg/sg10_44_cif.got.tgz:86846.got - 2010.06.03 11:33:40.
