data_PCOD9151950
_publ_section_title
;
Structure prediction by ZEFSAII (Michael W. Deem and Ramdas Pophale) SiO2 
 PCOD9151950
Probable space group: P 2/M
;
_chemical_formula_sum "Si O2"
_cell_formula_units_Z 24
_cell_length_a 20.143100
_cell_length_b 7.478588
_cell_length_c 10.467067
_cell_angle_alpha 90.000000
_cell_angle_beta 49.167285
_cell_angle_gamma 90.000000
_cell_volume 1193.025685
_symmetry_space_group_name_H-M "P 2/M"
_symmetry_group_IT_number 10
_symmetry_cell_setting 'monoclinic'
loop_
_space_group_symop_operation_xyz
x,y,z
-x,y,-z
-x,-y,-z
x,-y,z
loop_
_atom_site_type_symbol
_atom_site_label
_atom_site_fract_x
_atom_site_fract_y
_atom_site_fract_z
Si Si1 0.768765 0.718379 0.270264
Si Si2 0.764600 0.284223 0.569408
Si Si3 0.436956 0.791740 0.189855
Si Si4 0.053787 0.718809 0.555605
Si Si5 0.051430 0.718114 0.062312
Si Si6 0.573739 0.709202 0.500973
O O1 0.767588 0.500000 0.270591
O O2 0.786237 0.768714 0.395846
O O3 0.671630 0.784404 0.359341
O O4 0.847963 0.775641 0.080367
O O5 0.762672 0.500000 0.574482
O O6 0.665256 0.225335 0.721030
O O7 0.844764 0.224359 0.557727
O O8 0.446600 0.718006 0.321803
O O9 0.458554 0.000000 0.175272
O O10 0.500000 0.715468 0.000000
O O11 0.055127 0.500000 0.552726
O O12 0.000000 0.777448 0.500000
O O13 0.000025 0.776212 0.748069
O O14 0.050985 0.500000 0.064974
O O15 0.000000 0.772604 0.000000
O O16 0.500000 0.786418 0.500000
O O17 0.580840 0.500000 0.459066
#
# Coordination Sequence:
#
# PCOD9151950 Si02
#       6
#     4   4   4   4   4   4
#     4   8  13  23  41  64  90 123 156 184 226 285
#     4   9  16  29  49  70  95 125 159 202 250 293
#     4  10  21  36  53  72  95 131 177 212 244 297
#     4   9  16  25  38  65 100 125 150 192 244 291
#     4   9  13  20  37  59  87 123 154 179 218 281
#     4   9  18  33  52  77 106 127 155 205 259 304
#
# _framework density 20.116917999999998
#
# number of rings (size 3 to 8) (size 9 to 14) (size 15 to 20)
#    0.000    3.000    1.667    1.500    0.000    1.667 
#    3.000    0.000    0.000    0.500    0.000    9.333 
#    0.000    0.000    0.000    0.000    0.000    0.000 
#
# Total GULP energy -133806.092302 kJ/mol
# GULP energy per Si atom -5575.253846 kJ/mol
# Density = 2.007113 g / cm^3
# Si number density = 20.116918 Si / 1000 Ang^3
#
#
#
# Elastic Constant Matrix: (Units=GPa)
#
#
# Indices 1 2 3 4 5 6 
#
# 1 183.5520 -2.6133 76.4411 0.0000 -4.2509 0.0000
# 2 -2.6133 51.2906 -10.9371 0.0000 0.6686 0.0000
# 3 76.4411 -10.9371 127.5727 0.0000 -14.8500 0.0000
# 4 0.0000 0.0000 0.0000 -2.0605 0.0000 83.8911
# 5 -4.2509 0.6686 -14.8500 0.0000 25.9595 0.0000
# 6 0.0000 0.0000 0.0000 83.8911 0.0000 -237.2258
#
#
#
# Elastic Compliance Matrix: (Units=1/GPa)
#
#
# Indices 1 2 3 4 5 6 
#
# 1 0.007324 -0.000590 -0.004605 0.000000 -0.001419 0.000000
# 2 -0.000590 0.019913 0.002132 0.000000 0.000610 0.000000
# 3 -0.004605 0.002132 0.011449 0.000000 0.005740 0.000000
# 4 0.000000 0.000000 0.000000 0.036224 0.000000 0.012810
# 5 -0.001419 0.000610 0.005740 0.000000 0.041557 0.000000
# 6 0.000000 0.000000 0.000000 0.012810 0.000000 0.000315
#
#
# Mechanical properties :
#
#
# Convention : Reuss Voigt Hill
#
# Bulk Modulus (GPa) = 30.71198 54.24407 42.47803
# Shear Modulus (GPa) = 37.38012 -22.69704 7.34154
#
# Velocity S-wave (km/s) = 4.31530 -3.36260 1.91242
# Velocity P-wave (km/s) = 6.33474 3.45642 5.10273
#
# Compressibility (1/GPa) = 0.03256058
#
# Stress axis : x y z
#
# Youngs Moduli (GPa) = 136.53066 50.21766 87.34641
#
# Poissons Ratio (x) = 0.02964 0.40219
# Poissons Ratio (y) = 0.08058 -0.18621
# Poissons Ratio (z) = 0.62866 -0.10706
#
# Static dielectric constant tensor:
#      x y z
#    x 1.715870 0.000000 -0.024120 
#    y 0.000000 1.761410 0.000000 
#    z -0.024120 0.000000 1.689410 
# 
# From -- ./inp_files/33777.got.cif
#   From: 2010.05.17/outbox.cif.g08.bks.cpg/sg10_17_cif.got.tgz:33777.got - 2010.06.03 11:33:40.
