data_PCOD9151213
_publ_section_title
;
Structure prediction by ZEFSAII (Michael W. Deem and Ramdas Pophale) SiO2 
 PCOD9151213
Probable space group: P 2/M
;
_chemical_formula_sum "Si O2"
_cell_formula_units_Z 28
_cell_length_a 20.742757
_cell_length_b 7.760827
_cell_length_c 14.376201
_cell_angle_alpha 90.000000
_cell_angle_beta 33.292020
_cell_angle_gamma 90.000000
_cell_volume 1270.331057
_symmetry_space_group_name_H-M "P 2/M"
_symmetry_group_IT_number 10
_symmetry_cell_setting 'monoclinic'
loop_
_space_group_symop_operation_xyz
x,y,z
-x,y,-z
-x,-y,-z
x,-y,z
loop_
_atom_site_type_symbol
_atom_site_label
_atom_site_fract_x
_atom_site_fract_y
_atom_site_fract_z
Si Si1 0.663349 0.202148 0.258317
Si Si2 0.921041 0.500000 0.725756
Si Si3 0.373828 0.792143 0.102407
Si Si4 0.091067 0.801542 0.121848
Si Si5 0.355780 0.308146 0.511962
Si Si6 0.911241 0.207383 0.186777
Si Si7 0.810699 0.500000 0.653586
Si Si8 0.577848 0.805510 0.165903
O O1 0.622430 0.281250 0.404231
O O2 0.620513 0.277688 0.211414
O O3 0.630031 0.000000 0.302381
O O4 0.804257 0.210406 0.079878
O O5 0.063465 0.500000 0.549343
O O6 0.885114 0.670266 0.824970
O O7 0.856853 0.500000 0.704578
O O8 0.270758 0.668749 0.265171
O O9 0.349092 0.000000 0.137942
O O10 0.500000 0.764632 0.000000
O O11 0.389341 0.739296 0.974885
O O12 0.972221 0.756248 0.211529
O O13 0.087083 0.000000 0.158093
O O14 0.387935 0.500000 0.445850
O O15 0.218558 0.278699 0.663521
O O16 0.437948 0.190364 0.349705
O O17 0.903388 0.000000 0.186088
O O18 0.000000 0.271482 0.000000
O O19 0.626617 0.000000 0.109609
#
# Coordination Sequence:
#
# PCOD9151213 Si02
#       8
#     4   2   4   4   4   4   2   4
#     4  10  20  38  61  85 123 170 211 256 307 366
#     4  11  26  42  65  99 135 168 211 265 326 391
#     4  10  23  46  75  99 125 166 216 272 334 394
#     4  10  22  40  65  93 125 170 218 260 308 371
#     4  12  25  35  54  89 129 168 209 257 306 368
#     4  10  20  38  60  81 117 168 214 254 300 357
#     4  11  25  46  68  97 134 169 203 267 337 396
#     4  10  22  40  63  90 120 160 210 259 313 376
#
# _framework density 22.041498000000001
#
# number of rings (size 3 to 8) (size 9 to 14) (size 15 to 20)
#    0.000    1.571    1.429    2.786    3.000    6.000 
#    0.000    4.286    0.000    0.000    0.000    0.000 
#    0.000    0.000    0.000    0.000    0.000    0.000 
#
# Total GULP energy -156432.170759 kJ/mol
# GULP energy per Si atom -5586.863241 kJ/mol
# Density = 2.199133 g / cm^3
# Si number density = 22.041498 Si / 1000 Ang^3
#
#
#
# Elastic Constant Matrix: (Units=GPa)
#
#
# Indices 1 2 3 4 5 6 
#
# 1 53.3436 20.3241 7.4223 0.0000 -16.1716 0.0000
# 2 20.3241 63.7007 6.6619 0.0000 -1.4695 0.0000
# 3 7.4223 6.6619 77.0613 0.0000 -16.3833 0.0000
# 4 0.0000 0.0000 0.0000 18.2027 0.0000 -1.5588
# 5 -16.1716 -1.4695 -16.3833 0.0000 36.8031 0.0000
# 6 0.0000 0.0000 0.0000 -1.5588 0.0000 24.5126
#
#
#
# Elastic Compliance Matrix: (Units=1/GPa)
#
#
# Indices 1 2 3 4 5 6 
#
# 1 0.024929 -0.007764 0.000589 0.000000 0.010906 0.000000
# 2 -0.007764 0.018260 -0.001547 0.000000 -0.003371 0.000000
# 3 0.000589 -0.001547 0.014465 0.000000 0.006636 0.000000
# 4 0.000000 0.000000 0.000000 0.055238 0.000000 0.003513
# 5 0.010906 -0.003371 0.006636 0.000000 0.034783 0.000000
# 6 0.000000 0.000000 0.000000 0.003513 0.000000 0.041019
#
#
# Mechanical properties :
#
#
# Convention : Reuss Voigt Hill
#
# Bulk Modulus (GPa) = 24.87065 29.21358 27.04211
# Shear Modulus (GPa) = 22.77490 26.55016 24.66253
#
# Velocity S-wave (km/s) = 3.21794 3.47443 3.34865
# Velocity P-wave (km/s) = 5.01148 5.42017 5.21983
#
# Compressibility (1/GPa) = 0.04020804
#
# Stress axis : x y z
#
# Youngs Moduli (GPa) = 40.11446 54.76594 69.13443
#
# Poissons Ratio (x) = 0.42518 -0.04070
# Poissons Ratio (y) = 0.31143 0.10699
# Poissons Ratio (z) = -0.02362 0.08475
#
# Static dielectric constant tensor:
#      x y z
#    x 1.832270 0.000000 -0.033740 
#    y 0.000000 1.795980 0.000000 
#    z -0.033740 0.000000 1.790840 
# 
# From -- ./inp_files/70234.got.cif
#   From: 2010.05.17/outbox.cif.g08.bks.cpg/sg10_36_cif.got.tgz:70234.got - 2010.06.03 11:33:40.
