data_PCOD9151764
_publ_section_title
;
Structure prediction by ZEFSAII (Michael W. Deem and Ramdas Pophale) SiO2 
 PCOD9151764
Probable space group: P 2/M
;
_chemical_formula_sum "Si O2"
_cell_formula_units_Z 32
_cell_length_a 21.372423
_cell_length_b 13.196948
_cell_length_c 10.011811
_cell_angle_alpha 90.000000
_cell_angle_beta 138.923246
_cell_angle_gamma 90.000000
_cell_volume 1855.458259
_symmetry_space_group_name_H-M "P 2/M"
_symmetry_group_IT_number 10
_symmetry_cell_setting 'monoclinic'
loop_
_space_group_symop_operation_xyz
x,y,z
-x,y,-z
-x,-y,-z
x,-y,z
loop_
_atom_site_type_symbol
_atom_site_label
_atom_site_fract_x
_atom_site_fract_y
_atom_site_fract_z
Si Si1 0.275626 0.386380 0.409687
Si Si2 0.386383 0.311569 0.816374
Si Si3 0.084585 0.623279 0.234663
Si Si4 0.298515 0.701979 0.966224
Si Si5 0.904560 0.377865 0.434284
Si Si6 0.603815 0.384009 0.634552
Si Si7 0.561316 0.118255 0.734474
Si Si8 0.423175 0.888837 0.758067
O O1 0.249283 0.500000 0.319611
O O2 0.344659 0.391584 0.647205
O O3 0.180364 0.339347 0.316305
O O4 0.333986 0.335445 0.383430
O O5 0.344095 0.318700 0.894973
O O6 0.359117 0.202978 0.705740
O O7 0.500000 0.318483 0.000000
O O8 0.086933 0.500000 0.239591
O O9 0.079347 0.650330 0.383177
O O10 0.000000 0.654397 0.000000
O O11 0.185432 0.685999 0.766438
O O12 0.335629 0.621749 0.134072
O O13 0.348552 0.806437 0.100628
O O14 0.882605 0.500000 0.393933
O O15 0.000000 0.362415 0.500000
O O16 0.500000 0.339866 0.500000
O O17 0.585634 0.500000 0.562311
O O18 0.500000 0.124954 0.500000
O O19 0.485438 0.140660 0.729921
O O20 0.590893 0.000000 0.797333
O O21 0.378980 0.000000 0.665436
O O22 0.500000 0.898989 0.000000
#
# Coordination Sequence:
#
# PCOD9151764 Si02
#       8
#     4   4   4   4   4   4   4   4
#     4  10  21  35  49  71 104 140 182 219 261 319
#     4  11  20  31  50  77 106 140 172 216 267 316
#     4   9  18  34  55  74  96 130 175 228 277 319
#     4  12  21  33  55  79 108 141 184 227 271 327
#     4  10  22  38  55  78 108 141 184 235 284 329
#     4  10  22  35  47  69 106 151 185 212 259 320
#     4  10  21  36  55  81 113 148 182 221 271 328
#     4   9  17  32  51  73 103 135 171 213 258 312
#
# _framework density 17.246414000000001
#
# number of rings (size 3 to 8) (size 9 to 14) (size 15 to 20)
#    0.000    1.875    3.750    1.500    3.500    0.750 
#    0.000    0.000    0.000    0.375    0.000    0.000 
#    0.000    1.000    0.000    0.000    0.000    0.000 
#
# Total GULP energy -178138.210688 kJ/mol
# GULP energy per Si atom -5566.819084 kJ/mol
# Density = 1.720716 g / cm^3
# Si number density = 17.246414 Si / 1000 Ang^3
#
#
#
# Elastic Constant Matrix: (Units=GPa)
#
#
# Indices 1 2 3 4 5 6 
#
# 1 154.3900 16.3654 71.4621 0.0000 -4.0814 0.0000
# 2 16.3654 47.4945 14.4659 0.0000 3.0018 0.0000
# 3 71.4621 14.4659 113.9267 0.0000 1.5990 0.0000
# 4 0.0000 0.0000 0.0000 25.7097 0.0000 -3.1770
# 5 -4.0814 3.0018 1.5990 0.0000 31.0397 0.0000
# 6 0.0000 0.0000 0.0000 -3.1770 0.0000 -6.2112
#
#
#
# Elastic Compliance Matrix: (Units=1/GPa)
#
#
# Indices 1 2 3 4 5 6 
#
# 1 0.009310 -0.001589 -0.005662 0.000000 0.001670 0.000000
# 2 -0.001589 0.022295 -0.001802 0.000000 -0.002272 0.000000
# 3 -0.005662 -0.001802 0.012575 0.000000 -0.001218 0.000000
# 4 0.000000 0.000000 0.000000 0.036583 0.000000 -0.018712
# 5 0.001670 -0.002272 -0.001218 0.000000 0.032719 0.000000
# 6 0.000000 0.000000 0.000000 -0.018712 0.000000 -0.151429
#
#
# Mechanical properties :
#
#
# Convention : Reuss Voigt Hill
#
# Bulk Modulus (GPa) = 38.35205 57.82200 48.08702
# Shear Modulus (GPa) = -448.46662 24.34217 -212.06223
#
# Velocity S-wave (km/s) = -16.14309 3.76098 -11.10077
# Velocity P-wave (km/s) = 18.03274 7.24291 11.67733
#
# Compressibility (1/GPa) = 0.02607423
#
# Stress axis : x y z
#
# Youngs Moduli (GPa) = 107.40808 44.85276 79.52378
#
# Poissons Ratio (x) = 0.07128 0.45024
# Poissons Ratio (y) = 0.17069 0.14332
# Poissons Ratio (z) = 0.60811 0.08083
#
# Static dielectric constant tensor:
#      x y z
#    x 1.641120 0.000000 -0.014830 
#    y 0.000000 1.659230 0.000000 
#    z -0.014830 0.000000 1.587050 
# 
# From -- ./inp_files/29513.got.cif
#   From: 2010.05.17/outbox.cif.g08.bks.cpg/sg10_15_cif.got.tgz:29513.got - 2010.06.03 11:33:40.
