data_PCOD9151470
_publ_section_title
;
Structure prediction by ZEFSAII (Michael W. Deem and Ramdas Pophale) SiO2 
 PCOD9151470
Probable space group: P 2/M
;
_chemical_formula_sum "Si O2"
_cell_formula_units_Z 21
_cell_length_a 8.292281
_cell_length_b 27.293808
_cell_length_c 5.231055
_cell_angle_alpha 90.000000
_cell_angle_beta 89.906741
_cell_angle_gamma 90.000000
_cell_volume 1183.932258
_symmetry_space_group_name_H-M "P 2/M"
_symmetry_group_IT_number 10
_symmetry_cell_setting 'monoclinic'
loop_
_space_group_symop_operation_xyz
x,y,z
-x,y,-z
-x,-y,-z
x,-y,z
loop_
_atom_site_type_symbol
_atom_site_label
_atom_site_fract_x
_atom_site_fract_y
_atom_site_fract_z
Si Si1 0.889378 0.055584 0.750139
Si Si2 0.888591 0.671024 0.750076
Si Si3 0.595763 0.398569 0.761650
Si Si4 0.389746 0.248366 0.251774
Si Si5 0.500000 0.500000 0.000000
Si Si6 0.391354 0.134593 0.251851
O O1 0.753607 0.096594 0.753852
O O2 0.000000 0.061137 0.500000
O O3 0.821410 0.000000 0.747154
O O4 0.000000 0.060108 0.000000
O O5 0.773759 0.623194 0.745755
O O6 0.763004 0.716071 0.753749
O O7 0.000000 0.672870 0.500000
O O8 0.000000 0.671306 0.000000
O O9 0.500000 0.389670 0.500000
O O10 0.587273 0.456070 0.829963
O O11 0.500000 0.374102 0.000000
O O12 0.500000 0.258652 0.500000
O O13 0.336978 0.191407 0.263803
O O14 0.500000 0.254085 0.000000
O O15 0.500000 0.125497 0.500000
O O16 0.500000 0.128977 0.000000
#
# Coordination Sequence:
#
# PCOD9151470 Si02
#       6
#     4   4   4   4   1   4
#     4  10  21  36  54  78 111 150 186 223 280 344
#     4  12  24  37  57  89 119 144 182 233 283 324
#     4  10  20  39  63  83 110 150 193 222 264 333
#     4  10  21  39  59  81 110 151 189 224 275 340
#     4   8  22  36  70  82 106 148 210 210 264 332
#     4  10  21  36  57  83 109 140 189 239 277 321
#
# _framework density 17.737503
#
# number of rings (size 3 to 8) (size 9 to 14) (size 15 to 20)
#    0.571    1.143    0.000    4.857    0.000    2.286 
#    0.000    0.952    0.000    0.000    0.000    0.000 
#    0.000    0.000    0.000    0.000    0.000    0.000 
#
# Total GULP energy -116959.046559 kJ/mol
# GULP energy per Si atom -5569.478408 kJ/mol
# Density = 1.769713 g / cm^3
# Si number density = 17.737503 Si / 1000 Ang^3
#
#
#
# Elastic Constant Matrix: (Units=GPa)
#
#
# Indices 1 2 3 4 5 6 
#
# 1 127.7845 97.3388 79.6843 0.0000 4.9112 0.0000
# 2 97.3388 147.9644 60.6406 0.0000 6.3192 0.0000
# 3 79.6843 60.6406 170.3913 0.0000 9.7329 0.0000
# 4 0.0000 0.0000 0.0000 -3.8446 0.0000 8.9261
# 5 4.9112 6.3192 9.7329 0.0000 28.3684 0.0000
# 6 0.0000 0.0000 0.0000 8.9261 0.0000 -26.2375
#
#
#
# Elastic Compliance Matrix: (Units=1/GPa)
#
#
# Indices 1 2 3 4 5 6 
#
# 1 0.018933 -0.010352 -0.005217 0.000000 0.000818 0.000000
# 2 -0.010352 0.013591 0.000076 0.000000 -0.001261 0.000000
# 3 -0.005217 0.000076 0.008395 0.000000 -0.001994 0.000000
# 4 0.000000 0.000000 0.000000 -1.237769 0.000000 -0.421093
# 5 0.000818 -0.001261 -0.001994 0.000000 0.036074 0.000000
# 6 0.000000 0.000000 0.000000 -0.421093 0.000000 -0.181371
#
#
# Mechanical properties :
#
#
# Convention : Reuss Voigt Hill
#
# Bulk Modulus (GPa) = 100.65962 102.38531 101.52247
# Shear Modulus (GPa) = -3.82307 13.55570 4.86632
#
# Velocity S-wave (km/s) = -1.46971 2.76749 1.65815
# Velocity P-wave (km/s) = 7.34798 8.24984 7.81193
#
# Compressibility (1/GPa) = 0.00993447
#
# Stress axis : x y z
#
# Youngs Moduli (GPa) = 52.81868 73.57781 119.11644
#
# Poissons Ratio (x) = 0.76167 0.62137
# Poissons Ratio (y) = 0.54678 -0.00909
# Poissons Ratio (z) = 0.27553 -0.00561
#
# Static dielectric constant tensor:
#      x y z
#    x 1.551250 0.000000 -0.001340 
#    y 0.000000 1.611440 0.000000 
#    z -0.001340 0.000000 1.597230 
# 
# From -- ./inp_files/2276.got.cif
#   From: 2010.05.17/outbox.cif.g08.bks.cpg/sg10_2_cif.got.tgz:2276.got - 2010.06.03 11:33:40.
