data_PCOD9151484
_publ_section_title
;
Structure prediction by ZEFSAII (Michael W. Deem and Ramdas Pophale) SiO2 
 PCOD9151484
Probable space group: P 2/M
;
_chemical_formula_sum "Si O2"
_cell_formula_units_Z 20
_cell_length_a 9.448787
_cell_length_b 11.483116
_cell_length_c 13.115615
_cell_angle_alpha 90.000000
_cell_angle_beta 132.076658
_cell_angle_gamma 90.000000
_cell_volume 1056.267793
_symmetry_space_group_name_H-M "P 2/M"
_symmetry_group_IT_number 10
_symmetry_cell_setting 'monoclinic'
loop_
_space_group_symop_operation_xyz
x,y,z
-x,y,-z
-x,-y,-z
x,-y,z
loop_
_atom_site_type_symbol
_atom_site_label
_atom_site_fract_x
_atom_site_fract_y
_atom_site_fract_z
Si Si1 0.183059 0.751010 0.514850
Si Si2 0.138908 0.778588 0.975607
Si Si3 0.940089 0.000000 0.589471
Si Si4 0.557384 0.362181 0.751075
Si Si5 0.278323 0.000000 0.921733
Si Si6 0.841036 0.633328 0.707196
O O1 0.372088 0.719037 0.668473
O O2 0.182916 0.659459 0.422665
O O3 0.000000 0.740971 0.500000
O O4 0.176330 0.879124 0.459180
O O5 0.285949 0.686348 0.094760
O O6 0.000000 0.818780 0.000000
O O7 0.005169 0.715113 0.829798
O O8 0.238403 0.886328 0.970027
O O9 0.000000 0.000000 0.500000
O O10 0.123938 0.000000 0.753314
O O11 0.518484 0.500000 0.747393
O O12 0.652713 0.347487 0.684966
O O13 0.500000 0.000000 0.000000
O O14 0.895951 0.500000 0.750872
#
# Coordination Sequence:
#
# PCOD9151484 Si02
#       6
#     4   4   2   4   2   4
#     4  11  23  39  61  85 123 160 203 251 298 355
#     4  10  22  40  64  91 123 156 201 251 298 356
#     4  10  24  43  60  85 121 159 204 245 297 360
#     4  10  22  39  62  92 123 158 200 243 301 364
#     4  12  25  41  67  90 120 162 202 250 307 355
#     4  10  20  39  63  88 121 161 199 248 304 356
#
# _framework density 18.934591999999999
#
# number of rings (size 3 to 8) (size 9 to 14) (size 15 to 20)
#    0.000    1.600    2.000    2.100    5.600    5.600 
#    0.000    3.000    0.000    3.600    0.000    0.000 
#    0.000    0.000    0.000    0.000    0.000    0.000 
#
# Total GULP energy -111624.839944 kJ/mol
# GULP energy per Si atom -5581.241997 kJ/mol
# Density = 1.889150 g / cm^3
# Si number density = 18.934592 Si / 1000 Ang^3
#
#
#
# Elastic Constant Matrix: (Units=GPa)
#
#
# Indices 1 2 3 4 5 6 
#
# 1 62.7457 45.4883 21.3563 0.0000 22.1965 0.0000
# 2 45.4883 102.3116 9.8063 0.0000 20.5943 0.0000
# 3 21.3563 9.8063 71.3431 0.0000 11.8764 0.0000
# 4 0.0000 0.0000 0.0000 26.9999 0.0000 2.3892
# 5 22.1965 20.5943 11.8764 0.0000 32.5727 0.0000
# 6 0.0000 0.0000 0.0000 2.3892 0.0000 17.1847
#
#
#
# Elastic Compliance Matrix: (Units=1/GPa)
#
#
# Indices 1 2 3 4 5 6 
#
# 1 0.029220 -0.010154 -0.005435 0.000000 -0.011511 0.000000
# 2 -0.010154 0.014737 0.001504 0.000000 -0.002947 0.000000
# 3 -0.005435 0.001504 0.015947 0.000000 -0.003062 0.000000
# 4 0.000000 0.000000 0.000000 0.037499 0.000000 -0.005213
# 5 -0.011511 -0.002947 -0.003062 0.000000 0.041524 0.000000
# 6 0.000000 0.000000 0.000000 -0.005213 0.000000 0.058916
#
#
# Mechanical properties :
#
#
# Convention : Reuss Voigt Hill
#
# Bulk Modulus (GPa) = 31.51037 43.30025 37.40531
# Shear Modulus (GPa) = 21.13359 26.00142 23.56751
#
# Velocity S-wave (km/s) = 3.34449 3.70972 3.53183
# Velocity P-wave (km/s) = 5.62067 6.42397 6.03570
#
# Compressibility (1/GPa) = 0.03173559
#
# Stress axis : x y z
#
# Youngs Moduli (GPa) = 34.22298 67.85434 62.70893
#
# Poissons Ratio (x) = 0.68896 0.34083
# Poissons Ratio (y) = 0.34748 -0.09434
# Poissons Ratio (z) = 0.18601 -0.10208
#
# Static dielectric constant tensor:
#      x y z
#    x 1.660000 0.000000 0.006260 
#    y 0.000000 1.660220 0.000000 
#    z 0.006260 0.000000 1.644770 
# 
# From -- ./inp_files/17876.got.cif
#   From: 2010.05.17/outbox.cif.g08.bks.cpg/sg10_9_cif.got.tgz:17876.got - 2010.06.03 11:33:40.
