data_PCOD9151414
_publ_section_title
;
Structure prediction by ZEFSAII (Michael W. Deem and Ramdas Pophale) SiO2 
 PCOD9151414
Probable space group: P 2/M
;
_chemical_formula_sum "Si O2"
_cell_formula_units_Z 24
_cell_length_a 14.893101
_cell_length_b 12.108700
_cell_length_c 20.514175
_cell_angle_alpha 90.000000
_cell_angle_beta 18.536922
_cell_angle_gamma 90.000000
_cell_volume 1176.112014
_symmetry_space_group_name_H-M "P 2/M"
_symmetry_group_IT_number 10
_symmetry_cell_setting 'monoclinic'
loop_
_space_group_symop_operation_xyz
x,y,z
-x,y,-z
-x,-y,-z
x,-y,z
loop_
_atom_site_type_symbol
_atom_site_label
_atom_site_fract_x
_atom_site_fract_y
_atom_site_fract_z
Si Si1 0.811582 0.870859 0.395737
Si Si2 0.191280 0.500000 0.054241
Si Si3 0.683052 0.706771 0.937456
Si Si4 0.671035 0.879264 0.165026
Si Si5 0.668697 0.123934 0.735025
Si Si6 0.500000 0.748803 0.500000
Si Si7 0.021976 0.338539 0.911089
O O1 0.533530 0.865483 0.632276
O O2 0.720321 0.824326 0.387945
O O3 0.049236 0.787890 0.259683
O O4 0.900905 0.000000 0.331423
O O5 0.223488 0.598685 0.087289
O O6 0.149037 0.405746 0.025146
O O7 0.500000 0.677512 0.000000
O O8 0.479377 0.782855 0.121371
O O9 0.470543 0.875495 0.240128
O O10 0.806536 0.000000 0.073445
O O11 0.894885 0.783606 0.004061
O O12 0.000000 0.143457 0.500000
O O13 0.628846 0.000000 0.790593
O O14 0.663999 0.672749 0.334923
O O15 0.000000 0.382071 0.000000
#
# Coordination Sequence:
#
# PCOD9151414 Si02
#       7
#     4   2   4   4   4   2   4
#     4  11  23  41  70 108 143 179 224 282 359 431
#     4  12  26  49  69  93 132 186 243 292 337 402
#     4  12  25  44  69  97 139 182 236 290 342 407
#     4  10  21  40  67 101 140 175 218 280 351 422
#     4  10  20  38  67  98 134 174 218 278 349 417
#     4  12  23  43  70 104 142 185 223 282 356 420
#     4  12  25  46  73  99 136 184 231 292 347 412
#
# _framework density 20.406217999999999
#
# number of rings (size 3 to 8) (size 9 to 14) (size 15 to 20)
#    0.000    0.833    5.000    2.250    0.000    6.000 
#    0.000    1.250    0.000    0.000    0.000    0.000 
#    0.000    0.000    0.000    0.000    0.000    0.000 
#
# Total GULP energy -133609.923065 kJ/mol
# GULP energy per Si atom -5567.080128 kJ/mol
# Density = 2.035977 g / cm^3
# Si number density = 20.406218 Si / 1000 Ang^3
#
#
#
# Elastic Constant Matrix: (Units=GPa)
#
#
# Indices 1 2 3 4 5 6 
#
# 1 125.2654 30.0838 11.0531 0.0000 3.8832 0.0000
# 2 30.0838 143.2099 42.1648 0.0000 14.1761 0.0000
# 3 11.0531 42.1648 70.3879 0.0000 9.6341 0.0000
# 4 0.0000 0.0000 0.0000 -10.2112 0.0000 2.8424
# 5 3.8832 14.1761 9.6341 0.0000 30.5178 0.0000
# 6 0.0000 0.0000 0.0000 2.8424 0.0000 26.6038
#
#
#
# Elastic Compliance Matrix: (Units=1/GPa)
#
#
# Indices 1 2 3 4 5 6 
#
# 1 0.008414 -0.001659 -0.000299 0.000000 -0.000205 0.000000
# 2 -0.001659 0.008983 -0.004785 0.000000 -0.002451 0.000000
# 3 -0.000299 -0.004785 0.017570 0.000000 -0.003286 0.000000
# 4 0.000000 0.000000 0.000000 -0.095104 0.000000 0.010161
# 5 -0.000205 -0.002451 -0.003286 0.000000 0.034970 0.000000
# 6 0.000000 0.000000 0.000000 0.010161 0.000000 0.036503
#
#
# Mechanical properties :
#
#
# Convention : Reuss Voigt Hill
#
# Bulk Modulus (GPa) = 46.55424 56.16296 51.35860
# Shear Modulus (GPa) = 156.33254 26.41952 91.37603
#
# Velocity S-wave (km/s) = 8.76222 3.60207 6.69894
# Velocity P-wave (km/s) = 11.19071 6.69941 9.22264
#
# Compressibility (1/GPa) = 0.02148032
#
# Stress axis : x y z
#
# Youngs Moduli (GPa) = 118.84557 111.32488 56.91492
#
# Poissons Ratio (x) = 0.18470 0.01704
# Poissons Ratio (y) = 0.19718 0.27234
# Poissons Ratio (z) = 0.03557 0.53268
#
# Static dielectric constant tensor:
#      x y z
#    x 1.745620 0.000000 -0.003610 
#    y 0.000000 1.721200 0.000000 
#    z -0.003610 0.000000 1.734720 
# 
# From -- ./inp_files/85176.got.cif
#   From: 2010.05.17/outbox.cif.g08.bks.cpg/sg10_43_cif.got.tgz:85176.got - 2010.06.03 11:33:40.
