data_PCOD9151994
_publ_section_title
;
Structure prediction by ZEFSAII (Michael W. Deem and Ramdas Pophale) SiO2 
 PCOD9151994
Probable space group: P 2/M
;
_chemical_formula_sum "Si O2"
_cell_formula_units_Z 32
_cell_length_a 5.395377
_cell_length_b 14.863787
_cell_length_c 19.182351
_cell_angle_alpha 90.000000
_cell_angle_beta 92.827986
_cell_angle_gamma 90.000000
_cell_volume 1536.469269
_symmetry_space_group_name_H-M "P 2/M"
_symmetry_group_IT_number 10
_symmetry_cell_setting 'monoclinic'
loop_
_space_group_symop_operation_xyz
x,y,z
-x,y,-z
-x,-y,-z
x,-y,z
loop_
_atom_site_type_symbol
_atom_site_label
_atom_site_fract_x
_atom_site_fract_y
_atom_site_fract_z
Si Si1 0.293729 0.259289 0.832721
Si Si2 0.756142 0.897681 0.527272
Si Si3 0.558381 0.102795 0.920287
Si Si4 0.229869 0.728437 0.678135
Si Si5 0.069479 0.903477 0.183897
Si Si6 0.741505 0.392089 0.457151
Si Si7 0.717690 0.160726 0.676967
Si Si8 0.759629 0.607182 0.043055
O O1 0.479903 0.190677 0.874789
O O2 0.328924 0.301450 0.756565
O O3 0.230503 0.336244 0.886387
O O4 0.085826 0.185700 0.814323
O O5 0.500000 0.853770 0.500000
O O6 0.771382 0.898899 0.610301
O O7 0.000000 0.851844 0.500000
O O8 0.751439 0.000000 0.498531
O O9 0.835320 0.093611 0.894319
O O10 0.456668 0.000000 0.905340
O O11 0.500000 0.120265 0.000000
O O12 0.253134 0.655652 0.617718
O O13 0.438203 0.803516 0.664208
O O14 0.945208 0.765931 0.677127
O O15 0.268941 0.889623 0.248515
O O16 0.950077 0.000000 0.198451
O O17 0.500000 0.366366 0.500000
O O18 0.730045 0.500000 0.447645
O O19 0.000000 0.371354 0.500000
O O20 0.766373 0.500000 0.056276
O O21 0.500000 0.626700 0.000000
O O22 0.000000 0.630378 0.000000
#
# Coordination Sequence:
#
# PCOD9151994 Si02
#       8
#     4   4   4   4   4   4   4   4
#     4  11  23  38  62  91 130 165 214 266 325 377
#     4  10  21  36  54  79 109 148 200 246 293 351
#     4  10  21  37  59  89 125 167 219 267 319 383
#     4  11  24  38  61  91 123 154 208 245 309 373
#     4  10  22  39  58  87 127 171 218 265 322 385
#     4  10  22  42  66  92 124 162 203 256 323 389
#     4  11  22  39  57  85 120 164 198 256 305 368
#     4  10  24  44  68  96 126 166 212 258 319 389
#
# _framework density 20.826969999999999
#
# number of rings (size 3 to 8) (size 9 to 14) (size 15 to 20)
#    0.000    1.625    1.250    2.625    3.500    3.500 
#    0.000    3.125    0.000    5.250    0.000    0.000 
#    0.000    0.000    0.000    0.000    0.000    0.000 
#
# Total GULP energy -178177.140419 kJ/mol
# GULP energy per Si atom -5568.035638 kJ/mol
# Density = 2.077957 g / cm^3
# Si number density = 20.826970 Si / 1000 Ang^3
#
#
#
# Elastic Constant Matrix: (Units=GPa)
#
#
# Indices 1 2 3 4 5 6 
#
# 1 83.4731 14.3269 14.3683 0.0000 -6.2813 0.0000
# 2 14.3269 68.0534 48.7439 0.0000 -1.6262 0.0000
# 3 14.3683 48.7439 121.3628 0.0000 -19.1530 0.0000
# 4 0.0000 0.0000 0.0000 15.3725 0.0000 2.1148
# 5 -6.2813 -1.6262 -19.1530 0.0000 27.0136 0.0000
# 6 0.0000 0.0000 0.0000 2.1148 0.0000 6.7012
#
#
#
# Elastic Compliance Matrix: (Units=1/GPa)
#
#
# Indices 1 2 3 4 5 6 
#
# 1 0.012634 -0.002576 -0.000025 0.000000 0.002765 0.000000
# 2 -0.002576 0.021828 -0.009401 0.000000 -0.005950 0.000000
# 3 -0.000025 -0.009401 0.013431 0.000000 0.008951 0.000000
# 4 0.000000 0.000000 0.000000 0.068004 0.000000 -0.021461
# 5 0.002765 -0.005950 0.008951 0.000000 0.043650 0.000000
# 6 0.000000 0.000000 0.000000 -0.021461 0.000000 0.156000
#
#
# Mechanical properties :
#
#
# Convention : Reuss Voigt Hill
#
# Bulk Modulus (GPa) = 41.85877 47.52972 44.69424
# Shear Modulus (GPa) = 14.38792 22.84747 18.61770
#
# Velocity S-wave (km/s) = 2.63122 3.31571 2.99310
# Velocity P-wave (km/s) = 5.41969 6.12612 5.78370
#
# Compressibility (1/GPa) = 0.02388985
#
# Stress axis : x y z
#
# Youngs Moduli (GPa) = 79.14915 45.81262 74.45387
#
# Poissons Ratio (x) = 0.11801 0.00185
# Poissons Ratio (y) = 0.20389 0.69994
# Poissons Ratio (z) = 0.00196 0.43069
#
# Static dielectric constant tensor:
#      x y z
#    x 1.849210 0.000000 0.016550 
#    y 0.000000 1.730670 0.000000 
#    z 0.016550 0.000000 1.782300 
# 
# From -- ./inp_files/73542.got.cif
#   From: 2010.05.17/outbox.cif.g08.bks.cpg/sg10_37_cif.got.tgz:73542.got - 2010.06.03 11:33:40.
