data_PCOD9151699
_publ_section_title
;
Structure prediction by ZEFSAII (Michael W. Deem and Ramdas Pophale) SiO2 
 PCOD9151699
Probable space group: P 2/M
;
_chemical_formula_sum "Si O2"
_cell_formula_units_Z 28
_cell_length_a 13.834183
_cell_length_b 7.507998
_cell_length_c 17.346489
_cell_angle_alpha 90.000000
_cell_angle_beta 137.985469
_cell_angle_gamma 90.000000
_cell_volume 1205.930946
_symmetry_space_group_name_H-M "P 2/M"
_symmetry_group_IT_number 10
_symmetry_cell_setting 'monoclinic'
loop_
_space_group_symop_operation_xyz
x,y,z
-x,y,-z
-x,-y,-z
x,-y,z
loop_
_atom_site_type_symbol
_atom_site_label
_atom_site_fract_x
_atom_site_fract_y
_atom_site_fract_z
Si Si1 0.585506 0.218477 0.475007
Si Si2 0.837434 0.706174 0.395934
Si Si3 0.346479 0.796053 0.037725
Si Si4 0.541899 0.204244 0.284892
Si Si5 0.196602 0.783482 0.799649
Si Si6 0.098397 0.214913 0.294000
Si Si7 0.052547 0.291517 0.948226
O O1 0.500000 0.272441 0.500000
O O2 0.517328 0.282783 0.354604
O O3 0.750735 0.276294 0.582453
O O4 0.584918 0.000000 0.471912
O O5 0.842753 0.500000 0.422623
O O6 0.713313 0.796258 0.372344
O O7 0.788105 0.720640 0.278043
O O8 0.000000 0.780055 0.500000
O O9 0.462251 0.712063 0.164215
O O10 0.393415 0.000000 0.050542
O O11 0.309714 0.720176 0.931678
O O12 0.194876 0.795617 0.994939
O O13 0.489247 0.000000 0.256443
O O14 0.038983 0.727129 0.737257
O O15 0.200906 0.000000 0.801541
O O16 0.070490 0.272003 0.189566
O O17 0.098425 0.000000 0.294199
O O18 0.087750 0.500000 0.978579
O O19 0.000000 0.222244 0.000000
#
# Coordination Sequence:
#
# PCOD9151699 Si02
#       7
#     4   4   4   4   4   4   4
#     4   9  18  32  54  85 113 140 181 231 280 331
#     4  11  24  39  57  83 113 149 191 230 275 333
#     4   9  20  37  58  85 112 144 186 230 280 334
#     4  10  21  38  60  85 114 147 183 231 286 332
#     4   9  18  35  57  83 112 143 185 232 280 332
#     4   9  18  33  55  81 108 141 183 231 278 326
#     4  10  21  34  51  77 110 149 189 229 274 327
#
# _framework density 23.218575999999999
#
# number of rings (size 3 to 8) (size 9 to 14) (size 15 to 20)
#    0.000    2.429    0.000    2.571    2.000    6.857 
#    0.000    3.571    0.000    0.857    0.000    0.000 
#    0.000    0.000    0.000    0.000    0.000    0.000 
#
# Total GULP energy -156431.147557 kJ/mol
# GULP energy per Si atom -5586.826698 kJ/mol
# Density = 2.316573 g / cm^3
# Si number density = 23.218576 Si / 1000 Ang^3
#
#
#
# Elastic Constant Matrix: (Units=GPa)
#
#
# Indices 1 2 3 4 5 6 
#
# 1 70.8041 -9.3493 37.6976 0.0000 -28.6047 0.0000
# 2 -9.3493 66.5016 -2.9409 0.0000 1.6084 0.0000
# 3 37.6976 -2.9409 136.1700 0.0000 -9.9906 0.0000
# 4 0.0000 0.0000 0.0000 18.2411 0.0000 7.4295
# 5 -28.6047 1.6084 -9.9906 0.0000 34.2607 0.0000
# 6 0.0000 0.0000 0.0000 7.4295 0.0000 -309.5329
#
#
#
# Elastic Compliance Matrix: (Units=1/GPa)
#
#
# Indices 1 2 3 4 5 6 
#
# 1 0.025243 0.002838 -0.005508 0.000000 0.019336 0.000000
# 2 0.002838 0.015384 -0.000340 0.000000 0.001548 0.000000
# 3 -0.005508 -0.000340 0.008711 0.000000 -0.002043 0.000000
# 4 0.000000 0.000000 0.000000 0.054291 0.000000 0.001303
# 5 0.019336 0.001548 -0.002043 0.000000 0.044663 0.000000
# 6 0.000000 0.000000 0.000000 0.001303 0.000000 -0.003199
#
#
# Mechanical properties :
#
#
# Convention : Reuss Voigt Hill
#
# Bulk Modulus (GPa) = 23.08578 36.03228 29.55903
# Shear Modulus (GPa) = 30.20198 -34.86834 -2.33318
#
# Velocity S-wave (km/s) = 3.61053 -3.87944 -1.00352
# Velocity P-wave (km/s) = 5.22930 2.12469 3.37871
#
# Compressibility (1/GPa) = 0.04331671
#
# Stress axis : x y z
#
# Youngs Moduli (GPa) = 39.61573 65.00389 114.79105
#
# Poissons Ratio (x) = -0.18445 0.63230
# Poissons Ratio (y) = -0.11241 0.03900
# Poissons Ratio (z) = 0.21821 0.02208
#
# Static dielectric constant tensor:
#      x y z
#    x 1.841530 0.000000 -0.009970 
#    y 0.000000 1.864750 0.000000 
#    z -0.009970 0.000000 1.885150 
# 
# From -- ./inp_files/77783.got.cif
#   From: 2010.05.17/outbox.cif.g08.bks.cpg/sg10_39_cif.got.tgz:77783.got - 2010.06.03 11:33:40.
