data_PCOD9151277
_publ_section_title
;
Structure prediction by ZEFSAII (Michael W. Deem and Ramdas Pophale) SiO2 
 PCOD9151277
Probable space group: P 2/M
;
_chemical_formula_sum "Si O2"
_cell_formula_units_Z 22
_cell_length_a 5.197077
_cell_length_b 27.643748
_cell_length_c 8.741356
_cell_angle_alpha 90.000000
_cell_angle_beta 61.573102
_cell_angle_gamma 90.000000
_cell_volume 1104.418787
_symmetry_space_group_name_H-M "P 2/M"
_symmetry_group_IT_number 10
_symmetry_cell_setting 'monoclinic'
loop_
_space_group_symop_operation_xyz
x,y,z
-x,y,-z
-x,-y,-z
x,-y,z
loop_
_atom_site_type_symbol
_atom_site_label
_atom_site_fract_x
_atom_site_fract_y
_atom_site_fract_z
Si Si1 0.845911 0.652221 0.708023
Si Si2 0.652369 0.000000 0.622751
Si Si3 0.847810 0.446525 0.879155
Si Si4 0.349079 0.105847 0.376572
Si Si5 0.341370 0.293660 0.710870
Si Si6 0.657326 0.192954 0.115278
O O1 0.899196 0.598532 0.754600
O O2 0.514609 0.668768 0.770939
O O3 0.000000 0.656084 0.500000
O O4 0.012293 0.688752 0.774292
O O5 0.500000 0.000000 0.500000
O O6 0.584755 0.052448 0.712748
O O7 0.000000 0.000000 0.500000
O O8 0.942756 0.500000 0.795568
O O9 0.500000 0.448000 0.000000
O O10 0.000000 0.438873 0.000000
O O11 0.500000 0.107653 0.500000
O O12 0.482501 0.148699 0.239938
O O13 0.000000 0.111001 0.500000
O O14 0.500000 0.293561 0.500000
O O15 0.357895 0.240630 0.775972
O O16 0.500000 0.203827 0.000000
O O17 0.000000 0.180477 0.000000
#
# Coordination Sequence:
#
# PCOD9151277 Si02
#       6
#     4   2   4   4   4   4
#     4  10  21  37  58  82 106 138 184 231 273 321
#     4   8  16  32  58  86 106 140 196 236 266 328
#     4  10  21  36  55  80 110 143 177 215 268 332
#     4  10  20  38  62  84 112 152 193 233 279 334
#     4  10  22  39  57  78 108 147 187 226 275 333
#     4  12  25  38  55  86 119 148 188 235 285 337
#
# _framework density 19.919982000000001
#
# number of rings (size 3 to 8) (size 9 to 14) (size 15 to 20)
#    0.000    1.818    0.000    3.818    0.000    6.909 
#    0.000    0.909    0.000    6.545    0.000    0.000 
#    0.000    0.000    0.000    0.000    0.000    0.000 
#
# Total GULP energy -122845.509881 kJ/mol
# GULP energy per Si atom -5583.886813 kJ/mol
# Density = 1.987464 g / cm^3
# Si number density = 19.919982 Si / 1000 Ang^3
#
#
#
# Elastic Constant Matrix: (Units=GPa)
#
#
# Indices 1 2 3 4 5 6 
#
# 1 157.2034 41.1248 39.2543 0.0000 17.7404 0.0000
# 2 41.1248 174.6422 42.6435 0.0000 20.1462 0.0000
# 3 39.2543 42.6435 29.6405 0.0000 11.7154 0.0000
# 4 0.0000 0.0000 0.0000 435.5560 0.0000 -4.3466
# 5 17.7404 20.1462 11.7154 0.0000 23.7735 0.0000
# 6 0.0000 0.0000 0.0000 -4.3466 0.0000 31.9932
#
#
#
# Elastic Compliance Matrix: (Units=1/GPa)
#
#
# Indices 1 2 3 4 5 6 
#
# 1 0.009731 0.001358 -0.014302 0.000000 -0.001365 0.000000
# 2 0.001358 0.009061 -0.014156 0.000000 -0.001716 0.000000
# 3 -0.014302 -0.014156 0.079586 0.000000 -0.016551 0.000000
# 4 0.000000 0.000000 0.000000 0.002299 0.000000 0.000312
# 5 -0.001365 -0.001716 -0.016551 0.000000 0.052692 0.000000
# 6 0.000000 0.000000 0.000000 0.000312 0.000000 0.031299
#
#
# Mechanical properties :
#
#
# Convention : Reuss Voigt Hill
#
# Bulk Modulus (GPa) = 22.63556 67.50348 45.06952
# Shear Modulus (GPa) = 19.71657 114.16212 66.93934
#
# Velocity S-wave (km/s) = 3.14950 7.57857 5.80319
# Velocity P-wave (km/s) = 4.96122 10.51383 8.22053
#
# Compressibility (1/GPa) = 0.04417828
#
# Stress axis : x y z
#
# Youngs Moduli (GPa) = 102.76281 110.36715 12.56501
#
# Poissons Ratio (x) = -0.14989 0.17970
# Poissons Ratio (y) = -0.13957 0.17787
# Poissons Ratio (z) = 1.46971 1.56236
#
# Static dielectric constant tensor:
#      x y z
#    x 1.696220 0.000000 0.002510 
#    y 0.000000 1.726080 0.000000 
#    z 0.002510 0.000000 1.685010 
# 
# From -- ./inp_files/15543.got.cif
#   From: 2010.05.17/outbox.cif.g08.bks.cpg/sg10_8_cif.got.tgz:15543.got - 2010.06.03 11:33:40.
