data_PCOD9151291
_publ_section_title
;
Structure prediction by ZEFSAII (Michael W. Deem and Ramdas Pophale) SiO2 
 PCOD9151291
Probable space group: P 2/M
;
_chemical_formula_sum "Si O2"
_cell_formula_units_Z 32
_cell_length_a 16.057753
_cell_length_b 8.416377
_cell_length_c 24.557466
_cell_angle_alpha 90.000000
_cell_angle_beta 152.480306
_cell_angle_gamma 90.000000
_cell_volume 1533.506939
_symmetry_space_group_name_H-M "P 2/M"
_symmetry_group_IT_number 10
_symmetry_cell_setting 'monoclinic'
loop_
_space_group_symop_operation_xyz
x,y,z
-x,y,-z
-x,-y,-z
x,-y,z
loop_
_atom_site_type_symbol
_atom_site_label
_atom_site_fract_x
_atom_site_fract_y
_atom_site_fract_z
Si Si1 0.069287 0.308648 0.312855
Si Si2 0.213575 0.189666 0.508549
Si Si3 0.321248 0.693871 0.364254
Si Si4 0.685814 0.691937 0.136992
Si Si5 0.821749 0.187082 0.327742
Si Si6 0.566259 0.683867 0.268874
Si Si7 0.817629 0.313267 0.829827
Si Si8 0.807006 0.182728 0.944485
O O1 0.077607 0.500000 0.319452
O O2 0.189111 0.245731 0.432543
O O3 0.152821 0.256805 0.304121
O O4 0.862854 0.262370 0.204756
O O5 0.372746 0.267576 0.635149
O O6 0.025096 0.233740 0.429378
O O7 0.231392 0.000000 0.520829
O O8 0.500000 0.744615 0.500000
O O9 0.323560 0.500000 0.363560
O O10 0.298088 0.745522 0.288545
O O11 0.691025 0.500000 0.147966
O O12 0.706873 0.775309 0.207241
O O13 0.500000 0.732273 0.000000
O O14 0.732635 0.278234 0.325842
O O15 0.821791 0.000000 0.340439
O O16 0.520602 0.500000 0.241046
O O17 0.390546 0.779142 0.147779
O O18 0.783065 0.500000 0.819524
O O19 0.792136 0.220494 0.871268
O O20 0.029629 0.289574 0.938823
O O21 0.854313 0.000000 0.980237
#
# Coordination Sequence:
#
# PCOD9151291 Si02
#       8
#     4   4   4   4   4   4   4   4
#     4   9  18  34  55  80 110 149 192 233 284 340
#     4  10  21  37  56  81 117 153 185 229 285 345
#     4   9  19  34  56  87 119 151 193 244 289 337
#     4   9  18  33  54  80 111 149 194 239 280 332
#     4  10  21  37  55  80 116 152 186 230 287 345
#     4  12  24  37  58  85 111 145 193 240 285 343
#     4  10  20  38  62  87 118 154 198 241 289 348
#     4  11  23  40  60  84 117 154 194 241 300 352
#
# _framework density 20.867204000000001
#
# number of rings (size 3 to 8) (size 9 to 14) (size 15 to 20)
#    0.000    2.000    0.000    4.500    1.750    4.250 
#    0.000    3.750    0.000    1.875    0.000    0.000 
#    0.000    0.000    0.000    0.000    0.000    0.000 
#
# Total GULP energy -178811.488284 kJ/mol
# GULP energy per Si atom -5587.859009 kJ/mol
# Density = 2.081971 g / cm^3
# Si number density = 20.867204 Si / 1000 Ang^3
#
#
#
# Elastic Constant Matrix: (Units=GPa)
#
#
# Indices 1 2 3 4 5 6 
#
# 1 46.0088 1.1386 0.2951 0.0000 -8.2666 0.0000
# 2 1.1386 25.1611 -3.1734 0.0000 1.6993 0.0000
# 3 0.2951 -3.1734 78.5078 0.0000 -13.0586 0.0000
# 4 0.0000 0.0000 0.0000 249.3811 0.0000 -61.3476
# 5 -8.2666 1.6993 -13.0586 0.0000 17.7891 0.0000
# 6 0.0000 0.0000 0.0000 -61.3476 0.0000 37.9590
#
#
#
# Elastic Compliance Matrix: (Units=1/GPa)
#
#
# Indices 1 2 3 4 5 6 
#
# 1 0.024062 -0.001704 0.001968 0.000000 0.012789 0.000000
# 2 -0.001704 0.040209 0.000981 0.000000 -0.003913 0.000000
# 3 0.001968 0.000981 0.014701 0.000000 0.011613 0.000000
# 4 0.000000 0.000000 0.000000 0.006656 0.000000 0.010758
# 5 0.012789 -0.003913 0.011613 0.000000 0.071056 0.000000
# 6 0.000000 0.000000 0.000000 0.010758 0.000000 0.043730
#
#
# Mechanical properties :
#
#
# Convention : Reuss Voigt Hill
#
# Bulk Modulus (GPa) = 12.27571 16.24424 14.25998
# Shear Modulus (GPa) = 22.21430 71.12033 46.66732
#
# Velocity S-wave (km/s) = 3.26629 5.84434 4.73418
# Velocity P-wave (km/s) = 4.48558 7.30365 6.06068
#
# Compressibility (1/GPa) = 0.08146169
#
# Stress axis : x y z
#
# Youngs Moduli (GPa) = 41.55858 24.87003 68.02045
#
# Poissons Ratio (x) = 0.04239 -0.13386
# Poissons Ratio (y) = 0.07083 -0.06672
# Poissons Ratio (z) = -0.08179 -0.02439
#
# Static dielectric constant tensor:
#      x y z
#    x 1.763040 0.000000 0.023490 
#    y 0.000000 1.704850 0.000000 
#    z 0.023490 0.000000 1.745710 
# 
# From -- ./inp_files/89649.got.cif
#   From: 2010.05.17/outbox.cif.g08.bks.cpg/sg10_45_cif.got.tgz:89649.got - 2010.06.03 11:33:40.
