data_PCOD9151233
_publ_section_title
;
Structure prediction by ZEFSAII (Michael W. Deem and Ramdas Pophale) SiO2 
 PCOD9151233
Probable space group: P 2/M
;
_chemical_formula_sum "Si O2"
_cell_formula_units_Z 24
_cell_length_a 14.139772
_cell_length_b 7.561223
_cell_length_c 17.310824
_cell_angle_alpha 90.000000
_cell_angle_beta 143.713375
_cell_angle_gamma 90.000000
_cell_volume 1095.331360
_symmetry_space_group_name_H-M "P 2/M"
_symmetry_group_IT_number 10
_symmetry_cell_setting 'monoclinic'
loop_
_space_group_symop_operation_xyz
x,y,z
-x,y,-z
-x,-y,-z
x,-y,z
loop_
_atom_site_type_symbol
_atom_site_label
_atom_site_fract_x
_atom_site_fract_y
_atom_site_fract_z
Si Si1 0.870167 0.297157 0.796449
Si Si2 0.762700 0.206257 0.557396
Si Si3 0.980407 0.216752 0.399071
Si Si4 0.676623 0.791991 0.105862
Si Si5 0.594702 0.285511 0.727880
Si Si6 0.224847 0.714409 0.003091
O O1 0.890283 0.500000 0.836037
O O2 0.803613 0.295666 0.665503
O O3 0.735219 0.220176 0.763452
O O4 0.048595 0.220541 0.911962
O O5 0.875836 0.272251 0.562768
O O6 0.578493 0.223856 0.412895
O O7 0.800508 0.000000 0.594272
O O8 0.000000 0.274491 0.500000
O O9 0.814760 0.279481 0.252351
O O10 0.981244 0.000000 0.399960
O O11 0.732809 0.774897 0.054679
O O12 0.665643 0.000000 0.117670
O O13 0.500000 0.714566 0.000000
O O14 0.590775 0.500000 0.721819
O O15 0.644929 0.233086 0.847419
O O16 0.219266 0.500000 0.997450
#
# Coordination Sequence:
#
# PCOD9151233 Si02
#       6
#     4   4   4   4   4   4
#     4  10  20  38  61  81 110 153 193 229 279 338
#     4  11  22  36  58  86 116 147 186 235 283 331
#     4   9  19  36  56  80 110 145 183 225 274 333
#     4  10  21  37  60  85 111 146 187 228 280 342
#     4  10  22  38  57  83 114 152 193 229 273 337
#     4  10  21  38  60  84 114 148 189 237 281 326
#
# _framework density 21.911176999999999
#
# number of rings (size 3 to 8) (size 9 to 14) (size 15 to 20)
#    0.000    2.000    1.667    1.500    2.333    5.667 
#    0.000    0.000    0.000    5.500    0.000    0.000 
#    0.000    0.000    0.000    0.000    0.000    0.000 
#
# Total GULP energy -134144.192473 kJ/mol
# GULP energy per Si atom -5589.341353 kJ/mol
# Density = 2.186131 g / cm^3
# Si number density = 21.911177 Si / 1000 Ang^3
#
#
#
# Elastic Constant Matrix: (Units=GPa)
#
#
# Indices 1 2 3 4 5 6 
#
# 1 93.3120 -5.5889 21.8996 0.0000 3.9171 0.0000
# 2 -5.5889 51.4007 -5.8762 0.0000 3.2923 0.0000
# 3 21.8996 -5.8762 85.3729 0.0000 5.4861 0.0000
# 4 0.0000 0.0000 0.0000 7.5841 0.0000 0.0210
# 5 3.9171 3.2923 5.4861 0.0000 45.6515 0.0000
# 6 0.0000 0.0000 0.0000 0.0210 0.0000 18.8535
#
#
#
# Elastic Compliance Matrix: (Units=1/GPa)
#
#
# Indices 1 2 3 4 5 6 
#
# 1 0.011469 0.000969 -0.002829 0.000000 -0.000714 0.000000
# 2 0.000969 0.019806 0.001221 0.000000 -0.001658 0.000000
# 3 -0.002829 0.001221 0.012611 0.000000 -0.001361 0.000000
# 4 0.000000 0.000000 0.000000 0.131855 0.000000 -0.000147
# 5 -0.000714 -0.001658 -0.001361 0.000000 0.022249 0.000000
# 6 0.000000 0.000000 0.000000 -0.000147 0.000000 0.053041
#
#
# Mechanical properties :
#
#
# Convention : Reuss Voigt Hill
#
# Bulk Modulus (GPa) = 23.46986 27.88385 25.67686
# Shear Modulus (GPa) = 18.76097 29.06123 23.91110
#
# Velocity S-wave (km/s) = 2.92931 3.64582 3.30703
# Velocity P-wave (km/s) = 4.70912 5.52052 5.13088
#
# Compressibility (1/GPa) = 0.04260783
#
# Stress axis : x y z
#
# Youngs Moduli (GPa) = 87.19314 50.48927 79.29846
#
# Poissons Ratio (x) = -0.04894 0.22436
# Poissons Ratio (y) = -0.08452 -0.09684
# Poissons Ratio (z) = 0.24670 -0.06166
#
# Static dielectric constant tensor:
#      x y z
#    x 1.759800 0.000000 0.019360 
#    y 0.000000 1.867420 0.000000 
#    z 0.019360 0.000000 1.759070 
# 
# From -- ./inp_files/42000.got.cif
#   From: 2010.05.17/outbox.cif.g08.bks.cpg/sg10_21_cif.got.tgz:42000.got - 2010.06.03 11:33:40.
