data_PCOD9151729
_publ_section_title
;
Structure prediction by ZEFSAII (Michael W. Deem and Ramdas Pophale) SiO2 
 PCOD9151729
Probable space group: P 2/M
;
_chemical_formula_sum "Si O2"
_cell_formula_units_Z 32
_cell_length_a 21.732848
_cell_length_b 15.798140
_cell_length_c 8.432632
_cell_angle_alpha 90.000000
_cell_angle_beta 33.430668
_cell_angle_gamma 90.000000
_cell_volume 1595.071721
_symmetry_space_group_name_H-M "P 2/M"
_symmetry_group_IT_number 10
_symmetry_cell_setting 'monoclinic'
loop_
_space_group_symop_operation_xyz
x,y,z
-x,y,-z
-x,-y,-z
x,-y,z
loop_
_atom_site_type_symbol
_atom_site_label
_atom_site_fract_x
_atom_site_fract_y
_atom_site_fract_z
Si Si1 0.892275 0.904950 0.116761
Si Si2 0.267781 0.097668 0.266597
Si Si3 0.485015 0.595291 0.221399
Si Si4 0.872280 0.599160 0.332511
Si Si5 0.949960 0.853869 0.459639
Si Si6 0.404200 0.250148 0.829482
Si Si7 0.220273 0.598660 0.798108
Si Si8 0.828949 0.318626 0.771912
O O1 0.784147 0.881234 0.449106
O O2 0.875437 0.000000 0.088004
O O3 0.000000 0.911093 0.000000
O O4 0.941171 0.841835 0.884131
O O5 0.156166 0.103035 0.396579
O O6 0.306920 0.000000 0.181153
O O7 0.356369 0.168022 0.024160
O O8 0.521849 0.500000 0.195205
O O9 0.549643 0.673039 0.161898
O O10 0.353190 0.603020 0.538906
O O11 0.500000 0.598211 0.000000
O O12 0.843658 0.500000 0.410802
O O13 0.804975 0.635243 0.324175
O O14 0.853337 0.637848 0.547982
O O15 0.000000 0.607266 0.000000
O O16 0.902799 0.764640 0.613370
O O17 0.000000 0.902964 0.500000
O O18 0.500000 0.225156 0.500000
O O19 0.298984 0.288526 0.963374
O O20 0.187719 0.500000 0.856888
O O21 0.159014 0.633549 0.086635
#
# Coordination Sequence:
#
# PCOD9151729 Si02
#       8
#     4   4   4   4   4   4   4   4
#     4   8  15  33  57  80 110 149 194 240 294 359
#     4   9  20  39  62  88 120 163 207 252 312 380
#     4  10  21  39  64  90 116 157 214 272 323 368
#     4  10  23  40  60  86 117 163 212 251 311 382
#     4  10  21  34  54  89 121 154 199 249 305 371
#     4  11  22  39  59  89 125 161 205 261 322 377
#     4  10  21  39  61  85 117 161 214 265 310 373
#     4  11  23  38  56  86 127 161 203 261 317 373
#
# _framework density 20.061793999999999
#
# number of rings (size 3 to 8) (size 9 to 14) (size 15 to 20)
#    0.000    2.125    1.250    2.250    1.750    6.000 
#    2.250    1.875    0.000    0.375    0.000    0.000 
#    0.000    0.000    0.000    0.000    0.000    0.000 
#
# Total GULP energy -178332.557615 kJ/mol
# GULP energy per Si atom -5572.892425 kJ/mol
# Density = 2.001613 g / cm^3
# Si number density = 20.061794 Si / 1000 Ang^3
#
#
#
# Elastic Constant Matrix: (Units=GPa)
#
#
# Indices 1 2 3 4 5 6 
#
# 1 68.5804 34.6289 30.4003 0.0000 7.6957 0.0000
# 2 34.6289 94.2458 55.9538 0.0000 6.9084 0.0000
# 3 30.4003 55.9538 118.8226 0.0000 22.6223 0.0000
# 4 0.0000 0.0000 0.0000 9.3861 0.0000 6.3499
# 5 7.6957 6.9084 22.6223 0.0000 27.9784 0.0000
# 6 0.0000 0.0000 0.0000 6.3499 0.0000 10.6567
#
#
#
# Elastic Compliance Matrix: (Units=1/GPa)
#
#
# Indices 1 2 3 4 5 6 
#
# 1 0.018405 -0.005637 -0.001602 0.000000 -0.002375 0.000000
# 2 -0.005637 0.016584 -0.006953 0.000000 0.003078 0.000000
# 3 -0.001602 -0.006953 0.013816 0.000000 -0.009014 0.000000
# 4 0.000000 0.000000 0.000000 0.178493 0.000000 -0.106357
# 5 -0.002375 0.003078 -0.009014 0.000000 0.042923 0.000000
# 6 0.000000 0.000000 0.000000 -0.106357 0.000000 0.157211
#
#
# Mechanical properties :
#
#
# Convention : Reuss Voigt Hill
#
# Bulk Modulus (GPa) = 48.97139 58.17944 53.57541
# Shear Modulus (GPa) = 10.80790 20.31529 15.56159
#
# Velocity S-wave (km/s) = 2.32357 3.18565 2.78813
# Velocity P-wave (km/s) = 5.62689 6.52642 6.09328
#
# Compressibility (1/GPa) = 0.02042009
#
# Stress axis : x y z
#
# Youngs Moduli (GPa) = 54.33446 60.29747 72.37877
#
# Poissons Ratio (x) = 0.33991 0.11595
# Poissons Ratio (y) = 0.30630 0.50328
# Poissons Ratio (z) = 0.08704 0.41927
#
# Static dielectric constant tensor:
#      x y z
#    x 1.796160 0.000000 0.026740 
#    y 0.000000 1.715400 0.000000 
#    z 0.026740 0.000000 1.735750 
# 
# From -- ./inp_files/36328.got.cif
#   From: 2010.05.17/outbox.cif.g08.bks.cpg/sg10_19_cif.got.tgz:36328.got - 2010.06.03 11:33:40.
