data_PCOD9151069
_publ_section_title
;
Structure prediction by ZEFSAII (Michael W. Deem and Ramdas Pophale) SiO2 
 PCOD9151069
Probable space group: P 2/M
;
_chemical_formula_sum "Si O2"
_cell_formula_units_Z 26
_cell_length_a 12.454268
_cell_length_b 21.160974
_cell_length_c 5.387599
_cell_angle_alpha 90.000000
_cell_angle_beta 72.043959
_cell_angle_gamma 90.000000
_cell_volume 1350.714533
_symmetry_space_group_name_H-M "P 2/M"
_symmetry_group_IT_number 10
_symmetry_cell_setting 'monoclinic'
loop_
_space_group_symop_operation_xyz
x,y,z
-x,y,-z
-x,-y,-z
x,-y,z
loop_
_atom_site_type_symbol
_atom_site_label
_atom_site_fract_x
_atom_site_fract_y
_atom_site_fract_z
Si Si1 0.868973 0.643072 0.616836
Si Si2 0.699634 0.318362 0.118420
Si Si3 0.873122 0.784302 0.492318
Si Si4 0.572340 0.926310 0.196193
Si Si5 0.328185 0.429848 0.479679
Si Si6 0.500000 0.621583 0.000000
Si Si7 0.244482 0.818805 0.908187
O O1 0.854178 0.708466 0.471596
O O2 0.784020 0.587316 0.600574
O O3 0.000000 0.625573 0.500000
O O4 0.823479 0.666415 0.917489
O O5 0.670848 0.372422 0.331656
O O6 0.688932 0.246080 0.202476
O O7 0.604791 0.332473 0.981008
O O8 0.846484 0.818946 0.251957
O O9 0.000000 0.791353 0.500000
O O10 0.799841 0.808039 0.779335
O O11 0.500000 0.920185 0.500000
O O12 0.677473 0.879720 0.146803
O O13 0.606152 0.000000 0.148738
O O14 0.500000 0.910615 0.000000
O O15 0.317412 0.500000 0.593322
O O16 0.443806 0.423412 0.244552
#
# Coordination Sequence:
#
# PCOD9151069 Si02
#       7
#     4   4   4   4   4   2   4
#     4   9  20  38  56  78 111 145 187 244 298 355
#     4  10  22  36  56  84 110 144 197 240 295 352
#     4  10  20  37  62  90 119 154 199 248 301 355
#     4  10  22  39  60  90 127 167 202 238 295 357
#     4  11  22  38  55  77 108 145 191 240 300 361
#     4  10  23  38  54  76 107 148 186 240 295 366
#     4  11  21  37  62  90 121 156 199 249 296 344
#
# _framework density 19.249072999999999
#
# number of rings (size 3 to 8) (size 9 to 14) (size 15 to 20)
#    0.000    1.846    1.538    2.077    1.077    5.846 
#    0.000    0.769    0.000    2.769    0.000    0.000 
#    0.000    0.000    0.000    0.000    0.000    0.000 
#
# Total GULP energy -144886.617751 kJ/mol
# GULP energy per Si atom -5572.562221 kJ/mol
# Density = 1.920526 g / cm^3
# Si number density = 19.249073 Si / 1000 Ang^3
#
#
#
# Elastic Constant Matrix: (Units=GPa)
#
#
# Indices 1 2 3 4 5 6 
#
# 1 74.4152 36.6240 19.2206 0.0000 -6.3985 0.0000
# 2 36.6240 83.1397 12.8332 0.0000 -3.5556 0.0000
# 3 19.2206 12.8332 63.3503 0.0000 -2.4983 0.0000
# 4 0.0000 0.0000 0.0000 30.3184 0.0000 20.0680
# 5 -6.3985 -3.5556 -2.4983 0.0000 36.8522 0.0000
# 6 0.0000 0.0000 0.0000 20.0680 0.0000 54.4158
#
#
#
# Elastic Compliance Matrix: (Units=1/GPa)
#
#
# Indices 1 2 3 4 5 6 
#
# 1 0.018264 -0.007339 -0.003968 0.000000 0.002194 0.000000
# 2 -0.007339 0.015404 -0.000888 0.000000 0.000152 0.000000
# 3 -0.003968 -0.000888 0.017184 0.000000 0.000390 0.000000
# 4 0.000000 0.000000 0.000000 0.043635 0.000000 -0.016092
# 5 0.002194 0.000152 0.000390 0.000000 0.027557 0.000000
# 6 0.000000 0.000000 0.000000 -0.016092 0.000000 0.024312
#
#
# Mechanical properties :
#
#
# Convention : Reuss Voigt Hill
#
# Bulk Modulus (GPa) = 37.78916 39.80678 38.79797
# Shear Modulus (GPa) = 27.84476 34.46576 31.15526
#
# Velocity S-wave (km/s) = 3.80748 4.23604 4.02746
# Velocity P-wave (km/s) = 6.24528 6.68207 6.46736
#
# Compressibility (1/GPa) = 0.02646261
#
# Stress axis : x y z
#
# Youngs Moduli (GPa) = 54.75369 64.91644 58.19227
#
# Poissons Ratio (x) = 0.47642 0.23091
# Poissons Ratio (y) = 0.40184 0.05167
# Poissons Ratio (z) = 0.21726 0.05764
#
# Static dielectric constant tensor:
#      x y z
#    x 1.726260 0.000000 0.065460 
#    y 0.000000 1.658590 0.000000 
#    z 0.065460 0.000000 1.747360 
# 
# From -- ./inp_files/7526.got.cif
#   From: 2010.05.17/outbox.cif.g08.bks.cpg/sg10_4_cif.got.tgz:7526.got - 2010.06.03 11:33:40.
