data_PCOD9151803
_publ_section_title
;
Structure prediction by ZEFSAII (Michael W. Deem and Ramdas Pophale) SiO2 
 PCOD9151803
Probable space group: P 2/M
;
_chemical_formula_sum "Si O2"
_cell_formula_units_Z 24
_cell_length_a 9.093909
_cell_length_b 18.390551
_cell_length_c 15.877831
_cell_angle_alpha 90.000000
_cell_angle_beta 30.243153
_cell_angle_gamma 90.000000
_cell_volume 1337.467522
_symmetry_space_group_name_H-M "P 2/M"
_symmetry_group_IT_number 10
_symmetry_cell_setting 'monoclinic'
loop_
_space_group_symop_operation_xyz
x,y,z
-x,y,-z
-x,-y,-z
x,-y,z
loop_
_atom_site_type_symbol
_atom_site_label
_atom_site_fract_x
_atom_site_fract_y
_atom_site_fract_z
Si Si1 0.158443 0.328052 0.164784
Si Si2 0.159487 0.087725 0.834566
Si Si3 0.156520 0.087612 0.510669
Si Si4 0.708423 0.417002 0.480336
Si Si5 0.133516 0.413922 0.842658
Si Si6 0.845555 0.845323 0.827728
O O1 0.119948 0.241621 0.184909
O O2 0.974529 0.363857 0.331603
O O3 0.028677 0.364314 0.144852
O O4 0.500000 0.344852 0.000000
O O5 0.501622 0.107774 0.663585
O O6 0.998514 0.120031 0.833388
O O7 0.143247 0.000000 0.838553
O O8 0.000000 0.110664 0.000000
O O9 0.000000 0.105902 0.500000
O O10 0.996734 0.124380 0.668593
O O11 0.139369 0.000000 0.529827
O O12 0.500000 0.414478 0.500000
O O13 0.810491 0.500000 0.439386
O O14 0.480097 0.398233 0.666614
O O15 0.102149 0.500000 0.835490
O O16 0.000000 0.403078 0.000000
O O17 0.500000 0.862463 0.000000
#
# Coordination Sequence:
#
# PCOD9151803 Si02
#       6
#     4   4   4   4   4   4
#     4  10  21  35  51  76 107 141 179 216 263 319
#     4  10  21  37  58  83 108 140 183 226 275 333
#     4  10  21  38  60  84 109 140 181 230 281 331
#     4   8  15  30  52  75  99 132 172 209 252 309
#     4   9  18  34  56  80 105 136 177 222 267 318
#     4  11  23  37  53  79 114 148 186 228 273 326
#
# _framework density 17.944361000000001
#
# number of rings (size 3 to 8) (size 9 to 14) (size 15 to 20)
#    0.000    2.333    0.000    3.500    0.000   10.000 
#    0.000    4.167    0.000    3.000    0.000    0.000 
#    0.000    0.000    0.000    0.000    0.000    0.000 
#
# Total GULP energy -133913.615538 kJ/mol
# GULP energy per Si atom -5579.733981 kJ/mol
# Density = 1.790352 g / cm^3
# Si number density = 17.944361 Si / 1000 Ang^3
#
#
#
# Elastic Constant Matrix: (Units=GPa)
#
#
# Indices 1 2 3 4 5 6 
#
# 1 121.6933 55.6306 95.7570 0.0000 -1.6283 0.0000
# 2 55.6306 47.8619 76.1809 0.0000 -5.9900 0.0000
# 3 95.7570 76.1809 213.1876 0.0000 6.2633 0.0000
# 4 0.0000 0.0000 0.0000 9.5938 0.0000 -38.9140
# 5 -1.6283 -5.9900 6.2633 0.0000 33.1531 0.0000
# 6 0.0000 0.0000 0.0000 -38.9140 0.0000 -36.7171
#
#
#
# Elastic Compliance Matrix: (Units=1/GPa)
#
#
# Indices 1 2 3 4 5 6 
#
# 1 0.017888 -0.019542 -0.000979 0.000000 -0.002467 0.000000
# 2 -0.019542 0.075154 -0.018552 0.000000 0.016124 0.000000
# 3 -0.000979 -0.018552 0.011926 0.000000 -0.005653 0.000000
# 4 0.000000 0.000000 0.000000 0.019671 0.000000 -0.020848
# 5 -0.002467 0.016124 -0.005653 0.000000 0.034023 0.000000
# 6 0.000000 0.000000 0.000000 -0.020848 0.000000 -0.005140
#
#
# Mechanical properties :
#
#
# Convention : Reuss Voigt Hill
#
# Bulk Modulus (GPa) = 37.28267 93.09775 65.19021
# Shear Modulus (GPa) = 20.78068 11.55091 16.16579
#
# Velocity S-wave (km/s) = 3.40672 2.53989 3.00473
# Velocity P-wave (km/s) = 6.02464 7.78430 6.96030
#
# Compressibility (1/GPa) = 0.02682211
#
# Stress axis : x y z
#
# Youngs Moduli (GPa) = 55.90265 13.30609 83.85166
#
# Poissons Ratio (x) = 0.26003 0.08210
# Poissons Ratio (y) = 1.09245 1.55558
# Poissons Ratio (z) = 0.05474 0.24685
#
# Static dielectric constant tensor:
#      x y z
#    x 1.589300 0.000000 0.005420 
#    y 0.000000 1.596690 0.000000 
#    z 0.005420 0.000000 1.633810 
# 
# From -- ./inp_files/62268.got.cif
#   From: 2010.05.17/outbox.cif.g08.bks.cpg/sg10_32_cif.got.tgz:62268.got - 2010.06.03 11:33:40.
