data_PCOD9151677
_publ_section_title
;
Structure prediction by ZEFSAII (Michael W. Deem and Ramdas Pophale) SiO2 
 PCOD9151677
Probable space group: P 2/M
;
_chemical_formula_sum "Si O2"
_cell_formula_units_Z 32
_cell_length_a 15.921924
_cell_length_b 13.334415
_cell_length_c 10.275310
_cell_angle_alpha 90.000000
_cell_angle_beta 57.984420
_cell_angle_gamma 90.000000
_cell_volume 1849.741817
_symmetry_space_group_name_H-M "P 2/M"
_symmetry_group_IT_number 10
_symmetry_cell_setting 'monoclinic'
loop_
_space_group_symop_operation_xyz
x,y,z
-x,y,-z
-x,-y,-z
x,-y,z
loop_
_atom_site_type_symbol
_atom_site_label
_atom_site_fract_x
_atom_site_fract_y
_atom_site_fract_z
Si Si1 0.703891 0.703728 0.127580
Si Si2 0.920229 0.380174 0.950567
Si Si3 0.049090 0.378425 0.590704
Si Si4 0.729979 0.615978 0.576855
Si Si5 0.379943 0.689943 0.094720
Si Si6 0.605111 0.615565 0.446191
Si Si7 0.419901 0.890065 0.181364
Si Si8 0.558672 0.883169 0.315188
O O1 0.666546 0.623454 0.264252
O O2 0.650987 0.807093 0.219722
O O3 0.822269 0.688715 0.034185
O O4 0.661113 0.684116 0.017811
O O5 0.892721 0.500000 0.975700
O O6 0.979726 0.358977 0.769750
O O7 0.000000 0.364418 0.000000
O O8 0.055362 0.500000 0.574474
O O9 0.160643 0.339151 0.511766
O O10 0.000000 0.339677 0.500000
O O11 0.744128 0.500000 0.525529
O O12 0.676006 0.617511 0.759759
O O13 0.661350 0.663203 0.521606
O O14 0.356130 0.798063 0.180723
O O15 0.500000 0.676062 0.000000
O O16 0.500000 0.662967 0.500000
O O17 0.585662 0.500000 0.498255
O O18 0.480784 0.863600 0.261547
O O19 0.372728 0.000000 0.237381
O O20 0.500000 0.899207 0.000000
O O21 0.500000 0.876224 0.500000
O O22 0.590446 0.000000 0.274784
#
# Coordination Sequence:
#
# PCOD9151677 Si02
#       8
#     4   4   4   4   4   4   4   4
#     4  12  21  32  55  80 106 137 180 225 269 319
#     4  10  21  37  55  76 101 135 185 236 275 314
#     4   9  17  32  51  69  92 126 170 221 265 299
#     4  10  21  35  50  70 102 142 179 214 260 316
#     4  11  21  32  49  81 111 142 174 214 267 320
#     4  10  21  34  47  67 101 144 176 206 255 314
#     4   9  17  34  54  74 108 142 171 211 255 310
#     4  10  21  36  56  83 113 145 179 216 263 323
#
# _framework density 17.299712
#
# number of rings (size 3 to 8) (size 9 to 14) (size 15 to 20)
#    0.000    1.875    2.500    3.000    1.750    4.250 
#    0.000    0.000    0.000    0.375    0.000    0.875 
#    0.000    3.000    0.000    0.000    0.000    0.000 
#
# Total GULP energy -178214.677123 kJ/mol
# GULP energy per Si atom -5569.208660 kJ/mol
# Density = 1.726034 g / cm^3
# Si number density = 17.299712 Si / 1000 Ang^3
#
#
#
# Elastic Constant Matrix: (Units=GPa)
#
#
# Indices 1 2 3 4 5 6 
#
# 1 131.5246 19.8844 79.7310 0.0000 -1.4858 0.0000
# 2 19.8844 38.6860 1.8230 0.0000 -3.9026 0.0000
# 3 79.7310 1.8230 106.4735 0.0000 12.0111 0.0000
# 4 0.0000 0.0000 0.0000 6.0415 0.0000 -14.1531
# 5 -1.4858 -3.9026 12.0111 0.0000 34.9910 0.0000
# 6 0.0000 0.0000 0.0000 -14.1531 0.0000 3.1698
#
#
#
# Elastic Compliance Matrix: (Units=1/GPa)
#
#
# Indices 1 2 3 4 5 6 
#
# 1 0.016457 -0.007436 -0.012672 0.000000 0.004219 0.000000
# 2 -0.007436 0.029570 0.004916 0.000000 0.001295 0.000000
# 3 -0.012672 0.004916 0.019553 0.000000 -0.006702 0.000000
# 4 0.000000 0.000000 0.000000 -0.017497 0.000000 -0.078125
# 5 0.004219 0.001295 -0.006702 0.000000 0.031203 0.000000
# 6 0.000000 0.000000 0.000000 -0.078125 0.000000 -0.033349
#
#
# Mechanical properties :
#
#
# Convention : Reuss Voigt Hill
#
# Bulk Modulus (GPa) = 28.41238 53.28455 40.84846
# Shear Modulus (GPa) = 56.78351 20.52350 38.65350
#
# Velocity S-wave (km/s) = 5.73539 3.44808 4.73201
# Velocity P-wave (km/s) = 7.76652 6.83520 7.31570
#
# Compressibility (1/GPa) = 0.03519592
#
# Stress axis : x y z
#
# Youngs Moduli (GPa) = 60.76445 33.81786 51.14243
#
# Poissons Ratio (x) = 0.25147 0.64809
# Poissons Ratio (y) = 0.45184 -0.25142
# Poissons Ratio (z) = 0.77002 -0.16625
#
# Static dielectric constant tensor:
#      x y z
#    x 1.604480 0.000000 -0.005090 
#    y 0.000000 1.642800 0.000000 
#    z -0.005090 0.000000 1.571070 
# 
# From -- ./inp_files/29512.got.cif
#   From: 2010.05.17/outbox.cif.g08.bks.cpg/sg10_15_cif.got.tgz:29512.got - 2010.06.03 11:33:40.
