data_PCOD9151290
_publ_section_title
;
Structure prediction by ZEFSAII (Michael W. Deem and Ramdas Pophale) SiO2 
 PCOD9151290
Probable space group: P 2/M
;
_chemical_formula_sum "Si O2"
_cell_formula_units_Z 26
_cell_length_a 9.532475
_cell_length_b 21.045440
_cell_length_c 8.607190
_cell_angle_alpha 90.000000
_cell_angle_beta 47.221305
_cell_angle_gamma 90.000000
_cell_volume 1267.391400
_symmetry_space_group_name_H-M "P 2/M"
_symmetry_group_IT_number 10
_symmetry_cell_setting 'monoclinic'
loop_
_space_group_symop_operation_xyz
x,y,z
-x,y,-z
-x,-y,-z
x,-y,z
loop_
_atom_site_type_symbol
_atom_site_label
_atom_site_fract_x
_atom_site_fract_y
_atom_site_fract_z
Si Si1 0.406107 0.173025 0.410101
Si Si2 0.088750 0.300594 0.180921
Si Si3 0.642157 0.600049 0.140847
Si Si4 0.500000 0.500000 0.000000
Si Si5 0.693854 0.699528 0.655606
Si Si6 0.364562 0.927244 0.952332
Si Si7 0.500000 0.500000 0.500000
Si Si8 0.020943 0.156491 0.162895
O O1 0.500000 0.196181 0.500000
O O2 0.400164 0.231480 0.296017
O O3 0.528258 0.114100 0.258321
O O4 0.186300 0.155168 0.604032
O O5 0.218917 0.304682 0.238101
O O6 0.098174 0.229091 0.107854
O O7 0.871179 0.308430 0.403034
O O8 0.170673 0.355633 0.009174
O O9 0.619727 0.554940 0.007013
O O10 0.462606 0.647447 0.264155
O O11 0.610804 0.555455 0.313023
O O12 0.330125 0.000000 0.931369
O O13 0.500000 0.926897 0.000000
O O14 0.169250 0.890057 0.133327
O O15 0.000000 0.136634 0.000000
#
# Coordination Sequence:
#
# PCOD9151290 Si02
#       8
#     4   4   4   1   4   4   1   4
#     4  11  23  41  65  98 134 173 215 277 338 392
#     4  10  21  38  66  95 123 161 215 266 330 383
#     4  11  21  42  60  89 125 170 210 265 313 384
#     4  10  20  38  62  86 120 172 216 242 324 380
#     4  10  21  37  66  98 119 162 216 272 321 387
#     4  11  25  44  67  95 131 182 231 271 326 394
#     4  10  28  38  62  86 128 172 212 254 324 388
#     4  11  23  41  64 101 136 170 217 278 339 395
#
# _framework density 20.514576999999999
#
# number of rings (size 3 to 8) (size 9 to 14) (size 15 to 20)
#    0.000    1.385    3.077    1.846    1.077    4.308 
#    0.000    6.154    0.000    0.000    0.000    0.000 
#    0.000    0.000    0.000    0.000    0.000    0.000 
#
# Total GULP energy -144783.740024 kJ/mol
# GULP energy per Si atom -5568.605386 kJ/mol
# Density = 2.046788 g / cm^3
# Si number density = 20.514577 Si / 1000 Ang^3
#
#
#
# Elastic Constant Matrix: (Units=GPa)
#
#
# Indices 1 2 3 4 5 6 
#
# 1 52.9438 30.9010 23.0872 0.0000 -20.0314 0.0000
# 2 30.9010 134.4710 36.4581 0.0000 -24.3145 0.0000
# 3 23.0872 36.4581 52.7674 0.0000 -15.9349 0.0000
# 4 0.0000 0.0000 0.0000 0.2191 0.0000 -23.7398
# 5 -20.0314 -24.3145 -15.9349 0.0000 30.3829 0.0000
# 6 0.0000 0.0000 0.0000 -23.7398 0.0000 -89.1199
#
#
#
# Elastic Compliance Matrix: (Units=1/GPa)
#
#
# Indices 1 2 3 4 5 6 
#
# 1 0.028151 -0.002243 -0.006778 0.000000 0.013210 0.000000
# 2 -0.002243 0.009948 -0.004675 0.000000 0.004031 0.000000
# 3 -0.006778 -0.004675 0.026933 0.000000 0.005916 0.000000
# 4 0.000000 0.000000 0.000000 0.152837 0.000000 -0.040713
# 5 0.013210 0.004031 0.005916 0.000000 0.047951 0.000000
# 6 0.000000 0.000000 0.000000 -0.040713 0.000000 -0.000376
#
#
# Mechanical properties :
#
#
# Convention : Reuss Voigt Hill
#
# Bulk Modulus (GPa) = 26.56693 46.78610 36.67652
# Shear Modulus (GPa) = 16.37292 -1.72120 7.32586
#
# Velocity S-wave (km/s) = 2.82815 -0.91697 1.89177
# Velocity P-wave (km/s) = 4.86240 4.66205 4.76328
#
# Compressibility (1/GPa) = 0.03764078
#
# Stress axis : x y z
#
# Youngs Moduli (GPa) = 35.52322 100.52039 37.12906
#
# Poissons Ratio (x) = 0.22543 0.25166
# Poissons Ratio (y) = 0.07967 0.17358
# Poissons Ratio (z) = 0.24077 0.46993
#
# Static dielectric constant tensor:
#      x y z
#    x 1.691870 0.000000 0.002010 
#    y 0.000000 1.709060 0.000000 
#    z 0.002010 0.000000 1.747450 
# 
# From -- ./inp_files/20453.got.cif
#   From: 2010.05.17/outbox.cif.g08.bks.cpg/sg10_11_cif.got.tgz:20453.got - 2010.06.03 11:33:40.
