data_PCOD9151173
_publ_section_title
;
Structure prediction by ZEFSAII (Michael W. Deem and Ramdas Pophale) SiO2 
 PCOD9151173
Probable space group: P 2/M
;
_chemical_formula_sum "Si O2"
_cell_formula_units_Z 18
_cell_length_a 14.582318
_cell_length_b 18.466322
_cell_length_c 5.306682
_cell_angle_alpha 90.000000
_cell_angle_beta 123.083910
_cell_angle_gamma 90.000000
_cell_volume 1197.313093
_symmetry_space_group_name_H-M "P 2/M"
_symmetry_group_IT_number 10
_symmetry_cell_setting 'monoclinic'
loop_
_space_group_symop_operation_xyz
x,y,z
-x,y,-z
-x,-y,-z
x,-y,z
loop_
_atom_site_type_symbol
_atom_site_label
_atom_site_fract_x
_atom_site_fract_y
_atom_site_fract_z
Si Si1 0.572717 0.000000 0.359075
Si Si2 0.133467 0.416274 0.200200
Si Si3 0.787963 0.082198 0.681945
Si Si4 0.133138 0.668675 0.699706
Si Si5 0.131888 0.837005 0.697832
O O1 0.500000 0.000000 0.500000
O O2 0.657405 0.067504 0.486108
O O3 0.500000 0.000000 0.000000
O O4 0.168113 0.500000 0.252169
O O5 0.168657 0.373709 0.502883
O O6 0.168657 0.373710 0.003083
O O7 0.000000 0.416506 0.000000
O O8 0.824890 0.123666 0.487598
O O9 0.835199 0.000000 0.752799
O O10 0.824890 0.123666 0.987075
O O11 0.165505 0.752637 0.748258
O O12 0.000000 0.667965 0.500000
O O13 0.000000 0.840042 0.500000
#
# Coordination Sequence:
#
# PCOD9151173 Si02
#       5
#     2   4   4   4   4
#     4  10  20  38  55  68  87 108 146 200 238 278
#     4   9  15  24  37  54  75 105 155 201 217 240
#     4  10  22  33  49  71  85 117 161 188 223 289
#     4   9  17  26  38  55  80 118 150 180 226 257
#     4  11  20  32  45  65  99 127 153 189 223 266
#
# _framework density 15.033661
#
# number of rings (size 3 to 8) (size 9 to 14) (size 15 to 20)
#    0.667    1.556    0.000    4.667    0.000    8.889 
#    0.000    0.000    0.000    0.000    0.000    0.000 
#    0.000    0.000    0.000    0.000    0.000  280.000 
#
# Total GULP energy -100281.514422 kJ/mol
# GULP energy per Si atom -5571.195246 kJ/mol
# Density = 1.499944 g / cm^3
# Si number density = 15.033661 Si / 1000 Ang^3
#
#
#
# Elastic Constant Matrix: (Units=GPa)
#
#
# Indices 1 2 3 4 5 6 
#
# 1 89.5644 62.6797 64.2617 0.0000 -30.9474 0.0000
# 2 62.6797 172.7722 81.7567 0.0000 -41.6257 0.0000
# 3 64.2617 81.7567 122.7172 0.0000 -41.3901 0.0000
# 4 0.0000 0.0000 0.0000 18.0764 0.0000 -16.4687
# 5 -30.9474 -41.6257 -41.3901 0.0000 42.5293 0.0000
# 6 0.0000 0.0000 0.0000 -16.4687 0.0000 10.5289
#
#
#
# Elastic Compliance Matrix: (Units=1/GPa)
#
#
# Indices 1 2 3 4 5 6 
#
# 1 0.019685 -0.002705 -0.006800 0.000000 0.005059 0.000000
# 2 -0.002705 0.009349 -0.003557 0.000000 0.003720 0.000000
# 3 -0.006800 -0.003557 0.016727 0.000000 0.007849 0.000000
# 4 0.000000 0.000000 0.000000 -0.130160 0.000000 -0.203588
# 5 0.005059 0.003720 0.007849 0.000000 0.038474 0.000000
# 6 0.000000 0.000000 0.000000 -0.203588 0.000000 -0.223463
#
#
# Mechanical properties :
#
#
# Convention : Reuss Voigt Hill
#
# Bulk Modulus (GPa) = 50.92486 89.16113 70.04300
# Shear Modulus (GPa) = -21.12221 25.98395 2.43087
#
# Velocity S-wave (km/s) = -3.75239 4.16190 1.27297
# Velocity P-wave (km/s) = 3.89532 9.08469 6.98946
#
# Compressibility (1/GPa) = 0.01963677
#
# Stress axis : x y z
#
# Youngs Moduli (GPa) = 50.80010 106.96512 59.78414
#
# Poissons Ratio (x) = 0.28933 0.40652
# Poissons Ratio (y) = 0.13741 0.21267
# Poissons Ratio (z) = 0.34543 0.38051
#
# Static dielectric constant tensor:
#      x y z
#    x 1.475340 0.000000 -0.008040 
#    y 0.000000 1.499370 0.000000 
#    z -0.008040 0.000000 1.479020 
# 
# From -- ./inp_files/9453.got.cif
#   From: 2010.05.17/outbox.cif.g08.bks.cpg/sg10_5_cif.got.tgz:9453.got - 2010.06.03 11:33:40.
