data_PCOD9151731
_publ_section_title
;
Structure prediction by ZEFSAII (Michael W. Deem and Ramdas Pophale) SiO2 
 PCOD9151731
Probable space group: P 2/M
;
_chemical_formula_sum "Si O2"
_cell_formula_units_Z 32
_cell_length_a 20.219528
_cell_length_b 13.554326
_cell_length_c 12.360783
_cell_angle_alpha 90.000000
_cell_angle_beta 23.807523
_cell_angle_gamma 90.000000
_cell_volume 1367.465815
_symmetry_space_group_name_H-M "P 2/M"
_symmetry_group_IT_number 10
_symmetry_cell_setting 'monoclinic'
loop_
_space_group_symop_operation_xyz
x,y,z
-x,y,-z
-x,-y,-z
x,-y,z
loop_
_atom_site_type_symbol
_atom_site_label
_atom_site_fract_x
_atom_site_fract_y
_atom_site_fract_z
Si Si1 0.195568 0.108065 0.715077
Si Si2 0.161277 0.114962 0.452198
Si Si3 0.676113 0.892188 0.011706
Si Si4 0.115027 0.386768 0.495149
Si Si5 0.267386 0.388736 0.917526
Si Si6 0.290964 0.730190 0.402615
Si Si7 0.589054 0.315535 0.084901
Si Si8 0.797343 0.176436 0.058931
O O1 0.233228 0.205170 0.589874
O O2 0.255662 0.000000 0.587468
O O3 0.243980 0.125289 0.766992
O O4 0.000000 0.102092 0.000000
O O5 0.180878 0.114771 0.293163
O O6 0.303753 0.181974 0.292856
O O7 0.993137 0.164359 0.745172
O O8 0.164938 0.000000 0.479713
O O9 0.566900 0.798716 0.148836
O O10 0.729139 0.877579 0.055111
O O11 0.604343 0.000000 0.104227
O O12 0.164053 0.500000 0.415088
O O13 0.160677 0.344702 0.544920
O O14 0.234235 0.330799 0.234906
O O15 0.922542 0.381917 0.757898
O O16 0.287211 0.500000 0.842063
O O17 0.392445 0.374691 0.830536
O O18 0.270404 0.289212 0.840982
O O19 0.447836 0.667927 0.208064
#
# Coordination Sequence:
#
# PCOD9151731 Si02
#       8
#     4   4   4   4   4   4   4   4
#     4  11  22  39  65  92 127 175 226 272 316 383
#     4  11  20  34  59  91 129 168 211 260 323 393
#     4  10  21  34  55  88 126 166 204 256 324 389
#     4  11  22  40  66  93 126 170 218 267 323 392
#     4  10  21  40  67  96 125 166 219 269 325 387
#     4  12  24  39  58  94 132 169 214 263 325 383
#     4  11  23  38  59  90 134 168 205 261 327 393
#     4  11  20  38  63  93 126 164 219 276 324 372
#
# _framework density 23.400950999999999
#
# number of rings (size 3 to 8) (size 9 to 14) (size 15 to 20)
#    0.000    1.125    3.750    3.000    0.000    6.500 
#    0.000    4.375    0.000    6.750    0.000    0.000 
#    0.000    0.000    0.000    0.000    0.000    0.000 
#
# Total GULP energy -178613.151865 kJ/mol
# GULP energy per Si atom -5581.660996 kJ/mol
# Density = 2.334769 g / cm^3
# Si number density = 23.400951 Si / 1000 Ang^3
#
#
#
# Elastic Constant Matrix: (Units=GPa)
#
#
# Indices 1 2 3 4 5 6 
#
# 1 134.0814 27.7749 23.5961 0.0000 -1.3347 0.0000
# 2 27.7749 150.2368 6.4012 0.0000 -8.0995 0.0000
# 3 23.5961 6.4012 41.7187 0.0000 -14.0646 0.0000
# 4 0.0000 0.0000 0.0000 0.9666 0.0000 11.6068
# 5 -1.3347 -8.0995 -14.0646 0.0000 39.2802 0.0000
# 6 0.0000 0.0000 0.0000 11.6068 0.0000 8.2897
#
#
#
# Elastic Compliance Matrix: (Units=1/GPa)
#
#
# Indices 1 2 3 4 5 6 
#
# 1 0.008684 -0.001482 -0.005332 0.000000 -0.001919 0.000000
# 2 -0.001482 0.006999 0.000266 0.000000 0.001488 0.000000
# 3 -0.005332 0.000266 0.030595 0.000000 0.010829 0.000000
# 4 0.000000 0.000000 0.000000 -0.065425 0.000000 0.091605
# 5 -0.001919 0.001488 0.010829 0.000000 0.029577 0.000000
# 6 0.000000 0.000000 0.000000 0.091605 0.000000 -0.007629
#
#
# Mechanical properties :
#
#
# Convention : Reuss Voigt Hill
#
# Bulk Modulus (GPa) = 30.13527 49.06458 39.59993
# Shear Modulus (GPa) = 185.47359 27.59161 106.53260
#
# Velocity S-wave (km/s) = 8.91241 3.43750 6.75453
# Velocity P-wave (km/s) = 10.90018 6.06363 8.81991
#
# Compressibility (1/GPa) = 0.03318370
#
# Stress axis : x y z
#
# Youngs Moduli (GPa) = 115.15061 142.87747 32.68457
#
# Poissons Ratio (x) = 0.21172 0.17426
# Poissons Ratio (y) = 0.17063 -0.00869
# Poissons Ratio (z) = 0.61394 -0.03799
#
# Static dielectric constant tensor:
#      x y z
#    x 1.918710 0.000000 -0.012380 
#    y 0.000000 1.881960 0.000000 
#    z -0.012380 0.000000 1.945290 
# 
# From -- ./inp_files/54016.got.cif
#   From: 2010.05.17/outbox.cif.g08.bks.cpg/sg10_28_cif.got.tgz:54016.got - 2010.06.03 11:33:40.
