data_PCOD9151087
_publ_section_title
;
Structure prediction by ZEFSAII (Michael W. Deem and Ramdas Pophale) SiO2 
 PCOD9151087
Probable space group: P 2/M
;
_chemical_formula_sum "Si O2"
_cell_formula_units_Z 24
_cell_length_a 15.211744
_cell_length_b 14.842235
_cell_length_c 8.946541
_cell_angle_alpha 90.000000
_cell_angle_beta 146.938278
_cell_angle_gamma 90.000000
_cell_volume 1101.949778
_symmetry_space_group_name_H-M "P 2/M"
_symmetry_group_IT_number 10
_symmetry_cell_setting 'monoclinic'
loop_
_space_group_symop_operation_xyz
x,y,z
-x,y,-z
-x,-y,-z
x,-y,z
loop_
_atom_site_type_symbol
_atom_site_label
_atom_site_fract_x
_atom_site_fract_y
_atom_site_fract_z
Si Si1 0.317230 0.797004 0.931805
Si Si2 0.130189 0.100831 0.909883
Si Si3 0.727398 0.401756 0.081453
Si Si4 0.602433 0.829597 0.512332
Si Si5 0.151783 0.782228 0.378207
Si Si6 0.981487 0.597512 0.719944
O O1 0.172580 0.831002 0.833833
O O2 0.468111 0.857085 0.199304
O O3 0.364009 0.692551 0.032620
O O4 0.262417 0.797608 0.683267
O O5 0.289501 0.100543 0.241003
O O6 0.096763 0.000000 0.808914
O O7 0.982323 0.140254 0.794664
O O8 0.643161 0.500000 0.963400
O O9 0.854563 0.402224 0.400322
O O10 0.840757 0.396935 0.097419
O O11 0.500000 0.782999 0.500000
O O12 0.735996 0.779655 0.605952
O O13 0.061005 0.687436 0.255857
O O14 0.963044 0.500000 0.768551
#
# Coordination Sequence:
#
# PCOD9151087 Si02
#       6
#     4   4   4   4   4   4
#     4  10  20  37  62  94 121 150 189 246 298 336
#     4  11  24  42  63  87 117 154 194 239 299 365
#     4   8  13  26  52  88 123 151 183 230 290 348
#     4  10  24  41  58  80 120 165 195 230 294 359
#     4  11  20  37  65  92 116 148 203 252 281 332
#     4   8  14  26  52  89 121 148 186 238 290 338
#
# _framework density 21.779578000000001
#
# number of rings (size 3 to 8) (size 9 to 14) (size 15 to 20)
#    0.000    2.333    1.667    2.500    0.000    5.667 
#    0.000    0.833    0.000   22.000    0.000    0.000 
#    0.000    0.000    0.000    0.000    0.000    0.000 
#
# Total GULP energy -133702.555152 kJ/mol
# GULP energy per Si atom -5570.939798 kJ/mol
# Density = 2.173001 g / cm^3
# Si number density = 21.779578 Si / 1000 Ang^3
#
#
#
# Elastic Constant Matrix: (Units=GPa)
#
#
# Indices 1 2 3 4 5 6 
#
# 1 111.6780 39.8539 14.4647 0.0000 -6.0884 0.0000
# 2 39.8539 112.3286 9.5518 0.0000 -5.5700 0.0000
# 3 14.4647 9.5518 92.8151 0.0000 -10.8115 0.0000
# 4 0.0000 0.0000 0.0000 18.3330 0.0000 -5.2351
# 5 -6.0884 -5.5700 -10.8115 0.0000 25.0279 0.0000
# 6 0.0000 0.0000 0.0000 -5.2351 0.0000 9.5233
#
#
#
# Elastic Compliance Matrix: (Units=1/GPa)
#
#
# Indices 1 2 3 4 5 6 
#
# 1 0.010432 -0.003544 -0.001113 0.000000 0.001268 0.000000
# 2 -0.003544 0.010253 -0.000355 0.000000 0.001266 0.000000
# 3 -0.001113 -0.000355 0.011523 0.000000 0.004628 0.000000
# 4 0.000000 0.000000 0.000000 0.064703 0.000000 0.035569
# 5 0.001268 0.001266 0.004628 0.000000 0.042545 0.000000
# 6 0.000000 0.000000 0.000000 0.035569 0.000000 0.124558
#
#
# Mechanical properties :
#
#
# Convention : Reuss Voigt Hill
#
# Bulk Modulus (GPa) = 45.07909 49.39585 47.23747
# Shear Modulus (GPa) = 17.76613 27.44026 22.60320
#
# Velocity S-wave (km/s) = 2.85919 3.55337 3.22501
# Velocity P-wave (km/s) = 5.62519 6.29002 5.96687
#
# Compressibility (1/GPa) = 0.02218324
#
# Stress axis : x y z
#
# Youngs Moduli (GPa) = 95.85600 97.53446 86.78095
#
# Poissons Ratio (x) = 0.34564 0.09662
# Poissons Ratio (y) = 0.33969 0.03084
# Poissons Ratio (z) = 0.10673 0.03466
#
# Static dielectric constant tensor:
#      x y z
#    x 1.807430 0.000000 -0.008750 
#    y 0.000000 1.787980 0.000000 
#    z -0.008750 0.000000 1.848740 
# 
# From -- ./inp_files/29670.got.cif
#   From: 2010.05.17/outbox.cif.g08.bks.cpg/sg10_15_cif.got.tgz:29670.got - 2010.06.03 11:33:40.
