data_PCOD9151037
_publ_section_title
;
Structure prediction by ZEFSAII (Michael W. Deem and Ramdas Pophale) SiO2 
 PCOD9151037
Probable space group: P 2/M
;
_chemical_formula_sum "Si O2"
_cell_formula_units_Z 28
_cell_length_a 9.409960
_cell_length_b 14.017828
_cell_length_c 12.679541
_cell_angle_alpha 90.000000
_cell_angle_beta 63.003303
_cell_angle_gamma 90.000000
_cell_volume 1490.272462
_symmetry_space_group_name_H-M "P 2/M"
_symmetry_group_IT_number 10
_symmetry_cell_setting 'monoclinic'
loop_
_space_group_symop_operation_xyz
x,y,z
-x,y,-z
-x,-y,-z
x,-y,z
loop_
_atom_site_type_symbol
_atom_site_label
_atom_site_fract_x
_atom_site_fract_y
_atom_site_fract_z
Si Si1 0.667098 0.757963 0.769034
Si Si2 0.811288 0.110612 0.539788
Si Si3 0.924101 0.387535 0.191452
Si Si4 0.690485 0.238793 0.170012
Si Si5 0.820126 0.885737 0.293642
Si Si6 0.139060 0.214876 0.095575
Si Si7 0.060814 0.387838 0.367317
O O1 0.720389 0.829295 0.658163
O O2 0.481064 0.739249 0.819907
O O3 0.722006 0.795416 0.864959
O O4 0.777764 0.665545 0.716196
O O5 0.794313 0.142121 0.424105
O O6 0.000000 0.114911 0.500000
O O7 0.761659 0.000000 0.563273
O O8 0.932051 0.500000 0.164459
O O9 0.776402 0.332729 0.188592
O O10 0.077499 0.324752 0.105799
O O11 0.933211 0.375821 0.315833
O O12 0.686870 0.162629 0.265781
O O13 0.798385 0.192128 0.041380
O O14 0.987570 0.843038 0.192545
O O15 0.823199 0.000000 0.286107
O O16 0.091021 0.500000 0.366825
O O17 0.000000 0.350759 0.500000
#
# Coordination Sequence:
#
# PCOD9151037 Si02
#       7
#     4   4   4   4   4   4   4
#     4  11  22  36  58  82 117 150 177 227 286 327
#     4  10  20  37  62  85 105 140 192 233 268 329
#     4   9  19  37  59  82 109 147 191 230 269 318
#     4  11  24  36  52  87 120 146 181 225 281 337
#     4  10  21  39  61  83 108 144 189 234 275 322
#     4  10  21  38  59  81 109 150 195 226 264 327
#     4   9  19  36  59  83 108 146 192 228 266 327
#
# _framework density 18.788509000000001
#
# number of rings (size 3 to 8) (size 9 to 14) (size 15 to 20)
#    0.000    2.000    1.429    2.571    4.000    4.000 
#    0.000    1.429    0.000    9.429    0.000    0.000 
#    0.000    0.000    0.000    0.000    0.000    0.000 
#
# Total GULP energy -156187.972239 kJ/mol
# GULP energy per Si atom -5578.141866 kJ/mol
# Density = 1.874575 g / cm^3
# Si number density = 18.788509 Si / 1000 Ang^3
#
#
#
# Elastic Constant Matrix: (Units=GPa)
#
#
# Indices 1 2 3 4 5 6 
#
# 1 113.9579 18.1951 15.1490 0.0000 13.7092 0.0000
# 2 18.1951 78.5029 18.7889 0.0000 11.0932 0.0000
# 3 15.1490 18.7889 66.1795 0.0000 24.7242 0.0000
# 4 0.0000 0.0000 0.0000 7.9730 0.0000 13.2771
# 5 13.7092 11.0932 24.7242 0.0000 28.8094 0.0000
# 6 0.0000 0.0000 0.0000 13.2771 0.0000 14.6759
#
#
#
# Elastic Compliance Matrix: (Units=1/GPa)
#
#
# Indices 1 2 3 4 5 6 
#
# 1 0.009513 -0.001607 -0.000385 0.000000 -0.003578 0.000000
# 2 -0.001607 0.014099 -0.002786 0.000000 -0.002273 0.000000
# 3 -0.000385 -0.002786 0.022845 0.000000 -0.018350 0.000000
# 4 0.000000 0.000000 0.000000 -0.247608 0.000000 0.224008
# 5 -0.003578 -0.002273 -0.018350 0.000000 0.053037 0.000000
# 6 0.000000 0.000000 0.000000 0.224008 0.000000 -0.134519
#
#
# Mechanical properties :
#
#
# Convention : Reuss Voigt Hill
#
# Bulk Modulus (GPa) = 27.09887 40.32293 33.71090
# Shear Modulus (GPa) = -19.17337 24.05881 2.44272
#
# Velocity S-wave (km/s) = -3.19797 3.58230 1.14146
# Velocity P-wave (km/s) = 0.90467 6.21438 4.44055
#
# Compressibility (1/GPa) = 0.03690191
#
# Stress axis : x y z
#
# Youngs Moduli (GPa) = 105.11516 70.92770 43.77409
#
# Poissons Ratio (x) = 0.11400 0.01684
# Poissons Ratio (y) = 0.16895 0.12193
# Poissons Ratio (z) = 0.04043 0.19757
#
# Static dielectric constant tensor:
#      x y z
#    x 1.655830 0.000000 0.030660 
#    y 0.000000 1.651700 0.000000 
#    z 0.030660 0.000000 1.658490 
# 
# From -- ./inp_files/25166.got.cif
#   From: 2010.05.17/outbox.cif.g08.bks.cpg/sg10_13_cif.got.tgz:25166.got - 2010.06.03 11:33:40.
