data_PCOD9151412
_publ_section_title
;
Structure prediction by ZEFSAII (Michael W. Deem and Ramdas Pophale) SiO2 
 PCOD9151412
Probable space group: P 2/M
;
_chemical_formula_sum "Si O2"
_cell_formula_units_Z 19
_cell_length_a 11.947441
_cell_length_b 8.864137
_cell_length_c 7.064729
_cell_angle_alpha 90.000000
_cell_angle_beta 68.142400
_cell_angle_gamma 90.000000
_cell_volume 694.396076
_symmetry_space_group_name_H-M "P 2/M"
_symmetry_group_IT_number 10
_symmetry_cell_setting 'monoclinic'
loop_
_space_group_symop_operation_xyz
x,y,z
-x,y,-z
-x,-y,-z
x,-y,z
loop_
_atom_site_type_symbol
_atom_site_label
_atom_site_fract_x
_atom_site_fract_y
_atom_site_fract_z
Si Si1 0.625051 0.665116 0.536436
Si Si2 0.040587 0.333063 0.193074
Si Si3 0.039655 0.000000 0.753754
Si Si4 0.695531 0.693618 0.100568
Si Si5 0.500000 0.500000 0.000000
Si Si6 0.295381 0.000000 0.409666
Si Si7 0.371197 0.000000 0.974735
O O1 0.500000 0.661914 0.500000
O O2 0.627037 0.500000 0.649125
O O3 0.718463 0.649088 0.303612
O O4 0.642251 0.832599 0.608883
O O5 0.002136 0.500000 0.293261
O O6 0.001630 0.167355 0.292251
O O7 0.185833 0.331176 0.095988
O O8 0.000000 0.332725 0.000000
O O9 0.819060 0.000000 0.383162
O O10 0.000000 0.000000 0.000000
O O11 0.583251 0.626377 0.058485
O O12 0.654153 0.862756 0.142096
O O13 0.269874 0.000000 0.201796
O O14 0.500000 0.000000 0.000000
#
# Coordination Sequence:
#
# PCOD9151412 Si02
#       7
#     4   4   2   4   1   2   2
#     4  11  23  40  67 100 139 185 233 297 356 422
#     4  10  20  38  67  96 128 173 231 290 344 403
#     4  10  21  38  66  96 127 170 228 297 352 395
#     4  12  23  43  67 101 140 186 233 286 359 439
#     4  12  24  38  72 100 150 178 234 282 364 448
#     4  12  26  44  68 105 145 183 244 304 350 424
#     4  12  26  44  69  99 147 198 230 281 365 442
#
# _framework density 27.361906999999999
#
# number of rings (size 3 to 8) (size 9 to 14) (size 15 to 20)
#    0.000    0.842    3.158    5.368    0.000    2.526 
#    0.000    2.105    0.000    1.263    0.000    0.000 
#    0.000    0.000    0.000    0.000    0.000    0.000 
#
# Total GULP energy -105920.554682 kJ/mol
# GULP energy per Si atom -5574.766036 kJ/mol
# Density = 2.729963 g / cm^3
# Si number density = 27.361907 Si / 1000 Ang^3
#
#
#
# Elastic Constant Matrix: (Units=GPa)
#
#
# Indices 1 2 3 4 5 6 
#
# 1 94.4497 52.2646 13.9520 0.0000 -8.2082 0.0000
# 2 52.2646 370.3637 26.3175 0.0000 6.6424 0.0000
# 3 13.9520 26.3175 94.6907 0.0000 6.7169 0.0000
# 4 0.0000 0.0000 0.0000 19.9085 0.0000 -0.7677
# 5 -8.2082 6.6424 6.7169 0.0000 28.8914 0.0000
# 6 0.0000 0.0000 0.0000 -0.7677 0.0000 31.6802
#
#
#
# Elastic Compliance Matrix: (Units=1/GPa)
#
#
# Indices 1 2 3 4 5 6 
#
# 1 0.012116 -0.001670 -0.001619 0.000000 0.004203 0.000000
# 2 -0.001670 0.002991 -0.000511 0.000000 -0.001043 0.000000
# 3 -0.001619 -0.000511 0.011150 0.000000 -0.002935 0.000000
# 4 0.000000 0.000000 0.000000 0.050277 0.000000 0.001218
# 5 0.004203 -0.001043 -0.002935 0.000000 0.036729 0.000000
# 6 0.000000 0.000000 0.000000 0.001218 0.000000 0.031595
#
#
# Mechanical properties :
#
#
# Convention : Reuss Voigt Hill
#
# Bulk Modulus (GPa) = 53.60315 82.73024 68.16670
# Shear Modulus (GPa) = 31.51073 47.22737 39.36905
#
# Velocity S-wave (km/s) = 3.39725 4.15905 3.79730
# Velocity P-wave (km/s) = 5.91788 7.30512 6.64779
#
# Compressibility (1/GPa) = 0.01865562
#
# Stress axis : x y z
#
# Youngs Moduli (GPa) = 82.53380 334.36284 89.69006
#
# Poissons Ratio (x) = 0.55843 0.14522
# Poissons Ratio (y) = 0.13784 0.04584
# Poissons Ratio (z) = 0.13364 0.17091
#
# Static dielectric constant tensor:
#      x y z
#    x 2.181510 0.000000 -0.099110 
#    y 0.000000 2.542940 0.000000 
#    z -0.099110 0.000000 2.078930 
# 
# From -- ./inp_files/22330.got.cif
#   From: 2010.05.17/outbox.cif.g08.bks.cpg/sg10_12_cif.got.tgz:22330.got - 2010.06.03 11:33:40.
