data_PCOD9151567
_publ_section_title
;
Structure prediction by ZEFSAII (Michael W. Deem and Ramdas Pophale) SiO2 
 PCOD9151567
Probable space group: P 2/M
;
_chemical_formula_sum "Si O2"
_cell_formula_units_Z 24
_cell_length_a 12.742083
_cell_length_b 8.819211
_cell_length_c 12.562069
_cell_angle_alpha 90.000000
_cell_angle_beta 109.338784
_cell_angle_gamma 90.000000
_cell_volume 1332.013686
_symmetry_space_group_name_H-M "P 2/M"
_symmetry_group_IT_number 10
_symmetry_cell_setting 'monoclinic'
loop_
_space_group_symop_operation_xyz
x,y,z
-x,y,-z
-x,-y,-z
x,-y,z
loop_
_atom_site_type_symbol
_atom_site_label
_atom_site_fract_x
_atom_site_fract_y
_atom_site_fract_z
Si Si1 0.880094 0.818924 0.013781
Si Si2 0.742176 0.680672 0.780009
Si Si3 0.487588 0.818179 0.370586
Si Si4 0.112740 0.319831 0.748962
Si Si5 0.877806 0.181487 0.627930
Si Si6 0.268221 0.181017 0.630813
O O1 0.787816 0.750773 0.904595
O O2 0.867659 0.000000 0.018451
O O3 0.876852 0.745039 0.128644
O O4 0.000000 0.788191 0.000000
O O5 0.751385 0.500000 0.785321
O O6 0.616842 0.732519 0.713673
O O7 0.818071 0.746708 0.710206
O O8 0.500000 0.781495 0.500000
O O9 0.603846 0.783384 0.352156
O O10 0.467917 0.000000 0.357369
O O11 0.101779 0.500000 0.748106
O O12 0.216192 0.269485 0.711671
O O13 0.001365 0.247118 0.661349
O O14 0.804692 0.214129 0.499046
O O15 0.883010 0.000000 0.643578
O O16 0.259714 0.000000 0.647258
#
# Coordination Sequence:
#
# PCOD9151567 Si02
#       6
#     4   4   4   4   4   4
#     4  11  23  41  66  88 115 161 208 248 293 361
#     4  12  24  37  60  95 128 155 194 254 313 355
#     4  10  20  40  65  89 119 162 210 249 289 353
#     4  12  25  39  59  91 129 160 195 252 313 363
#     4  11  21  38  62  89 122 163 207 247 293 360
#     4  10  22  40  63  88 121 165 209 248 291 356
#
# _framework density 18.017831999999999
#
# number of rings (size 3 to 8) (size 9 to 14) (size 15 to 20)
#    0.000    1.000    3.333    4.500    0.000    5.000 
#    0.000    0.833    0.000    5.000    0.000    0.000 
#    0.000    0.000    0.000    0.000    0.000    0.000 
#
# Total GULP energy -134251.558875 kJ/mol
# GULP energy per Si atom -5593.814953 kJ/mol
# Density = 1.797682 g / cm^3
# Si number density = 18.017832 Si / 1000 Ang^3
#
#
#
# Elastic Constant Matrix: (Units=GPa)
#
#
# Indices 1 2 3 4 5 6 
#
# 1 99.1963 44.9564 27.5698 0.0000 2.1958 0.0000
# 2 44.9564 69.6676 34.8946 0.0000 2.1085 0.0000
# 3 27.5698 34.8946 53.7618 0.0000 11.2963 0.0000
# 4 0.0000 0.0000 0.0000 174.3555 0.0000 -81.3216
# 5 2.1958 2.1085 11.2963 0.0000 28.5528 0.0000
# 6 0.0000 0.0000 0.0000 -81.3216 0.0000 59.3178
#
#
#
# Elastic Compliance Matrix: (Units=1/GPa)
#
#
# Indices 1 2 3 4 5 6 
#
# 1 0.014395 -0.008248 -0.002098 0.000000 0.000332 0.000000
# 2 -0.008248 0.026476 -0.013827 0.000000 0.004149 0.000000
# 3 -0.002098 -0.013827 0.030978 0.000000 -0.011073 0.000000
# 4 0.000000 0.000000 0.000000 0.015906 0.000000 0.021807
# 5 0.000332 0.004149 -0.011073 0.000000 0.039072 0.000000
# 6 0.000000 0.000000 0.000000 0.021807 0.000000 0.046754
#
#
# Mechanical properties :
#
#
# Convention : Reuss Voigt Hill
#
# Bulk Modulus (GPa) = 42.54844 48.60748 45.57796
# Shear Modulus (GPa) = 21.76168 60.12554 40.94361
#
# Velocity S-wave (km/s) = 3.47909 5.78295 4.77213
# Velocity P-wave (km/s) = 6.30909 8.46321 7.46427
#
# Compressibility (1/GPa) = 0.02350262
#
# Stress axis : x y z
#
# Youngs Moduli (GPa) = 69.46883 37.76974 32.28138
#
# Poissons Ratio (x) = 0.31153 0.06773
# Poissons Ratio (y) = 0.57299 0.44635
# Poissons Ratio (z) = 0.14576 0.52223
#
# Static dielectric constant tensor:
#      x y z
#    x 1.600150 0.000000 0.001560 
#    y 0.000000 1.597050 0.000000 
#    z 0.001560 0.000000 1.590200 
# 
# From -- ./inp_files/45047.got.cif
#   From: 2010.05.17/outbox.cif.g08.bks.cpg/sg10_23_cif.got.tgz:45047.got - 2010.06.03 11:33:40.
