data_PCOD9151021
_publ_section_title
;
Structure prediction by ZEFSAII (Michael W. Deem and Ramdas Pophale) SiO2 
 PCOD9151021
Probable space group: P 2/M
;
_chemical_formula_sum "Si O2"
_cell_formula_units_Z 28
_cell_length_a 9.173592
_cell_length_b 14.763311
_cell_length_c 21.281442
_cell_angle_alpha 90.000000
_cell_angle_beta 30.024344
_cell_angle_gamma 90.000000
_cell_volume 1442.160825
_symmetry_space_group_name_H-M "P 2/M"
_symmetry_group_IT_number 10
_symmetry_cell_setting 'monoclinic'
loop_
_space_group_symop_operation_xyz
x,y,z
-x,y,-z
-x,-y,-z
x,-y,z
loop_
_atom_site_type_symbol
_atom_site_label
_atom_site_fract_x
_atom_site_fract_y
_atom_site_fract_z
Si Si1 0.676796 0.000000 0.533932
Si Si2 0.756880 0.693936 0.266980
Si Si3 0.961799 0.000000 0.291414
Si Si4 0.857366 0.603805 0.482196
Si Si5 0.254809 0.192379 0.145712
Si Si6 0.691956 0.261143 0.739156
Si Si7 0.311759 0.832715 0.376670
Si Si8 0.775220 0.399986 0.140137
O O1 0.885141 0.000000 0.394909
O O2 0.350276 0.000000 0.627788
O O3 0.717220 0.083134 0.566439
O O4 0.486044 0.630598 0.389364
O O5 0.583122 0.777931 0.301404
O O6 0.909519 0.638154 0.154119
O O7 0.991371 0.739986 0.224366
O O8 0.128644 0.092023 0.208840
O O9 0.893484 0.500000 0.445635
O O10 0.000000 0.603264 0.500000
O O11 0.011449 0.680906 0.381462
O O12 0.374687 0.234782 0.165338
O O13 0.500000 0.187773 0.000000
O O14 0.667379 0.169201 0.706418
O O15 0.466655 0.330538 0.792379
O O16 0.000000 0.784000 0.500000
O O17 0.650378 0.500000 0.198259
O O18 0.000000 0.405115 0.000000
#
# Coordination Sequence:
#
# PCOD9151021 Si02
#       8
#     2   4   2   4   4   4   4   4
#     4  11  23  38  67 104 131 162 202 262 335 394
#     4  11  21  38  63  90 126 164 212 261 319 383
#     4  11  25  42  69  94 131 171 213 260 329 387
#     4  11  20  36  65  98 131 160 200 267 335 389
#     4  12  27  46  64  87 128 178 224 266 317 384
#     4  11  22  38  64  94 127 168 214 266 322 385
#     4  11  19  37  60  97 128 155 199 261 318 384
#     4  10  20  37  61  89 123 169 221 263 308 372
#
# _framework density 19.415309000000001
#
# number of rings (size 3 to 8) (size 9 to 14) (size 15 to 20)
#    0.000    1.000    5.714    3.000    0.000    1.143 
#    0.000    3.571    0.000    6.000    0.000    0.000 
#    0.000    0.000    0.000    0.000    0.000    0.000 
#
# Total GULP energy -155927.684953 kJ/mol
# GULP energy per Si atom -5568.845891 kJ/mol
# Density = 1.937112 g / cm^3
# Si number density = 19.415309 Si / 1000 Ang^3
#
#
#
# Elastic Constant Matrix: (Units=GPa)
#
#
# Indices 1 2 3 4 5 6 
#
# 1 95.4212 49.9204 27.1779 0.0000 20.4712 0.0000
# 2 49.9204 119.1256 34.0881 0.0000 20.3334 0.0000
# 3 27.1779 34.0881 75.3431 0.0000 22.4844 0.0000
# 4 0.0000 0.0000 0.0000 27.7063 0.0000 -1.3883
# 5 20.4712 20.3334 22.4844 0.0000 34.7038 0.0000
# 6 0.0000 0.0000 0.0000 -1.3883 0.0000 15.0406
#
#
#
# Elastic Compliance Matrix: (Units=1/GPa)
#
#
# Indices 1 2 3 4 5 6 
#
# 1 0.014455 -0.004789 -0.001661 0.000000 -0.004644 0.000000
# 2 -0.004789 0.011585 -0.002890 0.000000 -0.002090 0.000000
# 3 -0.001661 -0.002890 0.017829 0.000000 -0.008878 0.000000
# 4 0.000000 0.000000 0.000000 0.036261 0.000000 0.003347
# 5 -0.004644 -0.002090 -0.008878 0.000000 0.038531 0.000000
# 6 0.000000 0.000000 0.000000 0.003347 0.000000 0.066796
#
#
# Mechanical properties :
#
#
# Convention : Reuss Voigt Hill
#
# Bulk Modulus (GPa) = 39.70243 56.91804 48.31024
# Shear Modulus (GPa) = 23.52558 27.40370 25.46464
#
# Velocity S-wave (km/s) = 3.48473 3.76100 3.62550
# Velocity P-wave (km/s) = 6.05678 6.94549 6.51630
#
# Compressibility (1/GPa) = 0.02518738
#
# Stress axis : x y z
#
# Youngs Moduli (GPa) = 69.18033 86.31596 56.08849
#
# Poissons Ratio (x) = 0.41340 0.09318
# Poissons Ratio (y) = 0.33133 0.16211
# Poissons Ratio (z) = 0.11493 0.24947
#
# Static dielectric constant tensor:
#      x y z
#    x 1.663530 0.000000 0.013280 
#    y 0.000000 1.722870 0.000000 
#    z 0.013280 0.000000 1.717180 
# 
# From -- ./inp_files/82911.got.cif
#   From: 2010.05.17/outbox.cif.g08.bks.cpg/sg10_42_cif.got.tgz:82911.got - 2010.06.03 11:33:40.
