data_PCOD9151413
_publ_section_title
;
Structure prediction by ZEFSAII (Michael W. Deem and Ramdas Pophale) SiO2 
 PCOD9151413
Probable space group: P 2/M
;
_chemical_formula_sum "Si O2"
_cell_formula_units_Z 22
_cell_length_a 21.142851
_cell_length_b 8.521688
_cell_length_c 8.329096
_cell_angle_alpha 90.000000
_cell_angle_beta 138.275885
_cell_angle_gamma 90.000000
_cell_volume 998.766978
_symmetry_space_group_name_H-M "P 2/M"
_symmetry_group_IT_number 10
_symmetry_cell_setting 'monoclinic'
loop_
_space_group_symop_operation_xyz
x,y,z
-x,y,-z
-x,-y,-z
x,-y,z
loop_
_atom_site_type_symbol
_atom_site_label
_atom_site_fract_x
_atom_site_fract_y
_atom_site_fract_z
Si Si1 0.782586 0.824319 0.132824
Si Si2 0.606916 0.683945 0.642032
Si Si3 0.192669 0.313379 0.487483
Si Si4 0.398040 0.690445 0.739263
Si Si5 0.000000 0.742589 0.000000
Si Si6 0.072604 0.330203 0.786437
O O1 0.812684 0.708263 0.331882
O O2 0.848232 0.797663 0.101329
O O3 0.794251 0.000000 0.215160
O O4 0.676417 0.785910 0.880692
O O5 0.500000 0.696213 0.500000
O O6 0.635017 0.500000 0.708091
O O7 0.611185 0.731396 0.464702
O O8 0.177356 0.500000 0.416115
O O9 0.299639 0.265624 0.640193
O O10 0.109794 0.209428 0.247903
O O11 0.401456 0.500000 0.756706
O O12 0.500000 0.747680 0.000000
O O13 0.021864 0.676813 0.862034
O O14 0.120955 0.500000 0.869878
O O15 0.000000 0.318114 0.500000
#
# Coordination Sequence:
#
# PCOD9151413 Si02
#       6
#     4   4   4   4   2   4
#     4  12  26  42  60  89 133 176 215 258 320 394
#     4  10  20  38  67  97 124 161 212 269 327 382
#     4  11  21  38  64  91 124 163 216 273 325 386
#     4   9  18  34  61  96 125 153 200 267 330 386
#     4  12  23  40  69 102 125 162 219 280 335 382
#     4  11  22  41  69  95 123 160 212 272 325 378
#
# _framework density 22.027162000000001
#
# number of rings (size 3 to 8) (size 9 to 14) (size 15 to 20)
#    0.000    1.273    1.818    5.455    0.000    5.091 
#    0.000    4.545    0.000    2.182    0.000    0.000 
#    0.000    0.000    0.000    0.000    0.000    0.000 
#
# Total GULP energy -122623.488695 kJ/mol
# GULP energy per Si atom -5573.794941 kJ/mol
# Density = 2.197703 g / cm^3
# Si number density = 22.027162 Si / 1000 Ang^3
#
#
#
# Elastic Constant Matrix: (Units=GPa)
#
#
# Indices 1 2 3 4 5 6 
#
# 1 132.1984 8.4622 43.8152 0.0000 -2.2931 0.0000
# 2 8.4622 27.3930 10.8617 0.0000 1.7562 0.0000
# 3 43.8152 10.8617 127.3225 0.0000 13.2565 0.0000
# 4 0.0000 0.0000 0.0000 4.3156 0.0000 26.0633
# 5 -2.2931 1.7562 13.2565 0.0000 40.4441 0.0000
# 6 0.0000 0.0000 0.0000 26.0633 0.0000 78.2416
#
#
#
# Elastic Compliance Matrix: (Units=1/GPa)
#
#
# Indices 1 2 3 4 5 6 
#
# 1 0.008693 -0.001588 -0.003017 0.000000 0.001551 0.000000
# 2 -0.001588 0.038088 -0.002610 0.000000 -0.000888 0.000000
# 3 -0.003017 -0.002610 0.009443 0.000000 -0.003153 0.000000
# 4 0.000000 0.000000 0.000000 -0.229021 0.000000 0.076290
# 5 0.001551 -0.000888 -0.003153 0.000000 0.025886 0.000000
# 6 0.000000 0.000000 0.000000 0.076290 0.000000 -0.012632
#
#
# Mechanical properties :
#
#
# Convention : Reuss Voigt Hill
#
# Bulk Modulus (GPa) = 23.92759 45.91022 34.91891
# Shear Modulus (GPa) = -38.11566 39.51857 0.70145
#
# Velocity S-wave (km/s) = -4.16431 4.24026 0.56492
# Velocity P-wave (km/s) = 3.49795 6.69782 4.03889
#
# Compressibility (1/GPa) = 0.04179276
#
# Stress axis : x y z
#
# Youngs Moduli (GPa) = 115.03421 26.25474 105.89367
#
# Poissons Ratio (x) = 0.04170 0.31953
# Poissons Ratio (y) = 0.18272 0.27640
# Poissons Ratio (z) = 0.34712 0.06853
#
# Static dielectric constant tensor:
#      x y z
#    x 1.811970 0.000000 0.028490 
#    y 0.000000 1.789060 0.000000 
#    z 0.028490 0.000000 1.797410 
# 
# From -- ./inp_files/34094.got.cif
#   From: 2010.05.17/outbox.cif.g08.bks.cpg/sg10_18_cif.got.tgz:34094.got - 2010.06.03 11:33:40.
