data_PCOD9151327
_publ_section_title
;
Structure prediction by ZEFSAII (Michael W. Deem and Ramdas Pophale) SiO2 
 PCOD9151327
Probable space group: P 2/M
;
_chemical_formula_sum "Si O2"
_cell_formula_units_Z 20
_cell_length_a 7.347639
_cell_length_b 8.954729
_cell_length_c 17.283593
_cell_angle_alpha 90.000000
_cell_angle_beta 53.413256
_cell_angle_gamma 90.000000
_cell_volume 913.115490
_symmetry_space_group_name_H-M "P 2/M"
_symmetry_group_IT_number 10
_symmetry_cell_setting 'monoclinic'
loop_
_space_group_symop_operation_xyz
x,y,z
-x,y,-z
-x,-y,-z
x,-y,z
loop_
_atom_site_type_symbol
_atom_site_label
_atom_site_fract_x
_atom_site_fract_y
_atom_site_fract_z
Si Si1 0.517264 0.675716 0.722068
Si Si2 0.852748 0.678742 0.869920
Si Si3 0.964975 0.324838 0.421401
Si Si4 0.754454 0.823316 0.332879
Si Si5 0.647691 0.678513 0.076650
O O1 0.468757 0.500000 0.722787
O O2 0.780740 0.685663 0.677547
O O3 0.462550 0.759151 0.656889
O O4 0.368418 0.735225 0.831649
O O5 0.901420 0.500000 0.856709
O O6 0.604175 0.697899 0.895115
O O7 0.038913 0.763081 0.772940
O O8 0.823050 0.730391 0.966757
O O9 0.900842 0.500000 0.441397
O O10 0.000000 0.270137 0.500000
O O11 0.796552 0.240309 0.407592
O O12 0.750487 0.000000 0.335861
O O13 0.684287 0.500000 0.073540
#
# Coordination Sequence:
#
# PCOD9151327 Si02
#       5
#     4   4   4   4   4
#     4  10  20  38  63  89 117 151 196 245 291 343
#     4   9  16  33  59  86 115 151 202 247 284 335
#     4  10  22  43  70  92 110 142 195 255 302 341
#     4  12  25  38  56  87 126 163 192 229 291 358
#     4   8  15  30  59  89 112 148 198 250 291 329
#
# _framework density 21.903036
#
# number of rings (size 3 to 8) (size 9 to 14) (size 15 to 20)
#    0.000    2.200    2.000    3.000    0.000    2.800 
#    0.000   11.000    0.000    0.000    0.000    0.000 
#    0.000    0.000    0.000    0.000    0.000    0.000 
#
# Total GULP energy -111735.606734 kJ/mol
# GULP energy per Si atom -5586.780337 kJ/mol
# Density = 2.185318 g / cm^3
# Si number density = 21.903036 Si / 1000 Ang^3
#
#
#
# Elastic Constant Matrix: (Units=GPa)
#
#
# Indices 1 2 3 4 5 6 
#
# 1 94.8560 38.4532 17.0901 0.0000 31.9155 0.0000
# 2 38.4532 63.3160 12.7857 0.0000 23.0329 0.0000
# 3 17.0901 12.7857 86.3886 0.0000 35.6851 0.0000
# 4 0.0000 0.0000 0.0000 7.0630 0.0000 -7.0007
# 5 31.9155 23.0329 35.6851 0.0000 49.2719 0.0000
# 6 0.0000 0.0000 0.0000 -7.0007 0.0000 34.6615
#
#
#
# Elastic Compliance Matrix: (Units=1/GPa)
#
#
# Indices 1 2 3 4 5 6 
#
# 1 0.015788 -0.006987 0.001121 0.000000 -0.007772 0.000000
# 2 -0.006987 0.022214 0.000734 0.000000 -0.006390 0.000000
# 3 0.001121 0.000734 0.016676 0.000000 -0.013147 0.000000
# 4 0.000000 0.000000 0.000000 0.177021 0.000000 0.035754
# 5 -0.007772 -0.006390 -0.013147 0.000000 0.037839 0.000000
# 6 0.000000 0.000000 0.000000 0.035754 0.000000 0.036072
#
#
# Mechanical properties :
#
#
# Convention : Reuss Voigt Hill
#
# Bulk Modulus (GPa) = 22.51568 42.35762 32.43665
# Shear Modulus (GPa) = 15.12049 29.94806 22.53427
#
# Velocity S-wave (km/s) = 2.63028 3.70172 3.21100
# Velocity P-wave (km/s) = 4.41888 6.13604 5.34684
#
# Compressibility (1/GPa) = 0.04441349
#
# Stress axis : x y z
#
# Youngs Moduli (GPa) = 63.33938 45.01743 59.96706
#
# Poissons Ratio (x) = 0.31456 -0.06725
# Poissons Ratio (y) = 0.44258 -0.04402
# Poissons Ratio (z) = -0.07103 -0.03305
#
# Static dielectric constant tensor:
#      x y z
#    x 1.828610 0.000000 0.001080 
#    y 0.000000 1.716430 0.000000 
#    z 0.001080 0.000000 1.871920 
# 
# From -- ./inp_files/31284.got.cif
#   From: 2010.05.17/outbox.cif.g08.bks.cpg/sg10_16_cif.got.tgz:31284.got - 2010.06.03 11:33:40.
