data_PCOD9151376
_publ_section_title
;
Structure prediction by ZEFSAII (Michael W. Deem and Ramdas Pophale) SiO2 
 PCOD9151376
Probable space group: P 2/M
;
_chemical_formula_sum "Si O2"
_cell_formula_units_Z 17
_cell_length_a 22.264595
_cell_length_b 7.667764
_cell_length_c 9.111003
_cell_angle_alpha 90.000000
_cell_angle_beta 27.357612
_cell_angle_gamma 90.000000
_cell_volume 714.785501
_symmetry_space_group_name_H-M "P 2/M"
_symmetry_group_IT_number 10
_symmetry_cell_setting 'monoclinic'
loop_
_space_group_symop_operation_xyz
x,y,z
-x,y,-z
-x,-y,-z
x,-y,z
loop_
_atom_site_type_symbol
_atom_site_label
_atom_site_fract_x
_atom_site_fract_y
_atom_site_fract_z
Si Si1 0.455526 0.212770 0.434879
Si Si2 0.707207 0.209203 0.712444
Si Si3 0.795485 0.788608 0.190329
Si Si4 0.085497 0.687887 0.497098
Si Si5 0.000000 0.000000 0.500000
O O1 0.500000 0.269208 0.500000
O O2 0.313620 0.269270 0.688406
O O3 0.451239 0.000000 0.444444
O O4 0.566283 0.265811 0.077896
O O5 0.734580 0.241669 0.482901
O O6 0.818099 0.286872 0.575990
O O7 0.713815 0.000000 0.716323
O O8 0.823263 0.000000 0.110432
O O9 0.936049 0.701312 0.876660
O O10 0.110630 0.500000 0.374649
O O11 0.093972 0.847127 0.367311
#
# Coordination Sequence:
#
# PCOD9151376 Si02
#       5
#     4   4   4   4   1
#     4   9  19  33  60  93 132 182 233 275 329 396
#     4  10  20  38  64  96 135 180 226 279 334 391
#     4  10  20  38  64  96 135 180 226 279 334 391
#     4  12  26  42  70 101 132 175 225 272 331 403
#     4  12  26  48  66  96 144 176 208 282 340 398
#
# _framework density 23.783360999999999
#
# number of rings (size 3 to 8) (size 9 to 14) (size 15 to 20)
#    0.000    1.647    2.353    1.765    3.294    6.588 
#    0.000    1.176    0.000    4.235    0.000    0.000 
#    0.000    0.000    0.000    0.000    0.000    0.000 
#
# Total GULP energy -94976.294682 kJ/mol
# GULP energy per Si atom -5586.840864 kJ/mol
# Density = 2.372923 g / cm^3
# Si number density = 23.783361 Si / 1000 Ang^3
#
#
#
# Elastic Constant Matrix: (Units=GPa)
#
#
# Indices 1 2 3 4 5 6 
#
# 1 114.3270 37.5083 29.9786 0.0000 -30.4517 0.0000
# 2 37.5083 112.3402 26.9684 0.0000 10.0617 0.0000
# 3 29.9786 26.9684 142.4050 0.0000 -23.8515 0.0000
# 4 0.0000 0.0000 0.0000 -11.0686 0.0000 8.2939
# 5 -30.4517 10.0617 -23.8515 0.0000 42.7985 0.0000
# 6 0.0000 0.0000 0.0000 8.2939 0.0000 -82.9085
#
#
#
# Elastic Compliance Matrix: (Units=1/GPa)
#
#
# Indices 1 2 3 4 5 6 
#
# 1 0.013420 -0.005458 0.000025 0.000000 0.010845 0.000000
# 2 -0.005458 0.012047 -0.002490 0.000000 -0.008103 0.000000
# 3 0.000025 -0.002490 0.008371 0.000000 0.005268 0.000000
# 4 0.000000 0.000000 0.000000 -0.097667 0.000000 -0.009770
# 5 0.010845 -0.008103 0.005268 0.000000 0.035923 0.000000
# 6 0.000000 0.000000 0.000000 -0.009770 0.000000 -0.013039
#
#
# Mechanical properties :
#
#
# Convention : Reuss Voigt Hill
#
# Bulk Modulus (GPa) = 55.57859 61.99808 58.78834
# Shear Modulus (GPa) = -261.75095 8.07206 -126.83945
#
# Velocity S-wave (km/s) = -10.50215 1.84428 -7.31074
# Velocity P-wave (km/s) = 11.11939 5.53711 6.81841
#
# Compressibility (1/GPa) = 0.01799254
#
# Stress axis : x y z
#
# Youngs Moduli (GPa) = 74.51765 83.00627 119.46268
#
# Poissons Ratio (x) = 0.45304 -0.00299
# Poissons Ratio (y) = 0.40671 0.29743
# Poissons Ratio (z) = -0.00187 0.20666
#
# Static dielectric constant tensor:
#      x y z
#    x 1.816290 0.000000 -0.066690 
#    y 0.000000 1.878740 0.000000 
#    z -0.066690 0.000000 1.620280 
# 
# From -- ./inp_files/33610.got.cif
#   From: 2010.05.17/outbox.cif.g08.bks.cpg/sg10_17_cif.got.tgz:33610.got - 2010.06.03 11:33:40.
