data_PCOD9151440
_publ_section_title
;
Structure prediction by ZEFSAII (Michael W. Deem and Ramdas Pophale) SiO2 
 PCOD9151440
Probable space group: P 2/M
;
_chemical_formula_sum "Si O2"
_cell_formula_units_Z 32
_cell_length_a 14.334627
_cell_length_b 9.304212
_cell_length_c 23.418535
_cell_angle_alpha 90.000000
_cell_angle_beta 32.007236
_cell_angle_gamma 90.000000
_cell_volume 1655.477139
_symmetry_space_group_name_H-M "P 2/M"
_symmetry_group_IT_number 10
_symmetry_cell_setting 'monoclinic'
loop_
_space_group_symop_operation_xyz
x,y,z
-x,y,-z
-x,-y,-z
x,-y,z
loop_
_atom_site_type_symbol
_atom_site_label
_atom_site_fract_x
_atom_site_fract_y
_atom_site_fract_z
Si Si1 0.019015 0.166935 0.729766
Si Si2 0.519078 0.666680 0.646066
Si Si3 0.125880 0.167179 0.541537
Si Si4 0.735149 0.828215 0.727124
Si Si5 0.044307 0.329076 0.043443
Si Si6 0.438298 0.666805 0.816828
Si Si7 0.314579 0.669816 0.127203
Si Si8 0.772190 0.171028 0.266996
O O1 0.089179 0.179306 0.628700
O O2 0.166068 0.199983 0.700393
O O3 0.849283 0.267880 0.823472
O O4 0.965504 0.000000 0.765559
O O5 0.530492 0.500000 0.624085
O O6 0.710981 0.732537 0.556670
O O7 0.418008 0.676230 0.759066
O O8 0.410028 0.755514 0.656310
O O9 0.940279 0.205481 0.608354
O O10 0.166602 0.000000 0.507530
O O11 0.596183 0.767149 0.754703
O O12 0.689425 0.754358 0.811088
O O13 0.723509 0.000000 0.738304
O O14 0.015752 0.500000 0.068462
O O15 0.252037 0.297966 0.942571
O O16 0.000000 0.301859 0.000000
O O17 0.922226 0.237231 0.148154
O O18 0.480801 0.500000 0.808148
O O19 0.291193 0.500000 0.149118
O O20 0.500000 0.692371 0.000000
O O21 0.759483 0.000000 0.265593
#
# Coordination Sequence:
#
# PCOD9151440 Si02
#       8
#     4   4   4   4   4   4   4   4
#     4   9  21  40  59  83 117 154 190 234 292 344
#     4  11  23  40  61  86 115 153 196 241 293 344
#     4   9  20  41  62  82 113 152 190 238 294 344
#     4  10  22  39  60  85 117 153 191 238 291 345
#     4  10  20  39  60  80 117 160 192 236 292 344
#     4  10  22  39  59  84 118 156 194 237 289 346
#     4  10  21  36  56  84 115 151 194 237 285 341
#     4  11  23  38  59  89 119 152 196 241 286 346
#
# _framework density 19.329774
#
# number of rings (size 3 to 8) (size 9 to 14) (size 15 to 20)
#    0.000    2.000    1.250    2.250    1.750    7.250 
#    0.000    5.000    0.000    0.000    0.000    0.000 
#    0.000    0.000    0.000    0.000    0.000    0.000 
#
# Total GULP energy -178742.188079 kJ/mol
# GULP energy per Si atom -5585.693377 kJ/mol
# Density = 1.928578 g / cm^3
# Si number density = 19.329774 Si / 1000 Ang^3
#
#
#
# Elastic Constant Matrix: (Units=GPa)
#
#
# Indices 1 2 3 4 5 6 
#
# 1 68.8762 27.6531 0.5679 0.0000 -20.2921 0.0000
# 2 27.6531 63.3894 30.7081 0.0000 -18.2693 0.0000
# 3 0.5679 30.7081 48.8653 0.0000 -21.1156 0.0000
# 4 0.0000 0.0000 0.0000 32.8504 0.0000 -8.8562
# 5 -20.2921 -18.2693 -21.1156 0.0000 23.2189 0.0000
# 6 0.0000 0.0000 0.0000 -8.8562 0.0000 -49.4411
#
#
#
# Elastic Compliance Matrix: (Units=1/GPa)
#
#
# Indices 1 2 3 4 5 6 
#
# 1 0.032543 -0.015522 0.026998 0.000000 0.040780 0.000000
# 2 -0.015522 0.031034 -0.024105 0.000000 -0.011069 0.000000
# 3 0.026998 -0.024105 0.061446 0.000000 0.060508 0.000000
# 4 0.000000 0.000000 0.000000 0.029039 0.000000 -0.005202
# 5 0.040780 -0.011069 0.060508 0.000000 0.125026 0.000000
# 6 0.000000 0.000000 0.000000 -0.005202 0.000000 -0.019294
#
#
# Mechanical properties :
#
#
# Convention : Reuss Voigt Hill
#
# Bulk Modulus (GPa) = 10.02368 33.22101 21.62235
# Shear Modulus (GPa) = 15.70813 9.47239 12.59026
#
# Velocity S-wave (km/s) = 2.85378 2.21609 2.55491
# Velocity P-wave (km/s) = 4.00694 4.87564 4.46248
#
# Compressibility (1/GPa) = 0.09976375
#
# Stress axis : x y z
#
# Youngs Moduli (GPa) = 30.72890 32.22234 16.27453
#
# Poissons Ratio (x) = 0.50016 -0.43938
# Poissons Ratio (y) = 0.47698 0.39230
# Poissons Ratio (z) = -0.82962 0.77673
#
# Static dielectric constant tensor:
#      x y z
#    x 1.692830 0.000000 -0.005670 
#    y 0.000000 1.641210 0.000000 
#    z -0.005670 0.000000 1.661780 
# 
# From -- ./inp_files/71497.got.cif
#   From: 2010.05.17/outbox.cif.g08.bks.cpg/sg10_36_cif.got.tgz:71497.got - 2010.06.03 11:33:40.
