data_PCOD9151001
_publ_section_title
;
Structure prediction by ZEFSAII (Michael W. Deem and Ramdas Pophale) SiO2 
 PCOD9151001
Probable space group: P 2/M
;
_chemical_formula_sum "Si O2"
_cell_formula_units_Z 28
_cell_length_a 27.784072
_cell_length_b 8.755858
_cell_length_c 9.467857
_cell_angle_alpha 90.000000
_cell_angle_beta 142.747662
_cell_angle_gamma 90.000000
_cell_volume 1394.234933
_symmetry_space_group_name_H-M "P 2/M"
_symmetry_group_IT_number 10
_symmetry_cell_setting 'monoclinic'
loop_
_space_group_symop_operation_xyz
x,y,z
-x,y,-z
-x,-y,-z
x,-y,z
loop_
_atom_site_type_symbol
_atom_site_label
_atom_site_fract_x
_atom_site_fract_y
_atom_site_fract_z
Si Si1 0.201875 0.818370 0.139905
Si Si2 0.624317 0.317569 0.948468
Si Si3 0.028842 0.322967 0.726610
Si Si4 0.237901 0.181017 0.540513
Si Si5 0.921456 0.322014 0.720302
Si Si6 0.662904 0.682694 0.716597
Si Si7 0.480618 0.816829 0.793223
O O1 0.241423 0.777337 0.383215
O O2 0.250028 0.738339 0.126952
O O3 0.206737 0.000000 0.134821
O O4 0.110336 0.767559 0.933764
O O5 0.612623 0.500000 0.922310
O O6 0.700036 0.271750 0.219242
O O7 0.638993 0.269811 0.820022
O O8 0.549323 0.238930 0.847630
O O9 0.044364 0.500000 0.805660
O O10 0.000000 0.320374 0.500000
O O11 0.955330 0.268310 0.649595
O O12 0.149588 0.222213 0.386236
O O13 0.252981 0.000000 0.588417
O O14 0.895315 0.500000 0.651471
O O15 0.000000 0.315381 0.000000
O O16 0.659979 0.500000 0.704782
O O17 0.600937 0.750814 0.459393
O O18 0.476519 0.000000 0.783532
O O19 0.500000 0.768008 0.000000
#
# Coordination Sequence:
#
# PCOD9151001 Si02
#       7
#     4   4   4   4   4   4   4
#     4  11  24  41  61  89 124 163 207 254 308 367
#     4  11  25  43  65  94 126 162 206 252 301 360
#     4  10  22  39  60  86 120 160 205 256 308 365
#     4  11  24  40  61  90 125 162 205 256 309 365
#     4  10  20  37  61  87 117 159 207 254 307 364
#     4  11  25  43  65  93 126 163 206 253 301 358
#     4  11  24  43  68  98 130 162 200 246 300 361
#
# _framework density 20.082699999999999
#
# number of rings (size 3 to 8) (size 9 to 14) (size 15 to 20)
#    0.000    1.286    1.429    3.429    2.000   11.429 
#    0.000    0.000    0.000    0.000    0.000    0.000 
#    0.000    0.000    0.000    0.000    0.000    0.000 
#
# Total GULP energy -156564.602285 kJ/mol
# GULP energy per Si atom -5591.592939 kJ/mol
# Density = 2.003699 g / cm^3
# Si number density = 20.082700 Si / 1000 Ang^3
#
#
#
# Elastic Constant Matrix: (Units=GPa)
#
#
# Indices 1 2 3 4 5 6 
#
# 1 124.6035 25.1170 6.8995 0.0000 -11.7446 0.0000
# 2 25.1170 40.7343 15.9476 0.0000 -9.4888 0.0000
# 3 6.8995 15.9476 52.8629 0.0000 -6.1604 0.0000
# 4 0.0000 0.0000 0.0000 40.7729 0.0000 9.0957
# 5 -11.7446 -9.4888 -6.1604 0.0000 33.0608 0.0000
# 6 0.0000 0.0000 0.0000 9.0957 0.0000 54.6911
#
#
#
# Elastic Compliance Matrix: (Units=1/GPa)
#
#
# Indices 1 2 3 4 5 6 
#
# 1 0.009282 -0.005564 0.000680 0.000000 0.001827 0.000000
# 2 -0.005564 0.032641 -0.008443 0.000000 0.005819 0.000000
# 3 0.000680 -0.008443 0.021590 0.000000 0.001841 0.000000
# 4 0.000000 0.000000 0.000000 0.025471 0.000000 -0.004236
# 5 0.001827 0.005819 0.001841 0.000000 0.032909 0.000000
# 6 0.000000 0.000000 0.000000 -0.004236 0.000000 0.018989
#
#
# Mechanical properties :
#
#
# Convention : Reuss Voigt Hill
#
# Bulk Modulus (GPa) = 27.13043 34.90320 31.01682
# Shear Modulus (GPa) = 27.80549 37.05407 32.42978
#
# Velocity S-wave (km/s) = 3.72499 4.30009 4.02283
# Velocity P-wave (km/s) = 5.66034 6.48628 6.08733
#
# Compressibility (1/GPa) = 0.03685898
#
# Stress axis : x y z
#
# Youngs Moduli (GPa) = 107.74115 30.63666 46.31836
#
# Poissons Ratio (x) = 0.17045 -0.03149
# Poissons Ratio (y) = 0.59943 0.39106
# Poissons Ratio (z) = -0.07326 0.25866
#
# Static dielectric constant tensor:
#      x y z
#    x 1.751090 0.000000 -0.024840 
#    y 0.000000 1.682780 0.000000 
#    z -0.024840 0.000000 1.699480 
# 
# From -- ./inp_files/36831.got.cif
#   From: 2010.05.17/outbox.cif.g08.bks.cpg/sg10_19_cif.got.tgz:36831.got - 2010.06.03 11:33:40.
