data_PCOD9151030
_publ_section_title
;
Structure prediction by ZEFSAII (Michael W. Deem and Ramdas Pophale) SiO2 
 PCOD9151030
Probable space group: P 2/M
;
_chemical_formula_sum "Si O2"
_cell_formula_units_Z 28
_cell_length_a 21.819940
_cell_length_b 12.539635
_cell_length_c 5.206676
_cell_angle_alpha 90.000000
_cell_angle_beta 63.567817
_cell_angle_gamma 90.000000
_cell_volume 1275.692779
_symmetry_space_group_name_H-M "P 2/M"
_symmetry_group_IT_number 10
_symmetry_cell_setting 'monoclinic'
loop_
_space_group_symop_operation_xyz
x,y,z
-x,y,-z
-x,-y,-z
x,-y,z
loop_
_atom_site_type_symbol
_atom_site_label
_atom_site_fract_x
_atom_site_fract_y
_atom_site_fract_z
Si Si1 0.692005 0.378626 0.305783
Si Si2 0.801848 0.214855 0.152994
Si Si3 0.256122 0.880088 0.234419
Si Si4 0.452726 0.000000 0.339117
Si Si5 0.952099 0.736644 0.839185
Si Si6 0.046866 0.500000 0.162110
Si Si7 0.437209 0.382295 0.818662
Si Si8 0.612361 0.201233 0.775608
O O1 0.697072 0.500000 0.390916
O O2 0.767028 0.327543 0.131420
O O3 0.638262 0.380256 0.170457
O O4 0.655034 0.294931 0.559975
O O5 0.783598 0.193617 0.484946
O O6 0.764244 0.137839 0.021094
O O7 0.882611 0.197265 0.967170
O O8 0.336154 0.857460 0.126270
O O9 0.240762 0.000000 0.340755
O O10 0.500000 0.000000 0.500000
O O11 0.411460 0.889273 0.379183
O O12 0.500000 0.000000 0.000000
O O13 0.000000 0.749594 0.500000
O O14 0.079342 0.616049 0.098262
O O15 0.000000 0.751398 0.000000
O O16 0.000000 0.500000 0.500000
O O17 0.000000 0.500000 0.000000
O O18 0.500000 0.381637 0.500000
O O19 0.440571 0.500000 0.944135
O O20 0.441131 0.272423 0.966748
#
# Coordination Sequence:
#
# PCOD9151030 Si02
#       8
#     4   4   4   2   4   2   4   4
#     4  10  23  40  64  99 138 175 229 280 337 410
#     4  11  23  40  69 100 133 177 225 280 337 398
#     4  11  23  44  69  96 128 177 226 284 342 400
#     4  12  32  46  70 102 134 176 226 294 354 406
#     4  10  20  37  61  93 135 176 217 266 331 404
#     4   8  16  30  52  82 124 172 209 245 310 397
#     4  10  22  41  69 100 138 185 226 278 344 417
#     4  11  24  45  68  94 138 178 229 286 351 406
#
# _framework density 21.948858000000001
#
# number of rings (size 3 to 8) (size 9 to 14) (size 15 to 20)
#    0.000    1.571    2.143    1.714    5.000    0.000 
#    0.000    2.143    0.000    9.857    0.000    0.000 
#    0.000    0.000    0.000    0.000    0.000    0.000 
#
# Total GULP energy -156170.727842 kJ/mol
# GULP energy per Si atom -5577.525994 kJ/mol
# Density = 2.189890 g / cm^3
# Si number density = 21.948858 Si / 1000 Ang^3
#
#
#
# Elastic Constant Matrix: (Units=GPa)
#
#
# Indices 1 2 3 4 5 6 
#
# 1 123.2770 29.9422 37.5454 0.0000 -2.1494 0.0000
# 2 29.9422 115.6383 11.3819 0.0000 -0.3845 0.0000
# 3 37.5454 11.3819 76.7504 0.0000 5.2630 0.0000
# 4 0.0000 0.0000 0.0000 20.6940 0.0000 9.2146
# 5 -2.1494 -0.3845 5.2630 0.0000 30.8692 0.0000
# 6 0.0000 0.0000 0.0000 9.2146 0.0000 15.4873
#
#
#
# Elastic Compliance Matrix: (Units=1/GPa)
#
#
# Indices 1 2 3 4 5 6 
#
# 1 0.010097 -0.002145 -0.004723 0.000000 0.001482 0.000000
# 2 -0.002145 0.009235 -0.000322 0.000000 0.000021 0.000000
# 3 -0.004723 -0.000322 0.015592 0.000000 -0.002991 0.000000
# 4 0.000000 0.000000 0.000000 0.065740 0.000000 -0.039114
# 5 0.001482 0.000021 -0.002991 0.000000 0.033008 0.000000
# 6 0.000000 0.000000 0.000000 -0.039114 0.000000 0.087841
#
#
# Mechanical properties :
#
#
# Convention : Reuss Voigt Hill
#
# Bulk Modulus (GPa) = 48.67223 52.60052 50.63637
# Shear Modulus (GPa) = 20.59816 29.19650 24.89733
#
# Velocity S-wave (km/s) = 3.06676 3.65116 3.37164
# Velocity P-wave (km/s) = 5.89605 6.46465 6.18688
#
# Compressibility (1/GPa) = 0.02054560
#
# Stress axis : x y z
#
# Youngs Moduli (GPa) = 99.03998 108.28726 64.13361
#
# Poissons Ratio (x) = 0.23223 0.30289
# Poissons Ratio (y) = 0.21240 0.02064
# Poissons Ratio (z) = 0.46775 0.03484
#
# Static dielectric constant tensor:
#      x y z
#    x 1.795790 0.000000 -0.001250 
#    y 0.000000 1.874900 0.000000 
#    z -0.001250 0.000000 1.841380 
# 
# From -- ./inp_files/12405.got.cif
#   From: 2010.05.17/outbox.cif.g08.bks.cpg/sg10_7_cif.got.tgz:12405.got - 2010.06.03 11:33:40.
