data_PCOD9151269
_publ_section_title
;
Structure prediction by ZEFSAII (Michael W. Deem and Ramdas Pophale) SiO2 
 PCOD9151269
Probable space group: P 2/M
;
_chemical_formula_sum "Si O2"
_cell_formula_units_Z 28
_cell_length_a 5.198819
_cell_length_b 16.036830
_cell_length_c 18.345421
_cell_angle_alpha 90.000000
_cell_angle_beta 56.211455
_cell_angle_gamma 90.000000
_cell_volume 1271.164998
_symmetry_space_group_name_H-M "P 2/M"
_symmetry_group_IT_number 10
_symmetry_cell_setting 'monoclinic'
loop_
_space_group_symop_operation_xyz
x,y,z
-x,y,-z
-x,-y,-z
x,-y,z
loop_
_atom_site_type_symbol
_atom_site_label
_atom_site_fract_x
_atom_site_fract_y
_atom_site_fract_z
Si Si1 0.409518 0.764251 0.657987
Si Si2 0.155326 0.594106 0.754864
Si Si3 0.187867 0.090722 0.599608
Si Si4 0.419908 0.591968 0.874882
Si Si5 0.838582 0.170271 0.165522
Si Si6 0.000000 0.174560 0.500000
Si Si7 0.123942 0.000000 0.064516
Si Si8 0.513816 0.237279 0.917083
O O1 0.304434 0.669720 0.686845
O O2 0.189038 0.830814 0.652069
O O3 0.430314 0.807242 0.734623
O O4 0.707608 0.766432 0.558420
O O5 0.267916 0.500000 0.719155
O O6 0.236418 0.605676 0.828307
O O7 0.786892 0.594026 0.800232
O O8 0.500000 0.091032 0.500000
O O9 0.945947 0.111055 0.575128
O O10 0.153040 0.000000 0.639294
O O11 0.344970 0.500000 0.915802
O O12 0.385668 0.668424 0.935373
O O13 0.694785 0.192870 0.109898
O O14 0.119453 0.227600 0.152857
O O15 0.986486 0.079485 0.130304
O O16 0.500000 0.000000 0.000000
O O17 0.000000 0.000000 0.000000
O O18 0.500000 0.201201 0.000000
#
# Coordination Sequence:
#
# PCOD9151269 Si02
#       8
#     4   4   4   4   4   2   2   4
#     4  11  23  40  66  97 134 169 236 270 346 401
#     4  10  21  39  66  94 132 174 223 281 340 401
#     4   9  20  39  62  90 129 169 208 267 336 394
#     4  10  20  38  61  94 129 171 215 274 339 401
#     4  12  26  42  69  95 131 178 229 275 330 402
#     4  10  23  40  65  96 138 178 213 288 339 404
#     4  12  26  50  68  95 137 179 227 280 332 384
#     4  12  23  41  65  97 131 174 222 279 338 395
#
# _framework density 22.02704
#
# number of rings (size 3 to 8) (size 9 to 14) (size 15 to 20)
#    0.000    1.286    2.857    2.786    5.000    0.857 
#    0.000    0.357    0.000    8.143    0.000    0.000 
#    0.000    0.000    0.000    0.000    0.000    0.000 
#
# Total GULP energy -156081.883746 kJ/mol
# GULP energy per Si atom -5574.352991 kJ/mol
# Density = 2.197691 g / cm^3
# Si number density = 22.027040 Si / 1000 Ang^3
#
#
#
# Elastic Constant Matrix: (Units=GPa)
#
#
# Indices 1 2 3 4 5 6 
#
# 1 92.2447 40.8237 17.0723 0.0000 2.7499 0.0000
# 2 40.8237 160.9086 45.6631 0.0000 11.5472 0.0000
# 3 17.0723 45.6631 64.3974 0.0000 -2.2340 0.0000
# 4 0.0000 0.0000 0.0000 20.1261 0.0000 5.4940
# 5 2.7499 11.5472 -2.2340 0.0000 38.2239 0.0000
# 6 0.0000 0.0000 0.0000 5.4940 0.0000 22.9182
#
#
#
# Elastic Compliance Matrix: (Units=1/GPa)
#
#
# Indices 1 2 3 4 5 6 
#
# 1 0.012300 -0.002734 -0.001327 0.000000 -0.000136 0.000000
# 2 -0.002734 0.008672 -0.005519 0.000000 -0.002746 0.000000
# 3 -0.001327 -0.005519 0.019895 0.000000 0.002926 0.000000
# 4 0.000000 0.000000 0.000000 0.053166 0.000000 -0.012745
# 5 -0.000136 -0.002746 0.002926 0.000000 0.027172 0.000000
# 6 0.000000 0.000000 0.000000 -0.012745 0.000000 0.046689
#
#
# Mechanical properties :
#
#
# Convention : Reuss Voigt Hill
#
# Bulk Modulus (GPa) = 46.06876 58.29654 52.18265
# Shear Modulus (GPa) = 25.73462 30.51975 28.12718
#
# Velocity S-wave (km/s) = 3.42178 3.72635 3.57730
# Velocity P-wave (km/s) = 6.04743 6.71100 6.38784
#
# Compressibility (1/GPa) = 0.02170669
#
# Stress axis : x y z
#
# Youngs Moduli (GPa) = 81.29757 115.31674 50.26270
#
# Poissons Ratio (x) = 0.31532 0.06669
# Poissons Ratio (y) = 0.22230 0.27742
# Poissons Ratio (z) = 0.10786 0.63647
#
# Static dielectric constant tensor:
#      x y z
#    x 1.965490 0.000000 -0.051030 
#    y 0.000000 1.842500 0.000000 
#    z -0.051030 0.000000 1.909990 
# 
# From -- ./inp_files/73505.got.cif
#   From: 2010.05.17/outbox.cif.g08.bks.cpg/sg10_37_cif.got.tgz:73505.got - 2010.06.03 11:33:40.
