data_PCOD9151921
_publ_section_title
;
Structure prediction by ZEFSAII (Michael W. Deem and Ramdas Pophale) SiO2 
 PCOD9151921
Probable space group: P 2/M
;
_chemical_formula_sum "Si O2"
_cell_formula_units_Z 24
_cell_length_a 8.699829
_cell_length_b 20.351813
_cell_length_c 7.365292
_cell_angle_alpha 90.000000
_cell_angle_beta 54.996096
_cell_angle_gamma 90.000000
_cell_volume 1068.187734
_symmetry_space_group_name_H-M "P 2/M"
_symmetry_group_IT_number 10
_symmetry_cell_setting 'monoclinic'
loop_
_space_group_symop_operation_xyz
x,y,z
-x,y,-z
-x,-y,-z
x,-y,z
loop_
_atom_site_type_symbol
_atom_site_label
_atom_site_fract_x
_atom_site_fract_y
_atom_site_fract_z
Si Si1 0.778581 0.147052 0.106655
Si Si2 0.775192 0.000000 0.690248
Si Si3 0.775363 0.000000 0.122356
Si Si4 0.779276 0.137964 0.672315
Si Si5 0.268764 0.500000 0.960732
Si Si6 0.520146 0.247615 0.766460
Si Si7 0.564782 0.399588 0.661508
Si Si8 0.136232 0.500000 0.626735
O O1 0.653272 0.212584 0.221031
O O2 0.750807 0.141071 0.907460
O O3 0.000000 0.156516 0.000000
O O4 0.721190 0.074439 0.222545
O O5 0.699189 0.067705 0.665185
O O6 0.000000 0.000000 0.500000
O O7 0.743144 0.000000 0.927208
O O8 0.000000 0.000000 0.000000
O O9 0.690002 0.197109 0.625117
O O10 0.000000 0.138475 0.500000
O O11 0.404648 0.436868 0.886070
O O12 0.193832 0.500000 0.802560
O O13 0.088161 0.500000 0.212024
O O14 0.563687 0.322082 0.688552
O O15 0.500000 0.248515 0.000000
O O16 0.500000 0.411437 0.500000
O O17 0.763749 0.436962 0.533238
#
# Coordination Sequence:
#
# PCOD9151921 Si02
#       8
#     4   2   2   4   2   4   4   2
#     4   9  18  33  51  74 102 139 184 225 272 321
#     4   8  14  27  49  71  92 132 186 225 262 318
#     4   8  14  27  49  71  96 130 178 234 269 307
#     4   9  18  33  51  72 103 141 180 226 274 319
#     4   8  15  33  58  84 107 135 178 222 264 312
#     4  10  21  36  49  75 117 146 172 221 275 321
#     4   9  18  34  56  82 111 140 179 224 260 319
#     4   8  15  33  58  84 108 136 178 221 264 315
#
# _framework density 22.467960000000001
#
# number of rings (size 3 to 8) (size 9 to 14) (size 15 to 20)
#    0.000    3.167    0.000    1.000    0.000    2.000 
#   12.000    5.000    0.000    1.000    0.000   12.833 
#    0.000    0.000    0.000    0.000    0.000    0.000 
#
# Total GULP energy -133793.446648 kJ/mol
# GULP energy per Si atom -5574.726944 kJ/mol
# Density = 2.241682 g / cm^3
# Si number density = 22.467960 Si / 1000 Ang^3
#
#
#
# Elastic Constant Matrix: (Units=GPa)
#
#
# Indices 1 2 3 4 5 6 
#
# 1 105.3037 63.5581 40.8299 0.0000 -8.7285 0.0000
# 2 63.5581 252.9565 60.6009 0.0000 -42.4613 0.0000
# 3 40.8299 60.6009 81.2190 0.0000 -22.4910 0.0000
# 4 0.0000 0.0000 0.0000 7.2100 0.0000 -4.7685
# 5 -8.7285 -42.4613 -22.4910 0.0000 41.9294 0.0000
# 6 0.0000 0.0000 0.0000 -4.7685 0.0000 18.9974
#
#
#
# Elastic Compliance Matrix: (Units=1/GPa)
#
#
# Indices 1 2 3 4 5 6 
#
# 1 0.012798 -0.002363 -0.005397 0.000000 -0.002624 0.000000
# 2 -0.002363 0.005720 -0.001893 0.000000 0.004285 0.000000
# 3 -0.005397 -0.001893 0.018317 0.000000 0.006784 0.000000
# 4 0.000000 0.000000 0.000000 0.166306 0.000000 0.041744
# 5 -0.002624 0.004285 0.006784 0.000000 0.031282 0.000000
# 6 0.000000 0.000000 0.000000 0.041744 0.000000 0.063117
#
#
# Mechanical properties :
#
#
# Convention : Reuss Voigt Hill
#
# Bulk Modulus (GPa) = 57.05232 85.49521 71.27376
# Shear Modulus (GPa) = 15.49481 31.92671 23.71076
#
# Velocity S-wave (km/s) = 2.62895 3.77369 3.25208
# Velocity P-wave (km/s) = 5.88753 7.55793 6.77441
#
# Compressibility (1/GPa) = 0.01752777
#
# Stress axis : x y z
#
# Youngs Moduli (GPa) = 78.13891 174.83017 54.59424
#
# Poissons Ratio (x) = 0.41313 0.29465
# Poissons Ratio (y) = 0.18465 0.10336
# Poissons Ratio (z) = 0.42172 0.33101
#
# Static dielectric constant tensor:
#      x y z
#    x 1.831380 0.000000 0.014940 
#    y 0.000000 1.856830 0.000000 
#    z 0.014940 0.000000 1.886130 
# 
# From -- ./inp_files/20196.got.cif
#   From: 2010.05.17/outbox.cif.g08.bks.cpg/sg10_11_cif.got.tgz:20196.got - 2010.06.03 11:33:40.
