data_PCOD9151829
_publ_section_title
;
Structure prediction by ZEFSAII (Michael W. Deem and Ramdas Pophale) SiO2 
 PCOD9151829
Probable space group: P 2/M
;
_chemical_formula_sum "Si O2"
_cell_formula_units_Z 28
_cell_length_a 10.874912
_cell_length_b 10.163331
_cell_length_c 23.349175
_cell_angle_alpha 90.000000
_cell_angle_beta 36.201081
_cell_angle_gamma 90.000000
_cell_volume 1524.200736
_symmetry_space_group_name_H-M "P 2/M"
_symmetry_group_IT_number 10
_symmetry_cell_setting 'monoclinic'
loop_
_space_group_symop_operation_xyz
x,y,z
-x,y,-z
-x,-y,-z
x,-y,z
loop_
_atom_site_type_symbol
_atom_site_label
_atom_site_fract_x
_atom_site_fract_y
_atom_site_fract_z
Si Si1 0.971841 0.844140 0.652212
Si Si2 0.862451 0.736484 0.102549
Si Si3 0.223606 0.847972 0.041898
Si Si4 0.060993 0.156070 0.752801
Si Si5 0.162783 0.653353 0.489850
Si Si6 0.500346 0.842064 0.839665
Si Si7 0.354186 0.646082 0.704750
O O1 0.027556 0.830590 0.698102
O O2 0.112896 0.753706 0.559419
O O3 0.731386 0.799199 0.736867
O O4 0.988152 0.000000 0.631308
O O5 0.670383 0.806724 0.143551
O O6 0.764279 0.651106 0.189913
O O7 0.023967 0.833367 0.074450
O O8 0.000000 0.672284 0.000000
O O9 0.139877 0.797735 0.134183
O O10 0.275608 0.000000 0.031878
O O11 0.412635 0.789293 0.933740
O O12 0.251414 0.242517 0.704057
O O13 0.091368 0.000000 0.753788
O O14 0.137534 0.500000 0.516995
O O15 0.400430 0.669606 0.380066
O O16 0.000000 0.678407 0.500000
O O17 0.509978 0.000000 0.841127
O O18 0.326657 0.500000 0.689961
#
# Coordination Sequence:
#
# PCOD9151829 Si02
#       7
#     4   4   4   4   4   4   4
#     4  10  21  35  53  79 106 134 173 218 256 293
#     4   9  16  28  49  77 105 133 164 207 258 306
#     4   8  14  26  46  73 105 139 170 203 249 305
#     4   9  19  35  53  76 106 137 171 211 255 300
#     4  10  22  40  58  76 102 135 169 207 255 310
#     4   9  16  27  47  76 108 139 171 208 252 304
#     4  10  21  36  55  77 101 134 173 210 252 305
#
# _framework density 18.370284000000002
#
# number of rings (size 3 to 8) (size 9 to 14) (size 15 to 20)
#    0.000    2.714    0.000    1.286    0.000    5.143 
#    0.000    5.714    0.000    3.429    0.000   10.000 
#    0.000    0.000    0.000    0.000    0.000    0.000 
#
# Total GULP energy -155921.600716 kJ/mol
# GULP energy per Si atom -5568.628597 kJ/mol
# Density = 1.832847 g / cm^3
# Si number density = 18.370284 Si / 1000 Ang^3
#
#
#
# Elastic Constant Matrix: (Units=GPa)
#
#
# Indices 1 2 3 4 5 6 
#
# 1 42.1935 16.1435 27.1977 0.0000 7.6852 0.0000
# 2 16.1435 35.9484 31.3681 0.0000 8.2173 0.0000
# 3 27.1977 31.3681 86.0042 0.0000 2.5241 0.0000
# 4 0.0000 0.0000 0.0000 15.7446 0.0000 -2.5709
# 5 7.6852 8.2173 2.5241 0.0000 26.3624 0.0000
# 6 0.0000 0.0000 0.0000 -2.5709 0.0000 18.6231
#
#
#
# Elastic Compliance Matrix: (Units=1/GPa)
#
#
# Indices 1 2 3 4 5 6 
#
# 1 0.032298 -0.006195 -0.007757 0.000000 -0.006742 0.000000
# 2 -0.006195 0.045668 -0.014373 0.000000 -0.011053 0.000000
# 3 -0.007757 -0.014373 0.019178 0.000000 0.004905 0.000000
# 4 0.000000 0.000000 0.000000 0.064978 0.000000 0.008970
# 5 -0.006742 -0.011053 0.004905 0.000000 0.042874 0.000000
# 6 0.000000 0.000000 0.000000 0.008970 0.000000 0.054935
#
#
# Mechanical properties :
#
#
# Convention : Reuss Voigt Hill
#
# Bulk Modulus (GPa) = 24.69387 34.84051 29.76719
# Shear Modulus (GPa) = 15.14788 18.10849 16.62819
#
# Velocity S-wave (km/s) = 2.87468 3.14307 3.01186
# Velocity P-wave (km/s) = 4.94872 5.67263 5.32299
#
# Compressibility (1/GPa) = 0.04049588
#
# Stress axis : x y z
#
# Youngs Moduli (GPa) = 30.96126 21.89737 52.14187
#
# Poissons Ratio (x) = 0.13565 0.40444
# Poissons Ratio (y) = 0.19180 0.74942
# Poissons Ratio (z) = 0.24015 0.31473
#
# Static dielectric constant tensor:
#      x y z
#    x 1.624540 0.000000 0.007430 
#    y 0.000000 1.614010 0.000000 
#    z 0.007430 0.000000 1.664370 
# 
# From -- ./inp_files/88835.got.cif
#   From: 2010.05.17/outbox.cif.g08.bks.cpg/sg10_45_cif.got.tgz:88835.got - 2010.06.03 11:33:40.
