data_PCOD9151792
_publ_section_title
;
Structure prediction by ZEFSAII (Michael W. Deem and Ramdas Pophale) SiO2 
 PCOD9151792
Probable space group: P 2/M
;
_chemical_formula_sum "Si O2"
_cell_formula_units_Z 26
_cell_length_a 13.818865
_cell_length_b 19.226610
_cell_length_c 5.532157
_cell_angle_alpha 90.000000
_cell_angle_beta 99.659217
_cell_angle_gamma 90.000000
_cell_volume 1449.000716
_symmetry_space_group_name_H-M "P 2/M"
_symmetry_group_IT_number 10
_symmetry_cell_setting 'monoclinic'
loop_
_space_group_symop_operation_xyz
x,y,z
-x,y,-z
-x,-y,-z
x,-y,z
loop_
_atom_site_type_symbol
_atom_site_label
_atom_site_fract_x
_atom_site_fract_y
_atom_site_fract_z
Si Si1 0.380981 0.842779 0.953816
Si Si2 0.228282 0.421440 0.210128
Si Si3 0.061822 0.500000 0.778899
Si Si4 0.697896 0.310929 0.137624
Si Si5 0.619176 0.919718 0.547004
Si Si6 0.110090 0.638839 0.559185
Si Si7 0.409972 0.424701 0.646315
O O1 0.335843 0.765943 0.936007
O O2 0.351920 0.881394 0.690837
O O3 0.500000 0.838306 0.000000
O O4 0.351763 0.882543 0.189073
O O5 0.218468 0.500000 0.104603
O O6 0.132395 0.396328 0.310923
O O7 0.309759 0.429048 0.454371
O O8 0.270795 0.359520 0.070353
O O9 0.112835 0.575709 0.756841
O O10 0.000000 0.500000 0.500000
O O11 0.000000 0.500000 0.000000
O O12 0.797526 0.311818 0.342477
O O13 0.607192 0.355120 0.210624
O O14 0.500000 0.919892 0.500000
O O15 0.651653 0.000000 0.557831
O O16 0.000000 0.668574 0.500000
O O17 0.500000 0.419308 0.500000
O O18 0.418507 0.500000 0.781477
#
# Coordination Sequence:
#
# PCOD9151792 Si02
#       7
#     4   4   2   4   4   4   4
#     4  10  22  35  56  85 119 153 184 222 273 329
#     4  10  21  35  51  74 100 140 196 248 294 343
#     4  10  22  36  58  80  96 131 192 249 304 354
#     4  11  24  32  53  76 110 147 188 238 289 348
#     4   9  18  36  60  86 115 149 184 218 263 329
#     4  10  23  37  53  74 102 141 188 248 302 350
#     4   9  20  36  49  66  98 146 203 247 280 326
#
# _framework density 17.943401000000001
#
# number of rings (size 3 to 8) (size 9 to 14) (size 15 to 20)
#    0.000    2.154    0.769    0.923   12.923    2.462 
#    0.000    2.308    0.000    0.000    0.000    0.000 
#    0.000    3.692    0.000    0.000    0.000    0.000 
#
# Total GULP energy -144910.817296 kJ/mol
# GULP energy per Si atom -5573.492973 kJ/mol
# Density = 1.790256 g / cm^3
# Si number density = 17.943401 Si / 1000 Ang^3
#
#
#
# Elastic Constant Matrix: (Units=GPa)
#
#
# Indices 1 2 3 4 5 6 
#
# 1 60.1630 27.6164 14.6243 0.0000 -7.4611 0.0000
# 2 27.6164 162.9567 76.8683 0.0000 -8.8131 0.0000
# 3 14.6243 76.8683 106.4521 0.0000 -14.6012 0.0000
# 4 0.0000 0.0000 0.0000 23.1729 0.0000 5.4283
# 5 -7.4611 -8.8131 -14.6012 0.0000 28.4471 0.0000
# 6 0.0000 0.0000 0.0000 5.4283 0.0000 18.4584
#
#
#
# Elastic Compliance Matrix: (Units=1/GPa)
#
#
# Indices 1 2 3 4 5 6 
#
# 1 0.018449 -0.002993 0.000176 0.000000 0.004002 0.000000
# 2 -0.002993 0.009802 -0.006839 0.000000 -0.001259 0.000000
# 3 0.000176 -0.006839 0.015086 0.000000 0.005671 0.000000
# 4 0.000000 0.000000 0.000000 0.046347 0.000000 -0.013630
# 5 0.004002 -0.001259 0.005671 0.000000 0.038723 0.000000
# 6 0.000000 0.000000 0.000000 -0.013630 0.000000 0.058184
#
#
# Mechanical properties :
#
#
# Convention : Reuss Voigt Hill
#
# Bulk Modulus (GPa) = 41.62578 63.08776 52.35677
# Shear Modulus (GPa) = 23.37406 28.04656 25.71031
#
# Velocity S-wave (km/s) = 3.61315 3.95784 3.78942
# Velocity P-wave (km/s) = 6.37614 7.49144 6.95618
#
# Compressibility (1/GPa) = 0.02402357
#
# Stress axis : x y z
#
# Youngs Moduli (GPa) = 54.20362 102.02049 66.28555
#
# Poissons Ratio (x) = 0.30534 -0.01164
# Poissons Ratio (y) = 0.16223 0.45335
# Poissons Ratio (z) = -0.00952 0.69776
#
# Static dielectric constant tensor:
#      x y z
#    x 1.679280 0.000000 0.028240 
#    y 0.000000 1.598120 0.000000 
#    z 0.028240 0.000000 1.771470 
# 
# From -- ./inp_files/9512.got.cif
#   From: 2010.05.17/outbox.cif.g08.bks.cpg/sg10_5_cif.got.tgz:9512.got - 2010.06.03 11:33:40.
