data_PCOD9151392
_publ_section_title
;
Structure prediction by ZEFSAII (Michael W. Deem and Ramdas Pophale) SiO2 
 PCOD9151392
Probable space group: P 2/M
;
_chemical_formula_sum "Si O2"
_cell_formula_units_Z 21
_cell_length_a 15.616997
_cell_length_b 10.872156
_cell_length_c 12.742058
_cell_angle_alpha 90.000000
_cell_angle_beta 151.624753
_cell_angle_gamma 90.000000
_cell_volume 1028.180938
_symmetry_space_group_name_H-M "P 2/M"
_symmetry_group_IT_number 10
_symmetry_cell_setting 'monoclinic'
loop_
_space_group_symop_operation_xyz
x,y,z
-x,y,-z
-x,-y,-z
x,-y,z
loop_
_atom_site_type_symbol
_atom_site_label
_atom_site_fract_x
_atom_site_fract_y
_atom_site_fract_z
Si Si1 0.153549 0.859378 0.238175
Si Si2 0.563354 0.643195 0.182171
Si Si3 0.989685 0.365393 0.613836
Si Si4 0.500000 0.500000 0.500000
Si Si5 0.528450 0.731217 0.686044
Si Si6 0.128669 0.137991 0.885154
O O1 0.341531 0.791885 0.447930
O O2 0.052294 0.864069 0.240469
O O3 0.182061 0.000000 0.232388
O O4 0.000000 0.798608 0.000000
O O5 0.504939 0.500000 0.121613
O O6 0.493498 0.705024 0.212856
O O7 0.780202 0.646032 0.418493
O O8 0.500000 0.693405 0.000000
O O9 0.054617 0.500000 0.723412
O O10 0.097317 0.248636 0.770869
O O11 0.000000 0.367716 0.500000
O O12 0.548812 0.608206 0.640302
O O13 0.698787 0.821911 0.859886
O O14 0.156999 0.000000 0.873182
#
# Coordination Sequence:
#
# PCOD9151392 Si02
#       6
#     4   4   4   1   4   4
#     4  10  22  43  67  90 125 176 223 271 327 391
#     4  10  20  38  65  94 131 176 214 267 328 391
#     4  10  21  39  65  99 131 174 224 270 330 392
#     4  12  28  40  66 104 132 178 216 276 336 384
#     4  12  23  43  63  98 138 170 218 274 328 398
#     4  11  24  41  66  96 130 175 220 272 331 390
#
# _framework density 20.424422
#
# number of rings (size 3 to 8) (size 9 to 14) (size 15 to 20)
#    0.000    1.333    2.857    2.857    1.333    1.905 
#    0.000    5.238    0.000    2.857    0.000    0.000 
#    0.000    0.000    0.000    0.000    0.000    0.000 
#
# Total GULP energy -116980.733178 kJ/mol
# GULP energy per Si atom -5570.511104 kJ/mol
# Density = 2.037793 g / cm^3
# Si number density = 20.424422 Si / 1000 Ang^3
#
#
#
# Elastic Constant Matrix: (Units=GPa)
#
#
# Indices 1 2 3 4 5 6 
#
# 1 51.8038 22.6046 9.5280 0.0000 -2.8991 0.0000
# 2 22.6046 154.6641 72.9496 0.0000 -0.5389 0.0000
# 3 9.5280 72.9496 113.0251 0.0000 3.7736 0.0000
# 4 0.0000 0.0000 0.0000 15.4917 0.0000 -11.5251
# 5 -2.8991 -0.5389 3.7736 0.0000 41.8788 0.0000
# 6 0.0000 0.0000 0.0000 -11.5251 0.0000 18.6041
#
#
#
# Elastic Compliance Matrix: (Units=1/GPa)
#
#
# Indices 1 2 3 4 5 6 
#
# 1 0.020704 -0.003129 0.000228 0.000000 0.001372 0.000000
# 2 -0.003129 0.009787 -0.006068 0.000000 0.000456 0.000000
# 3 0.000228 -0.006068 0.012785 0.000000 -0.001214 0.000000
# 4 0.000000 0.000000 0.000000 0.119731 0.000000 0.074172
# 5 0.001372 0.000456 -0.001214 0.000000 0.024089 0.000000
# 6 0.000000 0.000000 0.000000 0.074172 0.000000 0.099701
#
#
# Mechanical properties :
#
#
# Convention : Reuss Voigt Hill
#
# Bulk Modulus (GPa) = 39.46556 58.85082 49.15819
# Shear Modulus (GPa) = 15.96532 29.48898 22.72715
#
# Velocity S-wave (km/s) = 2.79888 3.80387 3.33940
# Velocity P-wave (km/s) = 5.45982 6.94040 6.24415
#
# Compressibility (1/GPa) = 0.02533855
#
# Stress axis : x y z
#
# Youngs Moduli (GPa) = 48.30066 102.18098 78.21447
#
# Poissons Ratio (x) = 0.31970 -0.01785
# Poissons Ratio (y) = 0.15112 0.47461
# Poissons Ratio (z) = -0.01103 0.62003
#
# Static dielectric constant tensor:
#      x y z
#    x 1.765500 0.000000 -0.003350 
#    y 0.000000 1.722710 0.000000 
#    z -0.003350 0.000000 1.752050 
# 
# From -- ./inp_files/51143.got.cif
#   From: 2010.05.17/outbox.cif.g08.bks.cpg/sg10_26_cif.got.tgz:51143.got - 2010.06.03 11:33:40.
