data_PCOD9151230
_publ_section_title
;
Structure prediction by ZEFSAII (Michael W. Deem and Ramdas Pophale) SiO2 
 PCOD9151230
Probable space group: P 2/M
;
_chemical_formula_sum "Si O2"
_cell_formula_units_Z 28
_cell_length_a 12.906699
_cell_length_b 8.651487
_cell_length_c 14.855472
_cell_angle_alpha 90.000000
_cell_angle_beta 57.995576
_cell_angle_gamma 90.000000
_cell_volume 1406.669025
_symmetry_space_group_name_H-M "P 2/M"
_symmetry_group_IT_number 10
_symmetry_cell_setting 'monoclinic'
loop_
_space_group_symop_operation_xyz
x,y,z
-x,y,-z
-x,-y,-z
x,-y,z
loop_
_atom_site_type_symbol
_atom_site_label
_atom_site_fract_x
_atom_site_fract_y
_atom_site_fract_z
Si Si1 0.351274 0.814745 0.311528
Si Si2 0.982386 0.684761 0.233083
Si Si3 0.504976 0.315056 0.393422
Si Si4 0.450210 0.188015 0.926888
Si Si5 0.767159 0.815145 0.225208
Si Si6 0.089497 0.686593 0.376998
Si Si7 0.175327 0.813171 0.002505
O O1 0.391112 0.749475 0.389602
O O2 0.457407 0.762516 0.193579
O O3 0.222002 0.756043 0.335447
O O4 0.350981 0.000000 0.314692
O O5 0.971909 0.500000 0.239109
O O6 0.033987 0.735906 0.306391
O O7 0.851946 0.755281 0.266500
O O8 0.076153 0.736989 0.112326
O O9 0.500000 0.267791 0.500000
O O10 0.504571 0.500000 0.388807
O O11 0.631307 0.251860 0.294132
O O12 0.310883 0.232421 0.973193
O O13 0.451280 0.000000 0.926521
O O14 0.500000 0.241530 0.000000
O O15 0.828923 0.771628 0.101076
O O16 0.759093 0.000000 0.230537
O O17 0.099551 0.500000 0.371052
O O18 0.000000 0.729756 0.500000
O O19 0.162445 0.000000 0.014933
#
# Coordination Sequence:
#
# PCOD9151230 Si02
#       7
#     4   4   4   4   4   4   4
#     4  11  22  40  66  96 125 157 206 260 306 360
#     4  11  24  40  61  91 126 166 213 258 308 371
#     4  11  25  43  65  92 127 169 206 248 313 376
#     4   9  17  32  57  87 122 160 195 242 304 364
#     4  11  23  41  65  93 126 163 207 260 314 367
#     4  10  24  45  64  85 123 170 209 253 313 373
#     4  10  20  38  60  88 126 164 203 250 315 373
#
# _framework density 19.905179
#
# number of rings (size 3 to 8) (size 9 to 14) (size 15 to 20)
#    0.000    1.571    1.429    3.000    2.000    6.571 
#    0.000    0.000    0.000    3.000    0.000    0.000 
#    0.000    0.000    0.000    0.000    0.000    0.000 
#
# Total GULP energy -156544.593097 kJ/mol
# GULP energy per Si atom -5590.878325 kJ/mol
# Density = 1.985987 g / cm^3
# Si number density = 19.905179 Si / 1000 Ang^3
#
#
#
# Elastic Constant Matrix: (Units=GPa)
#
#
# Indices 1 2 3 4 5 6 
#
# 1 145.2476 22.4500 23.8623 0.0000 23.3250 0.0000
# 2 22.4500 23.8554 16.8455 0.0000 8.5235 0.0000
# 3 23.8623 16.8455 66.3250 0.0000 19.5000 0.0000
# 4 0.0000 0.0000 0.0000 16.9085 0.0000 -2.4019
# 5 23.3250 8.5235 19.5000 0.0000 38.9964 0.0000
# 6 0.0000 0.0000 0.0000 -2.4019 0.0000 42.0643
#
#
#
# Elastic Compliance Matrix: (Units=1/GPa)
#
#
# Indices 1 2 3 4 5 6 
#
# 1 0.008511 -0.006491 -0.000391 0.000000 -0.003476 0.000000
# 2 -0.006491 0.057051 -0.011290 0.000000 -0.002942 0.000000
# 3 -0.000391 -0.011290 0.020271 0.000000 -0.007435 0.000000
# 4 0.000000 0.000000 0.000000 0.059625 0.000000 0.003405
# 5 -0.003476 -0.002942 -0.007435 0.000000 0.032083 0.000000
# 6 0.000000 0.000000 0.000000 0.003405 0.000000 0.023968
#
#
# Mechanical properties :
#
#
# Convention : Reuss Voigt Hill
#
# Bulk Modulus (GPa) = 20.20652 40.19373 30.20012
# Shear Modulus (GPa) = 19.65793 31.07851 25.36822
#
# Velocity S-wave (km/s) = 3.14599 3.95565 3.57382
# Velocity P-wave (km/s) = 4.83422 6.41088 5.67755
#
# Compressibility (1/GPa) = 0.04948899
#
# Stress axis : x y z
#
# Youngs Moduli (GPa) = 117.50120 17.52808 49.33041
#
# Poissons Ratio (x) = 0.11377 0.01931
# Poissons Ratio (y) = 0.76268 0.55694
# Poissons Ratio (z) = 0.04599 0.19789
#
# Static dielectric constant tensor:
#      x y z
#    x 1.683830 0.000000 0.017620 
#    y 0.000000 1.672130 0.000000 
#    z 0.017620 0.000000 1.691020 
# 
# From -- ./inp_files/63626.got.cif
#   From: 2010.05.17/outbox.cif.g08.bks.cpg/sg10_32_cif.got.tgz:63626.got - 2010.06.03 11:33:40.
