data_PCOD9151232
_publ_section_title
;
Structure prediction by ZEFSAII (Michael W. Deem and Ramdas Pophale) SiO2 
 PCOD9151232
Probable space group: P 2/M
;
_chemical_formula_sum "Si O2"
_cell_formula_units_Z 18
_cell_length_a 8.509882
_cell_length_b 21.752740
_cell_length_c 7.089935
_cell_angle_alpha 90.000000
_cell_angle_beta 37.734008
_cell_angle_gamma 90.000000
_cell_volume 803.209330
_symmetry_space_group_name_H-M "P 2/M"
_symmetry_group_IT_number 10
_symmetry_cell_setting 'monoclinic'
loop_
_space_group_symop_operation_xyz
x,y,z
-x,y,-z
-x,-y,-z
x,-y,z
loop_
_atom_site_type_symbol
_atom_site_label
_atom_site_fract_x
_atom_site_fract_y
_atom_site_fract_z
Si Si1 0.738218 0.432156 0.132565
Si Si2 0.422789 0.814675 0.848919
Si Si3 0.238414 0.311009 0.133110
Si Si4 0.924586 0.871544 0.354190
Si Si5 0.237713 0.000000 0.631763
O O1 0.500000 0.420616 0.500000
O O2 0.693182 0.500000 0.086158
O O3 0.780803 0.375234 0.954981
O O4 0.000000 0.436118 0.000000
O O5 0.702601 0.825054 0.495099
O O6 0.500000 0.820738 0.000000
O O7 0.287240 0.748676 0.956777
O O8 0.205370 0.863745 0.995483
O O9 0.000000 0.300596 0.500000
O O10 0.500000 0.315276 0.000000
O O11 0.799568 0.938407 0.454346
O O12 0.000000 0.859281 0.500000
O O13 0.500000 0.000000 0.500000
O O14 0.000000 0.000000 0.000000
#
# Coordination Sequence:
#
# PCOD9151232 Si02
#       5
#     4   4   4   4   2
#     4  10  22  40  58  81 119 162 198 235 284 345
#     4   9  18  34  58  85 111 140 182 236 282 331
#     4  11  21  36  61  91 118 147 191 247 296 336
#     4  10  20  38  61  80 105 148 191 220 270 349
#     4  12  25  40  55  82 118 144 180 240 292 324
#
# _framework density 22.410098999999999
#
# number of rings (size 3 to 8) (size 9 to 14) (size 15 to 20)
#    0.000    1.778    0.000    6.333    0.000    0.889 
#    0.000   11.111    0.000    0.000    0.000    0.000 
#    0.000    0.000    0.000    0.000    0.000    0.000 
#
# Total GULP energy -100493.791146 kJ/mol
# GULP energy per Si atom -5582.988397 kJ/mol
# Density = 2.235909 g / cm^3
# Si number density = 22.410099 Si / 1000 Ang^3
#
#
#
# Elastic Constant Matrix: (Units=GPa)
#
#
# Indices 1 2 3 4 5 6 
#
# 1 41.8655 33.8308 52.1708 0.0000 -24.2865 0.0000
# 2 33.8308 158.1654 42.7241 0.0000 -22.1388 0.0000
# 3 52.1708 42.7241 152.2658 0.0000 -35.1858 0.0000
# 4 0.0000 0.0000 0.0000 33.7329 0.0000 -4.5210
# 5 -24.2865 -22.1388 -35.1858 0.0000 39.4239 0.0000
# 6 0.0000 0.0000 0.0000 -4.5210 0.0000 28.5460
#
#
#
# Elastic Compliance Matrix: (Units=1/GPa)
#
#
# Indices 1 2 3 4 5 6 
#
# 1 0.056359 -0.005740 -0.013129 0.000000 0.019778 0.000000
# 2 -0.005740 0.007658 -0.000007 0.000000 0.000758 0.000000
# 3 -0.013129 -0.000007 0.011588 0.000000 0.002250 0.000000
# 4 0.000000 0.000000 0.000000 0.030288 0.000000 0.004797
# 5 0.019778 0.000758 0.002250 0.000000 0.039983 0.000000
# 6 0.000000 0.000000 0.000000 0.004797 0.000000 0.035791
#
#
# Mechanical properties :
#
#
# Convention : Reuss Voigt Hill
#
# Bulk Modulus (GPa) = 26.41829 67.74978 47.08403
# Shear Modulus (GPa) = 21.54828 35.24528 28.39678
#
# Velocity S-wave (km/s) = 3.10424 3.97008 3.56356
# Velocity P-wave (km/s) = 4.96614 7.16330 6.16342
#
# Compressibility (1/GPa) = 0.03785257
#
# Stress axis : x y z
#
# Youngs Moduli (GPa) = 17.74339 130.57791 86.29704
#
# Poissons Ratio (x) = 0.74952 1.13303
# Poissons Ratio (y) = 0.10185 0.00059
# Poissons Ratio (z) = 0.23296 0.00090
#
# Static dielectric constant tensor:
#      x y z
#    x 1.809140 0.000000 0.056770 
#    y 0.000000 1.925960 0.000000 
#    z 0.056770 0.000000 1.853230 
# 
# From -- ./inp_files/15344.got.cif
#   From: 2010.05.17/outbox.cif.g08.bks.cpg/sg10_8_cif.got.tgz:15344.got - 2010.06.03 11:33:40.
