data_PCOD9151766
_publ_section_title
;
Structure prediction by ZEFSAII (Michael W. Deem and Ramdas Pophale) SiO2 
 PCOD9151766
Probable space group: P 2/M
;
_chemical_formula_sum "Si O2"
_cell_formula_units_Z 32
_cell_length_a 13.665754
_cell_length_b 8.850078
_cell_length_c 17.828377
_cell_angle_alpha 90.000000
_cell_angle_beta 100.715776
_cell_angle_gamma 90.000000
_cell_volume 2118.616303
_symmetry_space_group_name_H-M "P 2/M"
_symmetry_group_IT_number 10
_symmetry_cell_setting 'monoclinic'
loop_
_space_group_symop_operation_xyz
x,y,z
-x,y,-z
-x,-y,-z
x,-y,z
loop_
_atom_site_type_symbol
_atom_site_label
_atom_site_fract_x
_atom_site_fract_y
_atom_site_fract_z
Si Si1 0.078091 0.816503 0.333404
Si Si2 0.778560 0.819515 0.941897
Si Si3 0.125732 0.678348 0.182926
Si Si4 0.385256 0.319647 0.972739
Si Si5 0.119116 0.824437 0.501002
Si Si6 0.070518 0.174728 0.907465
Si Si7 0.848585 0.815094 0.332663
Si Si8 0.737236 0.176252 0.173229
O O1 0.125440 0.750688 0.265376
O O2 0.129069 0.762293 0.418426
O O3 0.960576 0.774332 0.321963
O O4 0.081301 0.000000 0.331859
O O5 0.794583 0.749399 0.862794
O O6 0.770871 0.000000 0.937341
O O7 0.685387 0.754580 0.974473
O O8 0.876678 0.785231 0.006712
O O9 0.137658 0.500000 0.188927
O O10 0.018479 0.721268 0.132086
O O11 0.377104 0.500000 0.977397
O O12 0.342864 0.266628 0.886328
O O13 0.500000 0.275562 0.000000
O O14 0.165858 0.759689 0.583950
O O15 0.000000 0.824366 0.500000
O O16 0.150164 0.000000 0.501476
O O17 0.160095 0.180292 0.859982
O O18 0.034711 0.000000 0.905678
O O19 0.767492 0.767273 0.260003
O O20 0.847572 0.000000 0.333758
O O21 0.707279 0.000000 0.173025
#
# Coordination Sequence:
#
# PCOD9151766 Si02
#       8
#     4   4   4   4   4   4   4   4
#     4   9  15  26  41  57  83 119 155 185 214 249
#     4  10  21  35  50  64  80 108 147 186 219 256
#     4  12  22  28  39  61  90 120 149 181 216 258
#     4  10  21  36  51  67  90 114 137 174 222 268
#     4   7  11  19  37  60  79 108 150 189 217 244
#     4   9  17  30  44  60  83 114 148 182 217 251
#     4   8  12  22  40  63  86 110 148 190 220 246
#     4   9  16  27  46  68  89 115 148 185 218 255
#
# _framework density 15.104198999999999
#
# number of rings (size 3 to 8) (size 9 to 14) (size 15 to 20)
#    0.000    2.750    1.250    4.500    0.000    5.000 
#    0.000    0.000    0.000    4.125    0.000    0.000 
#    0.000    1.000    0.000   11.500    0.000    2.875 
#
# Total GULP energy -178232.151147 kJ/mol
# GULP energy per Si atom -5569.754723 kJ/mol
# Density = 1.506982 g / cm^3
# Si number density = 15.104199 Si / 1000 Ang^3
#
#
#
# Elastic Constant Matrix: (Units=GPa)
#
#
# Indices 1 2 3 4 5 6 
#
# 1 51.4150 22.8443 46.4257 0.0000 5.5705 0.0000
# 2 22.8443 31.9375 37.8689 0.0000 -0.8880 0.0000
# 3 46.4257 37.8689 164.6109 0.0000 -0.9342 0.0000
# 4 0.0000 0.0000 0.0000 3.9398 0.0000 0.7546
# 5 5.5705 -0.8880 -0.9342 0.0000 13.3058 0.0000
# 6 0.0000 0.0000 0.0000 0.7546 0.0000 17.6747
#
#
#
# Elastic Compliance Matrix: (Units=1/GPa)
#
#
# Indices 1 2 3 4 5 6 
#
# 1 0.034401 -0.018481 -0.005541 0.000000 -0.016024 0.000000
# 2 -0.018481 0.053048 -0.006930 0.000000 0.010791 0.000000
# 3 -0.005541 -0.006930 0.009246 0.000000 0.002507 0.000000
# 4 0.000000 0.000000 0.000000 0.255909 0.000000 -0.010925
# 5 -0.016024 0.010791 0.002507 0.000000 0.082760 0.000000
# 6 0.000000 0.000000 0.000000 -0.010925 0.000000 0.057044
#
#
# Mechanical properties :
#
#
# Convention : Reuss Voigt Hill
#
# Bulk Modulus (GPa) = 28.74455 51.36014 40.05235
# Shear Modulus (GPa) = 8.83531 16.37236 12.60384
#
# Velocity S-wave (km/s) = 2.42121 3.29593 2.89183
# Velocity P-wave (km/s) = 5.18541 6.96864 6.14208
#
# Compressibility (1/GPa) = 0.03478920
#
# Stress axis : x y z
#
# Youngs Moduli (GPa) = 29.06895 18.85093 108.15114
#
# Poissons Ratio (x) = 0.34839 0.59932
# Poissons Ratio (y) = 0.53723 0.74950
# Poissons Ratio (z) = 0.16109 0.13064
#
# Static dielectric constant tensor:
#      x y z
#    x 1.471760 0.000000 0.000630 
#    y 0.000000 1.499800 0.000000 
#    z 0.000630 0.000000 1.553030 
# 
# From -- ./inp_files/54791.got.cif
#   From: 2010.05.17/outbox.cif.g08.bks.cpg/sg10_28_cif.got.tgz:54791.got - 2010.06.03 11:33:40.
