data_PCOD9151645
_publ_section_title
;
Structure prediction by ZEFSAII (Michael W. Deem and Ramdas Pophale) SiO2 
 PCOD9151645
Probable space group: P 2/M
;
_chemical_formula_sum "Si O2"
_cell_formula_units_Z 32
_cell_length_a 10.918699
_cell_length_b 10.616153
_cell_length_c 24.862642
_cell_angle_alpha 90.000000
_cell_angle_beta 42.748539
_cell_angle_gamma 90.000000
_cell_volume 1956.210878
_symmetry_space_group_name_H-M "P 2/M"
_symmetry_group_IT_number 10
_symmetry_cell_setting 'monoclinic'
loop_
_space_group_symop_operation_xyz
x,y,z
-x,y,-z
-x,-y,-z
x,-y,z
loop_
_atom_site_type_symbol
_atom_site_label
_atom_site_fract_x
_atom_site_fract_y
_atom_site_fract_z
Si Si1 0.901674 0.639698 0.200731
Si Si2 0.148218 0.355102 0.906236
Si Si3 0.432541 0.859427 0.795619
Si Si4 0.849790 0.856073 0.686140
Si Si5 0.467828 0.145408 0.570720
Si Si6 0.878465 0.641363 0.591943
Si Si7 0.956726 0.857489 0.263493
Si Si8 0.496417 0.275768 0.333476
O O1 0.961001 0.500000 0.198167
O O2 0.936687 0.657062 0.126040
O O3 0.981971 0.751022 0.210637
O O4 0.683049 0.647979 0.276968
O O5 0.216854 0.500000 0.887867
O O6 0.304799 0.251239 0.858041
O O7 0.000000 0.336908 0.000000
O O8 0.632425 0.850150 0.755750
O O9 0.456817 0.836513 0.723563
O O10 0.360811 0.000000 0.828277
O O11 0.914508 0.750615 0.623448
O O12 0.928698 0.834399 0.719777
O O13 0.900214 0.000000 0.653762
O O14 0.500000 0.193595 0.500000
O O15 0.253990 0.146177 0.651629
O O16 0.553307 0.224018 0.591749
O O17 0.531434 0.000000 0.551934
O O18 0.909501 0.500000 0.603292
O O19 0.670687 0.653410 0.639508
O O20 0.000000 0.658622 0.500000
O O21 0.994480 0.000000 0.231897
#
# Coordination Sequence:
#
# PCOD9151645 Si02
#       8
#     4   4   4   4   4   4   4   4
#     4   9  17  30  50  71  92 122 156 190 231 282
#     4   9  18  32  51  77 105 128 152 187 233 283
#     4   9  17  30  49  73  96 122 158 196 235 280
#     4   9  19  34  50  69  93 125 164 200 237 285
#     4   9  17  27  43  66  89 117 156 201 242 282
#     4  10  21  33  46  66  93 123 159 205 252 292
#     4   9  18  32  48  67  94 124 159 200 238 280
#     4   9  17  30  47  63  92 124 156 195 241 287
#
# _framework density 16.358153999999999
#
# number of rings (size 3 to 8) (size 9 to 14) (size 15 to 20)
#    0.000    2.875    0.000    0.750    1.750    7.500 
#    0.000    0.000    0.000    2.625    0.000    5.250 
#    0.000    0.000    0.000    0.000    0.000    0.000 
#
# Total GULP energy -178243.892273 kJ/mol
# GULP energy per Si atom -5570.121634 kJ/mol
# Density = 1.632092 g / cm^3
# Si number density = 16.358154 Si / 1000 Ang^3
#
#
#
# Elastic Constant Matrix: (Units=GPa)
#
#
# Indices 1 2 3 4 5 6 
#
# 1 53.6200 49.5063 10.5155 0.0000 14.5573 0.0000
# 2 49.5063 141.0565 55.4579 0.0000 16.6114 0.0000
# 3 10.5155 55.4579 67.7175 0.0000 16.3144 0.0000
# 4 0.0000 0.0000 0.0000 17.7518 0.0000 3.1009
# 5 14.5573 16.6114 16.3144 0.0000 15.8522 0.0000
# 6 0.0000 0.0000 0.0000 3.1009 0.0000 15.9320
#
#
#
# Elastic Compliance Matrix: (Units=1/GPa)
#
#
# Indices 1 2 3 4 5 6 
#
# 1 0.040118 -0.015926 0.015515 0.000000 -0.036119 0.000000
# 2 -0.015926 0.016877 -0.014109 0.000000 0.011461 0.000000
# 3 0.015515 -0.014109 0.031625 0.000000 -0.032009 0.000000
# 4 0.000000 0.000000 0.000000 0.058315 0.000000 -0.011350
# 5 -0.036119 0.011461 -0.032009 0.000000 0.117183 0.000000
# 6 0.000000 0.000000 0.000000 -0.011350 0.000000 0.064976
#
#
# Mechanical properties :
#
#
# Convention : Reuss Voigt Hill
#
# Bulk Modulus (GPa) = 16.78486 54.81704 35.80095
# Shear Modulus (GPa) = 13.22775 19.70149 16.46462
#
# Velocity S-wave (km/s) = 2.84673 3.47419 3.17599
# Velocity P-wave (km/s) = 4.59220 7.04816 5.94831
#
# Compressibility (1/GPa) = 0.05957749
#
# Stress axis : x y z
#
# Youngs Moduli (GPa) = 24.92677 59.25392 31.62092
#
# Poissons Ratio (x) = 0.94370 -0.49060
# Poissons Ratio (y) = 0.39699 0.44615
# Poissons Ratio (z) = -0.38674 0.83603
#
# Static dielectric constant tensor:
#      x y z
#    x 1.542890 0.000000 0.000700 
#    y 0.000000 1.572410 0.000000 
#    z 0.000700 0.000000 1.530710 
# 
# From -- ./inp_files/88516.got.cif
#   From: 2010.05.17/outbox.cif.g08.bks.cpg/sg10_45_cif.got.tgz:88516.got - 2010.06.03 11:33:40.
