data_PCOD9151591
_publ_section_title
;
Structure prediction by ZEFSAII (Michael W. Deem and Ramdas Pophale) SiO2 
 PCOD9151591
Probable space group: P 2/M
;
_chemical_formula_sum "Si O2"
_cell_formula_units_Z 21
_cell_length_a 18.059129
_cell_length_b 15.459097
_cell_length_c 12.464577
_cell_angle_alpha 90.000000
_cell_angle_beta 20.166846
_cell_angle_gamma 90.000000
_cell_volume 1199.690303
_symmetry_space_group_name_H-M "P 2/M"
_symmetry_group_IT_number 10
_symmetry_cell_setting 'monoclinic'
loop_
_space_group_symop_operation_xyz
x,y,z
-x,y,-z
-x,-y,-z
x,-y,z
loop_
_atom_site_type_symbol
_atom_site_label
_atom_site_fract_x
_atom_site_fract_y
_atom_site_fract_z
Si Si1 0.524890 0.207784 0.249088
Si Si2 0.500000 0.500000 0.000000
Si Si3 0.968703 0.208963 0.750984
Si Si4 0.650400 0.321741 0.700092
Si Si5 0.313679 0.902397 0.163111
Si Si6 0.816356 0.099922 0.158727
O O1 0.422990 0.282968 0.313880
O O2 0.368360 0.164390 0.548540
O O3 0.582075 0.131844 0.087555
O O4 0.745993 0.237773 0.001890
O O5 0.608514 0.422693 0.776844
O O6 0.110222 0.288039 0.603359
O O7 0.120027 0.159507 0.460921
O O8 0.916316 0.140265 0.915566
O O9 0.500000 0.281809 0.000000
O O10 0.234390 0.000000 0.259323
O O11 0.500000 0.903389 0.000000
O O12 0.745729 0.000000 0.239700
O O13 0.000000 0.099758 0.000000
#
# Coordination Sequence:
#
# PCOD9151591 Si02
#       6
#     4   1   4   4   4   4
#     4  12  22  36  58  83 116 155 195 242 289 343
#     4   8  20  40  70  90 122 146 180 238 322 364
#     4  12  22  36  58  83 116 155 195 242 289 343
#     4  10  20  41  60  91 115 142 186 240 297 365
#     4  11  20  33  51  75 109 151 196 242 283 329
#     4  11  23  39  57  82 122 169 209 246 282 331
#
# _framework density 17.504517
#
# number of rings (size 3 to 8) (size 9 to 14) (size 15 to 20)
#    0.571    0.381    5.714    2.286    0.000    7.619 
#    0.000    1.905    0.000    2.286    0.000    2.667 
#    0.000    0.000    0.000    0.000    0.000    0.000 
#
# Total GULP energy -116914.288319 kJ/mol
# GULP energy per Si atom -5567.347063 kJ/mol
# Density = 1.746468 g / cm^3
# Si number density = 17.504517 Si / 1000 Ang^3
#
#
#
# Elastic Constant Matrix: (Units=GPa)
#
#
# Indices 1 2 3 4 5 6 
#
# 1 66.5309 20.1771 11.1047 0.0000 -23.7823 0.0000
# 2 20.1771 139.8011 22.8985 0.0000 -14.1774 0.0000
# 3 11.1047 22.8985 68.7208 0.0000 -11.3542 0.0000
# 4 0.0000 0.0000 0.0000 25.3717 0.0000 12.9454
# 5 -23.7823 -14.1774 -11.3542 0.0000 41.5374 0.0000
# 6 0.0000 0.0000 0.0000 12.9454 0.0000 8.7834
#
#
#
# Elastic Compliance Matrix: (Units=1/GPa)
#
#
# Indices 1 2 3 4 5 6 
#
# 1 0.019341 -0.001602 -0.000892 0.000000 0.010283 0.000000
# 2 -0.001602 0.007858 -0.002166 0.000000 0.001173 0.000000
# 3 -0.000892 -0.002166 0.015930 0.000000 0.003104 0.000000
# 4 0.000000 0.000000 0.000000 0.158932 0.000000 -0.234243
# 5 0.010283 0.001173 0.003104 0.000000 0.031211 0.000000
# 6 0.000000 0.000000 0.000000 -0.234243 0.000000 0.459092
#
#
# Mechanical properties :
#
#
# Convention : Reuss Voigt Hill
#
# Bulk Modulus (GPa) = 29.57844 42.60151 36.08997
# Shear Modulus (GPa) = 7.01305 29.86333 18.43819
#
# Velocity S-wave (km/s) = 2.00378 4.13490 3.24904
# Velocity P-wave (km/s) = 4.72099 6.86926 5.89383
#
# Compressibility (1/GPa) = 0.03380841
#
# Stress axis : x y z
#
# Youngs Moduli (GPa) = 51.70274 127.25985 62.77309
#
# Poissons Ratio (x) = 0.20393 0.05602
# Poissons Ratio (y) = 0.08285 0.13595
# Poissons Ratio (z) = 0.04614 0.27560
#
# Static dielectric constant tensor:
#      x y z
#    x 1.621930 0.000000 -0.022720 
#    y 0.000000 1.558220 0.000000 
#    z -0.022720 0.000000 1.599030 
# 
# From -- ./inp_files/54122.got.cif
#   From: 2010.05.17/outbox.cif.g08.bks.cpg/sg10_28_cif.got.tgz:54122.got - 2010.06.03 11:33:40.
