data_PCOD9151449
_publ_section_title
;
Structure prediction by ZEFSAII (Michael W. Deem and Ramdas Pophale) SiO2 
 PCOD9151449
Probable space group: P 2/M
;
_chemical_formula_sum "Si O2"
_cell_formula_units_Z 28
_cell_length_a 5.287038
_cell_length_b 15.406374
_cell_length_c 17.877943
_cell_angle_alpha 90.000000
_cell_angle_beta 63.704482
_cell_angle_gamma 90.000000
_cell_volume 1305.542234
_symmetry_space_group_name_H-M "P 2/M"
_symmetry_group_IT_number 10
_symmetry_cell_setting 'monoclinic'
loop_
_space_group_symop_operation_xyz
x,y,z
-x,y,-z
-x,-y,-z
x,-y,z
loop_
_atom_site_type_symbol
_atom_site_label
_atom_site_fract_x
_atom_site_fract_y
_atom_site_fract_z
Si Si1 0.660861 0.766320 0.806787
Si Si2 0.868905 0.500000 0.153184
Si Si3 0.803035 0.332851 0.922280
Si Si4 0.149399 0.100762 0.739330
Si Si5 0.605472 0.770167 0.405865
Si Si6 0.794427 0.500000 0.733112
Si Si7 0.219428 0.680477 0.346772
Si Si8 0.125600 0.154737 0.913414
O O1 0.784266 0.685573 0.835901
O O2 0.564696 0.724123 0.742304
O O3 0.430802 0.807154 0.890776
O O4 0.865577 0.845202 0.761681
O O5 0.992108 0.414501 0.096356
O O6 0.993645 0.500000 0.222779
O O7 0.531182 0.500000 0.196093
O O8 0.935461 0.241035 0.929616
O O9 0.500000 0.349010 0.000000
O O10 0.368976 0.151486 0.657588
O O11 0.172096 0.110452 0.826816
O O12 0.135791 0.000000 0.722456
O O13 0.500000 0.801729 0.500000
O O14 0.377754 0.700984 0.403219
O O15 0.915226 0.727160 0.377119
O O16 0.825125 0.583242 0.675042
O O17 0.000000 0.103763 0.000000
#
# Coordination Sequence:
#
# PCOD9151449 Si02
#       8
#     4   2   4   4   4   2   4   4
#     4  10  20  39  61  85 127 171 220 263 325 389
#     4  12  25  36  58  94 135 173 227 280 321 377
#     4  11  22  36  55  87 126 173 224 279 325 380
#     4  10  24  41  64  96 128 165 213 271 333 396
#     4  11  24  45  72  99 131 169 213 268 334 400
#     4  12  24  40  66  96 130 175 221 270 321 385
#     4  11  22  43  68  97 132 173 219 265 322 393
#     4  11  21  38  65  89 123 175 221 267 320 390
#
# _framework density 21.447028
#
# number of rings (size 3 to 8) (size 9 to 14) (size 15 to 20)
#    0.000    1.143    4.286    2.357    2.000    1.143 
#    0.000    3.929    0.000    2.571    0.000    0.000 
#    0.000    0.000    0.000    0.000    0.000    0.000 
#
# Total GULP energy -156160.418058 kJ/mol
# GULP energy per Si atom -5577.157788 kJ/mol
# Density = 2.139821 g / cm^3
# Si number density = 21.447028 Si / 1000 Ang^3
#
#
#
# Elastic Constant Matrix: (Units=GPa)
#
#
# Indices 1 2 3 4 5 6 
#
# 1 64.5177 1.6953 11.8498 0.0000 1.8686 0.0000
# 2 1.6953 96.3091 49.0745 0.0000 -9.8839 0.0000
# 3 11.8498 49.0745 122.9348 0.0000 12.0770 0.0000
# 4 0.0000 0.0000 0.0000 9.4203 0.0000 -7.8176
# 5 1.8686 -9.8839 12.0770 0.0000 33.3296 0.0000
# 6 0.0000 0.0000 0.0000 -7.8176 0.0000 -30.1461
#
#
#
# Elastic Compliance Matrix: (Units=1/GPa)
#
#
# Indices 1 2 3 4 5 6 
#
# 1 0.015809 0.000613 -0.001762 0.000000 -0.000066 0.000000
# 2 0.000613 0.014311 -0.006414 0.000000 0.006534 0.000000
# 3 -0.001762 -0.006414 0.011449 0.000000 -0.005952 0.000000
# 4 0.000000 0.000000 0.000000 0.087355 0.000000 -0.022653
# 5 -0.000066 0.006534 -0.005952 0.000000 0.034101 0.000000
# 6 0.000000 0.000000 0.000000 -0.022653 0.000000 -0.027297
#
#
# Mechanical properties :
#
#
# Convention : Reuss Voigt Hill
#
# Bulk Modulus (GPa) = 37.81658 45.44453 41.63055
# Shear Modulus (GPa) = 31.31484 17.26357 24.28921
#
# Velocity S-wave (km/s) = 3.82527 2.84022 3.36895
# Velocity P-wave (km/s) = 6.09763 5.65606 5.88099
#
# Compressibility (1/GPa) = 0.02644343
#
# Stress axis : x y z
#
# Youngs Moduli (GPa) = 63.25493 69.87559 87.34184
#
# Poissons Ratio (x) = -0.04282 0.15389
# Poissons Ratio (y) = -0.03876 0.56019
# Poissons Ratio (z) = 0.11145 0.44817
#
# Static dielectric constant tensor:
#      x y z
#    x 1.888870 0.000000 0.076850 
#    y 0.000000 1.750580 0.000000 
#    z 0.076850 0.000000 1.899380 
# 
# From -- ./inp_files/11382.got.cif
#   From: 2010.05.17/outbox.cif.g08.bks.cpg/sg10_6_cif.got.tgz:11382.got - 2010.06.03 11:33:40.
