data_PCOD9151077
_publ_section_title
;
Structure prediction by ZEFSAII (Michael W. Deem and Ramdas Pophale) SiO2 
 PCOD9151077
Probable space group: P 2/M
;
_chemical_formula_sum "Si O2"
_cell_formula_units_Z 20
_cell_length_a 11.956751
_cell_length_b 8.810714
_cell_length_c 9.784843
_cell_angle_alpha 90.000000
_cell_angle_beta 104.946921
_cell_angle_gamma 90.000000
_cell_volume 995.931649
_symmetry_space_group_name_H-M "P 2/M"
_symmetry_group_IT_number 10
_symmetry_cell_setting 'monoclinic'
loop_
_space_group_symop_operation_xyz
x,y,z
-x,y,-z
-x,-y,-z
x,-y,z
loop_
_atom_site_type_symbol
_atom_site_label
_atom_site_fract_x
_atom_site_fract_y
_atom_site_fract_z
Si Si1 0.033148 0.181491 0.857010
Si Si2 0.216705 0.681240 0.726964
Si Si3 0.846635 0.680116 0.593388
Si Si4 0.532748 0.181691 0.165275
Si Si5 0.385197 0.821855 0.371296
O O1 0.152981 0.247466 0.837003
O O2 0.936517 0.236190 0.719412
O O3 0.039775 0.000000 0.859730
O O4 0.000000 0.232052 0.000000
O O5 0.213422 0.500000 0.734912
O O6 0.151528 0.725990 0.565673
O O7 0.348270 0.737243 0.758544
O O8 0.867971 0.500000 0.607229
O O9 0.718589 0.721110 0.606436
O O10 0.428314 0.221150 0.234010
O O11 0.550805 0.000000 0.184732
O O12 0.500000 0.216512 0.000000
O O13 0.500000 0.808812 0.500000
O O14 0.349559 0.000000 0.361852
#
# Coordination Sequence:
#
# PCOD9151077 Si02
#       5
#     4   4   4   4   4
#     4  11  26  45  66  91 120 158 206 257 309 365
#     4  11  24  42  64  92 126 163 205 251 306 368
#     4  11  24  41  64  93 127 163 202 252 307 365
#     4  10  22  39  61  90 126 165 206 253 300 355
#     4  10  20  37  62  91 123 162 207 250 297 356
#
# _framework density 20.081696999999998
#
# number of rings (size 3 to 8) (size 9 to 14) (size 15 to 20)
#    0.000    1.400    2.000    2.400    2.800    8.000 
#    0.000    0.000    0.000    0.000    0.000    0.000 
#    0.000    0.000    0.000    0.000    0.000    0.000 
#
# Total GULP energy -111843.438947 kJ/mol
# GULP energy per Si atom -5592.171947 kJ/mol
# Density = 2.003599 g / cm^3
# Si number density = 20.081697 Si / 1000 Ang^3
#
#
#
# Elastic Constant Matrix: (Units=GPa)
#
#
# Indices 1 2 3 4 5 6 
#
# 1 53.4079 7.4909 16.5677 0.0000 -13.9855 0.0000
# 2 7.4909 22.4964 31.4908 0.0000 -2.1504 0.0000
# 3 16.5677 31.4908 107.3170 0.0000 -26.8981 0.0000
# 4 0.0000 0.0000 0.0000 35.5695 0.0000 -21.0992
# 5 -13.9855 -2.1504 -26.8981 0.0000 36.9336 0.0000
# 6 0.0000 0.0000 0.0000 -21.0992 0.0000 41.4164
#
#
#
# Elastic Compliance Matrix: (Units=1/GPa)
#
#
# Indices 1 2 3 4 5 6 
#
# 1 0.021747 -0.008045 0.001162 0.000000 0.008613 0.000000
# 2 -0.008045 0.085188 -0.028473 0.000000 -0.018823 0.000000
# 3 0.001162 -0.028473 0.021027 0.000000 0.014096 0.000000
# 4 0.000000 0.000000 0.000000 0.040289 0.000000 0.020525
# 5 0.008613 -0.018823 0.014096 0.000000 0.039507 0.000000
# 6 0.000000 0.000000 0.000000 0.020525 0.000000 0.034601
#
#
# Mechanical properties :
#
#
# Convention : Reuss Voigt Hill
#
# Bulk Modulus (GPa) = 17.46712 32.70224 25.08468
# Shear Modulus (GPa) = 15.05323 31.29536 23.17430
#
# Velocity S-wave (km/s) = 2.74085 3.95194 3.40074
# Velocity P-wave (km/s) = 4.32820 6.09457 5.28569
#
# Compressibility (1/GPa) = 0.05725041
#
# Stress axis : x y z
#
# Youngs Moduli (GPa) = 45.98326 11.73868 47.55824
#
# Poissons Ratio (x) = 0.09443 -0.05526
# Poissons Ratio (y) = 0.36992 1.35414
# Poissons Ratio (z) = -0.05343 0.33424
#
# Static dielectric constant tensor:
#      x y z
#    x 1.694400 0.000000 -0.013420 
#    y 0.000000 1.673250 0.000000 
#    z -0.013420 0.000000 1.719380 
# 
# From -- ./inp_files/22106.got.cif
#   From: 2010.05.17/outbox.cif.g08.bks.cpg/sg10_12_cif.got.tgz:22106.got - 2010.06.03 11:33:40.
