data_PCOD9151552
_publ_section_title
;
Structure prediction by ZEFSAII (Michael W. Deem and Ramdas Pophale) SiO2 
 PCOD9151552
Probable space group: P 2/M
;
_chemical_formula_sum "Si O2"
_cell_formula_units_Z 28
_cell_length_a 30.352672
_cell_length_b 8.137870
_cell_length_c 9.190980
_cell_angle_alpha 90.000000
_cell_angle_beta 40.723518
_cell_angle_gamma 90.000000
_cell_volume 1481.118475
_symmetry_space_group_name_H-M "P 2/M"
_symmetry_group_IT_number 10
_symmetry_cell_setting 'monoclinic'
loop_
_space_group_symop_operation_xyz
x,y,z
-x,y,-z
-x,-y,-z
x,-y,z
loop_
_atom_site_type_symbol
_atom_site_label
_atom_site_fract_x
_atom_site_fract_y
_atom_site_fract_z
Si Si1 0.337854 0.683260 0.481963
Si Si2 0.792406 0.188089 0.342810
Si Si3 0.197227 0.305986 0.358557
Si Si4 0.427541 0.000000 0.606515
Si Si5 0.075704 0.808065 0.461488
Si Si6 0.572625 0.000000 0.743900
Si Si7 0.927981 0.308853 0.854424
Si Si8 0.335143 0.311529 0.837144
O O1 0.365587 0.500000 0.382510
O O2 0.266568 0.703630 0.580074
O O3 0.326292 0.696050 0.684699
O O4 0.386115 0.834719 0.318817
O O5 0.794642 0.214720 0.509465
O O6 0.776515 0.000000 0.346482
O O7 0.864998 0.232479 0.095279
O O8 0.190480 0.500000 0.405038
O O9 0.131947 0.245966 0.434502
O O10 0.263764 0.282225 0.093851
O O11 0.500000 0.000000 0.500000
O O12 0.434655 0.000000 0.413280
O O13 0.386311 0.165596 0.750059
O O14 0.083507 0.711885 0.290040
O O15 0.999851 0.774863 0.706648
O O16 0.083028 0.000000 0.409560
O O17 0.500000 0.000000 0.000000
O O18 0.933025 0.500000 0.877978
O O19 0.357154 0.500000 0.817285
#
# Coordination Sequence:
#
# PCOD9151552 Si02
#       8
#     4   4   4   2   4   2   4   4
#     4  10  20  40  64  89 118 159 202 245 292 350
#     4  12  24  38  58  88 120 154 196 250 302 355
#     4  11  23  39  58  86 118 155 195 243 301 358
#     4  10  22  38  62  90 121 158 193 236 290 347
#     4  11  22  38  60  86 114 152 199 250 298 354
#     4  10  22  40  60  92 125 156 197 240 288 349
#     4  11  22  39  60  83 114 156 200 247 296 358
#     4   9  21  39  63  88 118 155 202 244 286 348
#
# _framework density 18.904631999999999
#
# number of rings (size 3 to 8) (size 9 to 14) (size 15 to 20)
#    0.000    1.429    0.714    6.000    2.000    3.429 
#    0.000    2.857    0.000    0.000    0.000    0.000 
#    0.000    0.000    0.000    0.000    0.000    0.000 
#
# Total GULP energy -156474.224105 kJ/mol
# GULP energy per Si atom -5588.365147 kJ/mol
# Density = 1.886160 g / cm^3
# Si number density = 18.904632 Si / 1000 Ang^3
#
#
#
# Elastic Constant Matrix: (Units=GPa)
#
#
# Indices 1 2 3 4 5 6 
#
# 1 81.9005 34.1933 26.3256 0.0000 -26.0491 0.0000
# 2 34.1933 113.8080 45.7821 0.0000 -11.7156 0.0000
# 3 26.3256 45.7821 106.4796 0.0000 -16.4773 0.0000
# 4 0.0000 0.0000 0.0000 24.0655 0.0000 3.6596
# 5 -26.0491 -11.7156 -16.4773 0.0000 17.5444 0.0000
# 6 0.0000 0.0000 0.0000 3.6596 0.0000 16.9028
#
#
#
# Elastic Compliance Matrix: (Units=1/GPa)
#
#
# Indices 1 2 3 4 5 6 
#
# 1 0.024756 -0.004297 0.001136 0.000000 0.034954 0.000000
# 2 -0.004297 0.011534 -0.004320 0.000000 -0.002735 0.000000
# 3 0.001136 -0.004320 0.012616 0.000000 0.010650 0.000000
# 4 0.000000 0.000000 0.000000 0.042968 0.000000 -0.009303
# 5 0.034954 -0.002735 0.010650 0.000000 0.117073 0.000000
# 6 0.000000 0.000000 0.000000 -0.009303 0.000000 0.061176
#
#
# Mechanical properties :
#
#
# Convention : Reuss Voigt Hill
#
# Bulk Modulus (GPa) = 29.45970 57.19890 43.32930
# Shear Modulus (GPa) = 16.86908 24.76168 20.81538
#
# Velocity S-wave (km/s) = 2.99042 3.62307 3.32184
# Velocity P-wave (km/s) = 5.24792 6.91552 6.13861
#
# Compressibility (1/GPa) = 0.03394467
#
# Stress axis : x y z
#
# Youngs Moduli (GPa) = 40.39397 86.70051 79.26294
#
# Poissons Ratio (x) = 0.37251 -0.09002
# Poissons Ratio (y) = 0.17355 0.34242
# Poissons Ratio (z) = -0.04588 0.37455
#
# Static dielectric constant tensor:
#      x y z
#    x 1.625690 0.000000 0.007090 
#    y 0.000000 1.664750 0.000000 
#    z 0.007090 0.000000 1.622720 
# 
# From -- ./inp_files/37167.got.cif
#   From: 2010.05.17/outbox.cif.g08.bks.cpg/sg10_19_cif.got.tgz:37167.got - 2010.06.03 11:33:40.
