data_PCOD9151814
_publ_section_title
;
Structure prediction by ZEFSAII (Michael W. Deem and Ramdas Pophale) SiO2 
 PCOD9151814
Probable space group: P 2/M
;
_chemical_formula_sum "Si O2"
_cell_formula_units_Z 24
_cell_length_a 12.237307
_cell_length_b 8.399874
_cell_length_c 24.413892
_cell_angle_alpha 90.000000
_cell_angle_beta 32.615470
_cell_angle_gamma 90.000000
_cell_volume 1352.642363
_symmetry_space_group_name_H-M "P 2/M"
_symmetry_group_IT_number 10
_symmetry_cell_setting 'monoclinic'
loop_
_space_group_symop_operation_xyz
x,y,z
-x,y,-z
-x,-y,-z
x,-y,z
loop_
_atom_site_type_symbol
_atom_site_label
_atom_site_fract_x
_atom_site_fract_y
_atom_site_fract_z
Si Si1 0.487064 0.185294 0.646857
Si Si2 0.309194 0.691120 0.117979
Si Si3 0.777565 0.311953 0.616131
Si Si4 0.813039 0.186047 0.717313
Si Si5 0.247930 0.315626 0.559563
Si Si6 0.133181 0.808485 0.724717
O O1 0.607875 0.279320 0.642205
O O2 0.614969 0.208323 0.537113
O O3 0.261136 0.237024 0.724541
O O4 0.484246 0.000000 0.663428
O O5 0.300537 0.500000 0.126559
O O6 0.320232 0.765245 0.174111
O O7 0.097907 0.750370 0.180840
O O8 0.500000 0.734927 0.000000
O O9 0.792063 0.500000 0.620631
O O10 0.727029 0.223386 0.693922
O O11 0.000000 0.258467 0.500000
O O12 0.017887 0.289091 0.636356
O O13 0.865566 0.000000 0.699753
O O14 0.305799 0.500000 0.529295
O O15 0.242018 0.264902 0.625236
O O16 0.138104 0.000000 0.717954
#
# Coordination Sequence:
#
# PCOD9151814 Si02
#       6
#     4   4   4   4   4   4
#     4  11  22  34  50  74 107 146 183 218 262 315
#     4  10  21  38  61  85 108 136 174 223 275 324
#     4  11  22  35  53  77 108 148 188 222 260 313
#     4  11  21  34  55  80 109 143 180 224 268 314
#     4  11  20  31  49  74 106 144 182 219 262 313
#     4  10  21  35  52  77 107 139 177 221 269 321
#
# _framework density 17.743048999999999
#
# number of rings (size 3 to 8) (size 9 to 14) (size 15 to 20)
#    0.000    1.333    1.667    7.500    0.000    6.667 
#    0.000    0.000    0.000    1.000    0.000    7.000 
#    0.000    0.000    0.000    0.000    0.000    0.000 
#
# Total GULP energy -134048.772987 kJ/mol
# GULP energy per Si atom -5585.365541 kJ/mol
# Density = 1.770267 g / cm^3
# Si number density = 17.743049 Si / 1000 Ang^3
#
#
#
# Elastic Constant Matrix: (Units=GPa)
#
#
# Indices 1 2 3 4 5 6 
#
# 1 120.7740 15.8612 39.7736 0.0000 5.4548 0.0000
# 2 15.8612 51.1110 9.6898 0.0000 4.5606 0.0000
# 3 39.7736 9.6898 81.3336 0.0000 7.4834 0.0000
# 4 0.0000 0.0000 0.0000 21.6754 0.0000 -3.8940
# 5 5.4548 4.5606 7.4834 0.0000 8.4997 0.0000
# 6 0.0000 0.0000 0.0000 -3.8940 0.0000 41.7044
#
#
#
# Elastic Compliance Matrix: (Units=1/GPa)
#
#
# Indices 1 2 3 4 5 6 
#
# 1 0.010130 -0.002159 -0.004575 0.000000 -0.001314 0.000000
# 2 -0.002159 0.021193 -0.000599 0.000000 -0.009458 0.000000
# 3 -0.004575 -0.000599 0.015565 0.000000 -0.010446 0.000000
# 4 0.000000 0.000000 0.000000 0.046922 0.000000 0.004381
# 5 -0.001314 -0.009458 -0.010446 0.000000 0.132767 0.000000
# 6 0.000000 0.000000 0.000000 0.004381 0.000000 0.024387
#
#
# Mechanical properties :
#
#
# Convention : Reuss Voigt Hill
#
# Bulk Modulus (GPa) = 31.03560 42.65195 36.84378
# Shear Modulus (GPa) = 18.09168 26.90218 22.49693
#
# Velocity S-wave (km/s) = 3.19666 3.89808 3.56466
# Velocity P-wave (km/s) = 5.58162 6.65965 6.14432
#
# Compressibility (1/GPa) = 0.03222106
#
# Stress axis : x y z
#
# Youngs Moduli (GPa) = 98.72060 47.18609 64.24664
#
# Poissons Ratio (x) = 0.10187 0.29396
# Poissons Ratio (y) = 0.21312 0.03847
# Poissons Ratio (z) = 0.45169 0.02826
#
# Static dielectric constant tensor:
#      x y z
#    x 1.641650 0.000000 -0.010310 
#    y 0.000000 1.593920 0.000000 
#    z -0.010310 0.000000 1.586220 
# 
# From -- ./inp_files/54595.got.cif
#   From: 2010.05.17/outbox.cif.g08.bks.cpg/sg10_28_cif.got.tgz:54595.got - 2010.06.03 11:33:40.
