data_PCOD9151329
_publ_section_title
;
Structure prediction by ZEFSAII (Michael W. Deem and Ramdas Pophale) SiO2 
 PCOD9151329
Probable space group: P 2/M
;
_chemical_formula_sum "Si O2"
_cell_formula_units_Z 22
_cell_length_a 14.200766
_cell_length_b 11.278939
_cell_length_c 7.082838
_cell_angle_alpha 90.000000
_cell_angle_beta 80.855750
_cell_angle_gamma 90.000000
_cell_volume 1120.037766
_symmetry_space_group_name_H-M "P 2/M"
_symmetry_group_IT_number 10
_symmetry_cell_setting 'monoclinic'
loop_
_space_group_symop_operation_xyz
x,y,z
-x,y,-z
-x,-y,-z
x,-y,z
loop_
_atom_site_type_symbol
_atom_site_label
_atom_site_fract_x
_atom_site_fract_y
_atom_site_fract_z
Si Si1 0.208071 0.000000 0.139887
Si Si2 0.109004 0.188637 0.898064
Si Si3 0.600898 0.366158 0.911499
Si Si4 0.897366 0.000000 0.433108
Si Si5 0.266108 0.363073 0.768528
Si Si6 0.578127 0.000000 0.805688
Si Si7 0.399197 0.234119 0.448087
O O1 0.175309 0.000000 0.368915
O O2 0.321813 0.000000 0.113648
O O3 0.165954 0.887281 0.039229
O O4 0.161716 0.312556 0.845128
O O5 0.111717 0.111784 0.704374
O O6 0.000000 0.199072 0.000000
O O7 0.577562 0.500000 0.862187
O O8 0.640873 0.305709 0.716091
O O9 0.500000 0.307426 0.000000
O O10 0.672828 0.366019 0.059521
O O11 0.000000 0.000000 0.500000
O O12 0.267312 0.500000 0.693567
O O13 0.320330 0.261361 0.630119
O O14 0.576731 0.109703 0.659002
O O15 0.500000 0.000000 0.000000
O O16 0.500000 0.280616 0.500000
#
# Coordination Sequence:
#
# PCOD9151329 Si02
#       7
#     2   4   4   2   4   2   4
#     4  11  22  42  67  93 128 167 210 260 312 390
#     4  11  23  40  67  96 126 164 214 268 319 381
#     4  10  20  38  63  89 119 165 217 260 303 365
#     4  11  19  41  71 100 120 161 216 259 323 386
#     4  11  25  42  65  94 127 172 220 266 320 374
#     4  12  28  42  63  97 139 172 203 260 332 388
#     4  12  24  41  63  91 132 174 212 260 314 387
#
# _framework density 19.642192999999999
#
# number of rings (size 3 to 8) (size 9 to 14) (size 15 to 20)
#    0.000    0.909    3.636    4.091    2.545    1.818 
#    0.000    0.000    0.000    0.545    0.000    0.000 
#    0.000    0.000    0.000    0.000    0.000    0.000 
#
# Total GULP energy -122718.232631 kJ/mol
# GULP energy per Si atom -5578.101483 kJ/mol
# Density = 1.959749 g / cm^3
# Si number density = 19.642193 Si / 1000 Ang^3
#
#
#
# Elastic Constant Matrix: (Units=GPa)
#
#
# Indices 1 2 3 4 5 6 
#
# 1 133.8554 18.8874 35.0017 0.0000 -13.2247 0.0000
# 2 18.8874 82.4570 37.6182 0.0000 -9.1928 0.0000
# 3 35.0017 37.6182 111.8096 0.0000 -8.9958 0.0000
# 4 0.0000 0.0000 0.0000 19.8140 0.0000 1.9578
# 5 -13.2247 -9.1928 -8.9958 0.0000 29.2228 0.0000
# 6 0.0000 0.0000 0.0000 1.9578 0.0000 31.3493
#
#
#
# Elastic Compliance Matrix: (Units=1/GPa)
#
#
# Indices 1 2 3 4 5 6 
#
# 1 0.008421 -0.000598 -0.002198 0.000000 0.002946 0.000000
# 2 -0.000598 0.014648 -0.004504 0.000000 0.002951 0.000000
# 3 -0.002198 -0.004504 0.011231 0.000000 0.001046 0.000000
# 4 0.000000 0.000000 0.000000 0.050783 0.000000 -0.003171
# 5 0.002946 0.002951 0.001046 0.000000 0.036803 0.000000
# 6 0.000000 0.000000 0.000000 -0.003171 0.000000 0.032097
#
#
# Mechanical properties :
#
#
# Convention : Reuss Voigt Hill
#
# Bulk Modulus (GPa) = 50.75783 56.79298 53.77541
# Shear Modulus (GPa) = 28.54707 31.85154 30.19930
#
# Velocity S-wave (km/s) = 3.81642 4.03126 3.92531
# Velocity P-wave (km/s) = 6.73182 7.11651 6.92684
#
# Compressibility (1/GPa) = 0.01970139
#
# Stress axis : x y z
#
# Youngs Moduli (GPa) = 118.75190 68.26799 89.03671
#
# Poissons Ratio (x) = 0.04080 0.19571
# Poissons Ratio (y) = 0.07097 0.40101
# Poissons Ratio (z) = 0.26102 0.30747
#
# Static dielectric constant tensor:
#      x y z
#    x 1.864740 0.000000 -0.229580 
#    y 0.000000 1.768690 0.000000 
#    z -0.229580 0.000000 1.895520 
# 
# From -- ./inp_files/8956.got.cif
#   From: 2010.05.17/outbox.cif.g08.bks.cpg/sg10_5_cif.got.tgz:8956.got - 2010.06.03 11:33:40.
