data_PCOD9151745
_publ_section_title
;
Structure prediction by ZEFSAII (Michael W. Deem and Ramdas Pophale) SiO2 
 PCOD9151745
Probable space group: P 2/M
;
_chemical_formula_sum "Si O2"
_cell_formula_units_Z 24
_cell_length_a 25.931857
_cell_length_b 7.601605
_cell_length_c 18.885667
_cell_angle_alpha 90.000000
_cell_angle_beta 18.816024
_cell_angle_gamma 90.000000
_cell_volume 1200.720554
_symmetry_space_group_name_H-M "P 2/M"
_symmetry_group_IT_number 10
_symmetry_cell_setting 'monoclinic'
loop_
_space_group_symop_operation_xyz
x,y,z
-x,y,-z
-x,-y,-z
x,-y,z
loop_
_atom_site_type_symbol
_atom_site_label
_atom_site_fract_x
_atom_site_fract_y
_atom_site_fract_z
Si Si1 0.461928 0.788152 0.825309
Si Si2 0.098400 0.289410 0.546971
Si Si3 0.260622 0.706147 0.951821
Si Si4 0.681470 0.000000 0.239297
Si Si5 0.011308 0.000000 0.069473
Si Si6 0.827619 0.795491 0.702739
Si Si7 0.818918 0.297199 0.401880
O O1 0.397720 0.738407 0.831322
O O2 0.634959 0.713069 0.617908
O O3 0.475262 0.000000 0.812346
O O4 0.325731 0.722588 0.057121
O O5 0.111491 0.500000 0.524930
O O6 0.183895 0.214809 0.366861
O O7 0.164420 0.236812 0.537924
O O8 0.910060 0.243276 0.791342
O O9 0.252803 0.500000 0.943425
O O10 0.285981 0.829977 0.851838
O O11 0.500000 0.000000 0.500000
O O12 0.806523 0.000000 0.140761
O O13 0.923052 0.169233 0.217844
O O14 0.000000 0.000000 0.000000
O O15 0.000000 0.715474 0.500000
O O16 0.833761 0.000000 0.716454
O O17 0.874730 0.500000 0.325731
#
# Coordination Sequence:
#
# PCOD9151745 Si02
#       7
#     4   4   4   2   2   4   4
#     4  11  22  39  65  99 135 180 225 270 324 377
#     4  10  22  39  63  91 126 179 224 262 322 380
#     4  11  23  42  69  97 133 178 219 265 324 388
#     4  12  28  46  74 103 133 165 209 273 330 400
#     4  12  28  48  74  99 132 170 208 270 337 401
#     4  10  21  34  58  94 133 174 221 272 320 370
#     4  11  25  46  69  95 132 177 220 266 328 396
#
# _framework density 19.987997
#
# number of rings (size 3 to 8) (size 9 to 14) (size 15 to 20)
#    0.000    1.167    5.000    0.500    4.667    3.000 
#    0.000    3.333    0.000    0.000    0.000    0.000 
#    0.000    0.000    0.000    0.000    0.000    0.000 
#
# Total GULP energy -134185.672293 kJ/mol
# GULP energy per Si atom -5591.069679 kJ/mol
# Density = 1.994250 g / cm^3
# Si number density = 19.987997 Si / 1000 Ang^3
#
#
#
# Elastic Constant Matrix: (Units=GPa)
#
#
# Indices 1 2 3 4 5 6 
#
# 1 148.5376 20.3845 44.9487 0.0000 -9.5350 0.0000
# 2 20.3845 91.0584 22.3596 0.0000 11.5223 0.0000
# 3 44.9487 22.3596 99.2412 0.0000 -11.2935 0.0000
# 4 0.0000 0.0000 0.0000 -5.4038 0.0000 -16.4897
# 5 -9.5350 11.5223 -11.2935 0.0000 39.7897 0.0000
# 6 0.0000 0.0000 0.0000 -16.4897 0.0000 -20.6431
#
#
#
# Elastic Compliance Matrix: (Units=1/GPa)
#
#
# Indices 1 2 3 4 5 6 
#
# 1 0.007941 -0.001166 -0.003182 0.000000 0.001337 0.000000
# 2 -0.001166 0.012535 -0.002833 0.000000 -0.004713 0.000000
# 3 -0.003182 -0.002833 0.012568 0.000000 0.003625 0.000000
# 4 0.000000 0.000000 0.000000 0.128731 0.000000 -0.102830
# 5 0.001337 -0.004713 0.003625 0.000000 0.027846 0.000000
# 6 0.000000 0.000000 0.000000 -0.102830 0.000000 0.033698
#
#
# Mechanical properties :
#
#
# Convention : Reuss Voigt Hill
#
# Bulk Modulus (GPa) = 53.52159 57.13587 55.32873
# Shear Modulus (GPa) = 20.49959 19.49152 19.99555
#
# Velocity S-wave (km/s) = 3.20597 3.12614 3.16631
# Velocity P-wave (km/s) = 6.36705 6.45581 6.41158
#
# Compressibility (1/GPa) = 0.01868405
#
# Stress axis : x y z
#
# Youngs Moduli (GPa) = 125.92927 79.77771 79.56514
#
# Poissons Ratio (x) = 0.09299 0.25316
# Poissons Ratio (y) = 0.14678 0.22538
# Poissons Ratio (z) = 0.40069 0.22598
#
# Static dielectric constant tensor:
#      x y z
#    x 1.685900 0.000000 -0.009910 
#    y 0.000000 1.719040 0.000000 
#    z -0.009910 0.000000 1.690330 
# 
# From -- ./inp_files/80096.got.cif
#   From: 2010.05.17/outbox.cif.g08.bks.cpg/sg10_41_cif.got.tgz:80096.got - 2010.06.03 11:33:40.
