data_PCOD9151016
_publ_section_title
;
Structure prediction by ZEFSAII (Michael W. Deem and Ramdas Pophale) SiO2 
 PCOD9151016
Probable space group: P 2/M
;
_chemical_formula_sum "Si O2"
_cell_formula_units_Z 32
_cell_length_a 15.482243
_cell_length_b 8.189863
_cell_length_c 23.297885
_cell_angle_alpha 90.000000
_cell_angle_beta 148.484989
_cell_angle_gamma 90.000000
_cell_volume 1544.179332
_symmetry_space_group_name_H-M "P 2/M"
_symmetry_group_IT_number 10
_symmetry_cell_setting 'monoclinic'
loop_
_space_group_symop_operation_xyz
x,y,z
-x,y,-z
-x,-y,-z
x,-y,z
loop_
_atom_site_type_symbol
_atom_site_label
_atom_site_fract_x
_atom_site_fract_y
_atom_site_fract_z
Si Si1 0.651022 0.808184 0.625795
Si Si2 0.010739 0.693028 0.799573
Si Si3 0.069981 0.304580 0.369632
Si Si4 0.566286 0.692766 0.401461
Si Si5 0.579998 0.806186 0.280254
Si Si6 0.836351 0.813997 0.331009
Si Si7 0.707740 0.685222 0.961600
Si Si8 0.431059 0.685990 0.901123
O O1 0.500000 0.749450 0.500000
O O2 0.584122 0.780215 0.652024
O O3 0.820629 0.717151 0.708899
O O4 0.676981 0.000000 0.629574
O O5 0.051488 0.500000 0.821018
O O6 0.025320 0.755580 0.741831
O O7 0.128803 0.761470 0.916786
O O8 0.075803 0.500000 0.368093
O O9 0.258234 0.243296 0.474835
O O10 0.991473 0.266195 0.387196
O O11 0.553649 0.500000 0.406068
O O12 0.573009 0.722021 0.337538
O O13 0.734229 0.744640 0.327720
O O14 0.405734 0.775802 0.149167
O O15 0.603215 0.000000 0.300110
O O16 0.700751 0.799800 0.203716
O O17 0.879489 0.000000 0.368555
O O18 0.741493 0.500000 0.959344
O O19 0.584516 0.673343 0.945666
O O20 0.361505 0.500000 0.868980
O O21 0.500000 0.745092 0.000000
#
# Coordination Sequence:
#
# PCOD9151016 Si02
#       8
#     4   4   4   4   4   4   4   4
#     4  11  23  39  61  90 122 152 183 225 287 354
#     4  10  20  37  61  89 120 150 189 240 289 339
#     4  10  21  36  57  86 117 150 192 241 290 337
#     4  11  23  40  64  87 111 149 196 243 286 339
#     4  10  22  40  58  80 117 158 196 238 286 341
#     4  10  21  34  51  78 114 155 193 234 284 339
#     4   9  18  33  56  83 111 149 193 236 282 335
#     4   9  16  29  50  74 106 147 191 237 283 332
#
# _framework density 20.722982999999999
#
# number of rings (size 3 to 8) (size 9 to 14) (size 15 to 20)
#    0.000    2.000    1.250    2.250    0.000    6.750 
#    0.000    5.625    0.000    3.750    0.000    0.000 
#    0.000    0.000    0.000    0.000    0.000    0.000 
#
# Total GULP energy -178503.237059 kJ/mol
# GULP energy per Si atom -5578.226158 kJ/mol
# Density = 2.067582 g / cm^3
# Si number density = 20.722983 Si / 1000 Ang^3
#
#
#
# Elastic Constant Matrix: (Units=GPa)
#
#
# Indices 1 2 3 4 5 6 
#
# 1 87.1913 -5.1585 11.6532 0.0000 -0.0930 0.0000
# 2 -5.1585 19.0022 -2.2664 0.0000 0.5625 0.0000
# 3 11.6532 -2.2664 52.5838 0.0000 11.4832 0.0000
# 4 0.0000 0.0000 0.0000 -16.2654 0.0000 1.5540
# 5 -0.0930 0.5625 11.4832 0.0000 25.0043 0.0000
# 6 0.0000 0.0000 0.0000 1.5540 0.0000 21.5923
#
#
#
# Elastic Compliance Matrix: (Units=1/GPa)
#
#
# Indices 1 2 3 4 5 6 
#
# 1 0.012018 0.002889 -0.002817 0.000000 0.001273 0.000000
# 2 0.002889 0.053731 0.002153 0.000000 -0.002187 0.000000
# 3 -0.002817 0.002153 0.021948 0.000000 -0.010139 0.000000
# 4 0.000000 0.000000 0.000000 -0.061060 0.000000 0.004395
# 5 0.001273 -0.002187 -0.010139 0.000000 0.044703 0.000000
# 6 0.000000 0.000000 0.000000 0.004395 0.000000 0.045997
#
#
# Mechanical properties :
#
#
# Convention : Reuss Voigt Hill
#
# Bulk Modulus (GPa) = 10.85210 18.58153 14.71682
# Shear Modulus (GPa) = 34.81831 16.36951 25.59391
#
# Velocity S-wave (km/s) = 4.10345 2.81360 3.51814
# Velocity P-wave (km/s) = 5.26300 4.42055 4.86006
#
# Compressibility (1/GPa) = 0.09214804
#
# Stress axis : x y z
#
# Youngs Moduli (GPa) = 83.21008 18.61110 45.56138
#
# Poissons Ratio (x) = -0.05376 0.12834
# Poissons Ratio (y) = -0.24038 -0.09811
# Poissons Ratio (z) = 0.23439 -0.04008
#
# Static dielectric constant tensor:
#      x y z
#    x 1.753030 0.000000 -0.014590 
#    y 0.000000 1.743870 0.000000 
#    z -0.014590 0.000000 1.785810 
# 
# From -- ./inp_files/89644.got.cif
#   From: 2010.05.17/outbox.cif.g08.bks.cpg/sg10_45_cif.got.tgz:89644.got - 2010.06.03 11:33:40.
