data_PCOD9151287
_publ_section_title
;
Structure prediction by ZEFSAII (Michael W. Deem and Ramdas Pophale) SiO2 
 PCOD9151287
Probable space group: P 2/M
;
_chemical_formula_sum "Si O2"
_cell_formula_units_Z 28
_cell_length_a 8.340838
_cell_length_b 7.898332
_cell_length_c 22.852758
_cell_angle_alpha 90.000000
_cell_angle_beta 131.672747
_cell_angle_gamma 90.000000
_cell_volume 1124.547618
_symmetry_space_group_name_H-M "P 2/M"
_symmetry_group_IT_number 10
_symmetry_cell_setting 'monoclinic'
loop_
_space_group_symop_operation_xyz
x,y,z
-x,y,-z
-x,-y,-z
x,-y,z
loop_
_atom_site_type_symbol
_atom_site_label
_atom_site_fract_x
_atom_site_fract_y
_atom_site_fract_z
Si Si1 0.656608 0.303312 0.616446
Si Si2 0.718930 0.799947 0.759499
Si Si3 0.798009 0.196284 0.524161
Si Si4 0.831190 0.302528 0.096662
Si Si5 0.761542 0.196736 0.953690
Si Si6 0.244604 0.199585 0.668194
Si Si7 0.691783 0.303456 0.189060
O O1 0.712549 0.500000 0.623485
O O2 0.753837 0.230000 0.699065
O O3 0.731922 0.207421 0.576684
O O4 0.397337 0.286015 0.555887
O O5 0.480922 0.729196 0.713660
O O6 0.911354 0.715542 0.841327
O O7 0.722366 0.000000 0.773565
O O8 0.040100 0.266971 0.582776
O O9 0.798212 0.000000 0.505704
O O10 0.769896 0.500000 0.078950
O O11 0.733108 0.213080 0.016618
O O12 0.762231 0.232052 0.143178
O O13 0.758383 0.000000 0.935123
O O14 0.565979 0.285956 0.873943
O O15 0.000000 0.266272 0.000000
O O16 0.213034 0.219576 0.730124
O O17 0.252994 0.000000 0.656494
O O18 0.754399 0.500000 0.205685
#
# Coordination Sequence:
#
# PCOD9151287 Si02
#       7
#     4   4   4   4   4   4   4
#     4  11  22  37  58  87 119 152 193 241 290 345
#     4  11  23  40  60  85 117 154 195 239 289 345
#     4  10  20  38  62  86 114 153 196 240 291 345
#     4  11  24  41  61  89 120 152 194 240 288 343
#     4  11  24  41  62  89 120 154 194 238 285 341
#     4  10  23  40  60  86 116 151 195 242 288 344
#     4  11  24  40  61  88 119 153 192 239 288 342
#
# _framework density 24.898902
#
# number of rings (size 3 to 8) (size 9 to 14) (size 15 to 20)
#    0.000    1.286    0.000    6.429    0.000   13.714 
#    0.000    2.857    0.000    0.000    0.000    0.000 
#    0.000    0.000    0.000    0.000    0.000    0.000 
#
# Total GULP energy -156836.030694 kJ/mol
# GULP energy per Si atom -5601.286811 kJ/mol
# Density = 2.484223 g / cm^3
# Si number density = 24.898902 Si / 1000 Ang^3
#
#
#
# Elastic Constant Matrix: (Units=GPa)
#
#
# Indices 1 2 3 4 5 6 
#
# 1 67.5724 -4.6589 12.9876 0.0000 2.7433 0.0000
# 2 -4.6589 50.5141 0.3656 0.0000 3.1012 0.0000
# 3 12.9876 0.3656 145.5669 0.0000 8.6311 0.0000
# 4 0.0000 0.0000 0.0000 240.6292 0.0000 -99.1586
# 5 2.7433 3.1012 8.6311 0.0000 46.6379 0.0000
# 6 0.0000 0.0000 0.0000 -99.1586 0.0000 79.3614
#
#
#
# Elastic Compliance Matrix: (Units=1/GPa)
#
#
# Indices 1 2 3 4 5 6 
#
# 1 0.015182 0.001456 -0.001314 0.000000 -0.000747 0.000000
# 2 0.001456 0.020017 -0.000097 0.000000 -0.001399 0.000000
# 3 -0.001314 -0.000097 0.007060 0.000000 -0.001223 0.000000
# 4 0.000000 0.000000 0.000000 0.008566 0.000000 0.010703
# 5 -0.000747 -0.001399 -0.001223 0.000000 0.021805 0.000000
# 6 0.000000 0.000000 0.000000 0.010703 0.000000 0.025974
#
#
# Mechanical properties :
#
#
# Convention : Reuss Voigt Hill
#
# Bulk Modulus (GPa) = 23.61386 31.22688 27.42037
# Shear Modulus (GPa) = 44.39252 90.32299 67.35775
#
# Velocity S-wave (km/s) = 4.22703 6.02948 5.20684
# Velocity P-wave (km/s) = 5.77306 7.81291 6.86913
#
# Compressibility (1/GPa) = 0.04234801
#
# Stress axis : x y z
#
# Youngs Moduli (GPa) = 65.86681 49.95682 141.64971
#
# Poissons Ratio (x) = -0.07272 0.18612
# Poissons Ratio (y) = -0.09588 0.01377
# Poissons Ratio (z) = 0.08655 0.00486
#
# Static dielectric constant tensor:
#      x y z
#    x 2.071170 0.000000 0.044650 
#    y 0.000000 1.851190 0.000000 
#    z 0.044650 0.000000 1.916300 
# 
# From -- ./inp_files/92064.got.cif
#   From: 2010.05.17/outbox.cif.g08.bks.cpg/sg10_47_cif.got.tgz:92064.got - 2010.06.03 11:33:40.
