data_PCOD9151941
_publ_section_title
;
Structure prediction by ZEFSAII (Michael W. Deem and Ramdas Pophale) SiO2 
 PCOD9151941
Probable space group: P 2/M
;
_chemical_formula_sum "Si O2"
_cell_formula_units_Z 28
_cell_length_a 13.361945
_cell_length_b 12.748334
_cell_length_c 14.401419
_cell_angle_alpha 90.000000
_cell_angle_beta 30.745330
_cell_angle_gamma 90.000000
_cell_volume 1254.119195
_symmetry_space_group_name_H-M "P 2/M"
_symmetry_group_IT_number 10
_symmetry_cell_setting 'monoclinic'
loop_
_space_group_symop_operation_xyz
x,y,z
-x,y,-z
-x,-y,-z
x,-y,z
loop_
_atom_site_type_symbol
_atom_site_label
_atom_site_fract_x
_atom_site_fract_y
_atom_site_fract_z
Si Si1 0.382803 0.737487 0.337379
Si Si2 0.929897 0.116278 0.947442
Si Si3 0.954170 0.699855 0.639293
Si Si4 0.334735 0.179714 0.570191
Si Si5 0.771738 0.676235 0.971466
Si Si6 0.691219 0.120370 0.782268
Si Si7 0.125423 0.386064 0.806752
O O1 0.422780 0.797152 0.400306
O O2 0.366049 0.816030 0.264125
O O3 0.162900 0.694554 0.523025
O O4 0.552019 0.654300 0.179747
O O5 0.134256 0.116920 0.728552
O O6 0.810528 0.207137 0.987894
O O7 0.838973 0.000000 0.017167
O O8 0.000000 0.135597 0.000000
O O9 0.795269 0.663759 0.841837
O O10 0.871794 0.816895 0.684136
O O11 0.000000 0.653204 0.500000
O O12 0.500000 0.128145 0.500000
O O13 0.270254 0.291056 0.668663
O O14 0.951968 0.613692 0.869947
O O15 0.739694 0.000000 0.725291
O O16 0.500000 0.124034 0.000000
O O17 0.222519 0.500000 0.734213
O O18 0.000000 0.368622 0.000000
#
# Coordination Sequence:
#
# PCOD9151941 Si02
#       7
#     4   4   4   4   4   4   4
#     4  11  21  35  57  86 112 158 194 234 304 350
#     4  10  21  36  52  75 113 159 202 241 281 340
#     4  10  21  36  57  86 111 154 201 241 295 344
#     4  11  21  37  58  87 120 156 197 241 295 356
#     4  11  20  39  60  82 120 155 193 244 295 357
#     4  10  21  37  56  84 120 158 206 259 297 336
#     4  10  21  39  63  91 120 152 191 246 307 360
#
# _framework density 22.326426000000001
#
# number of rings (size 3 to 8) (size 9 to 14) (size 15 to 20)
#    0.000    1.571    4.286    3.429    0.000    4.857 
#    0.000    0.714    0.000    0.429    0.000    4.000 
#    0.000    0.000    0.000    0.000    0.000    0.000 
#
# Total GULP energy -156098.999195 kJ/mol
# GULP energy per Si atom -5574.964257 kJ/mol
# Density = 2.227561 g / cm^3
# Si number density = 22.326426 Si / 1000 Ang^3
#
#
#
# Elastic Constant Matrix: (Units=GPa)
#
#
# Indices 1 2 3 4 5 6 
#
# 1 55.2581 -16.5078 14.0923 0.0000 7.3116 0.0000
# 2 -16.5078 72.6452 -4.5567 0.0000 3.5412 0.0000
# 3 14.0923 -4.5567 117.6917 0.0000 9.2680 0.0000
# 4 0.0000 0.0000 0.0000 -15.3779 0.0000 -4.4831
# 5 7.3116 3.5412 9.2680 0.0000 53.0347 0.0000
# 6 0.0000 0.0000 0.0000 -4.4831 0.0000 -0.3355
#
#
#
# Elastic Compliance Matrix: (Units=1/GPa)
#
#
# Indices 1 2 3 4 5 6 
#
# 1 0.020368 0.004635 -0.002042 0.000000 -0.002761 0.000000
# 2 0.004635 0.014909 0.000153 0.000000 -0.001661 0.000000
# 3 -0.002042 0.000153 0.008848 0.000000 -0.001275 0.000000
# 4 0.000000 0.000000 0.000000 0.022462 0.000000 -0.300107
# 5 -0.002761 -0.001661 -0.001275 0.000000 0.019570 0.000000
# 6 0.000000 0.000000 0.000000 -0.300107 0.000000 1.029422
#
#
# Mechanical properties :
#
#
# Convention : Reuss Voigt Hill
#
# Bulk Modulus (GPa) = 20.15466 25.73895 22.94680
# Shear Modulus (GPa) = 4.43803 24.30207 14.37005
#
# Velocity S-wave (km/s) = 1.41142 3.30281 2.53975
# Velocity P-wave (km/s) = 3.42097 5.10864 4.34748
#
# Compressibility (1/GPa) = 0.04961633
#
# Stress axis : x y z
#
# Youngs Moduli (GPa) = 49.09777 67.07211 113.02508
#
# Poissons Ratio (x) = -0.31087 0.23079
# Poissons Ratio (y) = -0.22756 -0.01730
# Poissons Ratio (z) = 0.10026 -0.01027
#
# Static dielectric constant tensor:
#      x y z
#    x 1.865640 0.000000 0.036190 
#    y 0.000000 1.827310 0.000000 
#    z 0.036190 0.000000 1.854250 
# 
# From -- ./inp_files/67534.got.cif
#   From: 2010.05.17/outbox.cif.g08.bks.cpg/sg10_34_cif.got.tgz:67534.got - 2010.06.03 11:33:40.
