data_PCOD9151302
_publ_section_title
;
Structure prediction by ZEFSAII (Michael W. Deem and Ramdas Pophale) SiO2 
 PCOD9151302
Probable space group: P 2/M
;
_chemical_formula_sum "Si O2"
_cell_formula_units_Z 20
_cell_length_a 8.208101
_cell_length_b 23.546428
_cell_length_c 9.608840
_cell_angle_alpha 90.000000
_cell_angle_beta 148.674241
_cell_angle_gamma 90.000000
_cell_volume 965.519798
_symmetry_space_group_name_H-M "P 2/M"
_symmetry_group_IT_number 10
_symmetry_cell_setting 'monoclinic'
loop_
_space_group_symop_operation_xyz
x,y,z
-x,y,-z
-x,-y,-z
x,-y,z
loop_
_atom_site_type_symbol
_atom_site_label
_atom_site_fract_x
_atom_site_fract_y
_atom_site_fract_z
Si Si1 0.428912 0.372222 0.612643
Si Si2 0.203907 0.565912 0.886850
Si Si3 0.703625 0.872222 0.887356
Si Si4 0.069792 0.934088 0.386849
Si Si5 0.632534 0.250000 0.750000
O O1 0.500000 0.374706 0.500000
O O2 0.457990 0.306129 0.674867
O O3 0.087424 0.398694 0.383429
O O4 0.678696 0.407867 0.882652
O O5 0.112400 0.500000 0.834748
O O6 0.500000 0.569130 0.000000
O O7 0.820564 0.898694 0.116570
O O8 0.413393 0.907867 0.617348
O O9 0.608255 0.806129 0.825132
O O10 0.000000 0.874705 0.000000
O O11 0.000000 0.930870 0.500000
O O12 0.057092 0.000000 0.334746
O O13 0.500000 0.235286 0.500000
O O14 0.000000 0.264714 0.000000
#
# Coordination Sequence:
#
# PCOD9151302 Si02
#       5
#     4   4   4   4   4
#     4  11  22  39  65  91 117 157 207 250 293 355
#     4  11  24  41  60  88 128 164 195 244 308 359
#     4  11  22  39  65  91 117 157 207 250 293 355
#     4  11  24  41  60  88 128 164 195 244 308 359
#     4  10  20  38  62  90 122 154 194 252 312 350
#
# _framework density 20.714230000000001
#
# number of rings (size 3 to 8) (size 9 to 14) (size 15 to 20)
#    0.000    1.200    0.000    8.400    0.000    8.000 
#    0.000    4.000    0.000    2.400    0.000    0.000 
#    0.000    0.000    0.000    0.000    0.000    0.000 
#
# Total GULP energy -111911.076373 kJ/mol
# GULP energy per Si atom -5595.553819 kJ/mol
# Density = 2.066708 g / cm^3
# Si number density = 20.714230 Si / 1000 Ang^3
#
#
#
# Elastic Constant Matrix: (Units=GPa)
#
#
# Indices 1 2 3 4 5 6 
#
# 1 35.3605 46.5849 12.2687 0.0000 4.6820 0.0000
# 2 46.5849 222.2552 86.9861 0.0000 4.9543 0.0000
# 3 12.2687 86.9861 149.2693 0.0000 9.2870 0.0000
# 4 0.0000 0.0000 0.0000 53.3463 0.0000 -0.8170
# 5 4.6820 4.9543 9.2870 0.0000 31.1999 0.0000
# 6 0.0000 0.0000 0.0000 -0.8170 0.0000 60.0353
#
#
#
# Elastic Compliance Matrix: (Units=1/GPa)
#
#
# Indices 1 2 3 4 5 6 
#
# 1 0.040390 -0.009298 0.002429 0.000000 -0.005308 0.000000
# 2 -0.009298 0.007969 -0.003961 0.000000 0.001309 0.000000
# 3 0.002429 -0.003961 0.008958 0.000000 -0.002402 0.000000
# 4 0.000000 0.000000 0.000000 0.018749 0.000000 0.000255
# 5 -0.005308 0.001309 -0.002402 0.000000 0.033355 0.000000
# 6 0.000000 0.000000 0.000000 0.000255 0.000000 0.016660
#
#
# Mechanical properties :
#
#
# Convention : Reuss Voigt Hill
#
# Bulk Modulus (GPa) = 28.04604 77.61827 52.83216
# Shear Modulus (GPa) = 31.32296 46.31933 38.82114
#
# Velocity S-wave (km/s) = 3.89285 4.73388 4.33382
# Velocity P-wave (km/s) = 5.81159 8.21169 7.11360
#
# Compressibility (1/GPa) = 0.03565565
#
# Stress axis : x y z
#
# Youngs Moduli (GPa) = 24.75886 125.47964 111.63741
#
# Poissons Ratio (x) = 1.16671 -0.27116
# Poissons Ratio (y) = 0.23021 0.44224
# Poissons Ratio (z) = -0.06014 0.49707
#
# Static dielectric constant tensor:
#      x y z
#    x 1.745340 0.000000 -0.002060 
#    y 0.000000 1.729480 0.000000 
#    z -0.002060 0.000000 1.728490 
# 
# From -- ./inp_files/20796.got.cif
#   From: 2010.05.17/outbox.cif.g08.bks.cpg/sg10_11_cif.got.tgz:20796.got - 2010.06.03 11:33:40.
