data_PCOD9151437
_publ_section_title
;
Structure prediction by ZEFSAII (Michael W. Deem and Ramdas Pophale) SiO2 
 PCOD9151437
Probable space group: P 2/M
;
_chemical_formula_sum "Si O2"
_cell_formula_units_Z 28
_cell_length_a 10.447701
_cell_length_b 7.736041
_cell_length_c 31.227121
_cell_angle_alpha 90.000000
_cell_angle_beta 146.605591
_cell_angle_gamma 90.000000
_cell_volume 1389.150484
_symmetry_space_group_name_H-M "P 2/M"
_symmetry_group_IT_number 10
_symmetry_cell_setting 'monoclinic'
loop_
_space_group_symop_operation_xyz
x,y,z
-x,y,-z
-x,-y,-z
x,-y,z
loop_
_atom_site_type_symbol
_atom_site_label
_atom_site_fract_x
_atom_site_fract_y
_atom_site_fract_z
Si Si1 0.364603 0.708903 0.584691
Si Si2 0.342963 0.797567 0.994579
Si Si3 0.867985 0.798199 0.746014
Si Si4 0.919078 0.288714 0.410136
Si Si5 0.347681 0.300693 0.840342
Si Si6 0.355913 0.702898 0.747350
Si Si7 0.169416 0.209856 0.165752
O O1 0.373042 0.500000 0.587025
O O2 0.625202 0.775474 0.653748
O O3 0.253924 0.763311 0.599533
O O4 0.177860 0.763215 0.496682
O O5 0.481944 0.782812 0.077394
O O6 0.313558 0.000000 0.975821
O O7 0.500000 0.720966 0.000000
O O8 0.079868 0.730345 0.922075
O O9 0.827105 0.737481 0.783347
O O10 0.086080 0.707894 0.785188
O O11 0.930018 0.000000 0.765781
O O12 0.915321 0.500000 0.408720
O O13 0.822649 0.224984 0.337952
O O14 0.422462 0.500000 0.858430
O O15 0.352514 0.222163 0.794114
O O16 0.296346 0.500000 0.735300
O O17 0.610988 0.718483 0.798201
O O18 0.187692 0.000000 0.168876
#
# Coordination Sequence:
#
# PCOD9151437 Si02
#       7
#     4   4   4   4   4   4   4
#     4   9  16  30  56  85 108 139 186 231 272 318
#     4  10  20  39  60  80 110 145 184 228 273 323
#     4  11  21  36  56  82 113 146 184 227 274 327
#     4   8  15  30  54  82 111 143 179 225 275 322
#     4  11  24  38  56  83 112 146 185 225 277 330
#     4  10  21  38  57  81 115 148 180 225 277 328
#     4  10  21  36  58  83 107 143 186 224 271 330
#
# _framework density 20.156203000000001
#
# number of rings (size 3 to 8) (size 9 to 14) (size 15 to 20)
#    0.000    2.143    2.857    1.714    0.000    3.143 
#    0.000    5.714    0.000    4.286    0.000    0.000 
#    0.000    0.000    0.000    0.000    0.000    0.000 
#
# Total GULP energy -156291.782118 kJ/mol
# GULP energy per Si atom -5581.849361 kJ/mol
# Density = 2.011033 g / cm^3
# Si number density = 20.156203 Si / 1000 Ang^3
#
#
#
# Elastic Constant Matrix: (Units=GPa)
#
#
# Indices 1 2 3 4 5 6 
#
# 1 86.1362 -11.1137 52.9832 0.0000 -16.8166 0.0000
# 2 -11.1137 27.0485 -13.3065 0.0000 -4.4001 0.0000
# 3 52.9832 -13.3065 159.2580 0.0000 -5.2038 0.0000
# 4 0.0000 0.0000 0.0000 28.5539 0.0000 8.3707
# 5 -16.8166 -4.4001 -5.2038 0.0000 31.8331 0.0000
# 6 0.0000 0.0000 0.0000 8.3707 0.0000 11.7139
#
#
#
# Elastic Compliance Matrix: (Units=1/GPa)
#
#
# Indices 1 2 3 4 5 6 
#
# 1 0.017207 0.006139 -0.004913 0.000000 0.009136 0.000000
# 2 0.006139 0.041875 0.001761 0.000000 0.009319 0.000000
# 3 -0.004913 0.001761 0.008027 0.000000 -0.001040 0.000000
# 4 0.000000 0.000000 0.000000 0.044302 0.000000 -0.031658
# 5 0.009136 0.009319 -0.001040 0.000000 0.037358 0.000000
# 6 0.000000 0.000000 0.000000 -0.031658 0.000000 0.107991
#
#
# Mechanical properties :
#
#
# Convention : Reuss Voigt Hill
#
# Bulk Modulus (GPa) = 13.68300 36.61874 25.15087
# Shear Modulus (GPa) = 18.17203 30.67884 24.42544
#
# Velocity S-wave (km/s) = 3.00586 3.90558 3.48488
# Velocity P-wave (km/s) = 4.34167 6.20847 5.35701
#
# Compressibility (1/GPa) = 0.07308338
#
# Stress axis : x y z
#
# Youngs Moduli (GPa) = 58.11461 23.88039 124.58214
#
# Poissons Ratio (x) = -0.14661 0.61210
# Poissons Ratio (y) = -0.35678 -0.21937
# Poissons Ratio (z) = 0.28553 -0.04205
#
# Static dielectric constant tensor:
#      x y z
#    x 1.683850 0.000000 -0.017460 
#    y 0.000000 1.738770 0.000000 
#    z -0.017460 0.000000 1.719320 
# 
# From -- ./inp_files/37289.got.cif
#   From: 2010.05.17/outbox.cif.g08.bks.cpg/sg10_19_cif.got.tgz:37289.got - 2010.06.03 11:33:40.
