data_PCOD9151575
_publ_section_title
;
Structure prediction by ZEFSAII (Michael W. Deem and Ramdas Pophale) SiO2 
 PCOD9151575
Probable space group: P 2/M
;
_chemical_formula_sum "Si O2"
_cell_formula_units_Z 26
_cell_length_a 14.848209
_cell_length_b 8.572680
_cell_length_c 16.153461
_cell_angle_alpha 90.000000
_cell_angle_beta 39.005369
_cell_angle_gamma 90.000000
_cell_volume 1294.131258
_symmetry_space_group_name_H-M "P 2/M"
_symmetry_group_IT_number 10
_symmetry_cell_setting 'monoclinic'
loop_
_space_group_symop_operation_xyz
x,y,z
-x,y,-z
-x,-y,-z
x,-y,z
loop_
_atom_site_type_symbol
_atom_site_label
_atom_site_fract_x
_atom_site_fract_y
_atom_site_fract_z
Si Si1 0.643667 0.500000 0.758016
Si Si2 0.669813 0.756574 0.599139
Si Si3 0.014988 0.169284 0.588962
Si Si4 0.876776 0.500000 0.735075
Si Si5 0.347471 0.169067 0.856686
Si Si6 0.346613 0.678445 0.580071
Si Si7 0.679691 0.500000 0.029981
Si Si8 0.864414 0.822650 0.145009
O O1 0.671924 0.642134 0.676132
O O2 0.750046 0.500000 0.758032
O O3 0.476946 0.500000 0.901107
O O4 0.516433 0.836580 0.718774
O O5 0.664018 0.684746 0.511299
O O6 0.820508 0.840314 0.500631
O O7 0.959020 0.335734 0.663191
O O8 0.000000 0.179429 0.500000
O O9 0.946337 0.000000 0.662070
O O10 0.807434 0.500000 0.874491
O O11 0.316704 0.335306 0.922890
O O12 0.261680 0.175502 0.832347
O O13 0.307673 0.000000 0.925566
O O14 0.500000 0.749406 0.500000
O O15 0.348716 0.500000 0.607591
O O16 0.207366 0.751582 0.722477
O O17 0.907917 0.000000 0.134756
O O18 0.000000 0.748218 0.000000
#
# Coordination Sequence:
#
# PCOD9151575 Si02
#       8
#     2   4   4   2   4   4   2   4
#     4  10  20  40  66  91 130 170 214 268 326 391
#     4  11  20  39  66  96 128 170 214 267 329 381
#     4  11  24  40  65  97 127 166 215 265 324 393
#     4  12  23  44  65  91 132 174 208 271 335 390
#     4  10  22  42  66  91 127 171 215 267 326 387
#     4  11  23  37  64 100 129 162 220 275 315 385
#     4  10  25  39  66  94 122 166 226 263 322 387
#     4  10  23  42  62  88 130 174 212 267 332 386
#
# _framework density 20.090699000000001
#
# number of rings (size 3 to 8) (size 9 to 14) (size 15 to 20)
#    0.000    1.385    3.846    1.385    1.077    3.692 
#    0.000    1.538    0.000    2.769    0.000    0.000 
#    0.000    0.000    0.000    0.000    0.000    0.000 
#
# Total GULP energy -144809.255986 kJ/mol
# GULP energy per Si atom -5569.586769 kJ/mol
# Density = 2.004497 g / cm^3
# Si number density = 20.090699 Si / 1000 Ang^3
#
#
#
# Elastic Constant Matrix: (Units=GPa)
#
#
# Indices 1 2 3 4 5 6 
#
# 1 55.3845 -0.9862 -5.7338 0.0000 -3.2531 0.0000
# 2 -0.9862 144.6735 52.8750 0.0000 2.9955 0.0000
# 3 -5.7338 52.8750 95.6377 0.0000 9.6700 0.0000
# 4 0.0000 0.0000 0.0000 23.7376 0.0000 -8.0981
# 5 -3.2531 2.9955 9.6700 0.0000 16.2023 0.0000
# 6 0.0000 0.0000 0.0000 -8.0981 0.0000 44.4121
#
#
#
# Elastic Compliance Matrix: (Units=1/GPa)
#
#
# Indices 1 2 3 4 5 6 
#
# 1 0.018334 -0.000282 0.000934 0.000000 0.003176 0.000000
# 2 -0.000282 0.008694 -0.004954 0.000000 0.001293 0.000000
# 3 0.000934 -0.004954 0.013983 0.000000 -0.007242 0.000000
# 4 0.000000 0.000000 0.000000 0.044922 0.000000 0.008191
# 5 0.003176 0.001293 -0.007242 0.000000 0.066441 0.000000
# 6 0.000000 0.000000 0.000000 0.008191 0.000000 0.024010
#
#
# Mechanical properties :
#
#
# Convention : Reuss Voigt Hill
#
# Bulk Modulus (GPa) = 30.85795 43.11174 36.98484
# Shear Modulus (GPa) = 25.53749 33.50645 29.52197
#
# Velocity S-wave (km/s) = 3.56913 4.08825 3.83748
# Velocity P-wave (km/s) = 5.69013 6.61742 6.17122
#
# Compressibility (1/GPa) = 0.03240656
#
# Stress axis : x y z
#
# Youngs Moduli (GPa) = 54.54402 115.02025 71.51298
#
# Poissons Ratio (x) = 0.03245 -0.06680
# Poissons Ratio (y) = 0.01539 0.35430
# Poissons Ratio (z) = -0.05095 0.56985
#
# Static dielectric constant tensor:
#      x y z
#    x 1.678070 0.000000 -0.033420 
#    y 0.000000 1.711330 0.000000 
#    z -0.033420 0.000000 1.711010 
# 
# From -- ./inp_files/66848.got.cif
#   From: 2010.05.17/outbox.cif.g08.bks.cpg/sg10_34_cif.got.tgz:66848.got - 2010.06.03 11:33:40.
