data_PCOD9151936
_publ_section_title
;
Structure prediction by ZEFSAII (Michael W. Deem and Ramdas Pophale) SiO2 
 PCOD9151936
Probable space group: P 2/M
;
_chemical_formula_sum "Si O2"
_cell_formula_units_Z 20
_cell_length_a 16.351784
_cell_length_b 14.752714
_cell_length_c 8.554254
_cell_angle_alpha 90.000000
_cell_angle_beta 29.981044
_cell_angle_gamma 90.000000
_cell_volume 1031.193692
_symmetry_space_group_name_H-M "P 2/M"
_symmetry_group_IT_number 10
_symmetry_cell_setting 'monoclinic'
loop_
_space_group_symop_operation_xyz
x,y,z
-x,y,-z
-x,-y,-z
x,-y,z
loop_
_atom_site_type_symbol
_atom_site_label
_atom_site_fract_x
_atom_site_fract_y
_atom_site_fract_z
Si Si1 0.392949 0.686817 0.827659
Si Si2 0.097524 0.251907 0.129120
Si Si3 0.816179 0.396736 0.579833
Si Si4 0.690987 0.741516 0.533316
Si Si5 0.112858 0.102600 0.656221
O O1 0.500000 0.657710 0.500000
O O2 0.514437 0.736778 0.746113
O O3 0.245490 0.748241 0.006041
O O4 0.303963 0.608854 0.072565
O O5 0.976587 0.336844 0.351295
O O6 0.991655 0.160599 0.295154
O O7 0.180101 0.264315 0.822494
O O8 0.854851 0.500000 0.476306
O O9 0.726400 0.342919 0.588225
O O10 0.733730 0.833891 0.553193
O O11 0.151642 0.000000 0.545892
O O12 0.000000 0.098021 0.000000
#
# Coordination Sequence:
#
# PCOD9151936 Si02
#       5
#     4   4   4   4   4
#     4  10  21  36  52  74 107 140 172 216 265 306
#     4   9  19  35  55  79 107 138 172 214 260 307
#     4  11  22  36  55  76 101 139 181 216 256 311
#     4   9  19  35  55  79 107 138 172 214 260 307
#     4   8  14  29  55  82 106 136 173 209 251 307
#
# _framework density 19.394998000000001
#
# number of rings (size 3 to 8) (size 9 to 14) (size 15 to 20)
#    0.000    2.600    0.000    3.000    0.000    5.200 
#    0.000    5.000    0.000   25.200    0.000    0.000 
#    0.000    0.000    0.000    0.000    0.000    0.000 
#
# Total GULP energy -111546.882642 kJ/mol
# GULP energy per Si atom -5577.344132 kJ/mol
# Density = 1.935085 g / cm^3
# Si number density = 19.394998 Si / 1000 Ang^3
#
#
#
# Elastic Constant Matrix: (Units=GPa)
#
#
# Indices 1 2 3 4 5 6 
#
# 1 118.1858 51.4945 39.3688 0.0000 -44.2864 0.0000
# 2 51.4945 165.3348 41.3493 0.0000 -24.2798 0.0000
# 3 39.3688 41.3493 76.2260 0.0000 -9.5001 0.0000
# 4 0.0000 0.0000 0.0000 14.7599 0.0000 4.8657
# 5 -44.2864 -24.2798 -9.5001 0.0000 27.8448 0.0000
# 6 0.0000 0.0000 0.0000 4.8657 0.0000 2.0360
#
#
#
# Elastic Compliance Matrix: (Units=1/GPa)
#
#
# Indices 1 2 3 4 5 6 
#
# 1 0.025215 -0.000368 -0.008214 0.000000 0.036980 0.000000
# 2 -0.000368 0.007746 -0.003387 0.000000 0.005013 0.000000
# 3 -0.008214 -0.003387 0.017966 0.000000 -0.009888 0.000000
# 4 0.000000 0.000000 0.000000 0.319328 0.000000 -0.763145
# 5 0.036980 0.005013 -0.009888 0.000000 0.095727 0.000000
# 6 0.000000 0.000000 0.000000 -0.763145 0.000000 2.314960
#
#
# Mechanical properties :
#
#
# Convention : Reuss Voigt Hill
#
# Bulk Modulus (GPa) = 37.05299 69.35241 53.20270
# Shear Modulus (GPa) = 1.77691 24.09707 12.93699
#
# Velocity S-wave (km/s) = 0.95820 3.52865 2.58549
# Velocity P-wave (km/s) = 4.51332 7.24136 6.03355
#
# Compressibility (1/GPa) = 0.02698837
#
# Stress axis : x y z
#
# Youngs Moduli (GPa) = 39.65866 129.09355 55.65983
#
# Poissons Ratio (x) = 0.04756 0.45720
# Poissons Ratio (y) = 0.01461 0.18852
# Poissons Ratio (z) = 0.32577 0.43724
#
# Static dielectric constant tensor:
#      x y z
#    x 1.704110 0.000000 0.011760 
#    y 0.000000 1.624440 0.000000 
#    z 0.011760 0.000000 1.713030 
# 
# From -- ./inp_files/32636.got.cif
#   From: 2010.05.17/outbox.cif.g08.bks.cpg/sg10_17_cif.got.tgz:32636.got - 2010.06.03 11:33:40.
