data_PCOD9151787
_publ_section_title
;
Structure prediction by ZEFSAII (Michael W. Deem and Ramdas Pophale) SiO2 
 PCOD9151787
Probable space group: P 2/M
;
_chemical_formula_sum "Si O2"
_cell_formula_units_Z 32
_cell_length_a 28.944463
_cell_length_b 7.484263
_cell_length_c 20.291053
_cell_angle_alpha 90.000000
_cell_angle_beta 161.516615
_cell_angle_gamma 90.000000
_cell_volume 1393.538567
_symmetry_space_group_name_H-M "P 2/M"
_symmetry_group_IT_number 10
_symmetry_cell_setting 'monoclinic'
loop_
_space_group_symop_operation_xyz
x,y,z
-x,y,-z
-x,-y,-z
x,-y,z
loop_
_atom_site_type_symbol
_atom_site_label
_atom_site_fract_x
_atom_site_fract_y
_atom_site_fract_z
Si Si1 0.575600 0.781279 0.169925
Si Si2 0.993072 0.202165 0.562924
Si Si3 0.788941 0.706755 0.940511
Si Si4 0.101609 0.782560 0.425351
Si Si5 0.490805 0.797815 0.781538
Si Si6 0.810473 0.283735 0.682259
Si Si7 0.288966 0.293509 0.027594
Si Si8 0.141741 0.718125 0.105572
O O1 0.745031 0.727205 0.397909
O O2 0.492579 0.718654 0.123144
O O3 0.573881 0.000000 0.169731
O O4 0.500000 0.726744 0.000000
O O5 0.158051 0.198057 0.812740
O O6 0.000000 0.288165 0.500000
O O7 0.907009 0.277345 0.509586
O O8 0.935620 0.000000 0.475514
O O9 0.745101 0.500000 0.874092
O O10 0.700392 0.779654 0.883576
O O11 0.958411 0.717442 0.193156
O O12 0.782707 0.784794 0.858758
O O13 0.093984 0.000000 0.415391
O O14 0.319081 0.794560 0.535261
O O15 0.545961 0.000000 0.857480
O O16 0.570145 0.710347 0.827232
O O17 0.802504 0.500000 0.668215
O O18 0.794762 0.229761 0.737730
O O19 0.971201 0.230225 0.875989
O O20 0.242411 0.500000 0.970989
O O21 0.143182 0.500000 0.106503
#
# Coordination Sequence:
#
# PCOD9151787 Si02
#       8
#     4   4   4   4   4   4   4   4
#     4   9  19  33  51  73  97 130 169 207 246 297
#     4   9  18  31  52  77  98 126 166 210 255 302
#     4   9  17  32  53  75 100 131 168 208 250 296
#     4   9  17  30  49  74 100 125 162 206 251 300
#     4  11  22  35  53  74 103 137 172 210 255 306
#     4   9  17  32  55  81 107 134 166 204 253 306
#     4  10  21  35  51  72 100 137 174 211 255 299
#     4   8  15  30  55  82 104 132 169 207 247 303
#
# _framework density 22.963124000000001
#
# number of rings (size 3 to 8) (size 9 to 14) (size 15 to 20)
#    0.000    2.750    0.000    2.250    1.750    0.750 
#    0.000    3.125    0.000    5.625    0.000    0.000 
#    0.000    0.000    0.000    0.000    0.000    0.000 
#
# Total GULP energy -178594.396595 kJ/mol
# GULP energy per Si atom -5581.074894 kJ/mol
# Density = 2.291086 g / cm^3
# Si number density = 22.963124 Si / 1000 Ang^3
#
#
#
# Elastic Constant Matrix: (Units=GPa)
#
#
# Indices 1 2 3 4 5 6 
#
# 1 188.0668 6.3390 12.3420 0.0000 -0.0528 0.0000
# 2 6.3390 69.3722 -6.6168 0.0000 3.6984 0.0000
# 3 12.3420 -6.6168 21.3494 0.0000 6.4729 0.0000
# 4 0.0000 0.0000 0.0000 12.8680 0.0000 -3.2195
# 5 -0.0528 3.6984 6.4729 0.0000 23.8550 0.0000
# 6 0.0000 0.0000 0.0000 -3.2195 0.0000 -3.8289
#
#
#
# Elastic Compliance Matrix: (Units=1/GPa)
#
#
# Indices 1 2 3 4 5 6 
#
# 1 0.005606 -0.000950 -0.003905 0.000000 0.001219 0.000000
# 2 -0.000950 0.015350 0.006569 0.000000 -0.004164 0.000000
# 3 -0.003905 0.006569 0.056056 0.000000 -0.016238 0.000000
# 4 0.000000 0.000000 0.000000 0.064205 0.000000 -0.053986
# 5 0.001219 -0.004164 -0.016238 0.000000 0.046974 0.000000
# 6 0.000000 0.000000 0.000000 -0.053986 0.000000 -0.215780
#
#
# Mechanical properties :
#
#
# Convention : Reuss Voigt Hill
#
# Bulk Modulus (GPa) = 12.43134 33.65745 23.04439
# Shear Modulus (GPa) = -1189.38187 24.36044 -582.51072
#
# Velocity S-wave (km/s) = -22.78327 3.26060 -15.94437
# Velocity P-wave (km/s) = 26.20454 5.37256 18.13579
#
# Compressibility (1/GPa) = 0.08044184
#
# Stress axis : x y z
#
# Youngs Moduli (GPa) = 178.38476 65.14505 17.83926
#
# Poissons Ratio (x) = 0.06187 0.06966
# Poissons Ratio (y) = 0.16941 -0.11719
# Poissons Ratio (z) = 0.69654 -0.42795
#
# Static dielectric constant tensor:
#      x y z
#    x 1.915030 0.000000 0.021690 
#    y 0.000000 1.904940 0.000000 
#    z 0.021690 0.000000 1.789240 
# 
# From -- ./inp_files/86957.got.cif
#   From: 2010.05.17/outbox.cif.g08.bks.cpg/sg10_44_cif.got.tgz:86957.got - 2010.06.03 11:33:40.
