data_PCOD9151131
_publ_section_title
;
Structure prediction by ZEFSAII (Michael W. Deem and Ramdas Pophale) SiO2 
 PCOD9151131
Probable space group: P 2/M
;
_chemical_formula_sum "Si O2"
_cell_formula_units_Z 25
_cell_length_a 8.910091
_cell_length_b 16.654846
_cell_length_c 8.487678
_cell_angle_alpha 90.000000
_cell_angle_beta 54.290639
_cell_angle_gamma 90.000000
_cell_volume 1022.730863
_symmetry_space_group_name_H-M "P 2/M"
_symmetry_group_IT_number 10
_symmetry_cell_setting 'monoclinic'
loop_
_space_group_symop_operation_xyz
x,y,z
-x,y,-z
-x,-y,-z
x,-y,z
loop_
_atom_site_type_symbol
_atom_site_label
_atom_site_fract_x
_atom_site_fract_y
_atom_site_fract_z
Si Si1 0.000000 0.628243 0.500000
Si Si2 0.697554 0.086545 0.461555
Si Si3 0.081423 0.612287 0.782888
Si Si4 0.289742 0.090221 0.170796
Si Si5 0.587928 0.331181 0.786459
Si Si6 0.995362 0.199801 0.181649
Si Si7 0.500000 0.500000 0.000000
Si Si8 0.500000 0.653660 0.500000
O O1 0.006489 0.581411 0.661602
O O2 0.191751 0.677112 0.368758
O O3 0.500000 0.088547 0.500000
O O4 0.707030 0.086313 0.643444
O O5 0.801954 0.166757 0.356661
O O6 0.782890 0.000000 0.358309
O O7 0.303408 0.607575 0.635209
O O8 0.011280 0.704554 0.815445
O O9 0.000000 0.583305 0.000000
O O10 0.152531 0.156136 0.185467
O O11 0.241081 0.000000 0.141595
O O12 0.500000 0.106889 0.000000
O O13 0.545568 0.426795 0.842133
O O14 0.505609 0.303993 0.668895
O O15 0.500000 0.294174 0.000000
O O16 0.000000 0.171650 0.000000
#
# Coordination Sequence:
#
# PCOD9151131 Si02
#       8
#     2   4   4   4   4   4   1   2
#     4  10  20  37  64  82 119 174 196 236 304 344
#     4  10  21  36  57  80 107 144 183 234 303 367
#     4  10  23  39  58  89 116 156 214 249 289 356
#     4  10  21  38  58  81 110 147 188 237 309 377
#     4   9  19  37  59  91 125 156 199 246 286 348
#     4  11  23  37  54  81 115 143 190 253 288 347
#     4   8  20  36  60  98 130 148 200 254 282 344
#     4  10  20  39  66  80 121 176 194 242 304 346
#
# _framework density 24.444358000000001
#
# number of rings (size 3 to 8) (size 9 to 14) (size 15 to 20)
#    0.480    1.600    0.000    2.880    3.360    4.480 
#    0.000    0.800    0.000    1.920    0.000    0.000 
#    0.000    0.000    0.000    0.000    0.000    0.000 
#
# Total GULP energy -139306.829120 kJ/mol
# GULP energy per Si atom -5572.273165 kJ/mol
# Density = 2.438872 g / cm^3
# Si number density = 24.444358 Si / 1000 Ang^3
#
#
#
# Elastic Constant Matrix: (Units=GPa)
#
#
# Indices 1 2 3 4 5 6 
#
# 1 170.7012 44.0984 55.1625 0.0000 20.5961 0.0000
# 2 44.0984 145.0377 25.5506 0.0000 6.2955 0.0000
# 3 55.1625 25.5506 144.8788 0.0000 35.8706 0.0000
# 4 0.0000 0.0000 0.0000 64.6585 0.0000 46.4217
# 5 20.5961 6.2955 35.8706 0.0000 46.7362 0.0000
# 6 0.0000 0.0000 0.0000 46.4217 0.0000 91.8901
#
#
#
# Elastic Compliance Matrix: (Units=1/GPa)
#
#
# Indices 1 2 3 4 5 6 
#
# 1 0.007142 -0.001747 -0.002087 0.000000 -0.001310 0.000000
# 2 -0.001747 0.007543 -0.000746 0.000000 0.000326 0.000000
# 3 -0.002087 -0.000746 0.009353 0.000000 -0.006159 0.000000
# 4 0.000000 0.000000 0.000000 0.024268 0.000000 -0.012260
# 5 -0.001310 0.000326 -0.006159 0.000000 0.026657 0.000000
# 6 0.000000 0.000000 0.000000 -0.012260 0.000000 0.017076
#
#
# Mechanical properties :
#
#
# Convention : Reuss Voigt Hill
#
# Bulk Modulus (GPa) = 67.20873 78.91563 73.06218
# Shear Modulus (GPa) = 47.09946 63.04403 55.07175
#
# Velocity S-wave (km/s) = 4.39430 5.08398 4.75167
# Velocity P-wave (km/s) = 7.30074 8.17412 7.74974
#
# Compressibility (1/GPa) = 0.01487902
#
# Stress axis : x y z
#
# Youngs Moduli (GPa) = 140.01768 132.57022 106.91506
#
# Poissons Ratio (x) = 0.23160 0.22310
# Poissons Ratio (y) = 0.24461 0.07975
# Poissons Ratio (z) = 0.29218 0.09889
#
# Static dielectric constant tensor:
#      x y z
#    x 1.932240 0.000000 -0.014420 
#    y 0.000000 1.925880 0.000000 
#    z -0.014420 0.000000 1.953480 
# 
# From -- ./inp_files/20185.got.cif
#   From: 2010.05.17/outbox.cif.g08.bks.cpg/sg10_11_cif.got.tgz:20185.got - 2010.06.03 11:33:40.
