data_PCOD9151777
_publ_section_title
;
Structure prediction by ZEFSAII (Michael W. Deem and Ramdas Pophale) SiO2 
 PCOD9151777
Probable space group: P 2/M
;
_chemical_formula_sum "Si O2"
_cell_formula_units_Z 32
_cell_length_a 33.958898
_cell_length_b 9.292945
_cell_length_c 12.662884
_cell_angle_alpha 90.000000
_cell_angle_beta 27.799839
_cell_angle_gamma 90.000000
_cell_volume 1863.731608
_symmetry_space_group_name_H-M "P 2/M"
_symmetry_group_IT_number 10
_symmetry_cell_setting 'monoclinic'
loop_
_space_group_symop_operation_xyz
x,y,z
-x,y,-z
-x,-y,-z
x,-y,z
loop_
_atom_site_type_symbol
_atom_site_label
_atom_site_fract_x
_atom_site_fract_y
_atom_site_fract_z
Si Si1 0.689217 0.168696 0.670151
Si Si2 0.728437 0.329868 0.786557
Si Si3 0.858095 0.327231 0.663568
Si Si4 0.508537 0.167957 0.802541
Si Si5 0.812567 0.328964 0.010671
Si Si6 0.334847 0.329082 0.481334
Si Si7 0.532848 0.331510 0.305122
Si Si8 0.024351 0.835419 0.317703
O O1 0.732640 0.238490 0.669602
O O2 0.706828 0.255665 0.521849
O O3 0.708750 0.000000 0.613726
O O4 0.588006 0.182486 0.929924
O O5 0.738640 0.500000 0.738591
O O6 0.795932 0.288605 0.715552
O O7 0.633787 0.312316 0.057442
O O8 0.870009 0.500000 0.633939
O O9 0.817494 0.290899 0.874631
O O10 0.948078 0.249015 0.443425
O O11 0.574328 0.258502 0.714433
O O12 0.509066 0.231097 0.683046
O O13 0.531202 0.000000 0.752655
O O14 0.829261 0.500000 0.978406
O O15 0.886510 0.245321 0.896205
O O16 0.723620 0.301189 0.277689
O O17 0.342118 0.500000 0.448822
O O18 0.500000 0.301634 0.500000
O O19 0.514531 0.500000 0.324103
O O20 0.000000 0.836164 0.500000
O O21 0.030435 0.000000 0.267270
#
# Coordination Sequence:
#
# PCOD9151777 Si02
#       8
#     4   4   4   4   4   4   4   4
#     4  10  21  37  53  70 100 137 174 214 258 302
#     4   9  18  32  52  76  99 131 173 211 249 297
#     4   9  17  31  53  77 104 134 166 203 246 302
#     4  10  21  35  50  71 100 136 175 212 256 305
#     4   9  19  33  51  77 106 133 163 203 255 304
#     4  11  22  34  54  78 101 130 172 219 257 300
#     4   9  18  31  50  72 101 136 170 212 254 295
#     4   9  17  30  49  74 105 136 166 199 242 299
#
# _framework density 17.169854000000001
#
# number of rings (size 3 to 8) (size 9 to 14) (size 15 to 20)
#    0.000    2.500    0.000    1.875    1.750    6.250 
#    0.000    0.000    0.000    0.750    0.000    5.250 
#    0.000    0.000    0.000    0.000    0.000    0.000 
#
# Total GULP energy -178493.622350 kJ/mol
# GULP energy per Si atom -5577.925698 kJ/mol
# Density = 1.713077 g / cm^3
# Si number density = 17.169854 Si / 1000 Ang^3
#
#
#
# Elastic Constant Matrix: (Units=GPa)
#
#
# Indices 1 2 3 4 5 6 
#
# 1 117.6291 56.6251 25.1597 0.0000 -16.0764 0.0000
# 2 56.6251 64.8180 27.3043 0.0000 -8.5244 0.0000
# 3 25.1597 27.3043 20.9618 0.0000 -6.8001 0.0000
# 4 0.0000 0.0000 0.0000 17.5869 0.0000 -2.0657
# 5 -16.0764 -8.5244 -6.8001 0.0000 19.0892 0.0000
# 6 0.0000 0.0000 0.0000 -2.0657 0.0000 12.2159
#
#
#
# Elastic Compliance Matrix: (Units=1/GPa)
#
#
# Indices 1 2 3 4 5 6 
#
# 1 0.015622 -0.012825 0.000413 0.000000 0.007577 0.000000
# 2 -0.012825 0.044722 -0.045097 0.000000 -0.006895 0.000000
# 3 0.000413 -0.045097 0.112537 0.000000 0.020298 0.000000
# 4 0.000000 0.000000 0.000000 0.058013 0.000000 0.009810
# 5 0.007577 -0.006895 0.020298 0.000000 0.062918 0.000000
# 6 0.000000 0.000000 0.000000 0.009810 0.000000 0.083519
#
#
# Mechanical properties :
#
#
# Convention : Reuss Voigt Hill
#
# Bulk Modulus (GPa) = 17.28220 46.84299 32.06260
# Shear Modulus (GPa) = 9.77252 16.06638 12.91945
#
# Velocity S-wave (km/s) = 2.38831 3.06229 2.74606
# Velocity P-wave (km/s) = 4.20626 6.31228 5.36365
#
# Compressibility (1/GPa) = 0.05786300
#
# Stress axis : x y z
#
# Youngs Moduli (GPa) = 64.01061 22.36043 8.88594
#
# Poissons Ratio (x) = 0.28677 -0.00367
# Poissons Ratio (y) = 0.82094 0.40073
# Poissons Ratio (z) = -0.02641 1.00838
#
# Static dielectric constant tensor:
#      x y z
#    x 1.569180 0.000000 0.005070 
#    y 0.000000 1.573980 0.000000 
#    z 0.005070 0.000000 1.569550 
# 
# From -- ./inp_files/55293.got.cif
#   From: 2010.05.17/outbox.cif.g08.bks.cpg/sg10_28_cif.got.tgz:55293.got - 2010.06.03 11:33:40.
