data_PCOD9151795
_publ_section_title
;
Structure prediction by ZEFSAII (Michael W. Deem and Ramdas Pophale) SiO2 
 PCOD9151795
Probable space group: P 2/M
;
_chemical_formula_sum "Si O2"
_cell_formula_units_Z 32
_cell_length_a 9.637327
_cell_length_b 14.275868
_cell_length_c 15.724274
_cell_angle_alpha 90.000000
_cell_angle_beta 58.965637
_cell_angle_gamma 90.000000
_cell_volume 1853.696825
_symmetry_space_group_name_H-M "P 2/M"
_symmetry_group_IT_number 10
_symmetry_cell_setting 'monoclinic'
loop_
_space_group_symop_operation_xyz
x,y,z
-x,y,-z
-x,-y,-z
x,-y,z
loop_
_atom_site_type_symbol
_atom_site_label
_atom_site_fract_x
_atom_site_fract_y
_atom_site_fract_z
Si Si1 0.538288 0.610779 0.847232
Si Si2 0.080274 0.891473 0.555798
Si Si3 0.456630 0.111297 0.109598
Si Si4 0.964056 0.242419 0.108176
Si Si5 0.926001 0.111111 0.776460
Si Si6 0.765795 0.610823 0.929597
Si Si7 0.461691 0.107746 0.415769
Si Si8 0.414949 0.767029 0.778009
O O1 0.551009 0.500000 0.825003
O O2 0.685306 0.637549 0.864253
O O3 0.518796 0.675670 0.771287
O O4 0.375093 0.624839 0.955365
O O5 0.268293 0.894271 0.476320
O O6 0.000000 0.843715 0.500000
O O7 0.030589 0.853295 0.663104
O O8 0.019836 0.000000 0.578971
O O9 0.264321 0.125576 0.182484
O O10 0.557141 0.165686 0.148954
O O11 0.489234 0.000000 0.105549
O O12 0.500000 0.141901 0.000000
O O13 0.772422 0.259344 0.174667
O O14 0.018809 0.163056 0.156543
O O15 0.076799 0.330890 0.095776
O O16 0.000000 0.214876 0.000000
O O17 0.951186 0.000000 0.779958
O O18 0.799200 0.500000 0.916351
O O19 0.500000 0.136716 0.500000
O O20 0.527419 0.175951 0.322769
O O21 0.522037 0.000000 0.384253
#
# Coordination Sequence:
#
# PCOD9151795 Si02
#       8
#     4   4   4   4   4   4   4   4
#     4   9  19  36  59  81 103 137 178 222 270 323
#     4   9  17  32  54  75  94 124 177 237 277 303
#     4  10  21  35  51  74 109 153 189 220 261 317
#     4  12  23  33  48  78 112 146 178 212 260 315
#     4  10  21  36  52  73 107 147 186 226 267 313
#     4   9  19  37  57  77 106 141 177 219 266 314
#     4  10  21  37  54  75 106 145 185 226 271 316
#     4  12  22  32  55  80 110 142 181 223 270 329
#
# _framework density 17.262801
#
# number of rings (size 3 to 8) (size 9 to 14) (size 15 to 20)
#    0.000    1.875    1.250    4.125    1.750    5.000 
#    0.000    0.000    0.000    0.375    0.000    0.875 
#    0.000   10.000    0.000    0.000    0.000    0.000 
#
# Total GULP energy -178582.827798 kJ/mol
# GULP energy per Si atom -5580.713369 kJ/mol
# Density = 1.722351 g / cm^3
# Si number density = 17.262801 Si / 1000 Ang^3
#
#
#
# Elastic Constant Matrix: (Units=GPa)
#
#
# Indices 1 2 3 4 5 6 
#
# 1 109.5889 40.5745 43.3521 0.0000 20.7731 0.0000
# 2 40.5745 69.3945 44.5969 0.0000 20.5995 0.0000
# 3 43.3521 44.5969 104.2208 0.0000 15.9391 0.0000
# 4 0.0000 0.0000 0.0000 164.2681 0.0000 -364.6614
# 5 20.7731 20.5995 15.9391 0.0000 23.6770 0.0000
# 6 0.0000 0.0000 0.0000 -364.6614 0.0000 973.8941
#
#
#
# Elastic Compliance Matrix: (Units=1/GPa)
#
#
# Indices 1 2 3 4 5 6 
#
# 1 0.012796 -0.003974 -0.002713 0.000000 -0.005943 0.000000
# 2 -0.003974 0.025405 -0.007102 0.000000 -0.013835 0.000000
# 3 -0.002713 -0.007102 0.013883 0.000000 -0.000786 0.000000
# 4 0.000000 0.000000 0.000000 0.036068 0.000000 0.013505
# 5 -0.005943 -0.013835 -0.000786 0.000000 0.060015 0.000000
# 6 0.000000 0.000000 0.000000 0.013505 0.000000 0.006084
#
#
# Mechanical properties :
#
#
# Convention : Reuss Voigt Hill
#
# Bulk Modulus (GPa) = 40.80753 60.02793 50.41773
# Shear Modulus (GPa) = 26.31603 242.67988 134.49796
#
# Velocity S-wave (km/s) = 3.90864 11.86949 8.83635
# Velocity P-wave (km/s) = 6.63779 14.92297 11.54892
#
# Compressibility (1/GPa) = 0.02450528
#
# Stress axis : x y z
#
# Youngs Moduli (GPa) = 78.14807 39.36221 72.03068
#
# Poissons Ratio (x) = 0.15643 0.19545
# Poissons Ratio (y) = 0.31056 0.51157
# Poissons Ratio (z) = 0.21205 0.27955
#
# Static dielectric constant tensor:
#      x y z
#    x 1.588410 0.000000 0.006440 
#    y 0.000000 1.597050 0.000000 
#    z 0.006440 0.000000 1.593780 
# 
# From -- ./inp_files/29535.got.cif
#   From: 2010.05.17/outbox.cif.g08.bks.cpg/sg10_15_cif.got.tgz:29535.got - 2010.06.03 11:33:40.
