data_PCOD9151783
_publ_section_title
;
Structure prediction by ZEFSAII (Michael W. Deem and Ramdas Pophale) SiO2 
 PCOD9151783
Probable space group: P 2/M
;
_chemical_formula_sum "Si O2"
_cell_formula_units_Z 32
_cell_length_a 21.918456
_cell_length_b 13.320830
_cell_length_c 7.543602
_cell_angle_alpha 90.000000
_cell_angle_beta 121.081052
_cell_angle_gamma 90.000000
_cell_volume 1886.322163
_symmetry_space_group_name_H-M "P 2/M"
_symmetry_group_IT_number 10
_symmetry_cell_setting 'monoclinic'
loop_
_space_group_symop_operation_xyz
x,y,z
-x,y,-z
-x,-y,-z
x,-y,z
loop_
_atom_site_type_symbol
_atom_site_label
_atom_site_fract_x
_atom_site_fract_y
_atom_site_fract_z
Si Si1 0.638581 0.616621 0.415809
Si Si2 0.783163 0.736156 0.634513
Si Si3 0.723670 0.118890 0.835505
Si Si4 0.919503 0.614118 0.841377
Si Si5 0.638581 0.383379 0.999935
Si Si6 0.579623 0.238811 0.619434
Si Si7 0.919503 0.614118 0.417133
Si Si8 0.783163 0.263844 0.214975
O O1 0.631365 0.500000 0.454208
O O2 0.720352 0.653418 0.560334
O O3 0.592694 0.689233 0.469906
O O4 0.620695 0.627066 0.181043
O O5 0.760182 0.829789 0.719141
O O6 0.857104 0.687318 0.808802
O O7 0.787526 0.760647 0.431289
O O8 0.641539 0.155818 0.712308
O O9 0.729488 0.000000 0.844233
O O10 0.760182 0.170211 0.061403
O O11 0.911931 0.500000 0.899877
O O12 0.911371 0.608669 0.617056
O O13 0.000000 0.647870 0.000000
O O14 0.631364 0.500000 0.939886
O O15 0.592694 0.310767 0.808177
O O16 0.720352 0.346582 0.100720
O O17 0.500000 0.198074 0.500000
O O18 0.911931 0.500000 0.335917
O O19 0.857104 0.687318 0.262509
O O20 0.000000 0.647870 0.500000
#
# Coordination Sequence:
#
# PCOD9151783 Si02
#       8
#     4   4   4   4   4   4   4   4
#     4   9  17  30  49  73 103 138 170 195 231 290
#     4   9  18  33  52  74 100 133 166 210 250 290
#     4  10  22  38  57  76  90 121 173 219 263 304
#     4   9  17  28  45  75 110 140 166 194 236 291
#     4   9  17  30  49  73 103 138 170 195 231 290
#     4  10  21  35  50  73 103 128 159 205 256 305
#     4   9  17  28  45  75 110 140 166 194 236 291
#     4   9  18  33  52  74 100 133 166 210 250 290
#
# _framework density 16.964227999999999
#
# number of rings (size 3 to 8) (size 9 to 14) (size 15 to 20)
#    0.000    2.750    0.000    1.125    1.750    5.250 
#    0.000    2.500    0.000    0.750    0.000    7.000 
#    0.000    0.000    0.000    0.000    0.000    0.000 
#
# Total GULP energy -178457.215702 kJ/mol
# GULP energy per Si atom -5576.787991 kJ/mol
# Density = 1.692562 g / cm^3
# Si number density = 16.964228 Si / 1000 Ang^3
#
#
#
# Elastic Constant Matrix: (Units=GPa)
#
#
# Indices 1 2 3 4 5 6 
#
# 1 85.3105 42.6882 47.7862 0.0000 19.3603 0.0000
# 2 42.6882 89.7195 39.0448 0.0000 10.3360 0.0000
# 3 47.7862 39.0448 73.3860 0.0000 14.4682 0.0000
# 4 0.0000 0.0000 0.0000 10.7838 0.0000 -4.9387
# 5 19.3603 10.3360 14.4682 0.0000 29.2284 0.0000
# 6 0.0000 0.0000 0.0000 -4.9387 0.0000 9.0429
#
#
#
# Elastic Compliance Matrix: (Units=1/GPa)
#
#
# Indices 1 2 3 4 5 6 
#
# 1 0.021462 -0.005084 -0.009776 0.000000 -0.007579 0.000000
# 2 -0.005084 0.015764 -0.005144 0.000000 0.000339 0.000000
# 3 -0.009776 -0.005144 0.023375 0.000000 -0.003276 0.000000
# 4 0.000000 0.000000 0.000000 0.123662 0.000000 0.067537
# 5 -0.007579 0.000339 -0.003276 0.000000 0.040735 0.000000
# 6 0.000000 0.000000 0.000000 0.067537 0.000000 0.147468
#
#
# Mechanical properties :
#
#
# Convention : Reuss Voigt Hill
#
# Bulk Modulus (GPa) = 48.55853 56.38381 52.47117
# Shear Modulus (GPa) = 11.92355 17.73748 14.83051
#
# Velocity S-wave (km/s) = 2.65403 3.23705 2.95993
# Velocity P-wave (km/s) = 6.17074 6.87607 6.53293
#
# Compressibility (1/GPa) = 0.02059370
#
# Stress axis : x y z
#
# Youngs Moduli (GPa) = 46.59456 63.43509 42.78087
#
# Poissons Ratio (x) = 0.32250 0.41823
# Poissons Ratio (y) = 0.23688 0.22005
# Poissons Ratio (z) = 0.45551 0.32629
#
# Static dielectric constant tensor:
#      x y z
#    x 1.592100 0.000000 -0.011140 
#    y 0.000000 1.522970 0.000000 
#    z -0.011140 0.000000 1.596020 
# 
# From -- ./inp_files/34877.got.cif
#   From: 2010.05.17/outbox.cif.g08.bks.cpg/sg10_18_cif.got.tgz:34877.got - 2010.06.03 11:33:40.
