data_PCOD9151628
_publ_section_title
;
Structure prediction by ZEFSAII (Michael W. Deem and Ramdas Pophale) SiO2 
 PCOD9151628
Probable space group: P 2/M
;
_chemical_formula_sum "Si O2"
_cell_formula_units_Z 18
_cell_length_a 5.497483
_cell_length_b 16.883935
_cell_length_c 10.207643
_cell_angle_alpha 90.000000
_cell_angle_beta 70.597420
_cell_angle_gamma 90.000000
_cell_volume 893.656003
_symmetry_space_group_name_H-M "P 2/M"
_symmetry_group_IT_number 10
_symmetry_cell_setting 'monoclinic'
loop_
_space_group_symop_operation_xyz
x,y,z
-x,y,-z
-x,-y,-z
x,-y,z
loop_
_atom_site_type_symbol
_atom_site_label
_atom_site_fract_x
_atom_site_fract_y
_atom_site_fract_z
Si Si1 0.000000 0.298268 0.500000
Si Si2 0.673465 0.846142 0.637953
Si Si3 0.704589 0.596027 0.069865
Si Si4 0.844974 0.091559 0.329210
Si Si5 0.736475 0.410474 0.357484
O O1 0.239839 0.240508 0.425662
O O2 0.059788 0.351963 0.614341
O O3 0.371622 0.860052 0.711837
O O4 0.750056 0.900148 0.497922
O O5 0.868753 0.871733 0.717600
O O6 0.706577 0.500000 0.056253
O O7 0.638181 0.613477 0.232269
O O8 0.500000 0.626363 0.000000
O O9 0.000000 0.623072 0.000000
O O10 0.847332 0.000000 0.290899
O O11 0.500000 0.412671 0.500000
O O12 0.846193 0.500000 0.327341
#
# Coordination Sequence:
#
# PCOD9151628 Si02
#       5
#     2   4   4   4   4
#     4  10  21  30  45  64 102 128 166 208 253 304
#     4   9  17  24  38  58  85 122 157 192 240 284
#     4   9  19  36  55  74  96 123 161 212 264 307
#     4   9  14  24  38  56  80 116 166 196 218 278
#     4  10  22  35  53  74  98 133 175 220 258 300
#
# _framework density 20.141978999999999
#
# number of rings (size 3 to 8) (size 9 to 14) (size 15 to 20)
#    0.000    2.889    0.000    3.667    9.333    0.000 
#    0.000    0.000    0.000    0.000    0.000    0.000 
#    0.000    0.000    0.000    0.000    0.000  471.111 
#
# Total GULP energy -100332.729026 kJ/mol
# GULP energy per Si atom -5574.040501 kJ/mol
# Density = 2.009613 g / cm^3
# Si number density = 20.141979 Si / 1000 Ang^3
#
#
#
# Elastic Constant Matrix: (Units=GPa)
#
#
# Indices 1 2 3 4 5 6 
#
# 1 184.6677 44.0199 48.3856 0.0000 39.6556 0.0000
# 2 44.0199 88.8766 18.9423 0.0000 21.8580 0.0000
# 3 48.3856 18.9423 85.5502 0.0000 20.1524 0.0000
# 4 0.0000 0.0000 0.0000 -7.6726 0.0000 -3.2737
# 5 39.6556 21.8580 20.1524 0.0000 25.9389 0.0000
# 6 0.0000 0.0000 0.0000 -3.2737 0.0000 4.6696
#
#
#
# Elastic Compliance Matrix: (Units=1/GPa)
#
#
# Indices 1 2 3 4 5 6 
#
# 1 0.008462 -0.001215 -0.002094 0.000000 -0.010286 0.000000
# 2 -0.001215 0.014379 -0.000098 0.000000 -0.010183 0.000000
# 3 -0.002094 -0.000098 0.014837 0.000000 -0.008243 0.000000
# 4 0.000000 0.000000 0.000000 -0.100324 0.000000 -0.070335
# 5 -0.010286 -0.010183 -0.008243 0.000000 0.069263 0.000000
# 6 0.000000 0.000000 0.000000 -0.070335 0.000000 0.164842
#
#
# Mechanical properties :
#
#
# Convention : Reuss Voigt Hill
#
# Bulk Modulus (GPa) = 32.40040 64.64336 48.52188
# Shear Modulus (GPa) = 26.51661 21.10363 23.81012
#
# Velocity S-wave (km/s) = 3.63228 3.24040 3.44192
# Velocity P-wave (km/s) = 5.80622 6.79439 6.31965
#
# Compressibility (1/GPa) = 0.03086381
#
# Stress axis : x y z
#
# Youngs Moduli (GPa) = 118.16991 69.54806 67.39995
#
# Poissons Ratio (x) = 0.08452 0.14114
# Poissons Ratio (y) = 0.14361 0.00659
# Poissons Ratio (z) = 0.24745 0.00680
#
# Static dielectric constant tensor:
#      x y z
#    x 1.801030 0.000000 0.002010 
#    y 0.000000 1.724600 0.000000 
#    z 0.002010 0.000000 1.694600 
# 
# From -- ./inp_files/14716.got.cif
#   From: 2010.05.17/outbox.cif.g08.bks.cpg/sg10_8_cif.got.tgz:14716.got - 2010.06.03 11:33:40.
