data_PCOD9151789
_publ_section_title
;
Structure prediction by ZEFSAII (Michael W. Deem and Ramdas Pophale) SiO2 
 PCOD9151789
Probable space group: P 2/M
;
_chemical_formula_sum "Si O2"
_cell_formula_units_Z 26
_cell_length_a 14.517969
_cell_length_b 7.362502
_cell_length_c 25.071988
_cell_angle_alpha 90.000000
_cell_angle_beta 147.137442
_cell_angle_gamma 90.000000
_cell_volume 1454.187423
_symmetry_space_group_name_H-M "P 2/M"
_symmetry_group_IT_number 10
_symmetry_cell_setting 'monoclinic'
loop_
_space_group_symop_operation_xyz
x,y,z
-x,y,-z
-x,-y,-z
x,-y,z
loop_
_atom_site_type_symbol
_atom_site_label
_atom_site_fract_x
_atom_site_fract_y
_atom_site_fract_z
Si Si1 0.935838 0.284842 0.339121
Si Si2 0.917017 0.000000 0.667033
Si Si3 0.428044 0.000000 0.566766
Si Si4 0.743567 0.280059 0.901604
Si Si5 0.184949 0.000000 0.262712
Si Si6 0.364958 0.721097 0.732933
Si Si7 0.091293 0.281261 0.128347
Si Si8 0.277358 0.714526 0.570602
O O1 0.927155 0.500000 0.324005
O O2 0.988741 0.172732 0.313065
O O3 0.087518 0.256919 0.455900
O O4 0.762186 0.221835 0.282391
O O5 0.907371 0.000000 0.725597
O O6 0.725496 0.000000 0.550152
O O7 0.399552 0.827318 0.591503
O O8 0.612364 0.000000 0.631102
O O9 0.741703 0.500000 0.900414
O O10 0.559662 0.217960 0.831180
O O11 0.784992 0.228530 0.860702
O O12 0.902876 0.229966 0.015822
O O13 0.137091 0.173676 0.203456
O O14 0.363348 0.500000 0.733377
O O15 0.296413 0.772164 0.641078
O O16 0.098847 0.500000 0.138469
O O17 0.315531 0.500000 0.586056
#
# Coordination Sequence:
#
# PCOD9151789 Si02
#       8
#     4   2   2   4   2   4   4   4
#     4   9  18  33  51  71 100 136 167 201 245 287
#     4  10  23  39  50  68  98 129 170 215 245 279
#     4  10  21  35  51  72  99 129 162 203 250 294
#     4   8  15  30  52  79 109 133 153 190 245 302
#     4  12  23  35  55  74  91 129 175 209 244 285
#     4   9  15  26  50  79 104 132 164 195 237 298
#     4   9  19  35  53  76 106 132 157 196 247 299
#     4   9  17  30  49  76 107 132 157 194 242 299
#
# _framework density 17.879401999999999
#
# number of rings (size 3 to 8) (size 9 to 14) (size 15 to 20)
#    0.000    2.769    0.000    2.538    0.000    6.154 
#    0.000    4.615    0.000    6.462    0.000    4.308 
#    0.000    0.000    0.000    0.000    0.000    0.000 
#
# Total GULP energy -145105.115596 kJ/mol
# GULP energy per Si atom -5580.965984 kJ/mol
# Density = 1.783871 g / cm^3
# Si number density = 17.879402 Si / 1000 Ang^3
#
#
#
# Elastic Constant Matrix: (Units=GPa)
#
#
# Indices 1 2 3 4 5 6 
#
# 1 142.5542 38.8366 64.5339 0.0000 11.9280 0.0000
# 2 38.8366 72.7975 26.6501 0.0000 2.9265 0.0000
# 3 64.5339 26.6501 56.7200 0.0000 7.2138 0.0000
# 4 0.0000 0.0000 0.0000 13.4842 0.0000 -6.4893
# 5 11.9280 2.9265 7.2138 0.0000 27.9924 0.0000
# 6 0.0000 0.0000 0.0000 -6.4893 0.0000 16.1571
#
#
#
# Elastic Compliance Matrix: (Units=1/GPa)
#
#
# Indices 1 2 3 4 5 6 
#
# 1 0.014837 -0.002112 -0.015625 0.000000 -0.002075 0.000000
# 2 -0.002112 0.016893 -0.005608 0.000000 0.000579 0.000000
# 3 -0.015625 -0.005608 0.038380 0.000000 -0.002646 0.000000
# 4 0.000000 0.000000 0.000000 0.091930 0.000000 0.036923
# 5 -0.002075 0.000579 -0.002646 0.000000 0.037229 0.000000
# 6 0.000000 0.000000 0.000000 0.036923 0.000000 0.076722
#
#
# Mechanical properties :
#
#
# Convention : Reuss Voigt Hill
#
# Bulk Modulus (GPa) = 42.69876 59.12366 50.91121
# Shear Modulus (GPa) = 15.12911 20.99682 18.06297
#
# Velocity S-wave (km/s) = 2.91207 3.43061 3.18192
# Velocity P-wave (km/s) = 5.93635 6.98798 6.48352
#
# Compressibility (1/GPa) = 0.02341988
#
# Stress axis : x y z
#
# Youngs Moduli (GPa) = 67.39750 59.19544 26.05542
#
# Poissons Ratio (x) = 0.12502 0.40712
# Poissons Ratio (y) = 0.14234 0.14612
# Poissons Ratio (z) = 1.05310 0.33197
#
# Static dielectric constant tensor:
#      x y z
#    x 1.577440 0.000000 0.032360 
#    y 0.000000 1.656900 0.000000 
#    z 0.032360 0.000000 1.604190 
# 
# From -- ./inp_files/70099.got.cif
#   From: 2010.05.17/outbox.cif.g08.bks.cpg/sg10_36_cif.got.tgz:70099.got - 2010.06.03 11:33:40.
