data_PCOD9151514
_publ_section_title
;
Structure prediction by ZEFSAII (Michael W. Deem and Ramdas Pophale) SiO2 
 PCOD9151514
Probable space group: P 2/M
;
_chemical_formula_sum "Si O2"
_cell_formula_units_Z 32
_cell_length_a 11.712513
_cell_length_b 14.294215
_cell_length_c 16.564121
_cell_angle_alpha 90.000000
_cell_angle_beta 35.566909
_cell_angle_gamma 90.000000
_cell_volume 1613.031928
_symmetry_space_group_name_H-M "P 2/M"
_symmetry_group_IT_number 10
_symmetry_cell_setting 'monoclinic'
loop_
_space_group_symop_operation_xyz
x,y,z
-x,y,-z
-x,-y,-z
x,-y,z
loop_
_atom_site_type_symbol
_atom_site_label
_atom_site_fract_x
_atom_site_fract_y
_atom_site_fract_z
Si Si1 0.019123 0.391221 0.673478
Si Si2 0.013153 0.218681 0.784631
Si Si3 0.434194 0.805442 0.949753
Si Si4 0.557389 0.110572 0.221279
Si Si5 0.351073 0.888734 0.512433
Si Si6 0.192299 0.737411 0.850378
Si Si7 0.568048 0.607291 0.646883
Si Si8 0.613803 0.393611 0.812928
O O1 0.026547 0.500000 0.692250
O O2 0.986263 0.323168 0.766671
O O3 0.229013 0.366159 0.513365
O O4 0.835124 0.380552 0.718604
O O5 0.145932 0.161756 0.645787
O O6 0.130873 0.224205 0.799539
O O7 0.797963 0.177974 0.919913
O O8 0.525514 0.853496 0.817137
O O9 0.485180 0.694363 0.915850
O O10 0.500000 0.839434 0.000000
O O11 0.430565 0.128304 0.375930
O O12 0.746127 0.175148 0.129486
O O13 0.596290 0.000000 0.194822
O O14 0.500000 0.860070 0.500000
O O15 0.327035 0.000000 0.534599
O O16 0.380775 0.670879 0.736302
O O17 0.000000 0.690094 0.000000
O O18 0.524111 0.500000 0.649585
O O19 0.607992 0.610298 0.719533
O O20 0.549795 0.500000 0.873361
#
# Coordination Sequence:
#
# PCOD9151514 Si02
#       8
#     4   4   4   4   4   4   4   4
#     4  10  22  38  61  95 130 171 220 266 321 381
#     4  12  24  38  65  99 132 170 213 272 324 390
#     4  12  25  45  65  97 132 173 223 265 328 392
#     4  11  24  44  69  95 130 168 214 274 329 387
#     4  10  22  42  69 100 128 164 217 271 327 388
#     4  12  23  40  62  95 134 172 219 260 327 398
#     4  10  21  38  62  93 130 171 216 270 324 385
#     4  10  20  39  67  93 125 170 223 272 317 379
#
# _framework density 19.838417
#
# number of rings (size 3 to 8) (size 9 to 14) (size 15 to 20)
#    0.000    1.125    5.000    1.125    0.000    4.000 
#    0.000    1.875    0.000    1.500    0.000    0.000 
#    0.000    0.000    0.000    0.000    0.000    0.000 
#
# Total GULP energy -178641.937575 kJ/mol
# GULP energy per Si atom -5582.560549 kJ/mol
# Density = 1.979326 g / cm^3
# Si number density = 19.838417 Si / 1000 Ang^3
#
#
#
# Elastic Constant Matrix: (Units=GPa)
#
#
# Indices 1 2 3 4 5 6 
#
# 1 116.1981 25.8727 33.8664 0.0000 13.2796 0.0000
# 2 25.8727 58.0995 36.3064 0.0000 -6.0659 0.0000
# 3 33.8664 36.3064 93.1210 0.0000 -3.6184 0.0000
# 4 0.0000 0.0000 0.0000 20.4477 0.0000 3.4887
# 5 13.2796 -6.0659 -3.6184 0.0000 33.1769 0.0000
# 6 0.0000 0.0000 0.0000 3.4887 0.0000 21.7116
#
#
#
# Elastic Compliance Matrix: (Units=1/GPa)
#
#
# Indices 1 2 3 4 5 6 
#
# 1 0.010820 -0.003681 -0.002706 0.000000 -0.005299 0.000000
# 2 -0.003681 0.024353 -0.007960 0.000000 0.005058 0.000000
# 3 -0.002706 -0.007960 0.014875 0.000000 0.001250 0.000000
# 4 0.000000 0.000000 0.000000 0.050284 0.000000 -0.008080
# 5 -0.005299 0.005058 0.001250 0.000000 0.033323 0.000000
# 6 0.000000 0.000000 0.000000 -0.008080 0.000000 0.047357
#
#
# Mechanical properties :
#
#
# Convention : Reuss Voigt Hill
#
# Bulk Modulus (GPa) = 46.82719 51.05663 48.94191
# Shear Modulus (GPa) = 23.06039 26.49210 24.77624
#
# Velocity S-wave (km/s) = 3.41311 3.65827 3.53781
# Velocity P-wave (km/s) = 6.26003 6.60576 6.43522
#
# Compressibility (1/GPa) = 0.02135511
#
# Stress axis : x y z
#
# Youngs Moduli (GPa) = 92.42402 41.06278 67.22804
#
# Poissons Ratio (x) = 0.15113 0.18191
# Poissons Ratio (y) = 0.34017 0.53512
# Poissons Ratio (z) = 0.25009 0.32685
#
# Static dielectric constant tensor:
#      x y z
#    x 1.691850 0.000000 0.014900 
#    y 0.000000 1.703910 0.000000 
#    z 0.014900 0.000000 1.715330 
# 
# From -- ./inp_files/54037.got.cif
#   From: 2010.05.17/outbox.cif.g08.bks.cpg/sg10_28_cif.got.tgz:54037.got - 2010.06.03 11:33:40.
