data_PCOD9151240
_publ_section_title
;
Structure prediction by ZEFSAII (Michael W. Deem and Ramdas Pophale) SiO2 
 PCOD9151240
Probable space group: P 2/M
;
_chemical_formula_sum "Si O2"
_cell_formula_units_Z 32
_cell_length_a 13.078287
_cell_length_b 15.493638
_cell_length_c 9.436344
_cell_angle_alpha 90.000000
_cell_angle_beta 50.399004
_cell_angle_gamma 90.000000
_cell_volume 1473.268471
_symmetry_space_group_name_H-M "P 2/M"
_symmetry_group_IT_number 10
_symmetry_cell_setting 'monoclinic'
loop_
_space_group_symop_operation_xyz
x,y,z
-x,y,-z
-x,-y,-z
x,-y,z
loop_
_atom_site_type_symbol
_atom_site_label
_atom_site_fract_x
_atom_site_fract_y
_atom_site_fract_z
Si Si1 0.628496 0.870616 0.794878
Si Si2 0.899981 0.597388 0.718630
Si Si3 0.634761 0.337949 0.804822
Si Si4 0.381263 0.653592 0.504331
Si Si5 0.099555 0.098407 0.295908
Si Si6 0.090245 0.401567 0.783530
Si Si7 0.143376 0.899423 0.944044
Si Si8 0.623711 0.857440 0.475716
O O1 0.634747 0.766122 0.795160
O O2 0.759223 0.904598 0.754258
O O3 0.632186 0.895609 0.625988
O O4 0.500000 0.896598 0.000000
O O5 0.867116 0.500000 0.799752
O O6 0.764417 0.637463 0.780634
O O7 0.000000 0.591029 0.500000
O O8 0.993642 0.642159 0.753225
O O9 0.628983 0.375891 0.650551
O O10 0.500000 0.365442 0.000000
O O11 0.500000 0.618280 0.500000
O O12 0.232494 0.638684 0.691943
O O13 0.404116 0.756072 0.476326
O O14 0.000000 0.139829 0.500000
O O15 0.047822 0.000000 0.315600
O O16 0.125769 0.138831 0.117868
O O17 0.118537 0.500000 0.708850
O O18 0.000000 0.405055 0.000000
O O19 0.249364 0.863196 0.738995
O O20 0.181840 0.000000 0.929440
O O21 0.000000 0.894984 0.000000
O O22 0.500000 0.895420 0.500000
#
# Coordination Sequence:
#
# PCOD9151240 Si02
#       8
#     4   4   4   4   4   4   4   4
#     4  10  21  38  57  82 115 150 188 237 286 336
#     4  10  20  38  61  83 115 153 191 240 287 340
#     4  10  22  38  58  86 116 150 193 237 286 343
#     4  10  22  39  58  84 117 152 191 238 288 341
#     4  10  21  38  59  85 116 149 187 233 285 339
#     4  10  22  40  59  84 117 152 193 238 288 343
#     4  10  21  38  59  84 115 149 189 235 281 337
#     4  10  21  38  58  82 114 150 192 235 281 340
#
# _framework density 21.720413000000001
#
# number of rings (size 3 to 8) (size 9 to 14) (size 15 to 20)
#    0.000    2.000    1.250    1.500    1.750    4.500 
#    2.250    0.000    0.000    0.000    0.000    0.000 
#    0.000    0.000    0.000    0.000    0.000    0.000 
#
# Total GULP energy -178489.641809 kJ/mol
# GULP energy per Si atom -5577.801307 kJ/mol
# Density = 2.167098 g / cm^3
# Si number density = 21.720413 Si / 1000 Ang^3
#
#
#
# Elastic Constant Matrix: (Units=GPa)
#
#
# Indices 1 2 3 4 5 6 
#
# 1 169.0467 17.7873 61.4928 0.0000 -1.6823 0.0000
# 2 17.7873 25.5542 -3.0488 0.0000 -0.8836 0.0000
# 3 61.4928 -3.0488 139.0216 0.0000 1.7661 0.0000
# 4 0.0000 0.0000 0.0000 5.2583 0.0000 -7.2167
# 5 -1.6823 -0.8836 1.7661 0.0000 45.6680 0.0000
# 6 0.0000 0.0000 0.0000 -7.2167 0.0000 23.2570
#
#
#
# Elastic Compliance Matrix: (Units=1/GPa)
#
#
# Indices 1 2 3 4 5 6 
#
# 1 0.007849 -0.005883 -0.003605 0.000000 0.000315 0.000000
# 2 -0.005883 0.043668 0.003553 0.000000 0.000491 0.000000
# 3 -0.003605 0.003553 0.008871 0.000000 -0.000407 0.000000
# 4 0.000000 0.000000 0.000000 0.331241 0.000000 0.102785
# 5 0.000315 0.000491 -0.000407 0.000000 0.021934 0.000000
# 6 0.000000 0.000000 0.000000 0.102785 0.000000 0.074892
#
#
# Mechanical properties :
#
#
# Convention : Reuss Voigt Hill
#
# Bulk Modulus (GPa) = 20.61010 54.00946 37.30978
# Shear Modulus (GPa) = 9.68062 31.99608 20.83835
#
# Velocity S-wave (km/s) = 2.11343 3.84225 3.10076
# Velocity P-wave (km/s) = 3.93254 6.67859 5.48035
#
# Compressibility (1/GPa) = 0.04851990
#
# Stress axis : x y z
#
# Youngs Moduli (GPa) = 127.40627 22.90003 112.73057
#
# Poissons Ratio (x) = 0.13471 0.40637
# Poissons Ratio (y) = 0.74947 -0.40058
# Poissons Ratio (z) = 0.45927 -0.08137
#
# Static dielectric constant tensor:
#      x y z
#    x 2.481660 0.000000 0.019230 
#    y 0.000000 1.856320 0.000000 
#    z 0.019230 0.000000 1.871790 
# 
# From -- ./inp_files/26044.got.cif
#   From: 2010.05.17/outbox.cif.g08.bks.cpg/sg10_14_cif.got.tgz:26044.got - 2010.06.03 11:33:40.
