data_PCOD9151667
_publ_section_title
;
Structure prediction by ZEFSAII (Michael W. Deem and Ramdas Pophale) SiO2 
 PCOD9151667
Probable space group: P 2/M
;
_chemical_formula_sum "Si O2"
_cell_formula_units_Z 24
_cell_length_a 12.958353
_cell_length_b 18.497327
_cell_length_c 7.475566
_cell_angle_alpha 90.000000
_cell_angle_beta 37.026814
_cell_angle_gamma 90.000000
_cell_volume 1079.034851
_symmetry_space_group_name_H-M "P 2/M"
_symmetry_group_IT_number 10
_symmetry_cell_setting 'monoclinic'
loop_
_space_group_symop_operation_xyz
x,y,z
-x,y,-z
-x,-y,-z
x,-y,z
loop_
_atom_site_type_symbol
_atom_site_label
_atom_site_fract_x
_atom_site_fract_y
_atom_site_fract_z
Si Si1 0.699805 0.809744 0.014017
Si Si2 0.669117 0.500000 0.387852
Si Si3 0.200022 0.645394 0.747297
Si Si4 0.710273 0.082786 0.701888
Si Si5 0.711276 0.804311 0.403540
Si Si6 0.197237 0.500000 0.176008
Si Si7 0.799478 0.345013 0.827261
O O1 0.774169 0.812054 0.111815
O O2 0.494361 0.811615 0.315167
O O3 0.763270 0.876317 0.809014
O O4 0.734556 0.733910 0.865405
O O5 0.500000 0.500000 0.500000
O O6 0.695446 0.574521 0.455406
O O7 0.807877 0.500000 0.034297
O O8 0.244359 0.722398 0.599867
O O9 0.234258 0.654203 0.912085
O O10 0.000000 0.631198 0.000000
O O11 0.770273 0.133223 0.455244
O O12 0.765571 0.000000 0.611635
O O13 0.500000 0.082786 0.000000
O O14 0.272864 0.423058 0.133893
O O15 0.000000 0.500000 0.500000
O O16 0.000000 0.345990 0.500000
#
# Coordination Sequence:
#
# PCOD9151667 Si02
#       7
#     4   2   4   4   4   2   4
#     4   9  18  32  53  80 109 141 189 231 282 338
#     4  10  21  33  58  83 113 152 195 243 280 337
#     4  10  21  34  53  81 112 150 189 233 284 337
#     4   9  18  33  54  81 110 142 178 231 295 344
#     4   9  19  33  53  81 111 143 184 237 280 340
#     4   8  16  31  48  75 106 142 183 229 275 328
#     4   9  18  31  52  77 102 145 186 225 274 338
#
# _framework density 22.242100000000001
#
# number of rings (size 3 to 8) (size 9 to 14) (size 15 to 20)
#    0.000    2.833    0.000    0.250    9.333    0.667 
#    0.000    3.333    0.000    1.000    0.000   10.500 
#    0.000    0.000    0.000    0.000    0.000    0.000 
#
# Total GULP energy -133820.035863 kJ/mol
# GULP energy per Si atom -5575.834828 kJ/mol
# Density = 2.219148 g / cm^3
# Si number density = 22.242100 Si / 1000 Ang^3
#
#
#
# Elastic Constant Matrix: (Units=GPa)
#
#
# Indices 1 2 3 4 5 6 
#
# 1 45.9339 56.1305 17.6171 0.0000 13.7076 0.0000
# 2 56.1305 264.4034 40.1830 0.0000 25.5962 0.0000
# 3 17.6171 40.1830 47.0695 0.0000 16.1014 0.0000
# 4 0.0000 0.0000 0.0000 41.7749 0.0000 1.8896
# 5 13.7076 25.5962 16.1014 0.0000 27.2846 0.0000
# 6 0.0000 0.0000 0.0000 1.8896 0.0000 10.9747
#
#
#
# Elastic Compliance Matrix: (Units=1/GPa)
#
#
# Indices 1 2 3 4 5 6 
#
# 1 0.032745 -0.005404 -0.004697 0.000000 -0.008609 0.000000
# 2 -0.005404 0.005363 -0.002210 0.000000 -0.001012 0.000000
# 3 -0.004697 -0.002210 0.029285 0.000000 -0.012849 0.000000
# 4 0.000000 0.000000 0.000000 0.024126 0.000000 -0.004154
# 5 -0.008609 -0.001012 -0.012849 0.000000 0.049508 0.000000
# 6 0.000000 0.000000 0.000000 -0.004154 0.000000 0.091834
#
#
# Mechanical properties :
#
#
# Convention : Reuss Voigt Hill
#
# Bulk Modulus (GPa) = 23.38028 65.02975 44.20501
# Shear Modulus (GPa) = 18.39995 32.23858 25.31926
#
# Velocity S-wave (km/s) = 2.87933 3.81128 3.37760
# Velocity P-wave (km/s) = 4.64635 6.97628 5.92693
#
# Compressibility (1/GPa) = 0.04277109
#
# Stress axis : x y z
#
# Youngs Moduli (GPa) = 30.53912 186.45741 34.14727
#
# Poissons Ratio (x) = 1.00764 0.16040
# Poissons Ratio (y) = 0.16504 0.07545
# Poissons Ratio (z) = 0.14345 0.41198
#
# Static dielectric constant tensor:
#      x y z
#    x 1.850880 0.000000 0.021700 
#    y 0.000000 1.861850 0.000000 
#    z 0.021700 0.000000 1.811670 
# 
# From -- ./inp_files/29348.got.cif
#   From: 2010.05.17/outbox.cif.g08.bks.cpg/sg10_15_cif.got.tgz:29348.got - 2010.06.03 11:33:40.
