data_PCOD9151855
_publ_section_title
;
Structure prediction by ZEFSAII (Michael W. Deem and Ramdas Pophale) SiO2 
 PCOD9151855
Probable space group: P 2/M
;
_chemical_formula_sum "Si O2"
_cell_formula_units_Z 32
_cell_length_a 20.523169
_cell_length_b 19.804125
_cell_length_c 11.577554
_cell_angle_alpha 90.000000
_cell_angle_beta 160.857226
_cell_angle_gamma 90.000000
_cell_volume 1543.082386
_symmetry_space_group_name_H-M "P 2/M"
_symmetry_group_IT_number 10
_symmetry_cell_setting 'monoclinic'
loop_
_space_group_symop_operation_xyz
x,y,z
-x,y,-z
-x,-y,-z
x,-y,z
loop_
_atom_site_type_symbol
_atom_site_label
_atom_site_fract_x
_atom_site_fract_y
_atom_site_fract_z
Si Si1 0.576238 0.686766 0.427904
Si Si2 0.976412 0.794268 0.590992
Si Si3 0.032777 0.353611 0.763848
Si Si4 0.713523 0.190505 0.347393
Si Si5 0.178792 0.325384 0.380327
Si Si6 0.634205 0.835083 0.616106
Si Si7 0.324936 0.573173 0.109860
Si Si8 0.240107 0.922636 0.392879
O O1 0.634885 0.675025 0.393085
O O2 0.547269 0.765033 0.415839
O O3 0.392953 0.638610 0.152111
O O4 0.770261 0.665017 0.828992
O O5 0.979864 0.713163 0.603436
O O6 0.000000 0.817309 0.500000
O O7 0.781074 0.819783 0.330019
O O8 0.156683 0.818554 0.972932
O O9 0.852300 0.364557 0.551517
O O10 0.115356 0.412007 0.820740
O O11 0.857540 0.246522 0.645567
O O12 0.700242 0.123543 0.399519
O O13 0.500000 0.224125 0.000000
O O14 0.000000 0.349175 0.000000
O O15 0.500000 0.857698 0.500000
O O16 0.678869 0.886996 0.587594
O O17 0.500000 0.569811 0.500000
O O18 0.324655 0.500000 0.050279
O O19 0.307202 0.000000 0.511672
O O20 0.000000 0.922080 0.000000
#
# Coordination Sequence:
#
# PCOD9151855 Si02
#       8
#     4   4   4   4   4   4   4   4
#     4   9  15  27  49  77 103 135 182 228 277 317
#     4  10  21  35  54  86 119 140 181 244 291 334
#     4   8  16  28  45  71  99 141 176 220 276 323
#     4  11  22  35  57  85 114 147 187 233 291 332
#     4   9  16  30  53  75 103 135 185 240 276 325
#     4  11  21  35  62  87 112 145 193 241 286 332
#     4   9  16  27  43  71 112 147 179 222 277 340
#     4  11  23  42  64  83 111 155 196 232 279 342
#
# _framework density 20.737714
#
# number of rings (size 3 to 8) (size 9 to 14) (size 15 to 20)
#    0.000    2.250    2.500    3.000    1.750    1.500 
#    0.000    0.625    0.000    4.875    0.000    0.000 
#    0.000    4.500    0.000    0.750    0.000    1.500 
#
# Total GULP energy -178448.452601 kJ/mol
# GULP energy per Si atom -5576.514144 kJ/mol
# Density = 2.069051 g / cm^3
# Si number density = 20.737714 Si / 1000 Ang^3
#
#
#
# Elastic Constant Matrix: (Units=GPa)
#
#
# Indices 1 2 3 4 5 6 
#
# 1 187.9889 55.6922 30.9996 0.0000 29.4745 0.0000
# 2 55.6922 96.1351 14.7970 0.0000 9.1241 0.0000
# 3 30.9996 14.7970 35.8221 0.0000 0.4596 0.0000
# 4 0.0000 0.0000 0.0000 12.3580 0.0000 1.9494
# 5 29.4745 9.1241 0.4596 0.0000 24.5245 0.0000
# 6 0.0000 0.0000 0.0000 1.9494 0.0000 28.6924
#
#
#
# Elastic Compliance Matrix: (Units=1/GPa)
#
#
# Indices 1 2 3 4 5 6 
#
# 1 0.008721 -0.003246 -0.006089 0.000000 -0.009160 0.000000
# 2 -0.003246 0.012733 -0.002441 0.000000 -0.000791 0.000000
# 3 -0.006089 -0.002441 0.034096 0.000000 0.007587 0.000000
# 4 0.000000 0.000000 0.000000 0.081796 0.000000 -0.005557
# 5 -0.009160 -0.000791 0.007587 0.000000 0.051936 0.000000
# 6 0.000000 0.000000 0.000000 -0.005557 0.000000 0.035230
#
#
# Mechanical properties :
#
#
# Convention : Reuss Voigt Hill
#
# Bulk Modulus (GPa) = 31.25065 58.10262 44.67663
# Shear Modulus (GPa) = 19.32522 27.67880 23.50201
#
# Velocity S-wave (km/s) = 3.05600 3.65733 3.37010
# Velocity P-wave (km/s) = 5.24922 6.77594 6.06085
#
# Compressibility (1/GPa) = 0.03199933
#
# Stress axis : x y z
#
# Youngs Moduli (GPa) = 114.66229 78.53585 29.32918
#
# Poissons Ratio (x) = 0.25491 0.17858
# Poissons Ratio (y) = 0.37217 0.07158
# Poissons Ratio (z) = 0.69817 0.19168
#
# Static dielectric constant tensor:
#      x y z
#    x 1.771600 0.000000 0.007200 
#    y 0.000000 1.705470 0.000000 
#    z 0.007200 0.000000 1.836270 
# 
# From -- ./inp_files/56154.got.cif
#   From: 2010.05.17/outbox.cif.g08.bks.cpg/sg10_29_cif.got.tgz:56154.got - 2010.06.03 11:33:40.
