data_PCOD9151902
_publ_section_title
;
Structure prediction by ZEFSAII (Michael W. Deem and Ramdas Pophale) SiO2 
 PCOD9151902
Probable space group: P 2/M
;
_chemical_formula_sum "Si O2"
_cell_formula_units_Z 29
_cell_length_a 5.261565
_cell_length_b 36.219743
_cell_length_c 8.661359
_cell_angle_alpha 90.000000
_cell_angle_beta 122.398897
_cell_angle_gamma 90.000000
_cell_volume 1393.679151
_symmetry_space_group_name_H-M "P 2/M"
_symmetry_group_IT_number 10
_symmetry_cell_setting 'monoclinic'
loop_
_space_group_symop_operation_xyz
x,y,z
-x,y,-z
-x,-y,-z
x,-y,z
loop_
_atom_site_type_symbol
_atom_site_label
_atom_site_fract_x
_atom_site_fract_y
_atom_site_fract_z
Si Si1 0.337740 0.303974 0.286887
Si Si2 0.000000 0.500000 0.500000
Si Si3 0.860374 0.807604 0.126582
Si Si4 0.842355 0.268516 0.283933
Si Si5 0.297987 0.431482 0.777090
Si Si6 0.798192 0.387865 0.781028
Si Si7 0.139927 0.040502 0.375572
Si Si8 0.861524 0.888456 0.124727
O O1 0.500000 0.293095 0.500000
O O2 0.500427 0.280394 0.206992
O O3 0.354417 0.347899 0.281194
O O4 0.991704 0.294278 0.203645
O O5 0.138793 0.467730 0.660915
O O6 0.918300 0.772736 0.253829
O O7 0.950651 0.848044 0.220279
O O8 0.500000 0.808813 0.000000
O O9 0.000000 0.802853 0.000000
O O10 0.000000 0.274995 0.500000
O O11 0.532968 0.416901 0.725806
O O12 0.035150 0.401559 0.729624
O O13 0.500000 0.437017 0.000000
O O14 0.000000 0.386185 0.000000
O O15 0.500000 0.044609 0.500000
O O16 0.000000 0.039398 0.500000
O O17 0.995081 0.075793 0.249065
O O18 0.077037 0.000000 0.281609
O O19 0.500000 0.891121 0.000000
O O20 0.000000 0.888053 0.000000
#
# Coordination Sequence:
#
# PCOD9151902 Si02
#       8
#     4   1   4   4   4   4   4   4
#     4  10  21  35  58  84 117 148 195 238 285 348
#     4  12  26  42  72  92 120 170 198 238 312 348
#     4  10  21  37  56  80 113 150 195 244 291 354
#     4  10  21  37  54  84 115 151 190 244 292 345
#     4  10  24  42  62  93 125 154 202 247 285 355
#     4  10  22  41  61  87 123 155 190 243 290 338
#     4  10  21  37  57  84 117 151 195 247 302 366
#     4  10  21  37  57  83 114 152 198 247 300 359
#
# _framework density 20.808233999999999
#
# number of rings (size 3 to 8) (size 9 to 14) (size 15 to 20)
#    0.000    1.931    0.000    2.690    1.931    3.862 
#    0.000    4.138    0.000    0.000    0.000    0.000 
#    0.000    0.000    0.000    0.000    0.000    0.000 
#
# Total GULP energy -161515.021569 kJ/mol
# GULP energy per Si atom -5569.483502 kJ/mol
# Density = 2.076087 g / cm^3
# Si number density = 20.808234 Si / 1000 Ang^3
#
#
#
# Elastic Constant Matrix: (Units=GPa)
#
#
# Indices 1 2 3 4 5 6 
#
# 1 154.7531 37.3262 23.0319 0.0000 -10.6241 0.0000
# 2 37.3262 122.2765 7.7077 0.0000 -11.8824 0.0000
# 3 23.0319 7.7077 31.4345 0.0000 2.4530 0.0000
# 4 0.0000 0.0000 0.0000 11.8536 0.0000 -12.4279
# 5 -10.6241 -11.8824 2.4530 0.0000 10.2006 0.0000
# 6 0.0000 0.0000 0.0000 -12.4279 0.0000 -572.8743
#
#
#
# Elastic Compliance Matrix: (Units=1/GPa)
#
#
# Indices 1 2 3 4 5 6 
#
# 1 0.008336 -0.001287 -0.006474 0.000000 0.008739 0.000000
# 2 -0.001287 0.009739 -0.002268 0.000000 0.010550 0.000000
# 3 -0.006474 -0.002268 0.038568 0.000000 -0.018660 0.000000
# 4 0.000000 0.000000 0.000000 0.082486 0.000000 -0.001789
# 5 0.008739 0.010550 -0.018660 0.000000 0.123912 0.000000
# 6 0.000000 0.000000 0.000000 -0.001789 0.000000 -0.001707
#
#
# Mechanical properties :
#
#
# Convention : Reuss Voigt Hill
#
# Bulk Modulus (GPa) = 27.33419 49.39953 38.36686
# Shear Modulus (GPa) = 17.03064 -94.13745 -38.55341
#
# Velocity S-wave (km/s) = 2.86397 -6.73340 -4.30908
# Velocity P-wave (km/s) = 4.90930 6.05472 2.50584
#
# Compressibility (1/GPa) = 0.03658422
#
# Stress axis : x y z
#
# Youngs Moduli (GPa) = 119.96310 102.67671 25.92830
#
# Poissons Ratio (x) = 0.13217 0.16786
# Poissons Ratio (y) = 0.15442 0.05881
# Poissons Ratio (z) = 0.77664 0.23289
#
# Static dielectric constant tensor:
#      x y z
#    x 1.824480 0.000000 0.025900 
#    y 0.000000 1.764780 0.000000 
#    z 0.025900 0.000000 1.754900 
# 
# From -- ./inp_files/15921.got.cif
#   From: 2010.05.17/outbox.cif.g08.bks.cpg/sg10_8_cif.got.tgz:15921.got - 2010.06.03 11:33:40.
