data_PCOD9151136
_publ_section_title
;
Structure prediction by ZEFSAII (Michael W. Deem and Ramdas Pophale) SiO2 
 PCOD9151136
Probable space group: P 2/M
;
_chemical_formula_sum "Si O2"
_cell_formula_units_Z 24
_cell_length_a 16.155771
_cell_length_b 15.488593
_cell_length_c 8.499801
_cell_angle_alpha 90.000000
_cell_angle_beta 145.261799
_cell_angle_gamma 90.000000
_cell_volume 1211.969959
_symmetry_space_group_name_H-M "P 2/M"
_symmetry_group_IT_number 10
_symmetry_cell_setting 'monoclinic'
loop_
_space_group_symop_operation_xyz
x,y,z
-x,y,-z
-x,-y,-z
x,-y,z
loop_
_atom_site_type_symbol
_atom_site_label
_atom_site_fract_x
_atom_site_fract_y
_atom_site_fract_z
Si Si1 0.645787 0.664780 0.137275
Si Si2 0.306594 0.500000 0.353489
Si Si3 0.591906 0.155597 0.882225
Si Si4 0.827520 0.675989 0.724533
Si Si5 0.088533 0.000000 0.887627
Si Si6 0.282182 0.845475 0.274863
Si Si7 0.654225 0.500000 0.947131
Si Si8 0.219115 0.000000 0.733345
O O1 0.766774 0.688487 0.453898
O O2 0.500000 0.635199 0.000000
O O3 0.601833 0.750172 0.973471
O O4 0.695253 0.586412 0.104607
O O5 0.237777 0.585631 0.318597
O O6 0.479022 0.500000 0.655099
O O7 0.283234 0.500000 0.130024
O O8 0.662332 0.161416 0.818368
O O9 0.424751 0.128162 0.596980
O O10 0.681702 0.085058 0.120013
O O11 0.770430 0.754012 0.742833
O O12 0.000000 0.673502 0.000000
O O13 0.153059 0.000000 0.809011
O O14 0.915765 0.000000 0.596248
O O15 0.155131 0.083876 0.075799
#
# Coordination Sequence:
#
# PCOD9151136 Si02
#       8
#     4   2   4   4   2   4   2   2
#     4  12  22  40  62  93 123 159 202 246 303 355
#     4  11  22  43  66  95 120 157 204 248 297 349
#     4  10  20  37  64  90 117 157 212 258 288 350
#     4  12  26  41  60  89 131 164 192 244 312 365
#     4   9  19  35  59  87 125 160 197 248 308 362
#     4  10  20  39  61  89 120 161 207 250 300 352
#     4  11  22  40  72  94 116 154 209 256 283 351
#     4   9  19  35  59  91 119 157 205 253 300 349
#
# _framework density 19.802471000000001
#
# number of rings (size 3 to 8) (size 9 to 14) (size 15 to 20)
#    0.000    1.333    3.333    2.500    2.333    4.667 
#    0.000    5.000    0.000    0.000    0.000    0.000 
#    0.000    0.000    0.000    0.000    0.000    0.000 
#
# Total GULP energy -134199.641206 kJ/mol
# GULP energy per Si atom -5591.651717 kJ/mol
# Density = 1.975740 g / cm^3
# Si number density = 19.802471 Si / 1000 Ang^3
#
#
#
# Elastic Constant Matrix: (Units=GPa)
#
#
# Indices 1 2 3 4 5 6 
#
# 1 26.5922 17.9407 29.1706 0.0000 1.9963 0.0000
# 2 17.9407 136.6720 53.3184 0.0000 -7.9060 0.0000
# 3 29.1706 53.3184 154.6477 0.0000 2.5993 0.0000
# 4 0.0000 0.0000 0.0000 -23.2463 0.0000 -72.3798
# 5 1.9963 -7.9060 2.5993 0.0000 24.6074 0.0000
# 6 0.0000 0.0000 0.0000 -72.3798 0.0000 39.4086
#
#
#
# Elastic Compliance Matrix: (Units=1/GPa)
#
#
# Indices 1 2 3 4 5 6 
#
# 1 0.049065 -0.003590 -0.007945 0.000000 -0.004294 0.000000
# 2 -0.003590 0.008948 -0.002466 0.000000 0.003427 0.000000
# 3 -0.007945 -0.002466 0.008833 0.000000 -0.001081 0.000000
# 4 0.000000 0.000000 0.000000 -0.006403 0.000000 -0.011760
# 5 -0.004294 0.003427 -0.001081 0.000000 0.042202 0.000000
# 6 0.000000 0.000000 0.000000 -0.011760 0.000000 0.003777
#
#
# Mechanical properties :
#
#
# Convention : Reuss Voigt Hill
#
# Bulk Modulus (GPa) = 25.74300 57.64126 41.69213
# Shear Modulus (GPa) = 33.92806 22.65273 28.29039
#
# Velocity S-wave (km/s) = 4.14372 3.38588 3.78382
# Velocity P-wave (km/s) = 5.99350 6.66760 6.33952
#
# Compressibility (1/GPa) = 0.03884551
#
# Stress axis : x y z
#
# Youngs Moduli (GPa) = 20.38125 111.75604 113.20922
#
# Poissons Ratio (x) = 0.40115 0.89946
# Poissons Ratio (y) = 0.07316 0.27913
# Poissons Ratio (z) = 0.16193 0.27554
#
# Static dielectric constant tensor:
#      x y z
#    x 1.685580 0.000000 -0.008170 
#    y 0.000000 1.656340 0.000000 
#    z -0.008170 0.000000 1.684840 
# 
# From -- ./inp_files/32910.got.cif
#   From: 2010.05.17/outbox.cif.g08.bks.cpg/sg10_17_cif.got.tgz:32910.got - 2010.06.03 11:33:40.
