data_PCOD9151433
_publ_section_title
;
Structure prediction by ZEFSAII (Michael W. Deem and Ramdas Pophale) SiO2 
 PCOD9151433
Probable space group: P 2/M
;
_chemical_formula_sum "Si O2"
_cell_formula_units_Z 28
_cell_length_a 12.355792
_cell_length_b 7.555141
_cell_length_c 14.299188
_cell_angle_alpha 90.000000
_cell_angle_beta 73.550118
_cell_angle_gamma 90.000000
_cell_volume 1280.188290
_symmetry_space_group_name_H-M "P 2/M"
_symmetry_group_IT_number 10
_symmetry_cell_setting 'monoclinic'
loop_
_space_group_symop_operation_xyz
x,y,z
-x,y,-z
-x,-y,-z
x,-y,z
loop_
_atom_site_type_symbol
_atom_site_label
_atom_site_fract_x
_atom_site_fract_y
_atom_site_fract_z
Si Si1 0.262850 0.294806 0.859749
Si Si2 0.819033 0.796496 0.797055
Si Si3 0.662751 0.215325 0.521419
Si Si4 0.020536 0.711537 0.885223
Si Si5 0.373750 0.706783 0.018298
Si Si6 0.883716 0.216953 0.575330
Si Si7 0.573659 0.214251 0.342763
O O1 0.232963 0.500000 0.886742
O O2 0.148908 0.222458 0.839822
O O3 0.365354 0.284935 0.763051
O O4 0.303843 0.214480 0.947813
O O5 0.708284 0.715334 0.872402
O O6 0.860052 0.723345 0.687244
O O7 0.923800 0.788530 0.843277
O O8 0.787948 0.000000 0.788445
O O9 0.779454 0.273128 0.536521
O O10 0.639326 0.270292 0.420796
O O11 0.555555 0.269250 0.610146
O O12 0.662073 0.000000 0.520666
O O13 0.012376 0.500000 0.871598
O O14 0.000000 0.745719 0.000000
O O15 0.390599 0.500000 0.990197
O O16 0.500000 0.781917 0.000000
O O17 0.000000 0.275808 0.500000
O O18 0.886851 0.000000 0.576247
O O19 0.576385 0.000000 0.337451
#
# Coordination Sequence:
#
# PCOD9151433 Si02
#       7
#     4   4   4   4   4   4   4
#     4  10  21  36  56  82 108 143 186 226 277 331
#     4  11  23  36  58  90 115 142 187 241 285 321
#     4   8  16  33  52  75 108 146 182 214 273 341
#     4  10  20  39  60  75 107 152 186 219 270 336
#     4  10  22  41  61  80 112 158 195 220 271 350
#     4   9  19  34  52  77 114 150 178 220 279 338
#     4   9  18  32  56  82 105 139 181 228 272 325
#
# _framework density 21.871782
#
# number of rings (size 3 to 8) (size 9 to 14) (size 15 to 20)
#    0.000    2.429    1.429    1.286    4.000    1.714 
#    0.000    1.429    0.000    3.429    0.000    0.000 
#    0.000    0.000    0.000    0.000    0.000    0.000 
#
# Total GULP energy -156319.506786 kJ/mol
# GULP energy per Si atom -5582.839528 kJ/mol
# Density = 2.182200 g / cm^3
# Si number density = 21.871782 Si / 1000 Ang^3
#
#
#
# Elastic Constant Matrix: (Units=GPa)
#
#
# Indices 1 2 3 4 5 6 
#
# 1 169.8179 0.3198 63.5101 0.0000 -12.5125 0.0000
# 2 0.3198 44.9259 -7.7972 0.0000 1.3652 0.0000
# 3 63.5101 -7.7972 117.3203 0.0000 -20.9703 0.0000
# 4 0.0000 0.0000 0.0000 14.8813 0.0000 -12.9382
# 5 -12.5125 1.3652 -20.9703 0.0000 19.8615 0.0000
# 6 0.0000 0.0000 0.0000 -12.9382 0.0000 0.4714
#
#
#
# Elastic Compliance Matrix: (Units=1/GPa)
#
#
# Indices 1 2 3 4 5 6 
#
# 1 0.007413 -0.000758 -0.003968 0.000000 0.000533 0.000000
# 2 -0.000758 0.022596 0.001909 0.000000 -0.000015 0.000000
# 3 -0.003968 0.001909 0.012731 0.000000 0.010811 0.000000
# 4 0.000000 0.000000 0.000000 -0.002939 0.000000 -0.080671
# 5 0.000533 -0.000015 0.010811 0.000000 0.062099 0.000000
# 6 0.000000 0.000000 0.000000 -0.080671 0.000000 -0.092787
#
#
# Mechanical properties :
#
#
# Convention : Reuss Voigt Hill
#
# Bulk Modulus (GPa) = 26.94892 49.34770 38.14831
# Shear Modulus (GPa) = 184.38820 25.44492 104.91656
#
# Velocity S-wave (km/s) = 9.19169 3.41452 6.93347
# Velocity P-wave (km/s) = 11.18023 6.17709 9.03200
#
# Compressibility (1/GPa) = 0.03710723
#
# Stress axis : x y z
#
# Youngs Moduli (GPa) = 134.88992 44.25540 78.54766
#
# Poissons Ratio (x) = 0.03353 0.31171
# Poissons Ratio (y) = 0.10220 -0.14997
# Poissons Ratio (z) = 0.53529 -0.08450
#
# Static dielectric constant tensor:
#      x y z
#    x 1.800610 0.000000 0.000160 
#    y 0.000000 1.822410 0.000000 
#    z 0.000160 0.000000 1.758790 
# 
# From -- ./inp_files/50095.got.cif
#   From: 2010.05.17/outbox.cif.g08.bks.cpg/sg10_26_cif.got.tgz:50095.got - 2010.06.03 11:33:40.
