data_PCOD9151189
_publ_section_title
;
Structure prediction by ZEFSAII (Michael W. Deem and Ramdas Pophale) SiO2 
 PCOD9151189
Probable space group: P 2/M
;
_chemical_formula_sum "Si O2"
_cell_formula_units_Z 30
_cell_length_a 12.203488
_cell_length_b 17.363580
_cell_length_c 10.535458
_cell_angle_alpha 90.000000
_cell_angle_beta 140.456639
_cell_angle_gamma 90.000000
_cell_volume 1421.299484
_symmetry_space_group_name_H-M "P 2/M"
_symmetry_group_IT_number 10
_symmetry_cell_setting 'monoclinic'
loop_
_space_group_symop_operation_xyz
x,y,z
-x,y,-z
-x,-y,-z
x,-y,z
loop_
_atom_site_type_symbol
_atom_site_label
_atom_site_fract_x
_atom_site_fract_y
_atom_site_fract_z
Si Si1 0.755689 0.585322 0.675277
Si Si2 0.852803 0.614525 0.042895
Si Si3 0.296827 0.761937 0.006747
Si Si4 0.189948 0.413029 0.700816
Si Si5 0.774150 0.087125 0.665019
Si Si6 0.391089 0.248415 0.529766
Si Si7 0.186048 0.083240 0.005349
Si Si8 0.500000 0.323401 0.000000
O O1 0.685120 0.500000 0.577536
O O2 0.691117 0.666695 0.560985
O O3 0.956205 0.585973 0.814255
O O4 0.746488 0.592915 0.821557
O O5 0.792568 0.587245 0.128611
O O6 0.842361 0.707296 0.048888
O O7 0.474667 0.747797 0.237564
O O8 0.244473 0.848786 0.969049
O O9 0.348604 0.731027 0.917196
O O10 0.179227 0.500000 0.643671
O O11 0.000000 0.377297 0.500000
O O12 0.368965 0.379243 0.806427
O O13 0.713678 0.167942 0.550164
O O14 0.741081 0.094064 0.787052
O O15 0.710517 0.000000 0.569555
O O16 0.980121 0.084518 0.833430
O O17 0.500000 0.236916 0.500000
O O18 0.241289 0.000000 0.008029
#
# Coordination Sequence:
#
# PCOD9151189 Si02
#       8
#     4   4   4   4   4   4   4   2
#     4  11  22  36  54  80 115 156 188 224 284 354
#     4  10  20  38  58  79 109 146 191 236 286 344
#     4  11  22  39  56  81 113 150 189 235 288 339
#     4  10  21  39  62  84 106 143 200 257 298 332
#     4   9  18  33  57  88 117 143 179 226 286 346
#     4  12  22  34  52  85 119 150 186 229 286 349
#     4   9  17  33  58  85 113 148 182 221 277 346
#     4  10  25  42  57  78 114 154 200 240 291 334
#
# _framework density 21.107444000000001
#
# number of rings (size 3 to 8) (size 9 to 14) (size 15 to 20)
#    0.000    1.733    2.667    3.400    1.867    3.200 
#    0.000    1.000    0.000    0.000    0.000    1.867 
#    0.000    0.000    0.000    0.000    0.000    0.000 
#
# Total GULP energy -167023.041885 kJ/mol
# GULP energy per Si atom -5567.434730 kJ/mol
# Density = 2.105940 g / cm^3
# Si number density = 21.107444 Si / 1000 Ang^3
#
#
#
# Elastic Constant Matrix: (Units=GPa)
#
#
# Indices 1 2 3 4 5 6 
#
# 1 44.5387 21.0284 -7.7850 0.0000 9.5585 0.0000
# 2 21.0284 185.9973 30.0977 0.0000 21.5688 0.0000
# 3 -7.7850 30.0977 40.2700 0.0000 11.8054 0.0000
# 4 0.0000 0.0000 0.0000 4.5540 0.0000 4.9555
# 5 9.5585 21.5688 11.8054 0.0000 19.9887 0.0000
# 6 0.0000 0.0000 0.0000 4.9555 0.0000 19.3118
#
#
#
# Elastic Compliance Matrix: (Units=1/GPa)
#
#
# Indices 1 2 3 4 5 6 
#
# 1 0.030761 -0.003546 0.014256 0.000000 -0.019303 0.000000
# 2 -0.003546 0.006916 -0.005036 0.000000 -0.002793 0.000000
# 3 0.014256 -0.005036 0.038408 0.000000 -0.024067 0.000000
# 4 0.000000 0.000000 0.000000 0.304657 0.000000 -0.078176
# 5 -0.019303 -0.002793 -0.024067 0.000000 0.076487 0.000000
# 6 0.000000 0.000000 0.000000 -0.078176 0.000000 0.071842
#
#
# Mechanical properties :
#
#
# Convention : Reuss Voigt Hill
#
# Bulk Modulus (GPa) = 11.43734 39.72090 25.57912
# Shear Modulus (GPa) = 9.14298 23.93523 16.53910
#
# Velocity S-wave (km/s) = 2.08352 3.37110 2.80226
# Velocity P-wave (km/s) = 3.34939 5.83196 4.75553
#
# Compressibility (1/GPa) = 0.08743291
#
# Stress axis : x y z
#
# Youngs Moduli (GPa) = 32.50844 144.58987 26.03646
#
# Poissons Ratio (x) = 0.51275 -0.37118
# Poissons Ratio (y) = 0.11528 0.13112
# Poissons Ratio (z) = -0.46344 0.72814
#
# Static dielectric constant tensor:
#      x y z
#    x 1.686140 0.000000 0.085000 
#    y 0.000000 1.823270 0.000000 
#    z 0.085000 0.000000 1.739140 
# 
# From -- ./inp_files/47926.got.cif
#   From: 2010.05.17/outbox.cif.g08.bks.cpg/sg10_24_cif.got.tgz:47926.got - 2010.06.03 11:33:40.
