data_PCOD9151228
_publ_section_title
;
Structure prediction by ZEFSAII (Michael W. Deem and Ramdas Pophale) SiO2 
 PCOD9151228
Probable space group: P 2/M
;
_chemical_formula_sum "Si O2"
_cell_formula_units_Z 24
_cell_length_a 14.538339
_cell_length_b 14.458991
_cell_length_c 8.038900
_cell_angle_alpha 90.000000
_cell_angle_beta 40.305213
_cell_angle_gamma 90.000000
_cell_volume 1093.098108
_symmetry_space_group_name_H-M "P 2/M"
_symmetry_group_IT_number 10
_symmetry_cell_setting 'monoclinic'
loop_
_space_group_symop_operation_xyz
x,y,z
-x,y,-z
-x,-y,-z
x,-y,z
loop_
_atom_site_type_symbol
_atom_site_label
_atom_site_fract_x
_atom_site_fract_y
_atom_site_fract_z
Si Si1 0.932593 0.790745 0.264964
Si Si2 0.285135 0.500000 0.961303
Si Si3 0.393320 0.500000 0.427008
Si Si4 0.977339 0.000000 0.289091
Si Si5 0.818984 0.300661 0.900819
Si Si6 0.326117 0.293564 0.533257
Si Si7 0.740892 0.000000 0.909961
Si Si8 0.412510 0.810280 0.947633
O O1 0.771763 0.761823 0.460362
O O2 0.947169 0.901071 0.249877
O O3 0.000000 0.755157 0.000000
O O4 0.027089 0.743576 0.277124
O O5 0.345022 0.500000 0.688579
O O6 0.437547 0.500000 0.843557
O O7 0.192750 0.409109 0.118977
O O8 0.337036 0.399289 0.452591
O O9 0.860861 0.000000 0.599113
O O10 0.147582 0.000000 0.091139
O O11 0.737160 0.289793 0.192792
O O12 0.732477 0.247495 0.877995
O O13 0.477829 0.244237 0.321880
O O14 0.639573 0.088559 0.036272
O O15 0.500000 0.815352 0.000000
#
# Coordination Sequence:
#
# PCOD9151228 Si02
#       8
#     4   2   2   2   4   4   2   4
#     4  10  21  37  62  89 118 150 193 243 291 344
#     4   9  16  31  59  85 118 158 189 232 279 350
#     4   9  16  31  57  87 118 156 193 224 291 343
#     4  11  21  42  61  83 113 158 190 236 301 348
#     4  10  20  38  60  88 118 157 195 232 290 345
#     4  10  21  37  61  88 122 154 190 242 287 342
#     4  11  25  40  62  80 112 156 200 236 286 360
#     4  12  23  39  58  87 114 150 199 244 286 343
#
# _framework density 21.955940999999999
#
# number of rings (size 3 to 8) (size 9 to 14) (size 15 to 20)
#    0.000    1.667    3.333    2.000    0.000    1.333 
#    0.000    7.500    0.000    0.000    0.000    3.500 
#    0.000    0.000    0.000    0.000    0.000    0.000 
#
# Total GULP energy -133847.677120 kJ/mol
# GULP energy per Si atom -5576.986547 kJ/mol
# Density = 2.190597 g / cm^3
# Si number density = 21.955941 Si / 1000 Ang^3
#
#
#
# Elastic Constant Matrix: (Units=GPa)
#
#
# Indices 1 2 3 4 5 6 
#
# 1 122.0933 73.6489 25.1281 0.0000 -39.3202 0.0000
# 2 73.6489 172.6795 16.2806 0.0000 -32.5568 0.0000
# 3 25.1281 16.2806 55.1076 0.0000 -25.3795 0.0000
# 4 0.0000 0.0000 0.0000 -31.3062 0.0000 170.3361
# 5 -39.3202 -32.5568 -25.3795 0.0000 43.2114 0.0000
# 6 0.0000 0.0000 0.0000 170.3361 0.0000-2101.4616
#
#
#
# Elastic Compliance Matrix: (Units=1/GPa)
#
#
# Indices 1 2 3 4 5 6 
#
# 1 0.013694 -0.004088 -0.000982 0.000000 0.008804 0.000000
# 2 -0.004088 0.007979 0.000771 0.000000 0.002745 0.000000
# 3 -0.000982 0.000771 0.024979 0.000000 0.014358 0.000000
# 4 0.000000 0.000000 0.000000 -0.057145 0.000000 -0.004632
# 5 0.008804 0.002745 0.014358 0.000000 0.041654 0.000000
# 6 0.000000 0.000000 0.000000 -0.004632 0.000000 -0.000851
#
#
# Mechanical properties :
#
#
# Convention : Reuss Voigt Hill
#
# Bulk Modulus (GPa) = 26.27834 64.44396 45.36115
# Shear Modulus (GPa) = 96.91151 -402.25642 -152.67246
#
# Velocity S-wave (km/s) = 6.65093 -13.55022 -8.34786
# Velocity P-wave (km/s) = 8.42464 14.67638 8.49769
#
# Compressibility (1/GPa) = 0.03805415
#
# Stress axis : x y z
#
# Youngs Moduli (GPa) = 73.02551 125.32145 40.03375
#
# Poissons Ratio (x) = 0.51232 0.03930
# Poissons Ratio (y) = 0.29853 -0.03086
# Poissons Ratio (z) = 0.07169 -0.09659
#
# Static dielectric constant tensor:
#      x y z
#    x 2.028270 0.000000 -0.082390 
#    y 0.000000 1.773400 0.000000 
#    z -0.082390 0.000000 1.893700 
# 
# From -- ./inp_files/53625.got.cif
#   From: 2010.05.17/outbox.cif.g08.bks.cpg/sg10_27_cif.got.tgz:53625.got - 2010.06.03 11:33:40.
