data_PCOD9151521
_publ_section_title
;
Structure prediction by ZEFSAII (Michael W. Deem and Ramdas Pophale) SiO2 
 PCOD9151521
Probable space group: P 2/M
;
_chemical_formula_sum "Si O2"
_cell_formula_units_Z 32
_cell_length_a 14.381257
_cell_length_b 22.535505
_cell_length_c 9.401279
_cell_angle_alpha 90.000000
_cell_angle_beta 150.220828
_cell_angle_gamma 90.000000
_cell_volume 1513.243925
_symmetry_space_group_name_H-M "P 2/M"
_symmetry_group_IT_number 10
_symmetry_cell_setting 'monoclinic'
loop_
_space_group_symop_operation_xyz
x,y,z
-x,y,-z
-x,-y,-z
x,-y,z
loop_
_atom_site_type_symbol
_atom_site_label
_atom_site_fract_x
_atom_site_fract_y
_atom_site_fract_z
Si Si1 0.838712 0.339816 0.198072
Si Si2 0.355849 0.435998 0.179441
Si Si3 0.006723 0.257259 0.177835
Si Si4 0.852066 0.071219 0.680372
Si Si5 0.711508 0.323588 0.315779
Si Si6 0.547996 0.930633 0.731537
Si Si7 0.060892 0.432028 0.241288
Si Si8 0.071048 0.141590 0.749625
O O1 0.898677 0.307669 0.131698
O O2 0.795487 0.299300 0.275882
O O3 0.000000 0.377267 0.500000
O O4 0.653488 0.378954 0.930184
O O5 0.500000 0.429803 0.500000
O O6 0.392844 0.500000 0.160725
O O7 0.140254 0.435200 0.947017
O O8 0.225017 0.271321 0.497013
O O9 0.932946 0.196940 0.147492
O O10 0.000000 0.260976 0.000000
O O11 0.640871 0.089452 0.438773
O O12 0.927713 0.095586 0.632686
O O13 0.853403 0.000000 0.681417
O O14 0.000000 0.089976 0.000000
O O15 0.801297 0.384254 0.503222
O O16 0.500000 0.333040 0.000000
O O17 0.500000 0.929546 0.500000
O O18 0.587727 0.000000 0.820972
O O19 0.727374 0.889683 0.993909
O O20 0.136242 0.500000 0.337117
O O21 0.000000 0.414799 0.000000
O O22 0.000000 0.159221 0.500000
#
# Coordination Sequence:
#
# PCOD9151521 Si02
#       8
#     4   4   4   4   4   4   4   4
#     4  10  21  41  63  89 125 163 207 267 331 387
#     4  10  21  35  59  91 124 163 211 261 318 386
#     4  11  25  48  70  89 123 171 220 274 332 397
#     4  10  20  39  69 103 140 182 227 272 323 393
#     4  11  24  42  67  95 129 169 213 270 334 393
#     4  10  21  40  70 105 141 184 229 269 325 398
#     4  10  21  38  61  92 135 173 210 261 318 391
#     4  12  25  43  67  99 142 177 222 286 338 390
#
# _framework density 21.146623000000002
#
# number of rings (size 3 to 8) (size 9 to 14) (size 15 to 20)
#    0.000    1.500    3.750    2.250    1.750    2.500 
#    4.500    1.875    0.000    0.000    0.000    0.000 
#    0.000    0.000    0.000    0.000    0.000    0.000 
#
# Total GULP energy -178171.177153 kJ/mol
# GULP energy per Si atom -5567.849286 kJ/mol
# Density = 2.109849 g / cm^3
# Si number density = 21.146623 Si / 1000 Ang^3
#
#
#
# Elastic Constant Matrix: (Units=GPa)
#
#
# Indices 1 2 3 4 5 6 
#
# 1 125.1618 32.7459 61.5660 0.0000 -10.1848 0.0000
# 2 32.7459 84.3855 63.5028 0.0000 6.2146 0.0000
# 3 61.5660 63.5028 132.3900 0.0000 4.9863 0.0000
# 4 0.0000 0.0000 0.0000 -2.3298 0.0000 8.9192
# 5 -10.1848 6.2146 4.9863 0.0000 42.4801 0.0000
# 6 0.0000 0.0000 0.0000 8.9192 0.0000 -15.8840
#
#
#
# Elastic Compliance Matrix: (Units=1/GPa)
#
#
# Indices 1 2 3 4 5 6 
#
# 1 0.010813 -0.000877 -0.004731 0.000000 0.003276 0.000000
# 2 -0.000877 0.018735 -0.008505 0.000000 -0.001953 0.000000
# 3 -0.004731 -0.008505 0.013890 0.000000 -0.001521 0.000000
# 4 0.000000 0.000000 0.000000 0.373343 0.000000 0.209639
# 5 0.003276 -0.001953 -0.001521 0.000000 0.024790 0.000000
# 6 0.000000 0.000000 0.000000 0.209639 0.000000 0.054760
#
#
# Mechanical properties :
#
#
# Convention : Reuss Voigt Hill
#
# Bulk Modulus (GPa) = 65.73803 73.06295 69.40049
# Shear Modulus (GPa) = 9.44058 17.12809 13.28434
#
# Velocity S-wave (km/s) = 2.11519 2.84908 2.50911
# Velocity P-wave (km/s) = 6.09259 6.74156 6.42527
#
# Compressibility (1/GPa) = 0.01521189
#
# Stress axis : x y z
#
# Youngs Moduli (GPa) = 92.48253 53.37657 71.99194
#
# Poissons Ratio (x) = 0.04680 0.34060
# Poissons Ratio (y) = 0.08110 0.61230
# Poissons Ratio (z) = 0.43755 0.45397
#
# Static dielectric constant tensor:
#      x y z
#    x 1.887240 0.000000 0.037130 
#    y 0.000000 1.855420 0.000000 
#    z 0.037130 0.000000 1.797350 
# 
# From -- ./inp_files/30637.got.cif
#   From: 2010.05.17/outbox.cif.g08.bks.cpg/sg10_16_cif.got.tgz:30637.got - 2010.06.03 11:33:40.
