data_PCOD9151938
_publ_section_title
;
Structure prediction by ZEFSAII (Michael W. Deem and Ramdas Pophale) SiO2 
 PCOD9151938
Probable space group: P 2/M
;
_chemical_formula_sum "Si O2"
_cell_formula_units_Z 32
_cell_length_a 9.975252
_cell_length_b 14.237382
_cell_length_c 23.374522
_cell_angle_alpha 90.000000
_cell_angle_beta 149.887169
_cell_angle_gamma 90.000000
_cell_volume 1665.500325
_symmetry_space_group_name_H-M "P 2/M"
_symmetry_group_IT_number 10
_symmetry_cell_setting 'monoclinic'
loop_
_space_group_symop_operation_xyz
x,y,z
-x,y,-z
-x,-y,-z
x,-y,z
loop_
_atom_site_type_symbol
_atom_site_label
_atom_site_fract_x
_atom_site_fract_y
_atom_site_fract_z
Si Si1 0.267325 0.394009 0.063633
Si Si2 0.070460 0.889482 0.326439
Si Si3 0.703615 0.755993 0.373587
Si Si4 0.265708 0.391058 0.455524
Si Si5 0.786613 0.392778 0.091709
Si Si6 0.636607 0.608396 0.702075
Si Si7 0.550014 0.110756 0.422092
Si Si8 0.753435 0.743845 0.264449
O O1 0.358858 0.500000 0.113068
O O2 0.495577 0.318156 0.157137
O O3 0.197938 0.395398 0.970958
O O4 0.000000 0.373531 0.000000
O O5 0.241954 0.875887 0.448606
O O6 0.264542 0.865451 0.345249
O O7 0.820188 0.821857 0.241890
O O8 0.006988 0.000000 0.299227
O O9 0.483938 0.673634 0.293652
O O10 0.620762 0.829186 0.392469
O O11 0.723827 0.790979 0.316133
O O12 0.000000 0.721185 0.500000
O O13 0.500000 0.356801 0.500000
O O14 0.203381 0.500000 0.417509
O O15 0.409765 0.389505 0.569935
O O16 0.005955 0.327234 0.358608
O O17 0.772904 0.500000 0.110550
O O18 0.078564 0.356457 0.217486
O O19 0.500000 0.347545 0.000000
O O20 0.674340 0.500000 0.733717
O O21 0.552171 0.000000 0.409099
#
# Coordination Sequence:
#
# PCOD9151938 Si02
#       8
#     4   4   4   4   4   4   4   4
#     4  10  22  40  57  77 110 153 196 235 274 322
#     4   9  19  35  56  81 108 145 185 227 283 339
#     4  12  22  33  48  81 112 147 185 219 270 333
#     4  10  22  34  49  79 117 155 185 221 280 338
#     4   9  19  35  56  77  97 135 194 245 277 308
#     4  10  21  36  52  74 114 152 184 229 275 327
#     4   9  19  36  55  76 112 151 182 222 276 339
#     4  12  23  34  57  83 115 147 189 232 278 337
#
# _framework density 19.213446000000001
#
# number of rings (size 3 to 8) (size 9 to 14) (size 15 to 20)
#    0.000    1.875    2.500    1.875    5.250    3.000 
#    0.000    0.000    0.000    0.375    0.000    0.875 
#    0.000    9.000    0.000    0.000    0.000    0.000 
#
# Total GULP energy -178612.240699 kJ/mol
# GULP energy per Si atom -5581.632522 kJ/mol
# Density = 1.916972 g / cm^3
# Si number density = 19.213446 Si / 1000 Ang^3
#
#
#
# Elastic Constant Matrix: (Units=GPa)
#
#
# Indices 1 2 3 4 5 6 
#
# 1 95.9366 43.9857 17.9514 0.0000 27.1296 0.0000
# 2 43.9857 80.1744 40.0170 0.0000 24.7500 0.0000
# 3 17.9514 40.0170 63.3570 0.0000 23.7585 0.0000
# 4 0.0000 0.0000 0.0000 15.7155 0.0000 12.0342
# 5 27.1296 24.7500 23.7585 0.0000 32.4379 0.0000
# 6 0.0000 0.0000 0.0000 12.0342 0.0000 18.3871
#
#
#
# Elastic Compliance Matrix: (Units=1/GPa)
#
#
# Indices 1 2 3 4 5 6 
#
# 1 0.016220 -0.007717 0.004353 0.000000 -0.010866 0.000000
# 2 -0.007717 0.023332 -0.011436 0.000000 -0.002972 0.000000
# 3 0.004353 -0.011436 0.027389 0.000000 -0.014976 0.000000
# 4 0.000000 0.000000 0.000000 0.127565 0.000000 -0.083490
# 5 -0.010866 -0.002972 -0.014976 0.000000 0.053152 0.000000
# 6 0.000000 0.000000 0.000000 -0.083490 0.000000 0.109030
#
#
# Mechanical properties :
#
#
# Convention : Reuss Voigt Hill
#
# Bulk Modulus (GPa) = 26.77980 49.26403 38.02192
# Shear Modulus (GPa) = 12.53967 22.47569 17.50768
#
# Velocity S-wave (km/s) = 2.55747 3.42393 3.02192
# Velocity P-wave (km/s) = 4.76332 6.42862 5.65758
#
# Compressibility (1/GPa) = 0.03734157
#
# Stress axis : x y z
#
# Youngs Moduli (GPa) = 61.65246 42.85971 36.51109
#
# Poissons Ratio (x) = 0.33075 -0.15894
# Poissons Ratio (y) = 0.47578 0.41753
# Poissons Ratio (z) = -0.26838 0.49013
#
# Static dielectric constant tensor:
#      x y z
#    x 1.709260 0.000000 0.001250 
#    y 0.000000 1.691170 0.000000 
#    z 0.001250 0.000000 1.685680 
# 
# From -- ./inp_files/88263.got.cif
#   From: 2010.05.17/outbox.cif.g08.bks.cpg/sg10_45_cif.got.tgz:88263.got - 2010.06.03 11:33:40.
