data_PCOD9151593
_publ_section_title
;
Structure prediction by ZEFSAII (Michael W. Deem and Ramdas Pophale) SiO2 
 PCOD9151593
Probable space group: P 2/M
;
_chemical_formula_sum "Si O2"
_cell_formula_units_Z 18
_cell_length_a 7.780772
_cell_length_b 14.066062
_cell_length_c 8.221229
_cell_angle_alpha 90.000000
_cell_angle_beta 110.199509
_cell_angle_gamma 90.000000
_cell_volume 844.431411
_symmetry_space_group_name_H-M "P 2/M"
_symmetry_group_IT_number 10
_symmetry_cell_setting 'monoclinic'
loop_
_space_group_symop_operation_xyz
x,y,z
-x,y,-z
-x,-y,-z
x,-y,z
loop_
_atom_site_type_symbol
_atom_site_label
_atom_site_fract_x
_atom_site_fract_y
_atom_site_fract_z
Si Si1 0.289800 0.292902 0.126857
Si Si2 0.000000 0.160004 0.500000
Si Si3 0.270283 0.701642 0.750042
Si Si4 0.277319 0.500000 0.625623
Si Si5 0.133165 0.897877 0.200494
Si Si6 0.722828 0.500000 0.752563
O O1 0.510617 0.295911 0.196545
O O2 0.236420 0.202576 0.217345
O O3 0.220110 0.397640 0.156368
O O4 0.224365 0.274718 0.921243
O O5 0.172219 0.227240 0.596514
O O6 0.036452 0.104929 0.344680
O O7 0.211461 0.594530 0.691689
O O8 0.500508 0.500000 0.701204
O O9 0.228869 0.500000 0.420955
O O10 0.237168 0.000000 0.225868
O O11 0.000000 0.898964 0.000000
#
# Coordination Sequence:
#
# PCOD9151593 Si02
#       6
#     4   2   4   2   4   2
#     4  10  20  41  62  92 122 168 205 251 303 372
#     4  12  23  41  64  94 122 161 204 262 305 366
#     4  10  21  36  63  90 129 161 209 250 304 364
#     4   9  17  32  52  92 122 166 203 248 295 365
#     4  11  24  44  66  90 124 162 204 259 314 365
#     4   9  17  31  61  85 125 161 204 248 305 353
#
# _framework density 21.316117999999999
#
# number of rings (size 3 to 8) (size 9 to 14) (size 15 to 20)
#    0.000    1.778    2.222    2.333    0.000    5.778 
#    0.000    7.222    0.000    0.000    0.000    0.000 
#    0.000    0.000    0.000    0.000    0.000    0.000 
#
# Total GULP energy -100487.195816 kJ/mol
# GULP energy per Si atom -5582.621990 kJ/mol
# Density = 2.126760 g / cm^3
# Si number density = 21.316118 Si / 1000 Ang^3
#
#
#
# Elastic Constant Matrix: (Units=GPa)
#
#
# Indices 1 2 3 4 5 6 
#
# 1 29.9482 35.2028 26.9160 0.0000 -7.0014 0.0000
# 2 35.2028 182.2296 49.8818 0.0000 -18.7291 0.0000
# 3 26.9160 49.8818 133.6300 0.0000 -14.5609 0.0000
# 4 0.0000 0.0000 0.0000 -682.3120 0.0000 57.5913
# 5 -7.0014 -18.7291 -14.5609 0.0000 31.9864 0.0000
# 6 0.0000 0.0000 0.0000 57.5913 0.0000 16.6746
#
#
#
# Elastic Compliance Matrix: (Units=1/GPa)
#
#
# Indices 1 2 3 4 5 6 
#
# 1 0.048735 -0.007220 -0.006755 0.000000 0.003365 0.000000
# 2 -0.007220 0.007407 -0.001063 0.000000 0.002273 0.000000
# 3 -0.006755 -0.001063 0.009482 0.000000 0.002216 0.000000
# 4 0.000000 0.000000 0.000000 -0.001135 0.000000 0.003919
# 5 0.003365 0.002273 0.002216 0.000000 0.034339 0.000000
# 6 0.000000 0.000000 0.000000 0.003919 0.000000 0.046435
#
#
# Mechanical properties :
#
#
# Convention : Reuss Voigt Hill
#
# Bulk Modulus (GPa) = 28.12998 63.31211 45.72104
# Shear Modulus (GPa) = 26.71122 -111.14305 -42.21592
#
# Velocity S-wave (km/s) = 3.54376 -7.22866 -4.45507
# Velocity P-wave (km/s) = 5.47444 6.31707 2.22889
#
# Compressibility (1/GPa) = 0.03554927
#
# Stress axis : x y z
#
# Youngs Moduli (GPa) = 20.51914 135.01041 105.46208
#
# Poissons Ratio (x) = 0.97474 0.71235
# Poissons Ratio (y) = 0.14814 0.11210
# Poissons Ratio (z) = 0.13860 0.14351
#
# Static dielectric constant tensor:
#      x y z
#    x 1.783000 0.000000 0.004940 
#    y 0.000000 1.791960 0.000000 
#    z 0.004940 0.000000 1.754150 
# 
# From -- ./inp_files/17960.got.cif
#   From: 2010.05.17/outbox.cif.g08.bks.cpg/sg10_9_cif.got.tgz:17960.got - 2010.06.03 11:33:40.
