data_PCOD9151721
_publ_section_title
;
Structure prediction by ZEFSAII (Michael W. Deem and Ramdas Pophale) SiO2 
 PCOD9151721
Probable space group: P 2/M
;
_chemical_formula_sum "Si O2"
_cell_formula_units_Z 21
_cell_length_a 17.930406
_cell_length_b 14.238506
_cell_length_c 12.117649
_cell_angle_alpha 90.000000
_cell_angle_beta 19.618521
_cell_angle_gamma 90.000000
_cell_volume 1038.715933
_symmetry_space_group_name_H-M "P 2/M"
_symmetry_group_IT_number 10
_symmetry_cell_setting 'monoclinic'
loop_
_space_group_symop_operation_xyz
x,y,z
-x,y,-z
-x,-y,-z
x,-y,z
loop_
_atom_site_type_symbol
_atom_site_label
_atom_site_fract_x
_atom_site_fract_y
_atom_site_fract_z
Si Si1 0.270768 0.658874 0.268209
Si Si2 0.748094 0.605254 0.306164
Si Si3 0.233633 0.105932 0.737640
Si Si4 0.437974 0.760925 0.835143
Si Si5 0.861534 0.730872 0.955540
Si Si6 0.000000 0.500000 0.500000
O O1 0.114007 0.701391 0.582117
O O2 0.132410 0.582784 0.389376
O O3 0.500000 0.620143 0.000000
O O4 0.340763 0.745096 0.090832
O O5 0.661781 0.500000 0.431401
O O6 0.602243 0.673885 0.582478
O O7 0.754884 0.645094 0.172732
O O8 0.000000 0.607692 0.000000
O O9 0.421043 0.147805 0.395056
O O10 0.286671 0.000000 0.699075
O O11 0.195964 0.178899 0.889777
O O12 0.000000 0.105276 0.000000
O O13 0.246228 0.748067 0.012187
#
# Coordination Sequence:
#
# PCOD9151721 Si02
#       6
#     4   4   4   4   4   1
#     4  12  25  43  64  89 132 171 213 266 310 368
#     4  10  21  34  53  81 114 158 207 249 308 366
#     4  10  21  40  67  95 122 160 211 261 323 388
#     4  11  22  39  59  88 123 161 209 259 311 377
#     4  11  22  39  59  88 123 161 209 259 311 377
#     4  12  26  44  60  96 122 176 226 250 312 382
#
# _framework density 20.217269000000002
#
# number of rings (size 3 to 8) (size 9 to 14) (size 15 to 20)
#    0.000    1.143    1.905    7.143    2.667    3.048 
#    0.000    0.952    0.000    5.714    0.000    0.000 
#    0.000    0.000    0.000    0.000    0.000    0.000 
#
# Total GULP energy -117078.924661 kJ/mol
# GULP energy per Si atom -5575.186889 kJ/mol
# Density = 2.017125 g / cm^3
# Si number density = 20.217269 Si / 1000 Ang^3
#
#
#
# Elastic Constant Matrix: (Units=GPa)
#
#
# Indices 1 2 3 4 5 6 
#
# 1 80.4450 10.9782 12.9285 0.0000 -8.9186 0.0000
# 2 10.9782 116.5405 27.4312 0.0000 -2.9754 0.0000
# 3 12.9285 27.4312 83.4680 0.0000 6.9895 0.0000
# 4 0.0000 0.0000 0.0000 20.0178 0.0000 -14.2091
# 5 -8.9186 -2.9754 6.9895 0.0000 37.5524 0.0000
# 6 0.0000 0.0000 0.0000 -14.2091 0.0000 9.7226
#
#
#
# Elastic Compliance Matrix: (Units=1/GPa)
#
#
# Indices 1 2 3 4 5 6 
#
# 1 0.013250 -0.000658 -0.002128 0.000000 0.003491 0.000000
# 2 -0.000658 0.009398 -0.003084 0.000000 0.001162 0.000000
# 3 -0.002128 -0.003084 0.013599 0.000000 -0.003281 0.000000
# 4 0.000000 0.000000 0.000000 -1.336823 0.000000 -1.953700
# 5 0.003491 0.001162 -0.003281 0.000000 0.028161 0.000000
# 6 0.000000 0.000000 0.000000 -1.953700 0.000000 -2.752381
#
#
# Mechanical properties :
#
#
# Convention : Reuss Voigt Hill
#
# Bulk Modulus (GPa) = 40.80688 42.56994 41.68841
# Shear Modulus (GPa) = -1.24847 28.73293 13.74223
#
# Velocity S-wave (km/s) = -0.78668 3.77398 2.60999
# Velocity P-wave (km/s) = 4.40486 6.33186 5.45414
#
# Compressibility (1/GPa) = 0.02450567
#
# Stress axis : x y z
#
# Youngs Moduli (GPa) = 75.47336 106.40213 73.53697
#
# Poissons Ratio (x) = 0.07002 0.15651
# Poissons Ratio (y) = 0.04967 0.22680
# Poissons Ratio (z) = 0.16063 0.32816
#
# Static dielectric constant tensor:
#      x y z
#    x 1.747850 0.000000 -0.022510 
#    y 0.000000 1.690230 0.000000 
#    z -0.022510 0.000000 1.777210 
# 
# From -- ./inp_files/53879.got.cif
#   From: 2010.05.17/outbox.cif.g08.bks.cpg/sg10_27_cif.got.tgz:53879.got - 2010.06.03 11:33:40.
