data_PCOD9151122
_publ_section_title
;
Structure prediction by ZEFSAII (Michael W. Deem and Ramdas Pophale) SiO2 
 PCOD9151122
Probable space group: P 2/M
;
_chemical_formula_sum "Si O2"
_cell_formula_units_Z 24
_cell_length_a 9.053379
_cell_length_b 13.487655
_cell_length_c 16.552614
_cell_angle_alpha 90.000000
_cell_angle_beta 144.327144
_cell_angle_gamma 90.000000
_cell_volume 1178.687828
_symmetry_space_group_name_H-M "P 2/M"
_symmetry_group_IT_number 10
_symmetry_cell_setting 'monoclinic'
loop_
_space_group_symop_operation_xyz
x,y,z
-x,y,-z
-x,-y,-z
x,-y,z
loop_
_atom_site_type_symbol
_atom_site_label
_atom_site_fract_x
_atom_site_fract_y
_atom_site_fract_z
Si Si1 0.503786 0.707665 0.117036
Si Si2 0.117559 0.885655 0.962435
Si Si3 0.593571 0.107500 0.635660
Si Si4 0.719771 0.610441 0.361786
Si Si5 0.567718 0.675034 0.623180
Si Si6 0.873953 0.385518 0.163929
O O1 0.559490 0.679863 0.232807
O O2 0.766462 0.690411 0.184371
O O3 0.343781 0.809484 0.041410
O O4 0.328412 0.624635 0.997625
O O5 0.891650 0.884702 0.794474
O O6 0.207357 0.000000 0.007018
O O7 0.000000 0.861565 0.000000
O O8 0.500000 0.105220 0.500000
O O9 0.496021 0.213916 0.620265
O O10 0.511386 0.000000 0.633343
O O11 0.740552 0.500000 0.334748
O O12 0.585822 0.604488 0.387828
O O13 0.000000 0.649850 0.500000
O O14 0.500000 0.664161 0.500000
O O15 0.863883 0.652132 0.756313
O O16 0.895149 0.500000 0.200662
#
# Coordination Sequence:
#
# PCOD9151122 Si02
#       6
#     4   4   4   4   4   4
#     4  11  22  39  61  86 123 161 204 254 311 369
#     4  10  20  37  63  93 126 163 207 261 320 376
#     4   9  18  35  59  88 120 157 203 252 303 365
#     4  11  24  41  62  88 120 161 209 260 312 375
#     4  11  22  38  62  90 121 159 204 256 315 372
#     4  11  23  39  59  86 122 165 205 255 308 362
#
# _framework density 20.361625
#
# number of rings (size 3 to 8) (size 9 to 14) (size 15 to 20)
#    0.000    1.500    1.667    4.500    0.000    2.667 
#    0.000    4.167    0.000    4.000    0.000    0.000 
#    0.000    0.000    0.000    0.000    0.000    0.000 
#
# Total GULP energy -133662.409165 kJ/mol
# GULP energy per Si atom -5569.267049 kJ/mol
# Density = 2.031528 g / cm^3
# Si number density = 20.361625 Si / 1000 Ang^3
#
#
#
# Elastic Constant Matrix: (Units=GPa)
#
#
# Indices 1 2 3 4 5 6 
#
# 1 97.5719 34.3419 23.7764 0.0000 3.7513 0.0000
# 2 34.3419 130.9756 20.1058 0.0000 -5.4926 0.0000
# 3 23.7764 20.1058 85.4851 0.0000 -9.6676 0.0000
# 4 0.0000 0.0000 0.0000 24.9511 0.0000 2.0861
# 5 3.7513 -5.4926 -9.6676 0.0000 24.5070 0.0000
# 6 0.0000 0.0000 0.0000 2.0861 0.0000 32.5521
#
#
#
# Elastic Compliance Matrix: (Units=1/GPa)
#
#
# Indices 1 2 3 4 5 6 
#
# 1 0.012165 -0.002866 -0.003132 0.000000 -0.003740 0.000000
# 2 -0.002866 0.008624 -0.001008 0.000000 0.001974 0.000000
# 3 -0.003132 -0.001008 0.013434 0.000000 0.005553 0.000000
# 4 0.000000 0.000000 0.000000 0.040294 0.000000 -0.002582
# 5 -0.003740 0.001974 0.005553 0.000000 0.044010 0.000000
# 6 0.000000 0.000000 0.000000 -0.002582 0.000000 0.030885
#
#
# Mechanical properties :
#
#
# Convention : Reuss Voigt Hill
#
# Bulk Modulus (GPa) = 49.47875 52.27562 50.87718
# Shear Modulus (GPa) = 29.38387 32.12261 30.75324
#
# Velocity S-wave (km/s) = 3.80294 3.97622 3.89054
# Velocity P-wave (km/s) = 6.60574 6.84176 6.72479
#
# Compressibility (1/GPa) = 0.02021070
#
# Stress axis : x y z
#
# Youngs Moduli (GPa) = 82.20641 115.95715 74.43652
#
# Poissons Ratio (x) = 0.33228 0.23316
# Poissons Ratio (y) = 0.23557 0.07504
# Poissons Ratio (z) = 0.25750 0.11689
#
# Static dielectric constant tensor:
#      x y z
#    x 1.746140 0.000000 0.038720 
#    y 0.000000 1.738700 0.000000 
#    z 0.038720 0.000000 1.864730 
# 
# From -- ./inp_files/61951.got.cif
#   From: 2010.05.17/outbox.cif.g08.bks.cpg/sg10_31_cif.got.tgz:61951.got - 2010.06.03 11:33:40.
