data_PCOD9151957
_publ_section_title
;
Structure prediction by ZEFSAII (Michael W. Deem and Ramdas Pophale) SiO2 
 PCOD9151957
Probable space group: P 2/M
;
_chemical_formula_sum "Si O2"
_cell_formula_units_Z 28
_cell_length_a 30.048363
_cell_length_b 7.734775
_cell_length_c 9.274216
_cell_angle_alpha 90.000000
_cell_angle_beta 38.963924
_cell_angle_gamma 90.000000
_cell_volume 1355.437855
_symmetry_space_group_name_H-M "P 2/M"
_symmetry_group_IT_number 10
_symmetry_cell_setting 'monoclinic'
loop_
_space_group_symop_operation_xyz
x,y,z
-x,y,-z
-x,-y,-z
x,-y,z
loop_
_atom_site_type_symbol
_atom_site_label
_atom_site_fract_x
_atom_site_fract_y
_atom_site_fract_z
Si Si1 0.430585 0.708881 0.757612
Si Si2 0.854466 0.203294 0.708396
Si Si3 0.005270 0.290106 0.819788
Si Si4 0.725878 0.795901 0.839336
Si Si5 0.569245 0.288388 0.909132
Si Si6 0.134671 0.296589 0.989242
Si Si7 0.276062 0.296962 0.489912
O O1 0.500000 0.771273 0.500000
O O2 0.430169 0.500000 0.752106
O O3 0.353245 0.767788 0.901442
O O4 0.436449 0.760659 0.909529
O O5 0.923346 0.228991 0.436481
O O6 0.786236 0.272987 0.793938
O O7 0.865789 0.281269 0.837680
O O8 0.843069 0.000000 0.760483
O O9 0.006998 0.500000 0.811949
O O10 0.936637 0.226781 0.904336
O O11 0.000000 0.237019 0.000000
O O12 0.730114 0.716884 0.668116
O O13 0.737610 0.000000 0.790859
O O14 0.569859 0.500000 0.901514
O O15 0.646492 0.226332 0.662784
O O16 0.500000 0.228643 0.000000
O O17 0.134734 0.500000 0.951430
O O18 0.207007 0.220874 0.740481
O O19 0.278183 0.500000 0.521904
#
# Coordination Sequence:
#
# PCOD9151957 Si02
#       7
#     4   4   4   4   4   4   4
#     4   9  18  32  52  77 102 133 176 221 263 309
#     4  11  24  38  53  78 111 145 179 215 260 316
#     4  10  21  38  60  83 106 135 175 222 268 316
#     4  10  21  36  53  75 106 144 181 216 260 315
#     4   8  14  26  46  73 102 128 160 207 257 304
#     4  10  21  36  56  82 108 137 175 220 271 318
#     4   9  18  34  56  79 103 136 178 221 265 314
#
# _framework density 20.657532
#
# number of rings (size 3 to 8) (size 9 to 14) (size 15 to 20)
#    0.000    2.429    0.000    3.000    0.000    8.000 
#    0.000    2.857    0.000    6.857    0.000    0.000 
#    0.000    0.000    0.000    0.000    0.000    0.000 
#
# Total GULP energy -156279.801413 kJ/mol
# GULP energy per Si atom -5581.421479 kJ/mol
# Density = 2.061051 g / cm^3
# Si number density = 20.657532 Si / 1000 Ang^3
#
#
#
# Elastic Constant Matrix: (Units=GPa)
#
#
# Indices 1 2 3 4 5 6 
#
# 1 161.1640 -10.6929 75.5898 0.0000 -41.9080 0.0000
# 2 -10.6929 25.9224 -12.9245 0.0000 -5.4819 0.0000
# 3 75.5898 -12.9245 150.5276 0.0000 -30.8454 0.0000
# 4 0.0000 0.0000 0.0000 -153.2633 0.0000 -105.2019
# 5 -41.9080 -5.4819 -30.8454 0.0000 33.4672 0.0000
# 6 0.0000 0.0000 0.0000 -105.2019 0.0000 -62.4246
#
#
#
# Elastic Compliance Matrix: (Units=1/GPa)
#
#
# Indices 1 2 3 4 5 6 
#
# 1 0.010997 0.005953 -0.002453 0.000000 0.012485 0.000000
# 2 0.005953 0.047911 0.005252 0.000000 0.020143 0.000000
# 3 -0.002453 0.005252 0.009706 0.000000 0.006734 0.000000
# 4 0.000000 0.000000 0.000000 0.041615 0.000000 -0.070133
# 5 0.012485 0.020143 0.006734 0.000000 0.055020 0.000000
# 6 0.000000 0.000000 0.000000 -0.070133 0.000000 0.102172
#
#
# Mechanical properties :
#
#
# Convention : Reuss Voigt Hill
#
# Bulk Modulus (GPa) = 11.61197 49.06209 30.33703
# Shear Modulus (GPa) = 17.94547 -17.40138 0.27204
#
# Velocity S-wave (km/s) = 2.95059 -2.90552 0.36329
# Velocity P-wave (km/s) = 4.15227 3.54200 3.85922
#
# Compressibility (1/GPa) = 0.08611804
#
# Stress axis : x y z
#
# Youngs Moduli (GPa) = 90.93643 20.87221 103.03070
#
# Poissons Ratio (x) = -0.12426 0.25270
# Poissons Ratio (y) = -0.54139 -0.54108
# Poissons Ratio (z) = 0.22304 -0.10961
#
# Static dielectric constant tensor:
#      x y z
#    x 1.720470 0.000000 -0.036530 
#    y 0.000000 1.757450 0.000000 
#    z -0.036530 0.000000 1.723740 
# 
# From -- ./inp_files/37083.got.cif
#   From: 2010.05.17/outbox.cif.g08.bks.cpg/sg10_19_cif.got.tgz:37083.got - 2010.06.03 11:33:40.
