data_PCOD9151159
_publ_section_title
;
Structure prediction by ZEFSAII (Michael W. Deem and Ramdas Pophale) SiO2 
 PCOD9151159
Probable space group: P 2/M
;
_chemical_formula_sum "Si O2"
_cell_formula_units_Z 28
_cell_length_a 9.185961
_cell_length_b 14.636459
_cell_length_c 12.150686
_cell_angle_alpha 90.000000
_cell_angle_beta 53.881969
_cell_angle_gamma 90.000000
_cell_volume 1319.676985
_symmetry_space_group_name_H-M "P 2/M"
_symmetry_group_IT_number 10
_symmetry_cell_setting 'monoclinic'
loop_
_space_group_symop_operation_xyz
x,y,z
-x,y,-z
-x,-y,-z
x,-y,z
loop_
_atom_site_type_symbol
_atom_site_label
_atom_site_fract_x
_atom_site_fract_y
_atom_site_fract_z
Si Si1 0.790222 0.897530 0.061561
Si Si2 0.312357 0.892814 0.646665
Si Si3 0.215591 0.393687 0.795992
Si Si4 0.689326 0.287758 0.031834
Si Si5 0.642885 0.598672 0.588401
Si Si6 0.903784 0.729373 0.346088
Si Si7 0.709493 0.323785 0.781362
O O1 0.685351 0.874977 0.222698
O O2 0.767510 0.814070 0.987926
O O3 0.738744 0.000000 0.047463
O O4 0.000000 0.900119 0.000000
O O5 0.500000 0.874658 0.500000
O O6 0.162871 0.828232 0.660194
O O7 0.269986 0.000000 0.653548
O O8 0.163742 0.500000 0.825406
O O9 0.217359 0.343146 0.912215
O O10 0.428820 0.390880 0.667045
O O11 0.103180 0.335080 0.759319
O O12 0.478136 0.270732 0.152505
O O13 0.701442 0.345400 0.914614
O O14 0.698524 0.500000 0.516083
O O15 0.754496 0.681339 0.488868
O O16 0.689604 0.599793 0.697438
O O17 0.098827 0.725503 0.314955
#
# Coordination Sequence:
#
# PCOD9151159 Si02
#       7
#     4   4   4   4   4   4   4
#     4  10  20  37  66  95 118 153 204 253 300 359
#     4  10  21  36  59  93 124 154 194 249 316 367
#     4  10  21  36  60  90 115 148 197 255 305 345
#     4  10  21  42  59  82 123 157 195 243 302 360
#     4  10  22  40  59  84 120 161 202 244 297 362
#     4  12  21  36  61  89 119 151 201 252 299 350
#     4  10  24  38  57  82 119 166 196 234 296 364
#
# _framework density 21.217312
#
# number of rings (size 3 to 8) (size 9 to 14) (size 15 to 20)
#    0.000    1.714    1.429    3.000    2.000    3.429 
#    0.000    5.714    0.000    2.571    0.000    0.000 
#    0.000    0.000    0.000    0.000    0.000    0.000 
#
# Total GULP energy -156321.758252 kJ/mol
# GULP energy per Si atom -5582.919938 kJ/mol
# Density = 2.116902 g / cm^3
# Si number density = 21.217312 Si / 1000 Ang^3
#
#
#
# Elastic Constant Matrix: (Units=GPa)
#
#
# Indices 1 2 3 4 5 6 
#
# 1 98.5556 36.4494 7.9535 0.0000 -3.6270 0.0000
# 2 36.4494 73.1983 9.7265 0.0000 3.1937 0.0000
# 3 7.9535 9.7265 72.2142 0.0000 4.7762 0.0000
# 4 0.0000 0.0000 0.0000 12.2990 0.0000 6.3339
# 5 -3.6270 3.1937 4.7762 0.0000 34.1481 0.0000
# 6 0.0000 0.0000 0.0000 6.3339 0.0000 -2.1344
#
#
#
# Elastic Compliance Matrix: (Units=1/GPa)
#
#
# Indices 1 2 3 4 5 6 
#
# 1 0.012594 -0.006270 -0.000676 0.000000 0.002019 0.000000
# 2 -0.006270 0.017069 -0.001472 0.000000 -0.002056 0.000000
# 3 -0.000676 -0.001472 0.014248 0.000000 -0.001927 0.000000
# 4 0.000000 0.000000 0.000000 0.032160 0.000000 0.095434
# 5 0.002019 -0.002056 -0.001927 0.000000 0.029960 0.000000
# 6 0.000000 0.000000 0.000000 0.095434 0.000000 -0.185309
#
#
# Mechanical properties :
#
#
# Convention : Reuss Voigt Hill
#
# Bulk Modulus (GPa) = 36.93504 39.13633 38.03569
# Shear Modulus (GPa) = -93.60332 21.51845 -36.04244
#
# Velocity S-wave (km/s) = -6.64923 3.18809 -4.12603
# Velocity P-wave (km/s) = 6.44235 5.66016 2.17560
#
# Compressibility (1/GPa) = 0.02707456
#
# Stress axis : x y z
#
# Youngs Moduli (GPa) = 79.40230 58.58635 70.18561
#
# Poissons Ratio (x) = 0.36731 0.04746
# Poissons Ratio (y) = 0.49781 0.10335
# Poissons Ratio (z) = 0.05369 0.08627
#
# Static dielectric constant tensor:
#      x y z
#    x 1.734360 0.000000 -0.017860 
#    y 0.000000 1.729070 0.000000 
#    z -0.017860 0.000000 1.874730 
# 
# From -- ./inp_files/42886.got.cif
#   From: 2010.05.17/outbox.cif.g08.bks.cpg/sg10_22_cif.got.tgz:42886.got - 2010.06.03 11:33:40.
