data_PCOD9151186
_publ_section_title
;
Structure prediction by ZEFSAII (Michael W. Deem and Ramdas Pophale) SiO2 
 PCOD9151186
Probable space group: P 2/M
;
_chemical_formula_sum "Si O2"
_cell_formula_units_Z 28
_cell_length_a 26.310384
_cell_length_b 11.368430
_cell_length_c 26.859200
_cell_angle_alpha 90.000000
_cell_angle_beta 169.229716
_cell_angle_gamma 90.000000
_cell_volume 1501.290027
_symmetry_space_group_name_H-M "P 2/M"
_symmetry_group_IT_number 10
_symmetry_cell_setting 'monoclinic'
loop_
_space_group_symop_operation_xyz
x,y,z
-x,y,-z
-x,-y,-z
x,-y,z
loop_
_atom_site_type_symbol
_atom_site_label
_atom_site_fract_x
_atom_site_fract_y
_atom_site_fract_z
Si Si1 0.535476 0.743415 0.637923
Si Si2 0.029230 0.356777 0.584916
Si Si3 0.622333 0.360652 0.888834
Si Si4 0.830164 0.747099 0.614501
Si Si5 0.921111 0.638150 0.867774
Si Si6 0.004307 0.000000 0.197404
Si Si7 0.543627 0.642399 0.925247
Si Si8 0.425077 0.000000 0.301243
O O1 0.349258 0.734042 0.508097
O O2 0.335871 0.706921 0.401337
O O3 0.640734 0.877638 0.735766
O O4 0.804116 0.664053 0.898733
O O5 0.041969 0.500000 0.594738
O O6 0.000000 0.315958 0.500000
O O7 0.767055 0.324705 0.365010
O O8 0.287147 0.315279 0.864364
O O9 0.559443 0.500000 0.825952
O O10 0.376017 0.288893 0.627431
O O11 0.652116 0.324645 0.975386
O O12 0.904731 0.334758 0.132782
O O13 0.946861 0.879982 0.725642
O O14 0.855525 0.500000 0.803402
O O15 0.000000 0.671388 0.000000
O O16 0.250176 0.000000 0.393926
O O17 0.725860 0.000000 0.897822
O O18 0.556757 0.500000 0.939049
#
# Coordination Sequence:
#
# PCOD9151186 Si02
#       8
#     4   4   4   4   4   2   4   2
#     4  11  22  39  61  83 106 137 178 220 262 310
#     4   9  15  24  40  60  83 124 181 219 241 288
#     4  11  22  34  49  76 113 145 173 208 261 320
#     4  11  22  36  57  80 103 139 179 217 255 309
#     4  11  24  41  59  81 112 146 176 211 260 312
#     4  10  20  38  58  78 105 138 177 218 266 304
#     4   9  17  28  40  59  95 136 165 203 258 304
#     4  10  20  38  61  84 108 132 166 218 271 314
#
# _framework density 18.650625999999999
#
# number of rings (size 3 to 8) (size 9 to 14) (size 15 to 20)
#    0.000    1.714    0.000    6.857    0.000    8.571 
#    0.000    2.143    0.000    0.000    0.000    0.000 
#    0.000    0.000    0.000   45.000    0.000   20.000 
#
# Total GULP energy -156252.100859 kJ/mol
# GULP energy per Si atom -5580.432174 kJ/mol
# Density = 1.860818 g / cm^3
# Si number density = 18.650626 Si / 1000 Ang^3
#
#
#
# Elastic Constant Matrix: (Units=GPa)
#
#
# Indices 1 2 3 4 5 6 
#
# 1 55.9704 26.2107 5.4214 0.0000 -11.3449 0.0000
# 2 26.2107 50.4093 14.6419 0.0000 -18.9500 0.0000
# 3 5.4214 14.6419 78.3638 0.0000 -18.6675 0.0000
# 4 0.0000 0.0000 0.0000 21.9018 0.0000 -10.7223
# 5 -11.3449 -18.9500 -18.6675 0.0000 32.8521 0.0000
# 6 0.0000 0.0000 0.0000 -10.7223 0.0000 -4.6331
#
#
#
# Elastic Compliance Matrix: (Units=1/GPa)
#
#
# Indices 1 2 3 4 5 6 
#
# 1 0.023738 -0.011928 0.001041 0.000000 0.001909 0.000000
# 2 -0.011928 0.031467 -0.001980 0.000000 0.012907 0.000000
# 3 0.001041 -0.001980 0.014888 0.000000 0.007677 0.000000
# 4 0.000000 0.000000 0.000000 0.021406 0.000000 -0.049539
# 5 0.001909 0.012907 0.007677 0.000000 0.042906 0.000000
# 6 0.000000 0.000000 0.000000 -0.049539 0.000000 -0.101191
#
#
# Mechanical properties :
#
#
# Convention : Reuss Voigt Hill
#
# Bulk Modulus (GPa) = 22.54268 30.81016 26.67642
# Shear Modulus (GPa) = 67.81263 19.25546 43.53405
#
# Velocity S-wave (km/s) = 6.03642 3.21663 4.83658
# Velocity P-wave (km/s) = 7.79086 5.50918 6.74717
#
# Compressibility (1/GPa) = 0.04436030
#
# Stress axis : x y z
#
# Youngs Moduli (GPa) = 42.12584 31.77980 67.16957
#
# Poissons Ratio (x) = 0.37906 -0.06993
# Poissons Ratio (y) = 0.50247 0.13297
# Poissons Ratio (z) = -0.04386 0.06291
#
# Static dielectric constant tensor:
#      x y z
#    x 1.668520 0.000000 0.006170 
#    y 0.000000 1.648650 0.000000 
#    z 0.006170 0.000000 1.638380 
# 
# From -- ./inp_files/94020.got.cif
#   From: 2010.05.17/outbox.cif.g08.bks.cpg/sg10_48_cif.got.tgz:94020.got - 2010.06.03 11:33:40.
