data_PCOD9151942
_publ_section_title
;
Structure prediction by ZEFSAII (Michael W. Deem and Ramdas Pophale) SiO2 
 PCOD9151942
Probable space group: P 2/M
;
_chemical_formula_sum "Si O2"
_cell_formula_units_Z 32
_cell_length_a 23.445018
_cell_length_b 9.380361
_cell_length_c 15.482805
_cell_angle_alpha 90.000000
_cell_angle_beta 151.200358
_cell_angle_gamma 90.000000
_cell_volume 1640.362628
_symmetry_space_group_name_H-M "P 2/M"
_symmetry_group_IT_number 10
_symmetry_cell_setting 'monoclinic'
loop_
_space_group_symop_operation_xyz
x,y,z
-x,y,-z
-x,-y,-z
x,-y,z
loop_
_atom_site_type_symbol
_atom_site_label
_atom_site_fract_x
_atom_site_fract_y
_atom_site_fract_z
Si Si1 0.428486 0.166613 0.772317
Si Si2 0.197302 0.166112 0.930482
Si Si3 0.004363 0.168688 0.195551
Si Si4 0.777628 0.665711 0.570798
Si Si5 0.320664 0.833333 0.821159
Si Si6 0.359956 0.166228 0.307280
Si Si7 0.829751 0.333628 0.841150
Si Si8 0.861598 0.330213 0.316955
O O1 0.351872 0.265609 0.609087
O O2 0.369067 0.182279 0.788306
O O3 0.419145 0.000000 0.735153
O O4 0.566599 0.201272 0.967968
O O5 0.079243 0.189246 0.831877
O O6 0.194607 0.266172 0.844653
O O7 0.199569 0.000000 0.906784
O O8 0.306658 0.190502 0.140914
O O9 0.130029 0.246308 0.364849
O O10 0.019883 0.000000 0.203387
O O11 0.931126 0.238965 0.019755
O O12 0.775893 0.500000 0.544084
O O13 0.822247 0.677446 0.728437
O O14 0.209859 0.738083 0.698808
O O15 0.291361 0.000000 0.794485
O O16 0.500000 0.182956 0.500000
O O17 0.290974 0.272214 0.278654
O O18 0.330044 0.000000 0.288757
O O19 0.848131 0.500000 0.888109
O O20 0.852519 0.500000 0.306916
O O21 0.000000 0.290283 0.500000
#
# Coordination Sequence:
#
# PCOD9151942 Si02
#       8
#     4   4   4   4   4   4   4   4
#     4   9  20  39  62  87 111 145 193 239 287 340
#     4   9  20  38  58  83 111 146 191 236 288 340
#     4  10  21  37  58  82 110 147 192 236 280 332
#     4  11  23  35  53  84 118 150 185 226 279 341
#     4   9  20  41  64  84 112 147 189 242 291 338
#     4   9  19  37  60  84 111 146 190 237 283 337
#     4  10  21  36  52  78 115 151 186 226 279 338
#     4  11  25  40  57  86 120 154 194 238 290 351
#
# _framework density 19.507881000000001
#
# number of rings (size 3 to 8) (size 9 to 14) (size 15 to 20)
#    0.000    2.250    0.000    3.375    1.750    9.250 
#    0.000    5.000    0.000    0.000    0.000    0.000 
#    0.000    0.000    0.000    0.000    0.000    0.000 
#
# Total GULP energy -178746.607220 kJ/mol
# GULP energy per Si atom -5585.831476 kJ/mol
# Density = 1.946348 g / cm^3
# Si number density = 19.507881 Si / 1000 Ang^3
#
#
#
# Elastic Constant Matrix: (Units=GPa)
#
#
# Indices 1 2 3 4 5 6 
#
# 1 41.2593 32.5296 16.1498 0.0000 10.4304 0.0000
# 2 32.5296 64.3318 23.8664 0.0000 9.2128 0.0000
# 3 16.1498 23.8664 44.1522 0.0000 15.3069 0.0000
# 4 0.0000 0.0000 0.0000 112.5691 0.0000 -2.6026
# 5 10.4304 9.2128 15.3069 0.0000 22.9784 0.0000
# 6 0.0000 0.0000 0.0000 -2.6026 0.0000 -1.0944
#
#
#
# Elastic Compliance Matrix: (Units=1/GPa)
#
#
# Indices 1 2 3 4 5 6 
#
# 1 0.043023 -0.019713 -0.001366 0.000000 -0.010715 0.000000
# 2 -0.019713 0.028495 -0.009536 0.000000 0.003876 0.000000
# 3 -0.001366 -0.009536 0.034800 0.000000 -0.018738 0.000000
# 4 0.000000 0.000000 0.000000 0.008420 0.000000 -0.020025
# 5 -0.010715 0.003876 -0.018738 0.000000 0.059311 0.000000
# 6 0.000000 0.000000 0.000000 -0.020025 0.000000 -0.866129
#
#
# Mechanical properties :
#
#
# Convention : Reuss Voigt Hill
#
# Bulk Modulus (GPa) = 22.17946 32.75943 27.46945
# Shear Modulus (GPa) = -8.11925 32.03713 11.95894
#
# Velocity S-wave (km/s) = -2.04232 4.05688 2.47863
# Velocity P-wave (km/s) = 2.41511 6.22686 4.72263
#
# Compressibility (1/GPa) = 0.04508676
#
# Stress axis : x y z
#
# Youngs Moduli (GPa) = 23.24353 35.09350 28.73604
#
# Poissons Ratio (x) = 0.69181 0.03925
# Poissons Ratio (y) = 0.45821 0.27403
# Poissons Ratio (z) = 0.03175 0.33466
#
# Static dielectric constant tensor:
#      x y z
#    x 1.691100 0.000000 0.004110 
#    y 0.000000 1.649520 0.000000 
#    z 0.004110 0.000000 1.694440 
# 
# From -- ./inp_files/71692.got.cif
#   From: 2010.05.17/outbox.cif.g08.bks.cpg/sg10_36_cif.got.tgz:71692.got - 2010.06.03 11:33:40.
