data_PCOD9151896
_publ_section_title
;
Structure prediction by ZEFSAII (Michael W. Deem and Ramdas Pophale) SiO2 
 PCOD9151896
Probable space group: P 2/M
;
_chemical_formula_sum "Si O2"
_cell_formula_units_Z 30
_cell_length_a 13.556325
_cell_length_b 13.210797
_cell_length_c 17.293263
_cell_angle_alpha 90.000000
_cell_angle_beta 28.847963
_cell_angle_gamma 90.000000
_cell_volume 1494.285627
_symmetry_space_group_name_H-M "P 2/M"
_symmetry_group_IT_number 10
_symmetry_cell_setting 'monoclinic'
loop_
_space_group_symop_operation_xyz
x,y,z
-x,y,-z
-x,-y,-z
x,-y,z
loop_
_atom_site_type_symbol
_atom_site_label
_atom_site_fract_x
_atom_site_fract_y
_atom_site_fract_z
Si Si1 0.928635 0.387388 0.300099
Si Si2 0.664858 0.387711 0.687347
Si Si3 0.000000 0.224759 0.000000
Si Si4 0.272486 0.323824 0.186862
Si Si5 0.078192 0.885321 0.357506
Si Si6 0.799957 0.389234 0.035552
Si Si7 0.281820 0.216225 0.475842
Si Si8 0.627992 0.121038 0.333258
O O1 0.840036 0.500000 0.371773
O O2 0.108856 0.367266 0.238826
O O3 0.778672 0.293479 0.414310
O O4 0.028875 0.385217 0.147434
O O5 0.721812 0.500000 0.619618
O O6 0.751507 0.374387 0.713165
O O7 0.418300 0.382388 0.856713
O O8 0.721543 0.294277 0.593969
O O9 0.843790 0.299066 0.063148
O O10 0.856809 0.163414 0.158888
O O11 0.232707 0.204477 0.229281
O O12 0.500000 0.341620 0.000000
O O13 0.000000 0.873498 0.500000
O O14 0.888453 0.865826 0.429829
O O15 0.156329 0.000000 0.296020
O O16 0.804115 0.500000 0.071583
O O17 0.487468 0.161294 0.359212
O O18 0.500000 0.147474 0.500000
O O19 0.640770 0.000000 0.323276
#
# Coordination Sequence:
#
# PCOD9151896 Si02
#       8
#     4   4   2   4   4   4   4   4
#     4  10  21  35  57  89 123 159 199 241 292 357
#     4  11  21  35  57  86 117 154 193 233 287 351
#     4  12  22  42  68  92 122 158 204 250 314 368
#     4  11  21  35  57  84 120 158 196 243 295 344
#     4  10  21  37  57  80 111 151 195 239 288 347
#     4  10  21  37  58  87 122 157 195 240 295 360
#     4  11  21  40  60  84 117 155 194 243 299 358
#     4  11  25  44  67  93 120 153 202 261 312 362
#
# _framework density 20.076485000000002
#
# number of rings (size 3 to 8) (size 9 to 14) (size 15 to 20)
#    0.000    1.333    4.000    2.400    0.000    0.800 
#    0.000    2.000    0.000    4.000    0.000    0.000 
#    0.000    0.000    0.000    0.000    0.000    0.000 
#
# Total GULP energy -167404.541430 kJ/mol
# GULP energy per Si atom -5580.151381 kJ/mol
# Density = 2.003079 g / cm^3
# Si number density = 20.076485 Si / 1000 Ang^3
#
#
#
# Elastic Constant Matrix: (Units=GPa)
#
#
# Indices 1 2 3 4 5 6 
#
# 1 44.2467 22.1468 -6.9942 0.0000 1.9733 0.0000
# 2 22.1468 105.1208 18.7666 0.0000 6.5702 0.0000
# 3 -6.9942 18.7666 60.2143 0.0000 8.9406 0.0000
# 4 0.0000 0.0000 0.0000 31.2976 0.0000 -8.9932
# 5 1.9733 6.5702 8.9406 0.0000 27.7687 0.0000
# 6 0.0000 0.0000 0.0000 -8.9932 0.0000 35.6257
#
#
#
# Elastic Compliance Matrix: (Units=1/GPa)
#
#
# Indices 1 2 3 4 5 6 
#
# 1 0.026804 -0.006487 0.005451 0.000000 -0.002125 0.000000
# 2 -0.006487 0.011699 -0.004261 0.000000 -0.000935 0.000000
# 3 0.005451 -0.004261 0.019404 0.000000 -0.005627 0.000000
# 4 0.000000 0.000000 0.000000 0.034450 0.000000 0.008696
# 5 -0.002125 -0.000935 -0.005627 0.000000 0.038196 0.000000
# 6 0.000000 0.000000 0.000000 0.008696 0.000000 0.030265
#
#
# Mechanical properties :
#
#
# Convention : Reuss Voigt Hill
#
# Bulk Modulus (GPa) = 21.13629 30.82447 25.98038
# Shear Modulus (GPa) = 26.71189 30.64926 28.68058
#
# Velocity S-wave (km/s) = 3.65157 3.91144 3.78374
# Velocity P-wave (km/s) = 5.32253 5.98214 5.66195
#
# Compressibility (1/GPa) = 0.04731199
#
# Stress axis : x y z
#
# Youngs Moduli (GPa) = 37.30777 85.47952 51.53620
#
# Poissons Ratio (x) = 0.55454 -0.28091
# Poissons Ratio (y) = 0.24203 0.21958
# Poissons Ratio (z) = -0.20336 0.36421
#
# Static dielectric constant tensor:
#      x y z
#    x 1.689340 0.000000 0.019120 
#    y 0.000000 1.701850 0.000000 
#    z 0.019120 0.000000 1.742130 
# 
# From -- ./inp_files/78099.got.cif
#   From: 2010.05.17/outbox.cif.g08.bks.cpg/sg10_40_cif.got.tgz:78099.got - 2010.06.03 11:33:40.
