data_PCOD9151002
_publ_section_title
;
Structure prediction by ZEFSAII (Michael W. Deem and Ramdas Pophale) SiO2 
 PCOD9151002
Probable space group: P 2/M
;
_chemical_formula_sum "Si O2"
_cell_formula_units_Z 28
_cell_length_a 9.550520
_cell_length_b 8.369591
_cell_length_c 24.863870
_cell_angle_alpha 90.000000
_cell_angle_beta 36.921870
_cell_angle_gamma 90.000000
_cell_volume 1193.922105
_symmetry_space_group_name_H-M "P 2/M"
_symmetry_group_IT_number 10
_symmetry_cell_setting 'monoclinic'
loop_
_space_group_symop_operation_xyz
x,y,z
-x,y,-z
-x,-y,-z
x,-y,z
loop_
_atom_site_type_symbol
_atom_site_label
_atom_site_fract_x
_atom_site_fract_y
_atom_site_fract_z
Si Si1 0.968836 0.183254 0.784453
Si Si2 0.012336 0.193186 0.894713
Si Si3 0.728031 0.687728 0.593755
Si Si4 0.477607 0.187135 0.234051
Si Si5 0.634643 0.185546 0.510649
Si Si6 0.516173 0.321370 0.059786
Si Si7 0.028997 0.319388 0.327808
O O1 0.053256 0.281969 0.707278
O O2 0.029166 0.241033 0.826055
O O3 0.043520 0.000000 0.756158
O O4 0.688249 0.197382 0.865090
O O5 0.252263 0.236775 0.850047
O O6 0.777825 0.265938 0.991421
O O7 0.990698 0.000000 0.901357
O O8 0.717182 0.500000 0.610555
O O9 0.612264 0.785418 0.677379
O O10 0.602607 0.723751 0.575968
O O11 0.000000 0.729197 0.500000
O O12 0.302859 0.287226 0.251012
O O13 0.462123 0.000000 0.225060
O O14 0.500000 0.250705 0.500000
O O15 0.900641 0.203502 0.409002
O O16 0.574719 0.000000 0.536435
O O17 0.464878 0.500000 0.096440
O O18 0.500000 0.331542 0.000000
O O19 0.974091 0.500000 0.360016
#
# Coordination Sequence:
#
# PCOD9151002 Si02
#       7
#     4   4   4   4   4   4   4
#     4  10  20  37  61  87 118 156 195 240 290 346
#     4   9  20  37  60  89 117 150 196 241 286 344
#     4  11  23  40  62  89 118 154 196 240 293 349
#     4  11  23  40  62  87 117 157 200 243 289 347
#     4  11  25  43  64  88 116 153 198 243 290 348
#     4   9  17  32  56  87 120 153 190 235 290 346
#     4  12  25  41  59  86 121 156 194 241 298 351
#
# _framework density 23.452114999999999
#
# number of rings (size 3 to 8) (size 9 to 14) (size 15 to 20)
#    0.000    1.571    1.429    3.429    2.000    5.143 
#    0.000    0.714    0.000    4.286    0.000    0.000 
#    0.000    0.000    0.000    0.000    0.000    0.000 
#
# Total GULP energy -156614.705752 kJ/mol
# GULP energy per Si atom -5593.382348 kJ/mol
# Density = 2.339874 g / cm^3
# Si number density = 23.452115 Si / 1000 Ang^3
#
#
#
# Elastic Constant Matrix: (Units=GPa)
#
#
# Indices 1 2 3 4 5 6 
#
# 1 86.0767 3.5995 4.4415 0.0000 -5.5858 0.0000
# 2 3.5995 40.7356 1.0064 0.0000 -0.5540 0.0000
# 3 4.4415 1.0064 37.8048 0.0000 -15.8553 0.0000
# 4 0.0000 0.0000 0.0000 12.2299 0.0000 2.7383
# 5 -5.5858 -0.5540 -15.8553 0.0000 40.6691 0.0000
# 6 0.0000 0.0000 0.0000 2.7383 0.0000 20.2802
#
#
#
# Elastic Compliance Matrix: (Units=1/GPa)
#
#
# Indices 1 2 3 4 5 6 
#
# 1 0.011785 -0.001004 -0.000819 0.000000 0.001286 0.000000
# 2 -0.001004 0.024651 -0.000544 0.000000 -0.000014 0.000000
# 3 -0.000819 -0.000544 0.031694 0.000000 0.012237 0.000000
# 4 0.000000 0.000000 0.000000 0.084316 0.000000 -0.011384
# 5 0.001286 -0.000014 0.012237 0.000000 0.029536 0.000000
# 6 0.000000 0.000000 0.000000 -0.011384 0.000000 0.050846
#
#
# Mechanical properties :
#
#
# Convention : Reuss Voigt Hill
#
# Bulk Modulus (GPa) = 15.77361 20.30134 18.03748
# Shear Modulus (GPa) = 19.32793 25.00716 22.16754
#
# Velocity S-wave (km/s) = 2.87391 3.26898 3.07779
# Velocity P-wave (km/s) = 4.21342 4.78786 4.50980
#
# Compressibility (1/GPa) = 0.06339701
#
# Stress axis : x y z
#
# Youngs Moduli (GPa) = 84.85222 40.56712 31.55138
#
# Poissons Ratio (x) = 0.04072 0.02583
# Poissons Ratio (y) = 0.08516 0.01717
# Poissons Ratio (z) = 0.06946 0.02208
#
# Static dielectric constant tensor:
#      x y z
#    x 1.907490 0.000000 -0.020780 
#    y 0.000000 1.800760 0.000000 
#    z -0.020780 0.000000 1.935760 
# 
# From -- ./inp_files/91942.got.cif
#   From: 2010.05.17/outbox.cif.g08.bks.cpg/sg10_46_cif.got.tgz:91942.got - 2010.06.03 11:33:40.
