data_PCOD9151183
_publ_section_title
;
Structure prediction by ZEFSAII (Michael W. Deem and Ramdas Pophale) SiO2 
 PCOD9151183
Probable space group: P 2/M
;
_chemical_formula_sum "Si O2"
_cell_formula_units_Z 22
_cell_length_a 23.610677
_cell_length_b 11.213309
_cell_length_c 25.736238
_cell_angle_alpha 90.000000
_cell_angle_beta 10.953499
_cell_angle_gamma 90.000000
_cell_volume 1294.699234
_symmetry_space_group_name_H-M "P 2/M"
_symmetry_group_IT_number 10
_symmetry_cell_setting 'monoclinic'
loop_
_space_group_symop_operation_xyz
x,y,z
-x,y,-z
-x,-y,-z
x,-y,z
loop_
_atom_site_type_symbol
_atom_site_label
_atom_site_fract_x
_atom_site_fract_y
_atom_site_fract_z
Si Si1 0.945824 0.257683 0.486772
Si Si2 0.292926 0.359354 0.081891
Si Si3 0.105518 0.354654 0.067957
Si Si4 0.222411 0.355160 0.533407
Si Si5 0.156049 0.645348 0.806670
Si Si6 0.143264 0.000000 0.314165
O O1 0.000000 0.267739 0.500000
O O2 0.167710 0.338717 0.252844
O O3 0.028541 0.123711 0.393843
O O4 0.600018 0.292369 0.792257
O O5 0.347347 0.500000 0.024556
O O6 0.024158 0.318626 0.286381
O O7 0.106849 0.500000 0.065928
O O8 0.440428 0.315245 0.779671
O O9 0.883037 0.319242 0.314179
O O10 0.999999 0.315267 0.106060
O O11 0.226221 0.500000 0.528287
O O12 0.500000 0.679568 0.500000
O O13 0.144380 0.500000 0.816641
O O14 0.000000 0.685377 0.000000
O O15 0.000000 0.000000 0.500000
O O16 0.500000 0.000000 0.000000
#
# Coordination Sequence:
#
# PCOD9151183 Si02
#       6
#     4   4   4   4   4   2
#     4  11  22  36  54  73  94 122 153 192 238 283
#     4  11  22  34  49  72 100 125 153 193 237 283
#     4   9  15  24  37  50  70 105 144 181 221 260
#     4   9  17  28  40  55  78 111 147 179 214 262
#     4   9  15  21  30  47  69  93 130 184 232 257
#     4  10  20  38  58  74  92 118 156 192 226 276
#
# _framework density 16.992363999999998
#
# number of rings (size 3 to 8) (size 9 to 14) (size 15 to 20)
#    0.000    2.182    0.000    5.455    0.000    9.455 
#    0.000    0.000    0.000    0.000    0.000    0.000 
#    0.000    0.000    0.000    0.000    0.000    0.000 
#
# Total GULP energy -122618.452873 kJ/mol
# GULP energy per Si atom -5573.566040 kJ/mol
# Density = 1.695369 g / cm^3
# Si number density = 16.992364 Si / 1000 Ang^3
#
#
#
# Elastic Constant Matrix: (Units=GPa)
#
#
# Indices 1 2 3 4 5 6 
#
# 1 47.4389 4.6046 0.2098 0.0000 -1.5686 0.0000
# 2 4.6046 27.8124 14.4327 0.0000 -8.1358 0.0000
# 3 0.2098 14.4327 96.3278 0.0000 1.8448 0.0000
# 4 0.0000 0.0000 0.0000 16.7313 0.0000 4.0081
# 5 -1.5686 -8.1358 1.8448 0.0000 32.4118 0.0000
# 6 0.0000 0.0000 0.0000 4.0081 0.0000 -0.9951
#
#
#
# Elastic Compliance Matrix: (Units=1/GPa)
#
#
# Indices 1 2 3 4 5 6 
#
# 1 0.021449 -0.003807 0.000523 0.000000 0.000053 0.000000
# 2 -0.003807 0.043294 -0.006690 0.000000 0.011064 0.000000
# 3 0.000523 -0.006690 0.011427 0.000000 -0.002304 0.000000
# 4 0.000000 0.000000 0.000000 0.030418 0.000000 0.122517
# 5 0.000053 0.011064 -0.002304 0.000000 0.033764 0.000000
# 6 0.000000 0.000000 0.000000 0.122517 0.000000 -0.511433
#
#
# Mechanical properties :
#
#
# Convention : Reuss Voigt Hill
#
# Bulk Modulus (GPa) = 17.78722 23.34148 20.56435
# Shear Modulus (GPa) = -15.04244 19.78507 2.37131
#
# Velocity S-wave (km/s) = -2.97854 3.41596 1.18260
# Velocity P-wave (km/s) = 1.15690 5.41522 3.74074
#
# Compressibility (1/GPa) = 0.05622013
#
# Stress axis : x y z
#
# Youngs Moduli (GPa) = 46.62294 23.09804 87.51499
#
# Poissons Ratio (x) = 0.08793 -0.04574
# Poissons Ratio (y) = 0.17749 0.58550
# Poissons Ratio (z) = -0.02437 0.15453
#
# Static dielectric constant tensor:
#      x y z
#    x 1.590290 0.000000 -0.008670 
#    y 0.000000 1.583440 0.000000 
#    z -0.008670 0.000000 1.563970 
# 
# From -- ./inp_files/87417.got.cif
#   From: 2010.05.17/outbox.cif.g08.bks.cpg/sg10_44_cif.got.tgz:87417.got - 2010.06.03 11:33:40.
