data_PCOD9151168
_publ_section_title
;
Structure prediction by ZEFSAII (Michael W. Deem and Ramdas Pophale) SiO2 
 PCOD9151168
Probable space group: P 2/M
;
_chemical_formula_sum "Si O2"
_cell_formula_units_Z 26
_cell_length_a 10.151537
_cell_length_b 18.518279
_cell_length_c 7.254589
_cell_angle_alpha 90.000000
_cell_angle_beta 66.194830
_cell_angle_gamma 90.000000
_cell_volume 1247.756676
_symmetry_space_group_name_H-M "P 2/M"
_symmetry_group_IT_number 10
_symmetry_cell_setting 'monoclinic'
loop_
_space_group_symop_operation_xyz
x,y,z
-x,y,-z
-x,-y,-z
x,-y,z
loop_
_atom_site_type_symbol
_atom_site_label
_atom_site_fract_x
_atom_site_fract_y
_atom_site_fract_z
Si Si1 0.614890 0.084966 0.676260
Si Si2 0.872730 0.820214 0.451648
Si Si3 0.704571 0.085164 0.057203
Si Si4 0.162514 0.331651 0.354085
Si Si5 0.000000 0.167101 0.000000
Si Si6 0.650783 0.417053 0.464435
Si Si7 0.154683 0.418633 0.004141
O O1 0.735818 0.129010 0.497853
O O2 0.552642 0.109135 0.238133
O O3 0.618887 0.000000 0.626885
O O4 0.667884 0.092005 0.859649
O O5 0.825649 0.752213 0.601694
O O6 0.942726 0.794206 0.218410
O O7 0.000000 0.857464 0.500000
O O8 0.720403 0.000000 0.087970
O O9 0.856280 0.122884 0.019394
O O10 0.268214 0.374756 0.425024
O O11 0.187216 0.357125 0.132956
O O12 0.000000 0.353268 0.500000
O O13 0.500000 0.382265 0.500000
O O14 0.628561 0.500000 0.538310
O O15 0.738129 0.417996 0.226416
O O16 0.156419 0.500000 0.088275
O O17 0.000000 0.407466 0.000000
#
# Coordination Sequence:
#
# PCOD9151168 Si02
#       7
#     4   4   4   4   2   4   4
#     4   9  19  41  64  89 129 168 209 265 322 377
#     4  11  25  42  61  92 126 171 213 264 320 379
#     4   9  19  37  66  96 122 158 207 265 325 382
#     4  11  23  40  63  89 131 171 216 255 319 376
#     4  12  23  40  64  92 125 158 216 266 312 380
#     4  10  22  41  64  97 134 163 206 264 315 367
#     4  10  20  37  68 101 124 162 215 260 309 374
#
# _framework density 20.837395999999998
#
# number of rings (size 3 to 8) (size 9 to 14) (size 15 to 20)
#    0.000    1.846    3.077    1.615    0.000    5.846 
#    2.769    5.385    0.000    0.000    0.000    0.000 
#    0.000    0.000    0.000    0.000    0.000    0.000 
#
# Total GULP energy -145148.218180 kJ/mol
# GULP energy per Si atom -5582.623776 kJ/mol
# Density = 2.078997 g / cm^3
# Si number density = 20.837396 Si / 1000 Ang^3
#
#
#
# Elastic Constant Matrix: (Units=GPa)
#
#
# Indices 1 2 3 4 5 6 
#
# 1 152.9332 41.3817 15.0965 0.0000 -5.5904 0.0000
# 2 41.3817 55.9758 23.4604 0.0000 0.4468 0.0000
# 3 15.0965 23.4604 72.7531 0.0000 -1.4328 0.0000
# 4 0.0000 0.0000 0.0000 12.6852 0.0000 4.3830
# 5 -5.5904 0.4468 -1.4328 0.0000 28.9627 0.0000
# 6 0.0000 0.0000 0.0000 4.3830 0.0000 36.9289
#
#
#
# Elastic Compliance Matrix: (Units=1/GPa)
#
#
# Indices 1 2 3 4 5 6 
#
# 1 0.008263 -0.006264 0.000339 0.000000 0.001708 0.000000
# 2 -0.006264 0.025418 -0.006935 0.000000 -0.001944 0.000000
# 3 0.000339 -0.006935 0.015930 0.000000 0.000961 0.000000
# 4 0.000000 0.000000 0.000000 0.082203 0.000000 -0.009756
# 5 0.001708 -0.001944 0.000961 0.000000 0.034934 0.000000
# 6 0.000000 0.000000 0.000000 -0.009756 0.000000 0.028237
#
#
# Mechanical properties :
#
#
# Convention : Reuss Voigt Hill
#
# Bulk Modulus (GPa) = 41.85746 49.05993 45.45869
# Shear Modulus (GPa) = 21.86569 29.16359 25.51464
#
# Velocity S-wave (km/s) = 3.24288 3.74515 3.50303
# Velocity P-wave (km/s) = 5.84405 6.50360 6.18263
#
# Compressibility (1/GPa) = 0.02389060
#
# Stress axis : x y z
#
# Youngs Moduli (GPa) = 121.02426 39.34229 62.77491
#
# Poissons Ratio (x) = 0.24645 -0.02129
# Poissons Ratio (y) = 0.75813 0.43534
# Poissons Ratio (z) = -0.04104 0.27283
#
# Static dielectric constant tensor:
#      x y z
#    x 1.750890 0.000000 0.003940 
#    y 0.000000 1.743450 0.000000 
#    z 0.003940 0.000000 1.782410 
# 
# From -- ./inp_files/7660.got.cif
#   From: 2010.05.17/outbox.cif.g08.bks.cpg/sg10_4_cif.got.tgz:7660.got - 2010.06.03 11:33:40.
