data_PCOD9151651
_publ_section_title
;
Structure prediction by ZEFSAII (Michael W. Deem and Ramdas Pophale) SiO2 
 PCOD9151651
Probable space group: P 2/M
;
_chemical_formula_sum "Si O2"
_cell_formula_units_Z 28
_cell_length_a 15.393055
_cell_length_b 7.655102
_cell_length_c 18.519558
_cell_angle_alpha 90.000000
_cell_angle_beta 48.841063
_cell_angle_gamma 90.000000
_cell_volume 1642.994450
_symmetry_space_group_name_H-M "P 2/M"
_symmetry_group_IT_number 10
_symmetry_cell_setting 'monoclinic'
loop_
_space_group_symop_operation_xyz
x,y,z
-x,y,-z
-x,-y,-z
x,-y,z
loop_
_atom_site_type_symbol
_atom_site_label
_atom_site_fract_x
_atom_site_fract_y
_atom_site_fract_z
Si Si1 0.343787 0.198751 0.726376
Si Si2 0.598687 0.702101 0.613502
Si Si3 0.809857 0.500000 0.125800
Si Si4 0.818390 0.713016 0.576686
Si Si5 0.720450 0.209772 0.399297
Si Si6 0.011285 0.798919 0.765967
Si Si7 0.958708 0.500000 0.904148
Si Si8 0.958245 0.288310 0.637303
O O1 0.476309 0.204767 0.677908
O O2 0.266398 0.330737 0.814198
O O3 0.336717 0.255219 0.646055
O O4 0.299610 0.000000 0.754264
O O5 0.575854 0.500000 0.643908
O O6 0.694810 0.773481 0.616150
O O7 0.657914 0.710249 0.502303
O O8 0.920525 0.500000 0.118227
O O9 0.858455 0.500000 0.018305
O O10 0.816989 0.500000 0.575850
O O11 0.860274 0.764488 0.633454
O O12 0.919767 0.765797 0.465674
O O13 0.855412 0.257262 0.320609
O O14 0.713052 0.000000 0.412080
O O15 0.957900 0.669388 0.853461
O O16 0.949904 0.783804 0.722036
O O17 0.012341 0.000000 0.789713
O O18 0.958571 0.500000 0.641251
#
# Coordination Sequence:
#
# PCOD9151651 Si02
#       8
#     4   4   2   4   4   4   2   4
#     4  11  23  39  55  77 111 144 183 227 264 316
#     4  11  20  30  52  80 111 153 191 217 256 312
#     4  11  24  42  60  84  99 139 183 220 284 332
#     4   8  16  27  46  77 109 149 186 220 257 302
#     4  10  21  33  47  75 113 148 184 217 254 309
#     4  11  21  34  55  84 111 145 181 216 267 323
#     4  11  24  40  63  80 108 133 175 233 278 329
#     4   9  15  30  51  72 110 150 183 219 261 306
#
# _framework density 17.042052999999999
#
# number of rings (size 3 to 8) (size 9 to 14) (size 15 to 20)
#    0.000    1.857    4.286    1.714    2.000    2.286 
#    0.000    4.286    0.000    0.000    0.000    2.000 
#    0.000    2.286    0.000    0.000    0.000    0.000 
#
# Total GULP energy -156345.619884 kJ/mol
# GULP energy per Si atom -5583.772139 kJ/mol
# Density = 1.700326 g / cm^3
# Si number density = 17.042053 Si / 1000 Ang^3
#
#
#
# Elastic Constant Matrix: (Units=GPa)
#
#
# Indices 1 2 3 4 5 6 
#
# 1 124.5622 19.9899 47.9994 0.0000 2.7238 0.0000
# 2 19.9899 67.8306 31.2455 0.0000 4.6322 0.0000
# 3 47.9994 31.2455 67.4616 0.0000 8.1203 0.0000
# 4 0.0000 0.0000 0.0000 -18.8457 0.0000 -15.5742
# 5 2.7238 4.6322 8.1203 0.0000 21.4640 0.0000
# 6 0.0000 0.0000 0.0000 -15.5742 0.0000 5.0490
#
#
#
# Elastic Compliance Matrix: (Units=1/GPa)
#
#
# Indices 1 2 3 4 5 6 
#
# 1 0.011127 0.000441 -0.008318 0.000000 0.001640 0.000000
# 2 0.000441 0.018771 -0.008920 0.000000 -0.000733 0.000000
# 3 -0.008318 -0.008920 0.025684 0.000000 -0.006736 0.000000
# 4 0.000000 0.000000 0.000000 -0.014951 0.000000 -0.046117
# 5 0.001640 -0.000733 -0.006736 0.000000 0.049088 0.000000
# 6 0.000000 0.000000 0.000000 -0.046117 0.000000 0.055805
#
#
# Mechanical properties :
#
#
# Convention : Reuss Voigt Hill
#
# Bulk Modulus (GPa) = 45.47998 50.92490 48.20244
# Shear Modulus (GPa) = 26.81706 12.24143 19.52925
#
# Velocity S-wave (km/s) = 3.97114 2.68303 3.38885
# Velocity P-wave (km/s) = 6.91169 6.28848 6.60744
#
# Compressibility (1/GPa) = 0.02198770
#
# Stress axis : x y z
#
# Youngs Moduli (GPa) = 89.87139 53.27230 38.93493
#
# Poissons Ratio (x) = -0.02348 0.32388
# Poissons Ratio (y) = -0.03960 0.34728
# Poissons Ratio (z) = 0.74759 0.47517
#
# Static dielectric constant tensor:
#      x y z
#    x 1.601730 0.000000 -0.001930 
#    y 0.000000 1.623250 0.000000 
#    z -0.001930 0.000000 1.525240 
# 
# From -- ./inp_files/77747.got.cif
#   From: 2010.05.17/outbox.cif.g08.bks.cpg/sg10_39_cif.got.tgz:77747.got - 2010.06.03 11:33:40.
