data_PCOD9151093
_publ_section_title
;
Structure prediction by ZEFSAII (Michael W. Deem and Ramdas Pophale) SiO2 
 PCOD9151093
Probable space group: P 2/M
;
_chemical_formula_sum "Si O2"
_cell_formula_units_Z 20
_cell_length_a 17.053872
_cell_length_b 7.892770
_cell_length_c 27.870055
_cell_angle_alpha 90.000000
_cell_angle_beta 164.002631
_cell_angle_gamma 90.000000
_cell_volume 1033.853002
_symmetry_space_group_name_H-M "P 2/M"
_symmetry_group_IT_number 10
_symmetry_cell_setting 'monoclinic'
loop_
_space_group_symop_operation_xyz
x,y,z
-x,y,-z
-x,-y,-z
x,-y,z
loop_
_atom_site_type_symbol
_atom_site_label
_atom_site_fract_x
_atom_site_fract_y
_atom_site_fract_z
Si Si1 0.800769 0.500000 0.107089
Si Si2 0.837404 0.795630 0.450993
Si Si3 0.170529 0.199988 0.050532
Si Si4 0.500000 0.754951 0.000000
Si Si5 0.002680 0.500000 0.121520
Si Si6 0.661146 0.500000 0.511477
Si Si7 0.079492 0.188985 0.393271
O O1 0.637816 0.346281 0.036599
O O2 0.809577 0.500000 0.055414
O O3 0.121795 0.500000 0.316405
O O4 0.502784 0.756280 0.253520
O O5 0.962302 0.750765 0.576458
O O6 0.000000 0.726285 0.500000
O O7 0.859066 0.000000 0.461310
O O8 0.150532 0.000000 0.024799
O O9 0.053803 0.332149 0.943146
O O10 0.000000 0.219991 0.000000
O O11 0.219521 0.828737 0.810119
O O12 0.332224 0.500000 0.330254
O O13 0.738521 0.332129 0.526330
O O14 0.215162 0.000000 0.474052
#
# Coordination Sequence:
#
# PCOD9151093 Si02
#       7
#     2   4   4   2   2   2   4
#     4   9  21  39  58  86 120 153 191 252 304 345
#     4   9  19  35  55  85 121 152 189 243 299 349
#     4  10  22  40  59  85 122 160 199 243 295 356
#     4   9  19  38  62  87 117 150 203 247 296 353
#     4  12  23  37  64  87 114 158 204 243 292 355
#     4  10  22  40  58  84 118 152 198 242 295 353
#     4  10  20  37  63  85 115 157 196 240 298 358
#
# _framework density 19.345109999999998
#
# number of rings (size 3 to 8) (size 9 to 14) (size 15 to 20)
#    0.000    2.200    0.000    2.700    2.800    3.200 
#    0.000    5.000    0.000    6.000    0.000    0.000 
#    0.000    0.000    0.000    0.000    0.000    0.000 
#
# Total GULP energy -111461.356115 kJ/mol
# GULP energy per Si atom -5573.067806 kJ/mol
# Density = 1.930108 g / cm^3
# Si number density = 19.345110 Si / 1000 Ang^3
#
#
#
# Elastic Constant Matrix: (Units=GPa)
#
#
# Indices 1 2 3 4 5 6 
#
# 1 143.1325 58.3889 34.8893 0.0000 8.9009 0.0000
# 2 58.3889 90.3985 23.5954 0.0000 -0.3890 0.0000
# 3 34.8893 23.5954 57.5885 0.0000 17.8316 0.0000
# 4 0.0000 0.0000 0.0000 10.6125 0.0000 4.9542
# 5 8.9009 -0.3890 17.8316 0.0000 23.2937 0.0000
# 6 0.0000 0.0000 0.0000 4.9542 0.0000 17.1138
#
#
#
# Elastic Compliance Matrix: (Units=1/GPa)
#
#
# Indices 1 2 3 4 5 6 
#
# 1 0.010246 -0.005728 -0.003432 0.000000 -0.001384 0.000000
# 2 -0.005728 0.016122 -0.005107 0.000000 0.006368 0.000000
# 3 -0.003432 -0.005107 0.027729 0.000000 -0.020001 0.000000
# 4 0.000000 0.000000 0.000000 0.108952 0.000000 -0.031540
# 5 -0.001384 0.006368 -0.020001 0.000000 0.058876 0.000000
# 6 0.000000 0.000000 0.000000 -0.031540 0.000000 0.067563
#
#
# Mechanical properties :
#
#
# Convention : Reuss Voigt Hill
#
# Bulk Modulus (GPa) = 39.11863 58.31852 48.71857
# Shear Modulus (GPa) = 15.31192 21.82041 18.56616
#
# Velocity S-wave (km/s) = 2.81644 3.36215 3.10132
# Velocity P-wave (km/s) = 5.55354 6.72933 6.16951
#
# Compressibility (1/GPa) = 0.02556327
#
# Stress axis : x y z
#
# Youngs Moduli (GPa) = 97.60118 62.02601 36.06290
#
# Poissons Ratio (x) = 0.35528 0.12377
# Poissons Ratio (y) = 0.55905 0.18418
# Poissons Ratio (z) = 0.33497 0.31677
#
# Static dielectric constant tensor:
#      x y z
#    x 1.646180 0.000000 -0.010940 
#    y 0.000000 1.699500 0.000000 
#    z -0.010940 0.000000 1.665360 
# 
# From -- ./inp_files/71266.got.cif
#   From: 2010.05.17/outbox.cif.g08.bks.cpg/sg10_36_cif.got.tgz:71266.got - 2010.06.03 11:33:40.
