data_PCOD9151911
_publ_section_title
;
Structure prediction by ZEFSAII (Michael W. Deem and Ramdas Pophale) SiO2 
 PCOD9151911
Probable space group: P 2/M
;
_chemical_formula_sum "Si O2"
_cell_formula_units_Z 28
_cell_length_a 9.734963
_cell_length_b 14.000964
_cell_length_c 12.447245
_cell_angle_alpha 90.000000
_cell_angle_beta 115.284175
_cell_angle_gamma 90.000000
_cell_volume 1534.017271
_symmetry_space_group_name_H-M "P 2/M"
_symmetry_group_IT_number 10
_symmetry_cell_setting 'monoclinic'
loop_
_space_group_symop_operation_xyz
x,y,z
-x,y,-z
-x,-y,-z
x,-y,z
loop_
_atom_site_type_symbol
_atom_site_label
_atom_site_fract_x
_atom_site_fract_y
_atom_site_fract_z
Si Si1 0.654278 0.613348 0.118167
Si Si2 0.139844 0.285092 0.981289
Si Si3 0.344859 0.724578 0.659523
Si Si4 0.684833 0.390601 0.560341
Si Si5 0.308787 0.245570 0.249807
Si Si6 0.032908 0.110513 0.183467
Si Si7 0.120633 0.105462 0.635844
O O1 0.674123 0.500000 0.130637
O O2 0.792465 0.659895 0.097432
O O3 0.640267 0.656144 0.232435
O O4 0.500000 0.633167 0.000000
O O5 0.073134 0.183012 0.919656
O O6 0.268539 0.273329 0.114364
O O7 0.000000 0.332485 0.000000
O O8 0.277411 0.665937 0.536202
O O9 0.510579 0.764284 0.681434
O O10 0.240255 0.811646 0.659144
O O11 0.500000 0.394771 0.500000
O O12 0.740081 0.500000 0.580345
O O13 0.734954 0.329089 0.680300
O O14 0.202307 0.154663 0.237834
O O15 0.968301 0.114764 0.282225
O O16 0.029358 0.000000 0.146669
O O17 0.000000 0.110066 0.500000
O O18 0.193455 0.000000 0.658552
#
# Coordination Sequence:
#
# PCOD9151911 Si02
#       7
#     4   4   4   4   4   4   4
#     4  11  22  37  60  88 119 156 195 240 297 351
#     4  10  21  38  59  84 119 157 193 240 289 346
#     4  11  20  37  62  86 119 150 196 250 293 338
#     4   9  19  35  56  83 113 152 194 234 291 349
#     4  10  21  35  59  87 114 152 197 247 285 343
#     4  10  21  39  60  84 118 159 196 237 298 356
#     4  10  21  37  60  84 115 157 194 236 300 360
#
# _framework density 18.252728000000001
#
# number of rings (size 3 to 8) (size 9 to 14) (size 15 to 20)
#    0.000    1.857    2.857    1.286    0.000    4.571 
#    0.000    2.143    0.000    9.429    0.000    0.000 
#    0.000    0.000    0.000    0.000    0.000    0.000 
#
# Total GULP energy -156189.685921 kJ/mol
# GULP energy per Si atom -5578.203069 kJ/mol
# Density = 1.821118 g / cm^3
# Si number density = 18.252728 Si / 1000 Ang^3
#
#
#
# Elastic Constant Matrix: (Units=GPa)
#
#
# Indices 1 2 3 4 5 6 
#
# 1 79.2488 54.8854 15.2906 0.0000 -13.9065 0.0000
# 2 54.8854 115.4505 47.5405 0.0000 -10.9840 0.0000
# 3 15.2906 47.5405 100.5664 0.0000 -19.9433 0.0000
# 4 0.0000 0.0000 0.0000 24.8427 0.0000 -0.5038
# 5 -13.9065 -10.9840 -19.9433 0.0000 26.0205 0.0000
# 6 0.0000 0.0000 0.0000 -0.5038 0.0000 19.7798
#
#
#
# Elastic Compliance Matrix: (Units=1/GPa)
#
#
# Indices 1 2 3 4 5 6 
#
# 1 0.020882 -0.010543 0.003703 0.000000 0.009547 0.000000
# 2 -0.010543 0.016092 -0.006809 0.000000 -0.004061 0.000000
# 3 0.003703 -0.006809 0.014649 0.000000 0.010332 0.000000
# 4 0.000000 0.000000 0.000000 0.040274 0.000000 0.001026
# 5 0.009547 -0.004061 0.010332 0.000000 0.049738 0.000000
# 6 0.000000 0.000000 0.000000 0.001026 0.000000 0.050583
#
#
# Mechanical properties :
#
#
# Convention : Reuss Voigt Hill
#
# Bulk Modulus (GPa) = 41.11609 58.96654 50.04131
# Shear Modulus (GPa) = 21.96606 25.96520 23.96563
#
# Velocity S-wave (km/s) = 3.47283 3.77575 3.62745
# Velocity P-wave (km/s) = 6.21736 7.16827 6.70968
#
# Compressibility (1/GPa) = 0.02432138
#
# Stress axis : x y z
#
# Youngs Moduli (GPa) = 47.88928 62.14410 68.26637
#
# Poissons Ratio (x) = 0.65521 -0.25276
# Poissons Ratio (y) = 0.50492 0.46484
# Poissons Ratio (z) = -0.17731 0.42315
#
# Static dielectric constant tensor:
#      x y z
#    x 1.628570 0.000000 -0.001480 
#    y 0.000000 1.613650 0.000000 
#    z -0.001480 0.000000 1.629980 
# 
# From -- ./inp_files/24915.got.cif
#   From: 2010.05.17/outbox.cif.g08.bks.cpg/sg10_13_cif.got.tgz:24915.got - 2010.06.03 11:33:40.
