data_PCOD9151627
_publ_section_title
;
Structure prediction by ZEFSAII (Michael W. Deem and Ramdas Pophale) SiO2 
 PCOD9151627
Probable space group: P 2/M
;
_chemical_formula_sum "Si O2"
_cell_formula_units_Z 19
_cell_length_a 5.751807
_cell_length_b 17.340540
_cell_length_c 9.270034
_cell_angle_alpha 90.000000
_cell_angle_beta 90.095753
_cell_angle_gamma 90.000000
_cell_volume 924.586703
_symmetry_space_group_name_H-M "P 2/M"
_symmetry_group_IT_number 10
_symmetry_cell_setting 'monoclinic'
loop_
_space_group_symop_operation_xyz
x,y,z
-x,y,-z
-x,-y,-z
x,-y,z
loop_
_atom_site_type_symbol
_atom_site_label
_atom_site_fract_x
_atom_site_fract_y
_atom_site_fract_z
Si Si1 0.000000 0.676744 0.000000
Si Si2 0.680550 0.725624 0.247039
Si Si3 0.500000 0.000000 0.500000
Si Si4 0.000000 0.784053 0.500000
Si Si5 0.246629 0.000000 0.078467
Si Si6 0.640042 0.129806 0.705318
Si Si7 0.620342 0.413249 0.842239
O O1 0.176310 0.724880 0.902461
O O2 0.867715 0.623666 0.882942
O O3 0.507079 0.797675 0.243790
O O4 0.530505 0.646992 0.249428
O O5 0.845695 0.735535 0.386318
O O6 0.480833 0.067830 0.622846
O O7 0.167816 0.837307 0.404123
O O8 0.244305 0.921633 0.172104
O O9 0.500000 0.000000 0.000000
O O10 0.000000 0.000000 0.000000
O O11 0.635140 0.500000 0.784303
O O12 0.500000 0.417256 0.000000
#
# Coordination Sequence:
#
# PCOD9151627 Si02
#       7
#     2   4   1   2   2   4   4
#     4  10  21  38  70  97 138 178 230 279 354 412
#     4  11  23  42  64 104 135 179 229 288 341 427
#     4  10  20  46  68  94 116 168 226 280 328 402
#     4  12  24  43  71  94 132 184 232 284 349 427
#     4  11  30  50  70 106 147 184 235 302 372 432
#     4  11  25  44  71  93 135 178 233 289 348 419
#     4   9  19  38  64  97 137 177 225 281 341 415
#
# _framework density 20.549724000000001
#
# number of rings (size 3 to 8) (size 9 to 14) (size 15 to 20)
#    0.000    1.474    2.105    1.579    2.947    6.737 
#    1.895    0.526    0.000    6.316    0.000    0.000 
#    0.000    0.000    0.000    0.000    0.000    0.000 
#
# Total GULP energy -105831.152406 kJ/mol
# GULP energy per Si atom -5570.060653 kJ/mol
# Density = 2.050295 g / cm^3
# Si number density = 20.549724 Si / 1000 Ang^3
#
#
#
# Elastic Constant Matrix: (Units=GPa)
#
#
# Indices 1 2 3 4 5 6 
#
# 1 117.3405 89.0044 63.5884 0.0000 5.2538 0.0000
# 2 89.0044 196.2937 85.8645 0.0000 1.5002 0.0000
# 3 63.5884 85.8645 91.8515 0.0000 10.0204 0.0000
# 4 0.0000 0.0000 0.0000 32.8899 0.0000 3.2544
# 5 5.2538 1.5002 10.0204 0.0000 48.6650 0.0000
# 6 0.0000 0.0000 0.0000 3.2544 0.0000 5.8727
#
#
#
# Elastic Compliance Matrix: (Units=1/GPa)
#
#
# Indices 1 2 3 4 5 6 
#
# 1 0.015201 -0.003880 -0.006885 0.000000 -0.000104 0.000000
# 2 -0.003880 0.009707 -0.006548 0.000000 0.001468 0.000000
# 3 -0.006885 -0.006548 0.022170 0.000000 -0.003620 0.000000
# 4 0.000000 0.000000 0.000000 0.032168 0.000000 -0.017826
# 5 -0.000104 0.001468 -0.003620 0.000000 0.021260 0.000000
# 6 0.000000 0.000000 0.000000 -0.017826 0.000000 0.180157
#
#
# Mechanical properties :
#
#
# Convention : Reuss Voigt Hill
#
# Bulk Modulus (GPa) = 80.31407 98.04449 89.17928
# Shear Modulus (GPa) = 15.65236 28.62076 22.13656
#
# Velocity S-wave (km/s) = 2.76285 3.73601 3.28566
# Velocity P-wave (km/s) = 7.02463 8.15014 7.60823
#
# Compressibility (1/GPa) = 0.01245112
#
# Stress axis : x y z
#
# Youngs Moduli (GPa) = 65.78496 103.02049 45.10591
#
# Poissons Ratio (x) = 0.39971 0.31057
# Poissons Ratio (y) = 0.25524 0.29536
# Poissons Ratio (z) = 0.45295 0.67460
#
# Static dielectric constant tensor:
#      x y z
#    x 1.821390 0.000000 0.032100 
#    y 0.000000 1.691160 0.000000 
#    z 0.032100 0.000000 1.741230 
# 
# From -- ./inp_files/14739.got.cif
#   From: 2010.05.17/outbox.cif.g08.bks.cpg/sg10_8_cif.got.tgz:14739.got - 2010.06.03 11:33:40.
