data_PCOD9151568
_publ_section_title
;
Structure prediction by ZEFSAII (Michael W. Deem and Ramdas Pophale) SiO2 
 PCOD9151568
Probable space group: P 2/M
;
_chemical_formula_sum "Si O2"
_cell_formula_units_Z 20
_cell_length_a 9.390114
_cell_length_b 9.332972
_cell_length_c 11.821600
_cell_angle_alpha 90.000000
_cell_angle_beta 105.644396
_cell_angle_gamma 90.000000
_cell_volume 997.637088
_symmetry_space_group_name_H-M "P 2/M"
_symmetry_group_IT_number 10
_symmetry_cell_setting 'monoclinic'
loop_
_space_group_symop_operation_xyz
x,y,z
-x,y,-z
-x,-y,-z
x,-y,z
loop_
_atom_site_type_symbol
_atom_site_label
_atom_site_fract_x
_atom_site_fract_y
_atom_site_fract_z
Si Si1 0.256865 0.169695 0.272716
Si Si2 0.652013 0.836270 0.102458
Si Si3 0.600265 0.166336 0.358798
Si Si4 0.823570 0.336265 0.968235
Si Si5 0.145697 0.670492 0.457378
O O1 0.427574 0.191686 0.346624
O O2 0.238031 0.237761 0.145357
O O3 0.150621 0.248283 0.338746
O O4 0.229736 0.000000 0.263272
O O5 0.621796 0.818495 0.228422
O O6 0.703532 0.000000 0.094892
O O7 0.500000 0.818804 0.000000
O O8 0.767198 0.726156 0.074595
O O9 0.712171 0.271231 0.444739
O O10 0.633952 0.000000 0.396621
O O11 0.773113 0.500000 0.942457
O O12 0.000000 0.332904 0.000000
O O13 0.153474 0.500000 0.441648
O O14 0.000000 0.702840 0.500000
#
# Coordination Sequence:
#
# PCOD9151568 Si02
#       5
#     4   4   4   4   4
#     4  11  23  43  68  92 121 160 210 258 305 364
#     4  10  20  40  65  93 126 160 205 253 302 362
#     4  10  22  41  66  94 123 159 207 259 304 360
#     4  11  25  41  60  92 132 167 203 250 307 367
#     4  11  26  44  62  90 128 163 202 254 311 368
#
# _framework density 20.047370999999998
#
# number of rings (size 3 to 8) (size 9 to 14) (size 15 to 20)
#    0.000    1.400    2.000    2.400    2.800    8.400 
#    0.000    0.000    0.000    0.000    0.000    0.000 
#    0.000    0.000    0.000    0.000    0.000    0.000 
#
# Total GULP energy -111866.203532 kJ/mol
# GULP energy per Si atom -5593.310177 kJ/mol
# Density = 2.000174 g / cm^3
# Si number density = 20.047371 Si / 1000 Ang^3
#
#
#
# Elastic Constant Matrix: (Units=GPa)
#
#
# Indices 1 2 3 4 5 6 
#
# 1 79.3379 67.0734 13.7963 0.0000 -27.2200 0.0000
# 2 67.0734 104.3240 31.5046 0.0000 -18.7090 0.0000
# 3 13.7963 31.5046 48.5733 0.0000 -15.3116 0.0000
# 4 0.0000 0.0000 0.0000 -121.0433 0.0000 -27.9453
# 5 -27.2200 -18.7090 -15.3116 0.0000 34.3806 0.0000
# 6 0.0000 0.0000 0.0000 -27.9453 0.0000 33.5048
#
#
#
# Elastic Compliance Matrix: (Units=1/GPa)
#
#
# Indices 1 2 3 4 5 6 
#
# 1 0.039522 -0.024959 0.012267 0.000000 0.023172 0.000000
# 2 -0.024959 0.028065 -0.014575 0.000000 -0.010979 0.000000
# 3 0.012267 -0.014575 0.031547 0.000000 0.015831 0.000000
# 4 0.000000 0.000000 0.000000 -0.006928 0.000000 -0.005778
# 5 0.023172 -0.010979 0.015831 0.000000 0.048507 0.000000
# 6 0.000000 0.000000 0.000000 -0.005778 0.000000 0.025027
#
#
# Mechanical properties :
#
#
# Convention : Reuss Voigt Hill
#
# Bulk Modulus (GPa) = 22.42132 50.77598 36.59865
# Shear Modulus (GPa) = 21.26398 -2.64084 9.31157
#
# Velocity S-wave (km/s) = 3.26035 -1.14898 2.15751
# Velocity P-wave (km/s) = 5.03802 4.86033 4.94997
#
# Compressibility (1/GPa) = 0.04460041
#
# Stress axis : x y z
#
# Youngs Moduli (GPa) = 25.30262 35.63182 31.69911
#
# Poissons Ratio (x) = 0.88933 -0.38886
# Poissons Ratio (y) = 0.63152 0.46201
# Poissons Ratio (z) = -0.31039 0.51933
#
# Static dielectric constant tensor:
#      x y z
#    x 1.694110 0.000000 -0.007010 
#    y 0.000000 1.674470 0.000000 
#    z -0.007010 0.000000 1.703660 
# 
# From -- ./inp_files/22167.got.cif
#   From: 2010.05.17/outbox.cif.g08.bks.cpg/sg10_12_cif.got.tgz:22167.got - 2010.06.03 11:33:40.
