data_PCOD9151828
_publ_section_title
;
Structure prediction by ZEFSAII (Michael W. Deem and Ramdas Pophale) SiO2 
 PCOD9151828
Probable space group: P 2/M
;
_chemical_formula_sum "Si O2"
_cell_formula_units_Z 28
_cell_length_a 20.890175
_cell_length_b 9.050043
_cell_length_c 23.670676
_cell_angle_alpha 90.000000
_cell_angle_beta 19.016882
_cell_angle_gamma 90.000000
_cell_volume 1458.198859
_symmetry_space_group_name_H-M "P 2/M"
_symmetry_group_IT_number 10
_symmetry_cell_setting 'monoclinic'
loop_
_space_group_symop_operation_xyz
x,y,z
-x,y,-z
-x,-y,-z
x,-y,z
loop_
_atom_site_type_symbol
_atom_site_label
_atom_site_fract_x
_atom_site_fract_y
_atom_site_fract_z
Si Si1 0.941221 0.834049 0.489306
Si Si2 0.407800 0.176720 0.515787
Si Si3 0.656926 0.832610 0.913880
Si Si4 0.052002 0.176996 0.112573
Si Si5 0.650270 0.334905 0.650193
Si Si6 0.413515 0.679114 0.743434
Si Si7 0.238860 0.666130 0.059024
O O1 0.787742 0.755788 0.576825
O O2 0.000000 0.761576 0.500000
O O3 0.140563 0.843457 0.288294
O O4 0.867003 0.000000 0.564165
O O5 0.500000 0.207814 0.500000
O O6 0.525761 0.261973 0.368466
O O7 0.175206 0.213175 0.710629
O O8 0.424219 0.000000 0.491426
O O9 0.700600 0.737756 0.932453
O O10 0.592074 0.000000 0.983740
O O11 0.500000 0.771052 0.000000
O O12 0.099126 0.234907 0.136491
O O13 0.077980 0.000000 0.087972
O O14 0.210972 0.253003 0.937720
O O15 0.732605 0.500000 0.575285
O O16 0.591573 0.275194 0.637577
O O17 0.439979 0.343838 0.856018
O O18 0.400395 0.500000 0.756029
O O19 0.159685 0.500000 0.132194
#
# Coordination Sequence:
#
# PCOD9151828 Si02
#       7
#     4   4   4   4   4   4   4
#     4  10  21  35  53  78 106 142 187 235 286 340
#     4  10  23  42  64  92 125 162 206 254 304 364
#     4  10  21  36  54  78 109 146 191 239 291 350
#     4  10  21  39  64  91 121 160 205 251 303 360
#     4   9  20  37  55  79 109 145 186 231 285 346
#     4  10  22  40  62  91 126 162 202 248 306 367
#     4  10  21  37  57  82 113 148 190 239 295 355
#
# _framework density 19.201771000000001
#
# number of rings (size 3 to 8) (size 9 to 14) (size 15 to 20)
#    0.000    2.143    0.000    3.000    2.000    7.714 
#    0.000    2.857    0.000    0.000    0.000    0.000 
#    0.000    0.000    0.000    0.000    0.000    0.000 
#
# Total GULP energy -156200.936855 kJ/mol
# GULP energy per Si atom -5578.604888 kJ/mol
# Density = 1.915807 g / cm^3
# Si number density = 19.201771 Si / 1000 Ang^3
#
#
#
# Elastic Constant Matrix: (Units=GPa)
#
#
# Indices 1 2 3 4 5 6 
#
# 1 171.2055 64.8431 62.3024 0.0000 -7.1155 0.0000
# 2 64.8431 70.8758 40.1000 0.0000 -4.5168 0.0000
# 3 62.3024 40.1000 78.5509 0.0000 -11.2469 0.0000
# 4 0.0000 0.0000 0.0000 128.0458 0.0000 -11.5902
# 5 -7.1155 -4.5168 -11.2469 0.0000 38.6305 0.0000
# 6 0.0000 0.0000 0.0000 -11.5902 0.0000 23.7126
#
#
#
# Elastic Compliance Matrix: (Units=1/GPa)
#
#
# Indices 1 2 3 4 5 6 
#
# 1 0.009989 -0.006541 -0.004623 0.000000 -0.000271 0.000000
# 2 -0.006541 0.024138 -0.007203 0.000000 -0.000480 0.000000
# 3 -0.004623 -0.007203 0.020694 0.000000 0.004331 0.000000
# 4 0.000000 0.000000 0.000000 0.008171 0.000000 0.003994
# 5 -0.000271 -0.000480 0.004331 0.000000 0.027041 0.000000
# 6 0.000000 0.000000 0.000000 0.003994 0.000000 0.044124
#
#
# Mechanical properties :
#
#
# Convention : Reuss Voigt Hill
#
# Bulk Modulus (GPa) = 55.28421 72.79147 64.03784
# Shear Modulus (GPa) = 28.26122 48.30356 38.28239
#
# Velocity S-wave (km/s) = 3.84057 5.02100 4.46992
# Velocity P-wave (km/s) = 6.96565 8.46197 7.75001
#
# Compressibility (1/GPa) = 0.01808835
#
# Stress axis : x y z
#
# Youngs Moduli (GPa) = 100.10870 41.42816 48.32229
#
# Poissons Ratio (x) = 0.27097 0.22337
# Poissons Ratio (y) = 0.65479 0.34808
# Poissons Ratio (z) = 0.46276 0.29842
#
# Static dielectric constant tensor:
#      x y z
#    x 1.684820 0.000000 -0.012780 
#    y 0.000000 1.701380 0.000000 
#    z -0.012780 0.000000 1.643850 
# 
# From -- ./inp_files/90375.got.cif
#   From: 2010.05.17/outbox.cif.g08.bks.cpg/sg10_46_cif.got.tgz:90375.got - 2010.06.03 11:33:40.
