data_PCOD9151342
_publ_section_title
;
Structure prediction by ZEFSAII (Michael W. Deem and Ramdas Pophale) SiO2 
 PCOD9151342
Probable space group: P 2/M
;
_chemical_formula_sum "Si O2"
_cell_formula_units_Z 18
_cell_length_a 24.877644
_cell_length_b 8.145309
_cell_length_c 5.169265
_cell_angle_alpha 90.000000
_cell_angle_beta 60.287053
_cell_angle_gamma 90.000000
_cell_volume 909.756570
_symmetry_space_group_name_H-M "P 2/M"
_symmetry_group_IT_number 10
_symmetry_cell_setting 'monoclinic'
loop_
_space_group_symop_operation_xyz
x,y,z
-x,y,-z
-x,-y,-z
x,-y,z
loop_
_atom_site_type_symbol
_atom_site_label
_atom_site_fract_x
_atom_site_fract_y
_atom_site_fract_z
Si Si1 0.957249 0.500000 0.852276
Si Si2 0.836394 0.681437 0.086400
Si Si3 0.639684 0.200553 0.253643
Si Si4 0.225847 0.189521 0.248994
Si Si5 0.568072 0.200568 0.923651
O O1 0.000000 0.500000 0.500000
O O2 0.909469 0.653769 0.960572
O O3 0.000000 0.500000 0.000000
O O4 0.814922 0.500000 0.050225
O O5 0.803143 0.724505 0.432808
O O6 0.818763 0.797835 0.893053
O O7 0.617719 0.253045 0.589088
O O8 0.641092 0.000000 0.256260
O O9 0.707482 0.254980 0.002642
O O10 0.590003 0.250725 0.155266
O O11 0.234809 0.000000 0.302198
O O12 0.566958 0.000000 0.927596
O O13 0.500000 0.255061 0.000000
#
# Coordination Sequence:
#
# PCOD9151342 Si02
#       5
#     2   4   4   4   4
#     4  10  20  38  64  84 106 144 185 220 259 312
#     4  10  22  36  59  85 108 144 185 226 254 327
#     4   9  17  26  41  65  97 137 170 209 271 327
#     4  11  20  35  55  82 118 147 176 221 283 332
#     4   9  15  24  37  58  92 134 177 216 258 314
#
# _framework density 19.785511
#
# number of rings (size 3 to 8) (size 9 to 14) (size 15 to 20)
#    0.667    1.556    0.000    4.667    0.000    6.222 
#    0.000    0.000    0.000   13.333    0.000    0.000 
#    0.000   62.222    0.000    0.000    0.000    0.000 
#
# Total GULP energy -100372.049698 kJ/mol
# GULP energy per Si atom -5576.224983 kJ/mol
# Density = 1.974048 g / cm^3
# Si number density = 19.785511 Si / 1000 Ang^3
#
#
#
# Elastic Constant Matrix: (Units=GPa)
#
#
# Indices 1 2 3 4 5 6 
#
# 1 54.1452 -8.8974 -25.5492 0.0000 -2.3376 0.0000
# 2 -8.8974 14.9311 -0.6129 0.0000 -7.7054 0.0000
# 3 -25.5492 -0.6129 66.8062 0.0000 -3.2441 0.0000
# 4 0.0000 0.0000 0.0000 28.8774 0.0000 -16.2643
# 5 -2.3376 -7.7054 -3.2441 0.0000 37.6482 0.0000
# 6 0.0000 0.0000 0.0000 -16.2643 0.0000 149.0299
#
#
#
# Elastic Compliance Matrix: (Units=1/GPa)
#
#
# Indices 1 2 3 4 5 6 
#
# 1 0.027230 0.020163 0.010927 0.000000 0.006759 0.000000
# 2 0.020163 0.089951 0.009531 0.000000 0.020483 0.000000
# 3 0.010927 0.009531 0.019444 0.000000 0.004305 0.000000
# 4 0.000000 0.000000 0.000000 0.036897 0.000000 0.004027
# 5 0.006759 0.020483 0.004305 0.000000 0.031545 0.000000
# 6 0.000000 0.000000 0.000000 0.004027 0.000000 0.007150
#
#
# Mechanical properties :
#
#
# Convention : Reuss Voigt Hill
#
# Bulk Modulus (GPa) = 4.58995 7.30704 5.94849
# Shear Modulus (GPa) = 24.55829 54.50723 39.53276
#
# Velocity S-wave (km/s) = 3.52693 5.25441 4.47482
# Velocity P-wave (km/s) = 4.34862 6.36498 5.45085
#
# Compressibility (1/GPa) = 0.21786744
#
# Stress axis : x y z
#
# Youngs Moduli (GPa) = 36.72418 11.11712 51.42961
#
# Poissons Ratio (x) = -0.22415 -0.56197
# Poissons Ratio (y) = -0.74047 -0.49018
# Poissons Ratio (z) = -0.40129 -0.10596
#
# Static dielectric constant tensor:
#      x y z
#    x 1.684080 0.000000 -0.019870 
#    y 0.000000 1.681600 0.000000 
#    z -0.019870 0.000000 1.656040 
# 
# From -- ./inp_files/12960.got.cif
#   From: 2010.05.17/outbox.cif.g08.bks.cpg/sg10_7_cif.got.tgz:12960.got - 2010.06.03 11:33:40.
