data_PCOD9151067
_publ_section_title
;
Structure prediction by ZEFSAII (Michael W. Deem and Ramdas Pophale) SiO2 
 PCOD9151067
Probable space group: P 2/M
;
_chemical_formula_sum "Si O2"
_cell_formula_units_Z 24
_cell_length_a 8.975721
_cell_length_b 15.762057
_cell_length_c 9.624132
_cell_angle_alpha 90.000000
_cell_angle_beta 69.105213
_cell_angle_gamma 90.000000
_cell_volume 1272.040208
_symmetry_space_group_name_H-M "P 2/M"
_symmetry_group_IT_number 10
_symmetry_cell_setting 'monoclinic'
loop_
_space_group_symop_operation_xyz
x,y,z
-x,y,-z
-x,-y,-z
x,-y,z
loop_
_atom_site_type_symbol
_atom_site_label
_atom_site_fract_x
_atom_site_fract_y
_atom_site_fract_z
Si Si1 0.836633 0.904415 0.968926
Si Si2 0.376915 0.248412 0.915688
Si Si3 0.190523 0.596443 0.429720
Si Si4 0.608068 0.244821 0.592495
Si Si5 0.164945 0.900879 0.360527
Si Si6 0.694249 0.591767 0.927561
O O1 0.858741 0.885445 0.797001
O O2 0.771790 0.000000 0.999595
O O3 0.719688 0.836623 0.074453
O O4 0.000000 0.901777 0.000000
O O5 0.482669 0.273826 0.750793
O O6 0.500000 0.231101 0.000000
O O7 0.262637 0.325179 0.000279
O O8 0.228185 0.500000 0.466501
O O9 0.279573 0.673945 0.475612
O O10 0.246257 0.600611 0.249950
O O11 0.000000 0.607367 0.500000
O O12 0.500000 0.217676 0.500000
O O13 0.711410 0.167509 0.620160
O O14 0.000000 0.891189 0.500000
O O15 0.215441 0.000000 0.359520
O O16 0.749847 0.500000 0.961960
O O17 0.500000 0.590726 0.000000
#
# Coordination Sequence:
#
# PCOD9151067 Si02
#       6
#     4   4   4   4   4   4
#     4  10  22  39  62  88 114 151 198 250 303 354
#     4  11  20  38  60  86 114 155 198 243 298 355
#     4  10  20  37  62  89 118 157 203 250 301 358
#     4  12  25  38  57  90 123 158 200 245 299 356
#     4  10  22  41  61  83 117 158 196 241 301 362
#     4   9  16  32  61  86 111 152 196 237 291 352
#
# _framework density 18.867329000000002
#
# number of rings (size 3 to 8) (size 9 to 14) (size 15 to 20)
#    0.000    1.667    5.000    0.500    2.333    1.667 
#    0.000    0.000    0.000    0.500    0.000    0.000 
#    0.000    0.000    0.000    0.000    0.000    0.000 
#
# Total GULP energy -133828.742798 kJ/mol
# GULP energy per Si atom -5576.197617 kJ/mol
# Density = 1.882439 g / cm^3
# Si number density = 18.867329 Si / 1000 Ang^3
#
#
#
# Elastic Constant Matrix: (Units=GPa)
#
#
# Indices 1 2 3 4 5 6 
#
# 1 60.0978 58.9408 31.3032 0.0000 5.9884 0.0000
# 2 58.9408 133.0046 14.8390 0.0000 9.5169 0.0000
# 3 31.3032 14.8390 53.0839 0.0000 -0.9740 0.0000
# 4 0.0000 0.0000 0.0000 57.2126 0.0000 -6.0609
# 5 5.9884 9.5169 -0.9740 0.0000 33.1495 0.0000
# 6 0.0000 0.0000 0.0000 -6.0609 0.0000 4.0550
#
#
#
# Elastic Compliance Matrix: (Units=1/GPa)
#
#
# Indices 1 2 3 4 5 6 
#
# 1 0.045755 -0.017527 -0.022153 0.000000 -0.003885 0.000000
# 2 -0.017527 0.014652 0.006224 0.000000 -0.000858 0.000000
# 3 -0.022153 0.006224 0.030219 0.000000 0.003103 0.000000
# 4 0.000000 0.000000 0.000000 0.020767 0.000000 0.031040
# 5 -0.003885 -0.000858 0.003103 0.000000 0.031205 0.000000
# 6 0.000000 0.000000 0.000000 0.031040 0.000000 0.293007
#
#
# Mechanical properties :
#
#
# Convention : Reuss Voigt Hill
#
# Bulk Modulus (GPa) = 42.16952 50.70582 46.43767
# Shear Modulus (GPa) = 9.79580 28.29030 19.04305
#
# Velocity S-wave (km/s) = 2.28105 3.87645 3.18042
# Velocity P-wave (km/s) = 5.41633 6.85340 6.17680
#
# Compressibility (1/GPa) = 0.02371381
#
# Stress axis : x y z
#
# Youngs Moduli (GPa) = 21.85556 68.24789 33.09183
#
# Poissons Ratio (x) = 1.19616 0.73309
# Poissons Ratio (y) = 0.38306 -0.20595
# Poissons Ratio (z) = 0.48417 -0.42476
#
# Static dielectric constant tensor:
#      x y z
#    x 1.635770 0.000000 -0.006140 
#    y 0.000000 1.712650 0.000000 
#    z -0.006140 0.000000 1.671480 
# 
# From -- ./inp_files/18755.got.cif
#   From: 2010.05.17/outbox.cif.g08.bks.cpg/sg10_10_cif.got.tgz:18755.got - 2010.06.03 11:33:40.
