data_PCOD9151264
_publ_section_title
;
Structure prediction by ZEFSAII (Michael W. Deem and Ramdas Pophale) SiO2 
 PCOD9151264
Probable space group: P 2/M
;
_chemical_formula_sum "Si O2"
_cell_formula_units_Z 28
_cell_length_a 12.913861
_cell_length_b 8.567716
_cell_length_c 14.879697
_cell_angle_alpha 90.000000
_cell_angle_beta 121.672370
_cell_angle_gamma 90.000000
_cell_volume 1401.127598
_symmetry_space_group_name_H-M "P 2/M"
_symmetry_group_IT_number 10
_symmetry_cell_setting 'monoclinic'
loop_
_space_group_symop_operation_xyz
x,y,z
-x,y,-z
-x,-y,-z
x,-y,z
loop_
_atom_site_type_symbol
_atom_site_label
_atom_site_fract_x
_atom_site_fract_y
_atom_site_fract_z
Si Si1 0.996013 0.311794 0.393490
Si Si2 0.847685 0.186815 0.688990
Si Si3 0.724801 0.686645 0.219855
Si Si4 0.951805 0.190064 0.074538
Si Si5 0.512487 0.812874 0.233129
Si Si6 0.415319 0.313150 0.377958
Si Si7 0.318399 0.188703 0.993613
O O1 0.003342 0.500000 0.390215
O O2 0.106042 0.239758 0.387285
O O3 0.000000 0.269646 0.500000
O O4 0.865229 0.261101 0.293643
O O5 0.720796 0.258257 0.662221
O O6 0.953932 0.238612 0.805985
O O7 0.838305 0.000000 0.688300
O O8 0.723546 0.500000 0.218882
O O9 0.643525 0.747054 0.265043
O O10 0.668629 0.749001 0.101256
O O11 0.814759 0.240146 0.032693
O O12 0.950255 0.000000 0.072893
O O13 0.000000 0.242930 0.000000
O O14 0.464334 0.755939 0.307019
O O15 0.516375 0.000000 0.234808
O O16 0.419175 0.761764 0.111609
O O17 0.500000 0.263804 0.500000
O O18 0.418631 0.500000 0.373167
O O19 0.321081 0.000000 0.990725
#
# Coordination Sequence:
#
# PCOD9151264 Si02
#       7
#     4   4   4   4   4   4   4
#     4  10  23  42  63  88 124 169 209 250 309 374
#     4  11  22  39  66  96 124 156 202 260 308 356
#     4  11  23  39  62  92 128 167 208 255 309 369
#     4   9  17  32  57  87 121 158 195 240 299 361
#     4  11  24  41  65  93 124 163 210 260 308 363
#     4  11  26  46  66  88 123 168 207 249 309 374
#     4  10  20  38  61  89 126 165 205 251 310 370
#
# _framework density 19.983906000000001
#
# number of rings (size 3 to 8) (size 9 to 14) (size 15 to 20)
#    0.000    1.571    1.429    3.000    2.000    7.143 
#    0.000    0.000    0.000    2.143    0.000    0.000 
#    0.000    0.000    0.000    0.000    0.000    0.000 
#
# Total GULP energy -156548.905167 kJ/mol
# GULP energy per Si atom -5591.032327 kJ/mol
# Density = 1.993842 g / cm^3
# Si number density = 19.983906 Si / 1000 Ang^3
#
#
#
# Elastic Constant Matrix: (Units=GPa)
#
#
# Indices 1 2 3 4 5 6 
#
# 1 143.6970 14.6734 26.2912 0.0000 -16.2960 0.0000
# 2 14.6734 20.5483 15.0542 0.0000 -2.2972 0.0000
# 3 26.2912 15.0542 73.1628 0.0000 -17.4264 0.0000
# 4 0.0000 0.0000 0.0000 25.0462 0.0000 -5.4932
# 5 -16.2960 -2.2972 -17.4264 0.0000 37.2066 0.0000
# 6 0.0000 0.0000 0.0000 -5.4932 0.0000 37.5957
#
#
#
# Elastic Compliance Matrix: (Units=1/GPa)
#
#
# Indices 1 2 3 4 5 6 
#
# 1 0.007946 -0.004409 -0.001333 0.000000 0.002584 0.000000
# 2 -0.004409 0.059916 -0.011619 0.000000 -0.003674 0.000000
# 3 -0.001333 -0.011619 0.018266 0.000000 0.007254 0.000000
# 4 0.000000 0.000000 0.000000 0.041248 0.000000 0.006027
# 5 0.002584 -0.003674 0.007254 0.000000 0.031179 0.000000
# 6 0.000000 0.000000 0.000000 0.006027 0.000000 0.027479
#
#
# Mechanical properties :
#
#
# Convention : Reuss Voigt Hill
#
# Bulk Modulus (GPa) = 19.45299 38.82728 29.14013
# Shear Modulus (GPa) = 21.01793 32.06232 26.54013
#
# Velocity S-wave (km/s) = 3.24658 4.00985 3.64823
# Velocity P-wave (km/s) = 4.87946 6.39609 5.68855
#
# Compressibility (1/GPa) = 0.05140599
#
# Stress axis : x y z
#
# Youngs Moduli (GPa) = 125.84658 16.68999 54.74744
#
# Poissons Ratio (x) = 0.07359 0.07297
# Poissons Ratio (y) = 0.55486 0.63612
# Poissons Ratio (z) = 0.16773 0.19392
#
# Static dielectric constant tensor:
#      x y z
#    x 1.681040 0.000000 0.008080 
#    y 0.000000 1.677460 0.000000 
#    z 0.008080 0.000000 1.698600 
# 
# From -- ./inp_files/50031.got.cif
#   From: 2010.05.17/outbox.cif.g08.bks.cpg/sg10_26_cif.got.tgz:50031.got - 2010.06.03 11:33:40.
