data_PCOD9151619
_publ_section_title
;
Structure prediction by ZEFSAII (Michael W. Deem and Ramdas Pophale) SiO2 
 PCOD9151619
Probable space group: P 2/M
;
_chemical_formula_sum "Si O2"
_cell_formula_units_Z 32
_cell_length_a 27.692939
_cell_length_b 13.293023
_cell_length_c 9.977185
_cell_angle_alpha 90.000000
_cell_angle_beta 27.295763
_cell_angle_gamma 90.000000
_cell_volume 1684.300499
_symmetry_space_group_name_H-M "P 2/M"
_symmetry_group_IT_number 10
_symmetry_cell_setting 'monoclinic'
loop_
_space_group_symop_operation_xyz
x,y,z
-x,y,-z
-x,-y,-z
x,-y,z
loop_
_atom_site_type_symbol
_atom_site_label
_atom_site_fract_x
_atom_site_fract_y
_atom_site_fract_z
Si Si1 0.955460 0.616621 0.757929
Si Si2 0.283515 0.110759 0.092612
Si Si3 0.400727 0.384510 0.144227
Si Si4 0.227723 0.765964 0.694167
Si Si5 0.660041 0.119200 0.341655
Si Si6 0.534883 0.258930 0.266360
Si Si7 0.900205 0.392074 0.345553
Si Si8 0.873784 0.820868 0.317828
O O1 0.917824 0.500000 0.861002
O O2 0.000000 0.632896 0.500000
O O3 0.050354 0.625873 0.630563
O O4 0.865070 0.694779 0.019680
O O5 0.177113 0.114207 0.439832
O O6 0.332760 0.000000 0.983355
O O7 0.271667 0.129497 0.963582
O O8 0.363086 0.190780 0.958301
O O9 0.362689 0.500000 0.231515
O O10 0.314346 0.308353 0.416406
O O11 0.500000 0.381814 0.000000
O O12 0.439125 0.344129 0.905409
O O13 0.280318 0.832507 0.679993
O O14 0.177993 0.834596 0.699325
O O15 0.555452 0.184647 0.569099
O O16 0.638212 0.000000 0.415258
O O17 0.500000 0.296488 0.500000
O O18 0.844230 0.500000 0.480722
O O19 0.843283 0.293806 0.434885
O O20 0.000000 0.399479 0.000000
O O21 0.000000 0.828924 0.000000
#
# Coordination Sequence:
#
# PCOD9151619 Si02
#       8
#     4   4   4   4   4   4   4   4
#     4  10  21  36  57  86 118 160 209 253 294 347
#     4  10  22  41  64  89 118 154 198 251 311 361
#     4  11  23  40  60  92 132 164 192 234 303 370
#     4  12  22  38  62  87 124 163 201 245 304 352
#     4  10  23  41  64  91 119 152 201 255 304 363
#     4  10  20  42  69  92 118 153 197 249 302 358
#     4   9  17  33  54  77 110 148 196 247 289 336
#     4  11  22  37  58  87 117 158 203 249 299 350
#
# _framework density 18.998985000000001
#
# number of rings (size 3 to 8) (size 9 to 14) (size 15 to 20)
#    0.000    1.625    5.000    0.750    1.750    3.000 
#    0.000    0.625    0.000    1.875    0.000    0.000 
#    0.000    0.000    0.000    0.000    0.000    0.000 
#
# Total GULP energy -178572.505246 kJ/mol
# GULP energy per Si atom -5580.390789 kJ/mol
# Density = 1.895574 g / cm^3
# Si number density = 18.998985 Si / 1000 Ang^3
#
#
#
# Elastic Constant Matrix: (Units=GPa)
#
#
# Indices 1 2 3 4 5 6 
#
# 1 141.4960 33.9029 39.5179 0.0000 13.4540 0.0000
# 2 33.9029 60.6662 16.6734 0.0000 10.5602 0.0000
# 3 39.5179 16.6734 78.9270 0.0000 11.2112 0.0000
# 4 0.0000 0.0000 0.0000 18.6815 0.0000 7.0536
# 5 13.4540 10.5602 11.2112 0.0000 27.3847 0.0000
# 6 0.0000 0.0000 0.0000 7.0536 0.0000 18.8247
#
#
#
# Elastic Compliance Matrix: (Units=1/GPa)
#
#
# Indices 1 2 3 4 5 6 
#
# 1 0.009126 -0.003859 -0.003534 0.000000 -0.001549 0.000000
# 2 -0.003859 0.019966 -0.001552 0.000000 -0.005168 0.000000
# 3 -0.003534 -0.001552 0.015327 0.000000 -0.003940 0.000000
# 4 0.000000 0.000000 0.000000 0.062350 0.000000 -0.023362
# 5 -0.001549 -0.005168 -0.003940 0.000000 0.040884 0.000000
# 6 0.000000 0.000000 0.000000 -0.023362 0.000000 0.061876
#
#
# Mechanical properties :
#
#
# Convention : Reuss Voigt Hill
#
# Bulk Modulus (GPa) = 37.69361 51.25306 44.47334
# Shear Modulus (GPa) = 21.16296 25.71118 23.43707
#
# Velocity S-wave (km/s) = 3.34113 3.68270 3.51607
# Velocity P-wave (km/s) = 5.89636 6.71702 6.32003
#
# Compressibility (1/GPa) = 0.02652969
#
# Stress axis : x y z
#
# Youngs Moduli (GPa) = 109.57303 50.08404 65.24476
#
# Poissons Ratio (x) = 0.19329 0.23059
# Poissons Ratio (y) = 0.42287 0.10123
# Poissons Ratio (z) = 0.38725 0.07771
#
# Static dielectric constant tensor:
#      x y z
#    x 1.643780 0.000000 0.008240 
#    y 0.000000 1.685660 0.000000 
#    z 0.008240 0.000000 1.648800 
# 
# From -- ./inp_files/36361.got.cif
#   From: 2010.05.17/outbox.cif.g08.bks.cpg/sg10_19_cif.got.tgz:36361.got - 2010.06.03 11:33:40.
