data_PCOD9151674
_publ_section_title
;
Structure prediction by ZEFSAII (Michael W. Deem and Ramdas Pophale) SiO2 
 PCOD9151674
Probable space group: P 2/M
;
_chemical_formula_sum "Si O2"
_cell_formula_units_Z 28
_cell_length_a 14.218707
_cell_length_b 8.613509
_cell_length_c 17.788258
_cell_angle_alpha 90.000000
_cell_angle_beta 43.052987
_cell_angle_gamma 90.000000
_cell_volume 1487.261269
_symmetry_space_group_name_H-M "P 2/M"
_symmetry_group_IT_number 10
_symmetry_cell_setting 'monoclinic'
loop_
_space_group_symop_operation_xyz
x,y,z
-x,y,-z
-x,-y,-z
x,-y,z
loop_
_atom_site_type_symbol
_atom_site_label
_atom_site_fract_x
_atom_site_fract_y
_atom_site_fract_z
Si Si1 0.707813 0.685272 0.577606
Si Si2 0.934769 0.818832 0.240091
Si Si3 0.502789 0.314611 0.828823
Si Si4 0.289626 0.812196 0.176973
Si Si5 0.006335 0.180294 0.613985
Si Si6 0.354475 0.188568 0.551126
Si Si7 0.770370 0.187850 0.960467
O O1 0.702004 0.500000 0.576557
O O2 0.601825 0.739200 0.703333
O O3 0.866410 0.734204 0.498498
O O4 0.663258 0.756019 0.523796
O O5 0.966092 0.814904 0.311676
O O6 0.780538 0.753607 0.324048
O O7 0.927565 0.000000 0.222334
O O8 0.072401 0.754071 0.120792
O O9 0.498902 0.500000 0.831180
O O10 0.577798 0.255135 0.860240
O O11 0.348178 0.250312 0.916549
O O12 0.149762 0.760483 0.301789
O O13 0.293875 0.000000 0.177383
O O14 0.273066 0.768256 0.099494
O O15 0.010448 0.000000 0.589188
O O16 0.500000 0.238501 0.500000
O O17 0.349979 0.000000 0.553955
O O18 0.772220 0.000000 0.962211
#
# Coordination Sequence:
#
# PCOD9151674 Si02
#       7
#     4   4   4   4   4   4   4
#     4  10  21  34  46  66  99 132 158 188 233 286
#     4   7  12  26  48  73  96 115 142 187 236 276
#     4  11  23  33  42  63  97 133 166 201 235 271
#     4   9  18  32  50  71  92 120 163 210 248 278
#     4   8  15  30  50  69  91 120 157 200 240 281
#     4   9  17  32  57  83 100 115 143 188 238 288
#     4   9  17  31  50  68  90 124 164 200 233 274
#
# _framework density 18.826553000000001
#
# number of rings (size 3 to 8) (size 9 to 14) (size 15 to 20)
#    0.000    3.000    0.000    3.857    0.000    6.000 
#    0.000    8.571    0.000    0.857    0.000    6.000 
#    0.000    0.000    0.000    0.000    0.000    0.000 
#
# Total GULP energy -156011.031066 kJ/mol
# GULP energy per Si atom -5571.822538 kJ/mol
# Density = 1.878370 g / cm^3
# Si number density = 18.826553 Si / 1000 Ang^3
#
#
#
# Elastic Constant Matrix: (Units=GPa)
#
#
# Indices 1 2 3 4 5 6 
#
# 1 42.1226 4.5934 31.9396 0.0000 -33.4493 0.0000
# 2 4.5934 7.7834 20.1460 0.0000 -7.3339 0.0000
# 3 31.9396 20.1460 143.1550 0.0000 -44.7473 0.0000
# 4 0.0000 0.0000 0.0000 32.3899 0.0000 -3.9367
# 5 -33.4493 -7.3339 -44.7473 0.0000 36.0543 0.0000
# 6 0.0000 0.0000 0.0000 -3.9367 0.0000 -0.3361
#
#
#
# Elastic Compliance Matrix: (Units=1/GPa)
#
#
# Indices 1 2 3 4 5 6 
#
# 1 0.101646 0.020825 0.008483 0.000000 0.109066 0.000000
# 2 0.020825 0.208365 -0.023987 0.000000 0.031934 0.000000
# 3 0.008483 -0.023987 0.015364 0.000000 0.022058 0.000000
# 4 0.000000 0.000000 0.000000 0.012738 0.000000 -0.149215
# 5 0.109066 0.031934 0.022058 0.000000 0.162795 0.000000
# 6 0.000000 0.000000 0.000000 -0.149215 0.000000 -1.227700
#
#
# Mechanical properties :
#
#
# Convention : Reuss Voigt Hill
#
# Bulk Modulus (GPa) = 2.97605 34.04655 18.51130
# Shear Modulus (GPa) = -7.99453 22.71376 7.35961
#
# Velocity S-wave (km/s) = -2.06292 3.47720 1.97931
# Velocity P-wave (km/s) = 2.02237 5.85191 3.88297
#
# Compressibility (1/GPa) = 0.33601595
#
# Stress axis : x y z
#
# Youngs Moduli (GPa) = 9.83803 4.79926 65.08933
#
# Poissons Ratio (x) = -0.09994 -0.55213
# Poissons Ratio (y) = -0.20488 1.56133
# Poissons Ratio (z) = -0.08345 0.11512
#
# Static dielectric constant tensor:
#      x y z
#    x 1.652780 0.000000 -0.028570 
#    y 0.000000 1.632360 0.000000 
#    z -0.028570 0.000000 1.709570 
# 
# From -- ./inp_files/54729.got.cif
#   From: 2010.05.17/outbox.cif.g08.bks.cpg/sg10_28_cif.got.tgz:54729.got - 2010.06.03 11:33:40.
