data_PCOD9151682
_publ_section_title
;
Structure prediction by ZEFSAII (Michael W. Deem and Ramdas Pophale) SiO2 
 PCOD9151682
Probable space group: P 2/M
;
_chemical_formula_sum "Si O2"
_cell_formula_units_Z 28
_cell_length_a 16.235562
_cell_length_b 7.571158
_cell_length_c 14.371771
_cell_angle_alpha 90.000000
_cell_angle_beta 38.560794
_cell_angle_gamma 90.000000
_cell_volume 1101.205012
_symmetry_space_group_name_H-M "P 2/M"
_symmetry_group_IT_number 10
_symmetry_cell_setting 'monoclinic'
loop_
_space_group_symop_operation_xyz
x,y,z
-x,y,-z
-x,-y,-z
x,-y,z
loop_
_atom_site_type_symbol
_atom_site_label
_atom_site_fract_x
_atom_site_fract_y
_atom_site_fract_z
Si Si1 0.960693 0.214607 0.636856
Si Si2 0.901895 0.787665 0.292496
Si Si3 0.557707 0.696784 0.856693
Si Si4 0.586813 0.710377 0.338312
Si Si5 0.712198 0.208263 0.965799
Si Si6 0.137079 0.793527 0.972109
Si Si7 0.373563 0.712217 0.389606
O O1 0.808745 0.255453 0.795337
O O2 0.000000 0.279133 0.500000
O O3 0.042065 0.276383 0.656168
O O4 0.971975 0.000000 0.626405
O O5 0.747649 0.748813 0.434332
O O6 0.918738 0.000000 0.277023
O O7 0.990114 0.721485 0.126554
O O8 0.605551 0.500000 0.840094
O O9 0.649101 0.781412 0.696317
O O10 0.500000 0.788126 0.000000
O O11 0.420414 0.684050 0.921607
O O12 0.500000 0.779584 0.500000
O O13 0.568917 0.500000 0.351288
O O14 0.743917 0.736926 0.200213
O O15 0.507304 0.782494 0.319065
O O16 0.682454 0.000000 0.986570
O O17 0.793938 0.233768 0.987866
O O18 0.121145 0.000000 0.965976
O O19 0.378325 0.500000 0.374857
#
# Coordination Sequence:
#
# PCOD9151682 Si02
#       7
#     4   4   4   4   4   4   4
#     4   8  15  28  46  70 101 134 173 221 261 296
#     4   9  19  34  54  79 107 142 179 218 266 321
#     4  10  21  34  48  70 106 145 177 216 268 317
#     4  10  21  38  61  85 106 137 182 223 265 323
#     4   9  17  30  50  74  98 132 179 220 256 307
#     4   9  18  35  56  81 110 138 174 219 267 319
#     4  10  21  37  54  77 110 142 176 224 273 318
#
# _framework density 25.426691000000002
#
# number of rings (size 3 to 8) (size 9 to 14) (size 15 to 20)
#    0.000    2.714    1.429    1.714    2.000    2.286 
#    0.000    2.857    0.000    5.143    0.000    0.000 
#    0.000    0.000    0.000    0.000    0.000    0.000 
#
# Total GULP energy -156154.808983 kJ/mol
# GULP energy per Si atom -5576.957464 kJ/mol
# Density = 2.536882 g / cm^3
# Si number density = 25.426691 Si / 1000 Ang^3
#
#
#
# Elastic Constant Matrix: (Units=GPa)
#
#
# Indices 1 2 3 4 5 6 
#
# 1 53.6809 -1.1924 36.4218 0.0000 5.9846 0.0000
# 2 -1.1924 51.6137 2.8967 0.0000 0.2952 0.0000
# 3 36.4218 2.8967 209.2302 0.0000 19.4021 0.0000
# 4 0.0000 0.0000 0.0000 17.3676 0.0000 -1.6165
# 5 5.9846 0.2952 19.4021 0.0000 46.1831 0.0000
# 6 0.0000 0.0000 0.0000 -1.6165 0.0000 2.7750
#
#
#
# Elastic Compliance Matrix: (Units=1/GPa)
#
#
# Indices 1 2 3 4 5 6 
#
# 1 0.021217 0.000699 -0.003587 0.000000 -0.001247 0.000000
# 2 0.000699 0.019413 -0.000385 0.000000 -0.000053 0.000000
# 3 -0.003587 -0.000385 0.005583 0.000000 -0.001878 0.000000
# 4 0.000000 0.000000 0.000000 0.060879 0.000000 0.035464
# 5 -0.001247 -0.000053 -0.001878 0.000000 0.022604 0.000000
# 6 0.000000 0.000000 0.000000 0.035464 0.000000 0.381026
#
#
# Mechanical properties :
#
#
# Convention : Reuss Voigt Hill
#
# Bulk Modulus (GPa) = 25.21133 43.41967 34.31550
# Shear Modulus (GPa) = 9.42521 31.69172 20.55846
#
# Velocity S-wave (km/s) = 1.92740 3.53426 2.84657
# Velocity P-wave (km/s) = 3.85875 5.81104 4.93245
#
# Compressibility (1/GPa) = 0.03966470
#
# Stress axis : x y z
#
# Youngs Moduli (GPa) = 47.13175 51.51250 179.10161
#
# Poissons Ratio (x) = -0.03599 0.64251
# Poissons Ratio (y) = -0.03293 0.06904
# Poissons Ratio (z) = 0.16908 0.01986
#
# Static dielectric constant tensor:
#      x y z
#    x 2.084020 0.000000 0.070130 
#    y 0.000000 1.976430 0.000000 
#    z 0.070130 0.000000 2.115240 
# 
# From -- ./inp_files/79230.got.cif
#   From: 2010.05.17/outbox.cif.g08.bks.cpg/sg10_40_cif.got.tgz:79230.got - 2010.06.03 11:33:40.
