data_PCOD9151629
_publ_section_title
;
Structure prediction by ZEFSAII (Michael W. Deem and Ramdas Pophale) SiO2 
 PCOD9151629
Probable space group: P 2/M
;
_chemical_formula_sum "Si O2"
_cell_formula_units_Z 30
_cell_length_a 26.270355
_cell_length_b 15.251498
_cell_length_c 21.175369
_cell_angle_alpha 90.000000
_cell_angle_beta 12.136421
_cell_angle_gamma 90.000000
_cell_volume 1783.712730
_symmetry_space_group_name_H-M "P 2/M"
_symmetry_group_IT_number 10
_symmetry_cell_setting 'monoclinic'
loop_
_space_group_symop_operation_xyz
x,y,z
-x,y,-z
-x,-y,-z
x,-y,z
loop_
_atom_site_type_symbol
_atom_site_label
_atom_site_fract_x
_atom_site_fract_y
_atom_site_fract_z
Si Si1 0.265476 0.900236 0.970963
Si Si2 0.134104 0.599659 0.269698
Si Si3 0.741182 0.143353 0.471664
Si Si4 0.540408 0.716188 0.800314
Si Si5 0.093470 0.757649 0.532655
Si Si6 0.265773 0.103434 0.820528
Si Si7 0.743633 0.857924 0.787806
Si Si8 0.367749 0.000000 0.289418
O O1 0.524080 0.891905 0.691582
O O2 0.298249 0.888661 0.856606
O O3 0.165257 0.000000 0.104984
O O4 0.092912 0.825630 0.208708
O O5 0.102382 0.500000 0.285982
O O6 0.000000 0.607472 0.500000
O O7 0.029174 0.672320 0.349481
O O8 0.415549 0.624098 0.939042
O O9 0.670473 0.238658 0.583533
O O10 0.746052 0.077181 0.525866
O O11 0.004693 0.143347 0.121203
O O12 0.716795 0.723413 0.645852
O O13 0.317169 0.780756 0.088960
O O14 0.219618 0.813777 0.324276
O O15 0.500000 0.138808 0.500000
O O16 0.247711 0.000000 0.827492
O O17 0.000000 0.897524 0.500000
O O18 0.523736 0.924556 0.061519
#
# Coordination Sequence:
#
# PCOD9151629 Si02
#       8
#     4   4   4   4   4   4   4   2
#     4  11  22  33  57  81 110 156 185 223 271 317
#     4  11  23  40  58  77 107 146 190 235 281 328
#     4  11  19  36  53  76 109 146 185 230 265 321
#     4  11  21  36  54  75 108 143 180 235 275 320
#     4  12  21  36  55  79 110 144 189 230 279 318
#     4  10  21  37  54  79 112 145 186 227 267 324
#     4  11  20  32  48  70 106 147 187 235 270 312
#     4  10  21  30  50  71 104 150 197 229 268 305
#
# _framework density 16.818853000000001
#
# number of rings (size 3 to 8) (size 9 to 14) (size 15 to 20)
#    0.000    1.067    6.667    1.400    0.933    1.067 
#    0.000    6.000    0.000    0.000    0.000    0.000 
#    0.000    3.200    0.000    0.000    0.000    0.000 
#
# Total GULP energy -167021.733293 kJ/mol
# GULP energy per Si atom -5567.391110 kJ/mol
# Density = 1.678057 g / cm^3
# Si number density = 16.818853 Si / 1000 Ang^3
#
#
#
# Elastic Constant Matrix: (Units=GPa)
#
#
# Indices 1 2 3 4 5 6 
#
# 1 43.1291 28.0287 22.0050 0.0000 -9.9233 0.0000
# 2 28.0287 95.6062 33.6280 0.0000 0.6320 0.0000
# 3 22.0050 33.6280 98.0773 0.0000 8.2792 0.0000
# 4 0.0000 0.0000 0.0000 11.8860 0.0000 -4.7312
# 5 -9.9233 0.6320 8.2792 0.0000 28.8530 0.0000
# 6 0.0000 0.0000 0.0000 -4.7312 0.0000 16.8211
#
#
#
# Elastic Compliance Matrix: (Units=1/GPa)
#
#
# Indices 1 2 3 4 5 6 
#
# 1 0.034840 -0.008122 -0.006209 0.000000 0.013942 0.000000
# 2 -0.008122 0.013812 -0.002718 0.000000 -0.002316 0.000000
# 3 -0.006209 -0.002718 0.013011 0.000000 -0.005809 0.000000
# 4 0.000000 0.000000 0.000000 0.094740 0.000000 0.026647
# 5 0.013942 -0.002316 -0.005809 0.000000 0.041171 0.000000
# 6 0.000000 0.000000 0.000000 0.026647 0.000000 0.066944
#
#
# Mechanical properties :
#
#
# Convention : Reuss Voigt Hill
#
# Bulk Modulus (GPa) = 36.27718 44.90399 40.59059
# Shear Modulus (GPa) = 16.24400 21.72208 18.98304
#
# Velocity S-wave (km/s) = 3.11114 3.59769 3.36322
# Velocity P-wave (km/s) = 5.87552 6.63433 6.26642
#
# Compressibility (1/GPa) = 0.02756554
#
# Stress axis : x y z
#
# Youngs Moduli (GPa) = 28.70228 72.40039 76.85584
#
# Poissons Ratio (x) = 0.58806 0.47719
# Poissons Ratio (y) = 0.23313 0.20889
# Poissons Ratio (z) = 0.17821 0.19678
#
# Static dielectric constant tensor:
#      x y z
#    x 1.602260 0.000000 -0.051960 
#    y 0.000000 1.571390 0.000000 
#    z -0.051960 0.000000 1.633300 
# 
# From -- ./inp_files/91504.got.cif
#   From: 2010.05.17/outbox.cif.g08.bks.cpg/sg10_46_cif.got.tgz:91504.got - 2010.06.03 11:33:40.
