data_PCOD9151245
_publ_section_title
;
Structure prediction by ZEFSAII (Michael W. Deem and Ramdas Pophale) SiO2 
 PCOD9151245
Probable space group: P 2/M
;
_chemical_formula_sum "Si O2"
_cell_formula_units_Z 32
_cell_length_a 30.624476
_cell_length_b 12.231865
_cell_length_c 9.261642
_cell_angle_alpha 90.000000
_cell_angle_beta 29.504844
_cell_angle_gamma 90.000000
_cell_volume 1708.649759
_symmetry_space_group_name_H-M "P 2/M"
_symmetry_group_IT_number 10
_symmetry_cell_setting 'monoclinic'
loop_
_space_group_symop_operation_xyz
x,y,z
-x,y,-z
-x,-y,-z
x,-y,z
loop_
_atom_site_type_symbol
_atom_site_label
_atom_site_fract_x
_atom_site_fract_y
_atom_site_fract_z
Si Si1 0.543470 0.193865 0.235576
Si Si2 0.785382 0.236245 0.875020
Si Si3 0.106404 0.873421 0.693904
Si Si4 0.320342 0.374966 0.057367
Si Si5 0.327670 0.118299 0.368561
Si Si6 0.806279 0.705951 0.334004
Si Si7 0.611223 0.125752 0.496478
Si Si8 0.103421 0.372382 0.208550
O O1 0.500000 0.139153 0.500000
O O2 0.461208 0.205798 0.363869
O O3 0.594790 0.301370 0.143678
O O4 0.617029 0.126652 0.937618
O O5 0.849599 0.169113 0.581871
O O6 0.730793 0.320662 0.930386
O O7 0.841700 0.298947 0.835505
O O8 0.709625 0.159289 0.162262
O O9 0.139065 0.790508 0.723805
O O10 0.133719 0.000000 0.640212
O O11 0.000000 0.869868 0.000000
O O12 0.343747 0.500000 0.962167
O O13 0.252053 0.365910 0.388579
O O14 0.260664 0.217274 0.561508
O O15 0.390220 0.129170 0.326691
O O16 0.283185 0.000000 0.507011
O O17 0.860822 0.641781 0.057417
O O18 0.591976 0.000000 0.508603
O O19 0.110187 0.500000 0.231874
O O20 0.000000 0.340966 0.500000
#
# Coordination Sequence:
#
# PCOD9151245 Si02
#       8
#     4   4   4   4   4   4   4   4
#     4  11  22  38  56  89 115 151 192 243 284 337
#     4  11  21  40  60  87 118 156 196 244 294 351
#     4  10  21  37  58  87 122 157 193 239 297 360
#     4  10  22  40  61  83 114 158 200 242 292 346
#     4  10  21  37  59  82 116 155 190 232 285 349
#     4  10  20  38  61  84 118 152 198 243 293 349
#     4  11  22  38  58  84 119 154 189 232 290 351
#     4  11  23  39  62  90 118 152 198 252 304 351
#
# _framework density 18.728238999999999
#
# number of rings (size 3 to 8) (size 9 to 14) (size 15 to 20)
#    0.000    1.500    2.500    3.000    0.000    2.250 
#    0.000    0.000    0.000   10.500    0.000    0.000 
#    0.000    0.000    0.000    0.000    0.000    0.000 
#
# Total GULP energy -178549.908271 kJ/mol
# GULP energy per Si atom -5579.684633 kJ/mol
# Density = 1.868561 g / cm^3
# Si number density = 18.728239 Si / 1000 Ang^3
#
#
#
# Elastic Constant Matrix: (Units=GPa)
#
#
# Indices 1 2 3 4 5 6 
#
# 1 87.2055 39.3937 21.4533 0.0000 -1.2921 0.0000
# 2 39.3937 85.3929 18.7858 0.0000 -8.1465 0.0000
# 3 21.4533 18.7858 80.9420 0.0000 -1.3264 0.0000
# 4 0.0000 0.0000 0.0000 102.9388 0.0000 -14.0292
# 5 -1.2921 -8.1465 -1.3264 0.0000 32.3098 0.0000
# 6 0.0000 0.0000 0.0000 -14.0292 0.0000 19.9930
#
#
#
# Elastic Compliance Matrix: (Units=1/GPa)
#
#
# Indices 1 2 3 4 5 6 
#
# 1 0.014987 -0.006475 -0.002488 0.000000 -0.001135 0.000000
# 2 -0.006475 0.015435 -0.001808 0.000000 0.003559 0.000000
# 3 -0.002488 -0.001808 0.013434 0.000000 -0.000004 0.000000
# 4 0.000000 0.000000 0.000000 0.010742 0.000000 0.007538
# 5 -0.001135 0.003559 -0.000004 0.000000 0.031802 0.000000
# 6 0.000000 0.000000 0.000000 0.007538 0.000000 0.055307
#
#
# Mechanical properties :
#
#
# Convention : Reuss Voigt Hill
#
# Bulk Modulus (GPa) = 44.81516 45.86732 45.34124
# Shear Modulus (GPa) = 29.29355 42.64217 35.96786
#
# Velocity S-wave (km/s) = 3.95921 4.77686 4.38712
# Velocity P-wave (km/s) = 6.69937 7.41408 7.06577
#
# Compressibility (1/GPa) = 0.02231388
#
# Stress axis : x y z
#
# Youngs Moduli (GPa) = 66.72260 64.78865 74.44067
#
# Poissons Ratio (x) = 0.41950 0.18522
# Poissons Ratio (y) = 0.43203 0.13457
# Poissons Ratio (z) = 0.16602 0.11712
#
# Static dielectric constant tensor:
#      x y z
#    x 1.656110 0.000000 0.001620 
#    y 0.000000 1.614800 0.000000 
#    z 0.001620 0.000000 1.650960 
# 
# From -- ./inp_files/38212.got.cif
#   From: 2010.05.17/outbox.cif.g08.bks.cpg/sg10_20_cif.got.tgz:38212.got - 2010.06.03 11:33:40.
