data_PCOD9151632
_publ_section_title
;
Structure prediction by ZEFSAII (Michael W. Deem and Ramdas Pophale) SiO2 
 PCOD9151632
Probable space group: P 2/M
;
_chemical_formula_sum "Si O2"
_cell_formula_units_Z 20
_cell_length_a 12.815618
_cell_length_b 13.187635
_cell_length_c 5.606481
_cell_angle_alpha 90.000000
_cell_angle_beta 113.464121
_cell_angle_gamma 90.000000
_cell_volume 869.186080
_symmetry_space_group_name_H-M "P 2/M"
_symmetry_group_IT_number 10
_symmetry_cell_setting 'monoclinic'
loop_
_space_group_symop_operation_xyz
x,y,z
-x,y,-z
-x,-y,-z
x,-y,z
loop_
_atom_site_type_symbol
_atom_site_label
_atom_site_fract_x
_atom_site_fract_y
_atom_site_fract_z
Si Si1 0.629077 0.877766 0.170779
Si Si2 0.673854 0.377726 0.013544
Si Si3 0.642900 0.617520 0.486210
Si Si4 0.128846 0.322737 0.096702
Si Si5 0.243451 0.879169 0.215578
O O1 0.678545 0.852953 0.480832
O O2 0.629918 0.000000 0.179924
O O3 0.500000 0.849064 0.000000
O O4 0.700882 0.855579 0.993564
O O5 0.666974 0.500000 0.010852
O O6 0.623529 0.336900 0.210893
O O7 0.608153 0.343460 0.714949
O O8 0.805739 0.349898 0.089924
O O9 0.608389 0.500000 0.442809
O O10 0.781358 0.624039 0.642308
O O11 0.141359 0.201609 0.143673
O O12 0.000000 0.355642 0.000000
O O13 0.217641 0.000000 0.199975
#
# Coordination Sequence:
#
# PCOD9151632 Si02
#       5
#     4   4   4   4   4
#     4   9  18  36  59  77  94 119 157 215 275 302
#     4   8  16  30  46  65  91 127 171 214 249 276
#     4   8  16  30  46  65  91 127 171 214 249 276
#     4  10  21  32  47  69 106 146 173 195 232 285
#     4  10  21  34  51  77 104 132 167 201 238 297
#
# _framework density 23.010031000000001
#
# number of rings (size 3 to 8) (size 9 to 14) (size 15 to 20)
#    1.200    1.800    0.000    0.600    2.800    5.200 
#    0.000    2.000    0.000    3.600    0.000    0.000 
#    0.000   19.200    0.000    0.000    0.000    0.000 
#
# Total GULP energy -111354.071573 kJ/mol
# GULP energy per Si atom -5567.703579 kJ/mol
# Density = 2.295766 g / cm^3
# Si number density = 23.010031 Si / 1000 Ang^3
#
#
#
# Elastic Constant Matrix: (Units=GPa)
#
#
# Indices 1 2 3 4 5 6 
#
# 1 93.2629 12.4254 41.8492 0.0000 2.7372 0.0000
# 2 12.4254 80.7237 13.1992 0.0000 -6.5681 0.0000
# 3 41.8492 13.1992 194.1019 0.0000 -36.7454 0.0000
# 4 0.0000 0.0000 0.0000 26.4157 0.0000 -8.9634
# 5 2.7372 -6.5681 -36.7454 0.0000 26.1622 0.0000
# 6 0.0000 0.0000 0.0000 -8.9634 0.0000 17.6703
#
#
#
# Elastic Compliance Matrix: (Units=1/GPa)
#
#
# Indices 1 2 3 4 5 6 
#
# 1 0.013064 -0.001958 -0.004135 0.000000 -0.007665 0.000000
# 2 -0.001958 0.012958 0.000267 0.000000 0.003832 0.000000
# 3 -0.004135 0.000267 0.008336 0.000000 0.012208 0.000000
# 4 0.000000 0.000000 0.000000 0.045727 0.000000 0.023195
# 5 -0.007665 0.003832 0.012208 0.000000 0.057134 0.000000
# 6 0.000000 0.000000 0.000000 0.023195 0.000000 0.068358
#
#
# Mechanical properties :
#
#
# Convention : Reuss Voigt Hill
#
# Bulk Modulus (GPa) = 44.04361 55.89289 49.96825
# Shear Modulus (GPa) = 22.24231 34.09065 28.16648
#
# Velocity S-wave (km/s) = 3.11245 3.85327 3.50250
# Velocity P-wave (km/s) = 5.66560 6.64382 6.17412
#
# Compressibility (1/GPa) = 0.02270477
#
# Stress axis : x y z
#
# Youngs Moduli (GPa) = 76.54901 77.17469 119.95704
#
# Poissons Ratio (x) = 0.15114 0.49596
# Poissons Ratio (y) = 0.14992 -0.03199
# Poissons Ratio (z) = 0.31649 -0.02058
#
# Static dielectric constant tensor:
#      x y z
#    x 1.843290 0.000000 -0.037760 
#    y 0.000000 1.908420 0.000000 
#    z -0.037760 0.000000 1.938230 
# 
# From -- ./inp_files/8784.got.cif
#   From: 2010.05.17/outbox.cif.g08.bks.cpg/sg10_5_cif.got.tgz:8784.got - 2010.06.03 11:33:40.
