data_PCOD9151400
_publ_section_title
;
Structure prediction by ZEFSAII (Michael W. Deem and Ramdas Pophale) SiO2 
 PCOD9151400
Probable space group: P 2/M
;
_chemical_formula_sum "Si O2"
_cell_formula_units_Z 24
_cell_length_a 9.067216
_cell_length_b 19.156815
_cell_length_c 9.212532
_cell_angle_alpha 90.000000
_cell_angle_beta 128.109034
_cell_angle_gamma 90.000000
_cell_volume 1259.103551
_symmetry_space_group_name_H-M "P 2/M"
_symmetry_group_IT_number 10
_symmetry_cell_setting 'monoclinic'
loop_
_space_group_symop_operation_xyz
x,y,z
-x,y,-z
-x,-y,-z
x,-y,z
loop_
_atom_site_type_symbol
_atom_site_label
_atom_site_fract_x
_atom_site_fract_y
_atom_site_fract_z
Si Si1 0.693152 0.579469 0.526892
Si Si2 0.074437 0.827506 0.884846
Si Si3 0.303209 0.417608 0.819642
Si Si4 0.012096 0.669679 0.832058
Si Si5 0.161541 0.919389 0.474646
Si Si6 0.556359 0.921057 0.866522
O O1 0.500000 0.579295 0.500000
O O2 0.772788 0.500000 0.598342
O O3 0.690155 0.589517 0.350807
O O4 0.809766 0.644254 0.657521
O O5 0.076319 0.747961 0.831057
O O6 0.924151 0.871190 0.701111
O O7 0.272079 0.867304 0.022443
O O8 0.000000 0.821525 0.000000
O O9 0.286562 0.500000 0.838456
O O10 0.146291 0.380008 0.819092
O O11 0.500000 0.391569 0.000000
O O12 0.000000 0.661205 0.000000
O O13 0.367519 0.900474 0.663010
O O14 0.000000 0.916944 0.500000
O O15 0.174673 0.000000 0.434019
O O16 0.613044 0.000000 0.852071
O O17 0.500000 0.927188 0.000000
#
# Coordination Sequence:
#
# PCOD9151400 Si02
#       6
#     4   4   4   4   4   4
#     4  10  21  40  66  94 123 158 203 257 311 366
#     4  11  25  42  57  90 131 165 202 255 314 369
#     4  10  21  39  64  92 119 156 207 255 304 367
#     4  11  24  41  57  86 126 169 206 251 311 366
#     4  10  20  38  66  94 118 157 210 256 307 371
#     4  10  20  39  67  92 119 159 208 260 309 367
#
# _framework density 19.061181999999999
#
# number of rings (size 3 to 8) (size 9 to 14) (size 15 to 20)
#    0.000    1.667    1.667    2.500    0.000    8.000 
#    9.000    1.667    0.000    0.000    0.000    0.000 
#    0.000    0.000    0.000    0.000    0.000    0.000 
#
# Total GULP energy -133706.062138 kJ/mol
# GULP energy per Si atom -5571.085922 kJ/mol
# Density = 1.901780 g / cm^3
# Si number density = 19.061182 Si / 1000 Ang^3
#
#
#
# Elastic Constant Matrix: (Units=GPa)
#
#
# Indices 1 2 3 4 5 6 
#
# 1 74.5891 44.0144 20.3148 0.0000 12.5129 0.0000
# 2 44.0144 81.0345 46.7669 0.0000 15.2880 0.0000
# 3 20.3148 46.7669 98.9025 0.0000 16.4243 0.0000
# 4 0.0000 0.0000 0.0000 -55.0818 0.0000 214.2302
# 5 12.5129 15.2880 16.4243 0.0000 35.4931 0.0000
# 6 0.0000 0.0000 0.0000 214.2302 0.0000 -425.9222
#
#
#
# Elastic Compliance Matrix: (Units=1/GPa)
#
#
# Indices 1 2 3 4 5 6 
#
# 1 0.020156 -0.011386 0.001744 0.000000 -0.003008 0.000000
# 2 -0.011386 0.023917 -0.008586 0.000000 -0.002314 0.000000
# 3 0.001744 -0.008586 0.014408 0.000000 -0.003584 0.000000
# 4 0.000000 0.000000 0.000000 0.018986 0.000000 0.009549
# 5 -0.003008 -0.002314 -0.003584 0.000000 0.031890 0.000000
# 6 0.000000 0.000000 0.000000 0.009549 0.000000 0.002455
#
#
# Mechanical properties :
#
#
# Convention : Reuss Voigt Hill
#
# Bulk Modulus (GPa) = 45.40776 52.96868 49.18822
# Shear Modulus (GPa) = 32.13155 -79.54018 -23.70432
#
# Velocity S-wave (km/s) = 4.11019 -6.46680 -3.53028
# Velocity P-wave (km/s) = 6.81166 5.28301 3.04044
#
# Compressibility (1/GPa) = 0.02202267
#
# Stress axis : x y z
#
# Youngs Moduli (GPa) = 49.61408 41.81128 69.40588
#
# Poissons Ratio (x) = 0.47608 -0.12103
# Poissons Ratio (y) = 0.56493 0.59594
# Poissons Ratio (z) = -0.08651 0.35900
#
# Static dielectric constant tensor:
#      x y z
#    x 1.965350 0.000000 0.001070 
#    y 0.000000 1.692000 0.000000 
#    z 0.001070 0.000000 1.677960 
# 
# From -- ./inp_files/20274.got.cif
#   From: 2010.05.17/outbox.cif.g08.bks.cpg/sg10_11_cif.got.tgz:20274.got - 2010.06.03 11:33:40.
