data_PCOD9151807
_publ_section_title
;
Structure prediction by ZEFSAII (Michael W. Deem and Ramdas Pophale) SiO2 
 PCOD9151807
Probable space group: P 2/M
;
_chemical_formula_sum "Si O2"
_cell_formula_units_Z 32
_cell_length_a 14.793965
_cell_length_b 8.983285
_cell_length_c 12.728532
_cell_angle_alpha 90.000000
_cell_angle_beta 89.894343
_cell_angle_gamma 90.000000
_cell_volume 1691.598710
_symmetry_space_group_name_H-M "P 2/M"
_symmetry_group_IT_number 10
_symmetry_cell_setting 'monoclinic'
loop_
_space_group_symop_operation_xyz
x,y,z
-x,y,-z
-x,-y,-z
x,-y,z
loop_
_atom_site_type_symbol
_atom_site_label
_atom_site_fract_x
_atom_site_fract_y
_atom_site_fract_z
Si Si1 0.273432 0.172528 0.955366
Si Si2 0.782083 0.178042 0.816132
Si Si3 0.294571 0.177128 0.623399
Si Si4 0.445015 0.667125 0.893086
Si Si5 0.674002 0.822000 0.610867
Si Si6 0.971481 0.679392 0.881327
Si Si7 0.510625 0.326003 0.336228
Si Si8 0.842047 0.323610 0.212566
O O1 0.367741 0.210490 0.900626
O O2 0.201641 0.276916 0.898515
O O3 0.248967 0.000000 0.940750
O O4 0.277703 0.203950 0.079220
O O5 0.732004 0.231020 0.710885
O O6 0.878265 0.250844 0.842070
O O7 0.794641 0.000000 0.806180
O O8 0.277022 0.205535 0.500005
O O9 0.392450 0.250090 0.645280
O O10 0.217316 0.243390 0.698455
O O11 0.300687 0.000000 0.640282
O O12 0.403612 0.500000 0.884046
O O13 0.504325 0.687291 0.789487
O O14 0.500000 0.672222 0.000000
O O15 0.574881 0.748848 0.608804
O O16 0.661219 0.000000 0.621382
O O17 0.962963 0.500000 0.884444
O O18 0.052955 0.717450 0.801101
O O19 0.000000 0.727349 0.000000
O O20 0.516070 0.500000 0.363703
O O21 0.834937 0.500000 0.227514
#
# Coordination Sequence:
#
# PCOD9151807 Si02
#       8
#     4   4   4   4   4   4   4   4
#     4  11  21  33  55  85 115 150 189 234 288 342
#     4  10  22  39  60  88 120 153 194 242 289 345
#     4  11  23  40  62  85 115 157 201 244 290 342
#     4  10  21  35  51  77 116 158 193 232 286 344
#     4  10  23  42  60  83 118 158 198 243 293 341
#     4  10  21  38  61  89 119 153 190 233 292 354
#     4  11  22  36  58  87 117 154 200 245 287 341
#     4  11  22  38  60  86 117 149 187 238 291 346
#
# _framework density 18.917016
#
# number of rings (size 3 to 8) (size 9 to 14) (size 15 to 20)
#    0.000    1.500    2.500    2.625    0.000    5.500 
#    0.000    0.625    0.000    3.750    0.000    0.000 
#    0.000    0.000    0.000    0.000    0.000    0.000 
#
# Total GULP energy -178681.159925 kJ/mol
# GULP energy per Si atom -5583.786248 kJ/mol
# Density = 1.887396 g / cm^3
# Si number density = 18.917016 Si / 1000 Ang^3
#
#
#
# Elastic Constant Matrix: (Units=GPa)
#
#
# Indices 1 2 3 4 5 6 
#
# 1 86.8494 32.2407 36.7294 0.0000 -15.1950 0.0000
# 2 32.2407 42.6165 36.6452 0.0000 -11.2414 0.0000
# 3 36.7294 36.6452 110.5826 0.0000 -13.8651 0.0000
# 4 0.0000 0.0000 0.0000 22.6008 0.0000 -4.9103
# 5 -15.1950 -11.2414 -13.8651 0.0000 23.8624 0.0000
# 6 0.0000 0.0000 0.0000 -4.9103 0.0000 32.8750
#
#
#
# Elastic Compliance Matrix: (Units=1/GPa)
#
#
# Indices 1 2 3 4 5 6 
#
# 1 0.016788 -0.009956 -0.001644 0.000000 0.005045 0.000000
# 2 -0.009956 0.041022 -0.009339 0.000000 0.007559 0.000000
# 3 -0.001644 -0.009339 0.012944 0.000000 0.002074 0.000000
# 4 0.000000 0.000000 0.000000 0.045730 0.000000 0.006830
# 5 0.005045 0.007559 0.002074 0.000000 0.049885 0.000000
# 6 0.000000 0.000000 0.000000 0.006830 0.000000 0.031439
#
#
# Mechanical properties :
#
#
# Convention : Reuss Voigt Hill
#
# Bulk Modulus (GPa) = 34.63265 50.14215 42.38740
# Shear Modulus (GPa) = 20.05513 24.82983 22.44248
#
# Velocity S-wave (km/s) = 3.25955 3.62687 3.44810
# Velocity P-wave (km/s) = 5.70207 6.64099 6.18936
#
# Compressibility (1/GPa) = 0.02887449
#
# Stress axis : x y z
#
# Youngs Moduli (GPa) = 59.56578 24.37727 77.25510
#
# Poissons Ratio (x) = 0.24271 0.12703
# Poissons Ratio (y) = 0.59305 0.72151
# Poissons Ratio (z) = 0.09794 0.22767
#
# Static dielectric constant tensor:
#      x y z
#    x 1.638300 0.000000 0.001690 
#    y 0.000000 1.647630 0.000000 
#    z 0.001690 0.000000 1.683760 
# 
# From -- ./inp_files/49811.got.cif
#   From: 2010.05.17/outbox.cif.g08.bks.cpg/sg10_25_cif.got.tgz:49811.got - 2010.06.03 11:33:40.
