data_PCOD9151322
_publ_section_title
;
Structure prediction by ZEFSAII (Michael W. Deem and Ramdas Pophale) SiO2 
 PCOD9151322
Probable space group: P 2/M
;
_chemical_formula_sum "Si O2"
_cell_formula_units_Z 20
_cell_length_a 9.143495
_cell_length_b 17.032910
_cell_length_c 8.115600
_cell_angle_alpha 90.000000
_cell_angle_beta 132.383496
_cell_angle_gamma 90.000000
_cell_volume 933.598510
_symmetry_space_group_name_H-M "P 2/M"
_symmetry_group_IT_number 10
_symmetry_cell_setting 'monoclinic'
loop_
_space_group_symop_operation_xyz
x,y,z
-x,y,-z
-x,-y,-z
x,-y,z
loop_
_atom_site_type_symbol
_atom_site_label
_atom_site_fract_x
_atom_site_fract_y
_atom_site_fract_z
Si Si1 0.604369 0.381229 0.258664
Si Si2 0.898484 0.500000 0.637345
Si Si3 0.707495 0.500000 0.855357
Si Si4 0.941933 0.089715 0.648773
Si Si5 0.616691 0.780515 0.432938
Si Si6 0.614097 0.915257 0.910855
O O1 0.805668 0.427817 0.461506
O O2 0.434379 0.424465 0.236668
O O3 0.648348 0.291099 0.333428
O O4 0.500000 0.388127 0.000000
O O5 0.802481 0.500000 0.747311
O O6 0.129575 0.500000 0.870623
O O7 0.806124 0.162428 0.600949
O O8 0.000000 0.098707 0.500000
O O9 0.861245 0.000000 0.607315
O O10 0.152367 0.091075 0.895896
O O11 0.500000 0.746201 0.500000
O O12 0.463269 0.842430 0.244845
O O13 0.569984 0.000000 0.800966
O O14 0.500000 0.914281 0.000000
#
# Coordination Sequence:
#
# PCOD9151322 Si02
#       6
#     4   2   2   4   4   4
#     4  11  24  41  64  93 128 167 213 259 307 376
#     4  10  21  42  69  97 128 164 201 257 316 375
#     4  10  21  42  71  95 126 164 205 251 318 380
#     4  10  21  39  65  91 120 165 217 263 316 382
#     4  12  25  40  60  92 132 168 209 265 326 375
#     4  10  20  38  63  88 119 163 213 262 319 382
#
# _framework density 21.422485000000002
#
# number of rings (size 3 to 8) (size 9 to 14) (size 15 to 20)
#    0.000    1.400    2.000    4.800    0.000    5.600 
#    0.000    2.000    0.000    0.000    0.000    0.000 
#    0.000    0.000    0.000    0.000    0.000    0.000 
#
# Total GULP energy -111532.987535 kJ/mol
# GULP energy per Si atom -5576.649377 kJ/mol
# Density = 2.137373 g / cm^3
# Si number density = 21.422485 Si / 1000 Ang^3
#
#
#
# Elastic Constant Matrix: (Units=GPa)
#
#
# Indices 1 2 3 4 5 6 
#
# 1 65.4919 17.1235 22.5062 0.0000 15.3993 0.0000
# 2 17.1235 132.6100 59.3546 0.0000 17.9175 0.0000
# 3 22.5062 59.3546 133.9635 0.0000 34.3065 0.0000
# 4 0.0000 0.0000 0.0000 -0.2715 0.0000 -5.3929
# 5 15.3993 17.9175 34.3065 0.0000 45.2993 0.0000
# 6 0.0000 0.0000 0.0000 -5.3929 0.0000 12.0463
#
#
#
# Elastic Compliance Matrix: (Units=1/GPa)
#
#
# Indices 1 2 3 4 5 6 
#
# 1 0.017013 -0.001032 -0.001271 0.000000 -0.004413 0.000000
# 2 -0.001032 0.009487 -0.003919 0.000000 -0.000434 0.000000
# 3 -0.001271 -0.003919 0.011050 0.000000 -0.006386 0.000000
# 4 0.000000 0.000000 0.000000 -0.372340 0.000000 -0.166687
# 5 -0.004413 -0.000434 -0.006386 0.000000 0.028584 0.000000
# 6 0.000000 0.000000 0.000000 -0.166687 0.000000 0.008391
#
#
# Mechanical properties :
#
#
# Convention : Reuss Voigt Hill
#
# Bulk Modulus (GPa) = 39.82982 58.89265 49.36123
# Shear Modulus (GPa) = -18.05035 26.95357 4.45161
#
# Velocity S-wave (km/s) = -2.90589 3.55095 1.44309
# Velocity P-wave (km/s) = 2.71551 6.66056 5.08611
#
# Compressibility (1/GPa) = 0.02510682
#
# Stress axis : x y z
#
# Youngs Moduli (GPa) = 58.77781 105.40999 90.49725
#
# Poissons Ratio (x) = 0.10875 0.11503
# Poissons Ratio (y) = 0.06064 0.35465
# Poissons Ratio (z) = 0.07471 0.41309
#
# Static dielectric constant tensor:
#      x y z
#    x 1.770500 0.000000 -0.019530 
#    y 0.000000 1.713050 0.000000 
#    z -0.019530 0.000000 1.903310 
# 
# From -- ./inp_files/19752.got.cif
#   From: 2010.05.17/outbox.cif.g08.bks.cpg/sg10_10_cif.got.tgz:19752.got - 2010.06.03 11:33:40.
