data_PCOD9151086
_publ_section_title
;
Structure prediction by ZEFSAII (Michael W. Deem and Ramdas Pophale) SiO2 
 PCOD9151086
Probable space group: P 2/M
;
_chemical_formula_sum "Si O2"
_cell_formula_units_Z 32
_cell_length_a 12.563731
_cell_length_b 17.603189
_cell_length_c 8.836246
_cell_angle_alpha 90.000000
_cell_angle_beta 49.789984
_cell_angle_gamma 90.000000
_cell_volume 1492.419814
_symmetry_space_group_name_H-M "P 2/M"
_symmetry_group_IT_number 10
_symmetry_cell_setting 'monoclinic'
loop_
_space_group_symop_operation_xyz
x,y,z
-x,y,-z
-x,-y,-z
x,-y,z
loop_
_atom_site_type_symbol
_atom_site_label
_atom_site_fract_x
_atom_site_fract_y
_atom_site_fract_z
Si Si1 0.635964 0.815020 0.085425
Si Si2 0.972439 0.588347 0.853262
Si Si3 0.437171 0.589044 0.397150
Si Si4 0.196270 0.337668 0.450380
Si Si5 0.316013 0.827290 0.307928
Si Si6 0.059512 0.084837 0.612076
Si Si7 0.304803 0.637714 0.019823
Si Si8 0.140128 0.090466 0.975246
O O1 0.466570 0.816381 0.246718
O O2 0.663655 0.846741 0.888613
O O3 0.684422 0.727240 0.030773
O O4 0.715864 0.861451 0.144776
O O5 0.016482 0.500000 0.798976
O O6 0.047179 0.636917 0.651763
O O7 0.808537 0.596178 0.978143
O O8 0.000000 0.614162 0.000000
O O9 0.500000 0.613817 0.500000
O O10 0.407033 0.500000 0.434148
O O11 0.298610 0.633845 0.487376
O O12 0.545645 0.604598 0.161942
O O13 0.223128 0.248812 0.404000
O O14 0.252019 0.372208 0.240730
O O15 0.216156 0.887768 0.477681
O O16 0.000000 0.081902 0.500000
O O17 0.936537 0.127603 0.808694
O O18 0.058052 0.000000 0.677172
O O19 0.178222 0.000000 0.943056
O O20 0.000000 0.097364 0.000000
#
# Coordination Sequence:
#
# PCOD9151086 Si02
#       8
#     4   4   4   4   4   4   4   4
#     4  10  21  39  61  91 127 164 205 257 314 370
#     4  11  25  43  62  89 124 161 207 262 319 382
#     4  11  23  41  63  87 122 165 206 253 311 375
#     4  11  23  40  62  91 124 161 207 261 314 373
#     4  10  21  38  62  92 127 160 206 263 310 365
#     4  10  20  37  62  93 123 161 212 257 304 366
#     4  11  23  40  62  91 124 160 208 264 313 374
#     4  10  22  41  63  91 129 168 209 257 312 375
#
# _framework density 21.441689
#
# number of rings (size 3 to 8) (size 9 to 14) (size 15 to 20)
#    0.000    1.500    2.500    2.250    1.750    6.000 
#    2.250    1.875    0.000    2.250    0.000    0.000 
#    0.000    0.000    0.000    0.000    0.000    0.000 
#
# Total GULP energy -178274.692961 kJ/mol
# GULP energy per Si atom -5571.084155 kJ/mol
# Density = 2.139289 g / cm^3
# Si number density = 21.441689 Si / 1000 Ang^3
#
#
#
# Elastic Constant Matrix: (Units=GPa)
#
#
# Indices 1 2 3 4 5 6 
#
# 1 76.1392 16.4266 1.6835 0.0000 -1.0934 0.0000
# 2 16.4266 23.2366 -0.1051 0.0000 -0.8934 0.0000
# 3 1.6835 -0.1051 50.3037 0.0000 -12.7130 0.0000
# 4 0.0000 0.0000 0.0000 117.6897 0.0000 49.6622
# 5 -1.0934 -0.8934 -12.7130 0.0000 35.7696 0.0000
# 6 0.0000 0.0000 0.0000 49.6622 0.0000 55.1555
#
#
#
# Elastic Compliance Matrix: (Units=1/GPa)
#
#
# Indices 1 2 3 4 5 6 
#
# 1 0.015512 -0.010968 -0.000540 0.000000 0.000008 0.000000
# 2 -0.010968 0.050839 0.000779 0.000000 0.001212 0.000000
# 3 -0.000540 0.000779 0.021864 0.000000 0.007774 0.000000
# 4 0.000000 0.000000 0.000000 0.013704 0.000000 -0.012339
# 5 0.000008 0.001212 0.007774 0.000000 0.030750 0.000000
# 6 0.000000 0.000000 0.000000 -0.012339 0.000000 0.029240
#
#
# Mechanical properties :
#
#
# Convention : Reuss Voigt Hill
#
# Bulk Modulus (GPa) = 14.97954 20.63218 17.80586
# Shear Modulus (GPa) = 24.31685 50.50125 37.40905
#
# Velocity S-wave (km/s) = 3.37128 4.85839 4.18148
# Velocity P-wave (km/s) = 4.70695 6.41212 5.62453
#
# Compressibility (1/GPa) = 0.06675774
#
# Stress axis : x y z
#
# Youngs Moduli (GPa) = 64.46543 19.66986 45.73831
#
# Poissons Ratio (x) = 0.21574 0.02470
# Poissons Ratio (y) = 0.70706 -0.03565
# Poissons Ratio (z) = 0.03481 -0.01533
#
# Static dielectric constant tensor:
#      x y z
#    x 1.980860 0.000000 0.092620 
#    y 0.000000 1.779240 0.000000 
#    z 0.092620 0.000000 1.870460 
# 
# From -- ./inp_files/26052.got.cif
#   From: 2010.05.17/outbox.cif.g08.bks.cpg/sg10_14_cif.got.tgz:26052.got - 2010.06.03 11:33:40.
