data_PCOD9151775
_publ_section_title
;
Structure prediction by ZEFSAII (Michael W. Deem and Ramdas Pophale) SiO2 
 PCOD9151775
Probable space group: P 2/M
;
_chemical_formula_sum "Si O2"
_cell_formula_units_Z 20
_cell_length_a 9.729490
_cell_length_b 7.465749
_cell_length_c 27.859840
_cell_angle_alpha 90.000000
_cell_angle_beta 151.524698
_cell_angle_gamma 90.000000
_cell_volume 964.850463
_symmetry_space_group_name_H-M "P 2/M"
_symmetry_group_IT_number 10
_symmetry_cell_setting 'monoclinic'
loop_
_space_group_symop_operation_xyz
x,y,z
-x,y,-z
-x,-y,-z
x,-y,z
loop_
_atom_site_type_symbol
_atom_site_label
_atom_site_fract_x
_atom_site_fract_y
_atom_site_fract_z
Si Si1 0.811405 0.709313 0.080634
Si Si2 0.700295 0.219205 0.318744
Si Si3 0.639849 0.216324 0.691320
Si Si4 0.357514 0.219071 0.505987
Si Si5 0.164291 0.794357 0.095732
O O1 0.776371 0.500000 0.058313
O O2 0.043246 0.727248 0.194466
O O3 0.955600 0.794274 0.077909
O O4 0.500000 0.781744 0.000000
O O5 0.580512 0.273442 0.334204
O O6 0.465960 0.282633 0.207693
O O7 0.025328 0.275528 0.408865
O O8 0.695479 0.000000 0.316843
O O9 0.535950 0.277527 0.607490
O O10 0.638082 0.000000 0.690519
O O11 0.500000 0.276784 0.500000
O O12 0.357807 0.000000 0.506290
O O13 0.230146 0.000000 0.102330
O O14 0.000000 0.711515 0.000000
#
# Coordination Sequence:
#
# PCOD9151775 Si02
#       5
#     4   4   4   4   4
#     4  10  21  35  50  70  98 132 166 200 243 294
#     4   8  14  26  43  65  95 126 153 185 231 285
#     4   9  17  30  49  69  91 124 162 199 238 282
#     4   9  16  25  42  71  99 121 151 194 243 288
#     4   9  18  32  52  77 101 127 162 204 245 285
#
# _framework density 20.728603
#
# number of rings (size 3 to 8) (size 9 to 14) (size 15 to 20)
#    0.000    3.000    0.000    2.400    0.000    6.000 
#    0.000    4.000    0.000   10.200    0.000    0.000 
#    0.000    0.000    0.000    0.000    0.000    0.000 
#
# Total GULP energy -111597.902993 kJ/mol
# GULP energy per Si atom -5579.895150 kJ/mol
# Density = 2.068142 g / cm^3
# Si number density = 20.728603 Si / 1000 Ang^3
#
#
#
# Elastic Constant Matrix: (Units=GPa)
#
#
# Indices 1 2 3 4 5 6 
#
# 1 116.6952 -5.2440 125.1596 0.0000 -6.4640 0.0000
# 2 -5.2440 59.9943 -7.4411 0.0000 -2.6211 0.0000
# 3 125.1596 -7.4411 194.8879 0.0000 -5.6113 0.0000
# 4 0.0000 0.0000 0.0000 218.1124 0.0000 -248.6214
# 5 -6.4640 -2.6211 -5.6113 0.0000 46.1726 0.0000
# 6 0.0000 0.0000 0.0000 -248.6214 0.0000 562.4466
#
#
#
# Elastic Compliance Matrix: (Units=1/GPa)
#
#
# Indices 1 2 3 4 5 6 
#
# 1 0.027677 0.000298 -0.017713 0.000000 0.001739 0.000000
# 2 0.000298 0.016800 0.000480 0.000000 0.001054 0.000000
# 3 -0.017713 0.000480 0.016512 0.000000 -0.000446 0.000000
# 4 0.000000 0.000000 0.000000 0.009241 0.000000 0.004085
# 5 0.001739 0.001054 -0.000446 0.000000 0.021907 0.000000
# 6 0.000000 0.000000 0.000000 0.004085 0.000000 0.003584
#
#
# Mechanical properties :
#
#
# Convention : Reuss Voigt Hill
#
# Bulk Modulus (GPa) = 36.87324 66.28072 51.57698
# Shear Modulus (GPa) = 36.06736 182.61983 109.34360
#
# Velocity S-wave (km/s) = 4.17583 9.39636 7.27081
# Velocity P-wave (km/s) = 6.40916 12.23794 9.76843
#
# Compressibility (1/GPa) = 0.02711994
#
# Stress axis : x y z
#
# Youngs Moduli (GPa) = 36.13131 59.52408 60.56144
#
# Poissons Ratio (x) = -0.01775 1.07272
# Poissons Ratio (y) = -0.01077 -0.02909
# Poissons Ratio (z) = 0.63999 -0.02859
#
# Static dielectric constant tensor:
#      x y z
#    x 1.693700 0.000000 -0.008970 
#    y 0.000000 1.776400 0.000000 
#    z -0.008970 0.000000 1.731130 
# 
# From -- ./inp_files/23088.got.cif
#   From: 2010.05.17/outbox.cif.g08.bks.cpg/sg10_12_cif.got.tgz:23088.got - 2010.06.03 11:33:40.
