data_PCOD9151960
_publ_section_title
;
Structure prediction by ZEFSAII (Michael W. Deem and Ramdas Pophale) SiO2 
 PCOD9151960
Probable space group: P 2/M
;
_chemical_formula_sum "Si O2"
_cell_formula_units_Z 32
_cell_length_a 11.759882
_cell_length_b 15.025906
_cell_length_c 16.085696
_cell_angle_alpha 90.000000
_cell_angle_beta 36.532432
_cell_angle_gamma 90.000000
_cell_volume 1692.010718
_symmetry_space_group_name_H-M "P 2/M"
_symmetry_group_IT_number 10
_symmetry_cell_setting 'monoclinic'
loop_
_space_group_symop_operation_xyz
x,y,z
-x,y,-z
-x,-y,-z
x,-y,z
loop_
_atom_site_type_symbol
_atom_site_label
_atom_site_fract_x
_atom_site_fract_y
_atom_site_fract_z
Si Si1 0.947104 0.597878 0.126962
Si Si2 0.255968 0.399871 0.504006
Si Si3 0.318590 0.599804 0.019967
Si Si4 0.598254 0.284353 0.352944
Si Si5 0.468935 0.098634 0.415278
Si Si6 0.043485 0.896604 0.575688
Si Si7 0.899333 0.281584 0.728536
Si Si8 0.264337 0.596867 0.303235
O O1 0.857787 0.500000 0.194169
O O2 0.807572 0.676632 0.233517
O O3 0.144221 0.601495 0.059409
O O4 0.000000 0.604753 0.000000
O O5 0.239889 0.500000 0.548170
O O6 0.464918 0.358184 0.389631
O O7 0.233327 0.404494 0.418712
O O8 0.097344 0.332987 0.634040
O O9 0.317045 0.500000 0.060050
O O10 0.265855 0.678289 0.115023
O O11 0.515767 0.606976 0.854339
O O12 0.500000 0.276430 0.500000
O O13 0.582722 0.186937 0.321892
O O14 0.500000 0.096797 0.500000
O O15 0.259290 0.109705 0.491987
O O16 0.535123 0.000000 0.350152
O O17 0.000000 0.880535 0.500000
O O18 0.929836 0.822624 0.696125
O O19 0.987653 0.000000 0.621090
O O20 0.845375 0.322085 0.671594
O O21 0.196496 0.500000 0.310829
#
# Coordination Sequence:
#
# PCOD9151960 Si02
#       8
#     4   4   4   4   4   4   4   4
#     4  10  21  37  54  75 111 158 196 230 279 342
#     4  11  21  32  49  79 114 144 180 229 282 333
#     4  10  21  36  54  77 109 152 198 234 274 338
#     4  11  21  33  54  82 111 143 185 239 288 335
#     4   9  19  36  58  85 116 148 186 235 291 351
#     4  10  21  38  59  86 119 151 187 235 293 355
#     4  12  21  33  55  83 111 142 184 238 290 337
#     4  10  21  36  53  75 109 153 192 227 274 337
#
# _framework density 18.912410999999999
#
# number of rings (size 3 to 8) (size 9 to 14) (size 15 to 20)
#    0.000    1.625    1.250    4.500    1.750    6.000 
#    0.000    0.000    0.000    1.875    0.000    1.750 
#    0.000    0.000    0.000    0.000    0.000    0.000 
#
# Total GULP energy -178156.409883 kJ/mol
# GULP energy per Si atom -5567.387809 kJ/mol
# Density = 1.886937 g / cm^3
# Si number density = 18.912411 Si / 1000 Ang^3
#
#
#
# Elastic Constant Matrix: (Units=GPa)
#
#
# Indices 1 2 3 4 5 6 
#
# 1 84.1400 24.9755 21.4276 0.0000 -7.9968 0.0000
# 2 24.9755 153.1182 45.7910 0.0000 -8.9256 0.0000
# 3 21.4276 45.7910 79.7813 0.0000 -3.2506 0.0000
# 4 0.0000 0.0000 0.0000 62.1376 0.0000 -38.4379
# 5 -7.9968 -8.9256 -3.2506 0.0000 31.5963 0.0000
# 6 0.0000 0.0000 0.0000 -38.4379 0.0000 59.8432
#
#
#
# Elastic Compliance Matrix: (Units=1/GPa)
#
#
# Indices 1 2 3 4 5 6 
#
# 1 0.013194 -0.001167 -0.002763 0.000000 0.002725 0.000000
# 2 -0.001167 0.008087 -0.004265 0.000000 0.001550 0.000000
# 3 -0.002763 -0.004265 0.015713 0.000000 -0.000288 0.000000
# 4 0.000000 0.000000 0.000000 0.026703 0.000000 0.017152
# 5 0.002725 0.001550 -0.000288 0.000000 0.032747 0.000000
# 6 0.000000 0.000000 0.000000 0.017152 0.000000 0.027727
#
#
# Mechanical properties :
#
#
# Convention : Reuss Voigt Hill
#
# Bulk Modulus (GPa) = 48.53435 55.71419 52.12427
# Shear Modulus (GPa) = 33.91460 45.70512 39.80986
#
# Velocity S-wave (km/s) = 4.23927 4.92130 4.59296
# Velocity P-wave (km/s) = 7.04842 7.86227 7.46644
#
# Compressibility (1/GPa) = 0.02060396
#
# Stress axis : x y z
#
# Youngs Moduli (GPa) = 75.79224 123.65334 63.64345
#
# Poissons Ratio (x) = 0.14430 0.17583
# Poissons Ratio (y) = 0.08845 0.27144
# Poissons Ratio (z) = 0.20940 0.52739
#
# Static dielectric constant tensor:
#      x y z
#    x 1.766160 0.000000 -0.050540 
#    y 0.000000 1.681790 0.000000 
#    z -0.050540 0.000000 1.660510 
# 
# From -- ./inp_files/76980.got.cif
#   From: 2010.05.17/outbox.cif.g08.bks.cpg/sg10_39_cif.got.tgz:76980.got - 2010.06.03 11:33:40.
