data_PCOD9151091
_publ_section_title
;
Structure prediction by ZEFSAII (Michael W. Deem and Ramdas Pophale) SiO2 
 PCOD9151091
Probable space group: P 2/M
;
_chemical_formula_sum "Si O2"
_cell_formula_units_Z 24
_cell_length_a 11.571550
_cell_length_b 7.743027
_cell_length_c 12.522742
_cell_angle_alpha 90.000000
_cell_angle_beta 88.288511
_cell_angle_gamma 90.000000
_cell_volume 1121.522413
_symmetry_space_group_name_H-M "P 2/M"
_symmetry_group_IT_number 10
_symmetry_cell_setting 'monoclinic'
loop_
_space_group_symop_operation_xyz
x,y,z
-x,y,-z
-x,-y,-z
x,-y,z
loop_
_atom_site_type_symbol
_atom_site_label
_atom_site_fract_x
_atom_site_fract_y
_atom_site_fract_z
Si Si1 0.337533 0.298891 0.578791
Si Si2 0.377619 0.500000 0.936536
Si Si3 0.453232 0.195263 0.787307
Si Si4 0.929178 0.291119 0.398319
Si Si5 0.334866 0.793024 0.341991
Si Si6 0.109463 0.800188 0.228573
Si Si7 0.875360 0.500000 0.942655
O O1 0.347075 0.500000 0.607945
O O2 0.402124 0.196019 0.668849
O O3 0.203834 0.244009 0.585834
O O4 0.373339 0.280674 0.454494
O O5 0.387189 0.329232 0.862865
O O6 0.500000 0.500000 0.000000
O O7 0.250175 0.500000 0.994548
O O8 0.583925 0.257439 0.759471
O O9 0.452970 0.000000 0.829803
O O10 0.936629 0.500000 0.393270
O O11 0.000000 0.231523 0.500000
O O12 0.986972 0.218327 0.290354
O O13 0.204745 0.745279 0.314648
O O14 0.341669 0.000000 0.351256
O O15 0.121212 0.670511 0.131017
O O16 0.131220 0.000000 0.199540
O O17 0.000000 0.500000 0.000000
#
# Coordination Sequence:
#
# PCOD9151091 Si02
#       7
#     4   2   4   4   4   4   2
#     4  11  22  35  63 100 141 179 214 255 317 400
#     4  12  28  52  76  97 121 174 236 286 342 401
#     4  11  25  44  68  98 135 170 215 275 333 391
#     4  10  20  37  62  98 139 179 214 257 311 388
#     4  10  22  39  62 100 139 175 216 261 314 396
#     4  11  24  43  70  97 130 176 222 265 331 404
#     4  12  30  50  72  97 135 164 222 304 350 383
#
# _framework density 21.399483
#
# number of rings (size 3 to 8) (size 9 to 14) (size 15 to 20)
#    0.000    1.167    3.333    2.000    4.667    5.000 
#    0.000    0.000    0.000    0.000    0.000    0.000 
#    0.000    0.000    0.000    0.000    0.000    0.000 
#
# Total GULP energy -134141.198211 kJ/mol
# GULP energy per Si atom -5589.216592 kJ/mol
# Density = 2.135078 g / cm^3
# Si number density = 21.399483 Si / 1000 Ang^3
#
#
#
# Elastic Constant Matrix: (Units=GPa)
#
#
# Indices 1 2 3 4 5 6 
#
# 1 94.1852 26.5910 38.8882 0.0000 -17.4711 0.0000
# 2 26.5910 78.0559 45.3947 0.0000 -12.9062 0.0000
# 3 38.8882 45.3947 94.6687 0.0000 -18.1170 0.0000
# 4 0.0000 0.0000 0.0000 -17.8747 0.0000 11.5637
# 5 -17.4711 -12.9062 -18.1170 0.0000 47.1739 0.0000
# 6 0.0000 0.0000 0.0000 11.5637 0.0000 16.3131
#
#
#
# Elastic Compliance Matrix: (Units=1/GPa)
#
#
# Indices 1 2 3 4 5 6 
#
# 1 0.013326 -0.001664 -0.004122 0.000000 0.002897 0.000000
# 2 -0.001664 0.018103 -0.007736 0.000000 0.001366 0.000000
# 3 -0.004122 -0.007736 0.016480 0.000000 0.002686 0.000000
# 4 0.000000 0.000000 0.000000 -0.038356 0.000000 0.027189
# 5 0.002897 0.001366 0.002686 0.000000 0.023676 0.000000
# 6 0.000000 0.000000 0.000000 0.027189 0.000000 0.042027
#
#
# Mechanical properties :
#
#
# Convention : Reuss Voigt Hill
#
# Bulk Modulus (GPa) = 47.92435 54.29528 51.10982
# Shear Modulus (GPa) = 45.76438 19.52485 32.64461
#
# Velocity S-wave (km/s) = 4.62949 3.02387 3.90998
# Velocity P-wave (km/s) = 7.14282 6.13344 6.65729
#
# Compressibility (1/GPa) = 0.02086622
#
# Stress axis : x y z
#
# Youngs Moduli (GPa) = 75.03870 55.24037 60.68018
#
# Poissons Ratio (x) = 0.09189 0.25013
# Poissons Ratio (y) = 0.12483 0.46941
# Poissons Ratio (z) = 0.30932 0.42733
#
# Static dielectric constant tensor:
#      x y z
#    x 1.805620 0.000000 0.004120 
#    y 0.000000 1.749070 0.000000 
#    z 0.004120 0.000000 1.750850 
# 
# From -- ./inp_files/45193.got.cif
#   From: 2010.05.17/outbox.cif.g08.bks.cpg/sg10_23_cif.got.tgz:45193.got - 2010.06.03 11:33:40.
