data_PCOD9151459
_publ_section_title
;
Structure prediction by ZEFSAII (Michael W. Deem and Ramdas Pophale) SiO2 
 PCOD9151459
Probable space group: P 2/M
;
_chemical_formula_sum "Si O2"
_cell_formula_units_Z 32
_cell_length_a 31.099669
_cell_length_b 8.781720
_cell_length_c 13.242364
_cell_angle_alpha 90.000000
_cell_angle_beta 27.605969
_cell_angle_gamma 90.000000
_cell_volume 1675.891857
_symmetry_space_group_name_H-M "P 2/M"
_symmetry_group_IT_number 10
_symmetry_cell_setting 'monoclinic'
loop_
_space_group_symop_operation_xyz
x,y,z
-x,y,-z
-x,-y,-z
x,-y,z
loop_
_atom_site_type_symbol
_atom_site_label
_atom_site_fract_x
_atom_site_fract_y
_atom_site_fract_z
Si Si1 0.602211 0.680075 0.243218
Si Si2 0.890841 0.183736 0.922676
Si Si3 0.771798 0.316419 0.352398
Si Si4 0.216714 0.816083 0.056352
Si Si5 0.894912 0.183865 0.508444
Si Si6 0.780571 0.317507 0.561611
Si Si7 0.596637 0.819519 0.034588
Si Si8 0.555727 0.683138 0.781437
O O1 0.500000 0.705370 0.500000
O O2 0.614407 0.500000 0.200178
O O3 0.682488 0.740558 0.149393
O O4 0.610827 0.768067 0.119898
O O5 0.834111 0.246210 0.135483
O O6 0.841552 0.229880 0.920723
O O7 0.889789 0.000000 0.927610
O O8 0.998214 0.231947 0.703075
O O9 0.776223 0.500000 0.337104
O O10 0.803608 0.271422 0.398924
O O11 0.663430 0.273329 0.565126
O O12 0.225897 0.000000 0.036755
O O13 0.162675 0.772697 0.271577
O O14 0.847972 0.251098 0.506345
O O15 0.891772 0.000000 0.508597
O O16 0.781174 0.500000 0.565568
O O17 0.677330 0.259686 0.801716
O O18 0.498267 0.762378 0.197372
O O19 0.604788 0.000000 0.009130
O O20 0.550535 0.500000 0.779999
O O21 0.500000 0.721888 0.000000
#
# Coordination Sequence:
#
# PCOD9151459 Si02
#       8
#     4   4   4   4   4   4   4   4
#     4  11  25  42  61  89 125 164 201 242 299 362
#     4  10  23  41  62  90 126 162 201 253 315 372
#     4  10  23  41  61  87 123 165 207 252 304 363
#     4  10  21  40  65  92 122 159 204 253 304 362
#     4  10  21  40  65  92 120 159 204 254 314 369
#     4  11  22  40  64  90 122 162 208 256 305 362
#     4  12  24  38  60  91 123 158 202 252 303 364
#     4  10  20  39  62  84 117 162 204 243 293 355
#
# _framework density 19.094311999999999
#
# number of rings (size 3 to 8) (size 9 to 14) (size 15 to 20)
#    0.000    1.500    2.500    2.250    1.750    5.750 
#    0.000    2.500    0.000    2.250    0.000    0.000 
#    0.000    0.000    0.000    0.000    0.000    0.000 
#
# Total GULP energy -178876.125831 kJ/mol
# GULP energy per Si atom -5589.878932 kJ/mol
# Density = 1.905085 g / cm^3
# Si number density = 19.094312 Si / 1000 Ang^3
#
#
#
# Elastic Constant Matrix: (Units=GPa)
#
#
# Indices 1 2 3 4 5 6 
#
# 1 164.5605 38.4544 65.4037 0.0000 -5.6419 0.0000
# 2 38.4544 21.1309 32.6917 0.0000 -4.8415 0.0000
# 3 65.4037 32.6917 105.2873 0.0000 -12.9265 0.0000
# 4 0.0000 0.0000 0.0000 32.7203 0.0000 1.4789
# 5 -5.6419 -4.8415 -12.9265 0.0000 26.7708 0.0000
# 6 0.0000 0.0000 0.0000 1.4789 0.0000 21.4574
#
#
#
# Elastic Compliance Matrix: (Units=1/GPa)
#
#
# Indices 1 2 3 4 5 6 
#
# 1 0.010709 -0.017819 -0.001316 0.000000 -0.001601 0.000000
# 2 -0.017819 0.120951 -0.025790 0.000000 0.005665 0.000000
# 3 -0.001316 -0.025790 0.018833 0.000000 0.004152 0.000000
# 4 0.000000 0.000000 0.000000 0.030658 0.000000 -0.002113
# 5 -0.001601 0.005665 0.004152 0.000000 0.040046 0.000000
# 6 0.000000 0.000000 0.000000 -0.002113 0.000000 0.046749
#
#
# Mechanical properties :
#
#
# Convention : Reuss Voigt Hill
#
# Bulk Modulus (GPa) = 16.49044 62.67537 39.58290
# Shear Modulus (GPa) = 13.22714 26.48497 19.85605
#
# Velocity S-wave (km/s) = 2.63483 3.72837 3.22824
# Velocity P-wave (km/s) = 4.23219 7.17145 5.88817
#
# Compressibility (1/GPa) = 0.06064119
#
# Stress axis : x y z
#
# Youngs Moduli (GPa) = 93.38013 8.26784 53.09812
#
# Poissons Ratio (x) = 0.14733 0.06988
# Poissons Ratio (y) = 1.66395 1.36943
# Poissons Ratio (z) = 0.12289 0.21323
#
# Static dielectric constant tensor:
#      x y z
#    x 1.656030 0.000000 -0.004150 
#    y 0.000000 1.641140 0.000000 
#    z -0.004150 0.000000 1.639020 
# 
# From -- ./inp_files/58149.got.cif
#   From: 2010.05.17/outbox.cif.g08.bks.cpg/sg10_30_cif.got.tgz:58149.got - 2010.06.03 11:33:40.
