data_PCOD9151368
_publ_section_title
;
Structure prediction by ZEFSAII (Michael W. Deem and Ramdas Pophale) SiO2 
 PCOD9151368
Probable space group: P 2/M
;
_chemical_formula_sum "Si O2"
_cell_formula_units_Z 20
_cell_length_a 11.105350
_cell_length_b 9.368872
_cell_length_c 9.079734
_cell_angle_alpha 90.000000
_cell_angle_beta 101.885541
_cell_angle_gamma 90.000000
_cell_volume 924.443942
_symmetry_space_group_name_H-M "P 2/M"
_symmetry_group_IT_number 10
_symmetry_cell_setting 'monoclinic'
loop_
_space_group_symop_operation_xyz
x,y,z
-x,y,-z
-x,-y,-z
x,-y,z
loop_
_atom_site_type_symbol
_atom_site_label
_atom_site_fract_x
_atom_site_fract_y
_atom_site_fract_z
Si Si1 0.358618 0.840913 0.177394
Si Si2 0.204379 0.672148 0.364339
Si Si3 0.036109 0.671906 0.845353
Si Si4 0.321439 0.340871 0.898915
Si Si5 0.420003 0.724722 0.613588
O O1 0.270513 0.724066 0.231593
O O2 0.483838 0.842254 0.304560
O O3 0.306092 0.000000 0.162781
O O4 0.375169 0.778668 0.019295
O O5 0.214109 0.500000 0.389390
O O6 0.286529 0.750176 0.508234
O O7 0.062959 0.714776 0.303479
O O8 0.023090 0.500000 0.849292
O O9 0.177576 0.698449 0.843480
O O10 0.000000 0.726666 0.000000
O O11 0.328661 0.500000 0.968510
O O12 0.387905 0.349516 0.758877
O O13 0.500000 0.655459 0.500000
#
# Coordination Sequence:
#
# PCOD9151368 Si02
#       5
#     4   4   4   4   4
#     4  11  24  41  62  88 122 163 206 249 299 356
#     4  10  20  38  64  92 124 157 196 247 302 361
#     4   9  17  34  61  92 123 153 192 245 303 357
#     4  11  22  38  64  92 121 160 201 247 300 355
#     4  10  24  39  58  88 123 159 200 247 298 354
#
# _framework density 21.634629
#
# number of rings (size 3 to 8) (size 9 to 14) (size 15 to 20)
#    0.000    1.800    2.000    1.800    0.000   15.600 
#    0.000    5.000    0.000    0.000    0.000    8.400 
#    0.000    0.000    0.000    0.000    0.000    0.000 
#
# Total GULP energy -111354.117112 kJ/mol
# GULP energy per Si atom -5567.705856 kJ/mol
# Density = 2.158539 g / cm^3
# Si number density = 21.634629 Si / 1000 Ang^3
#
#
#
# Elastic Constant Matrix: (Units=GPa)
#
#
# Indices 1 2 3 4 5 6 
#
# 1 97.0479 14.0677 30.1442 0.0000 25.3689 0.0000
# 2 14.0677 40.7375 16.4810 0.0000 0.3440 0.0000
# 3 30.1442 16.4810 101.5335 0.0000 13.4416 0.0000
# 4 0.0000 0.0000 0.0000 3.7539 0.0000 8.9336
# 5 25.3689 0.3440 13.4416 0.0000 49.5444 0.0000
# 6 0.0000 0.0000 0.0000 8.9336 0.0000 5.5913
#
#
#
# Elastic Compliance Matrix: (Units=1/GPa)
#
#
# Indices 1 2 3 4 5 6 
#
# 1 0.013175 -0.003467 -0.002551 0.000000 -0.006030 0.000000
# 2 -0.003467 0.027234 -0.003735 0.000000 0.002600 0.000000
# 3 -0.002551 -0.003735 0.011447 0.000000 -0.001774 0.000000
# 4 0.000000 0.000000 0.000000 -0.095060 0.000000 0.151881
# 5 -0.006030 0.002600 -0.001774 0.000000 0.023735 0.000000
# 6 0.000000 0.000000 0.000000 0.151881 0.000000 -0.063821
#
#
# Mechanical properties :
#
#
# Convention : Reuss Voigt Hill
#
# Bulk Modulus (GPa) = 30.91127 40.07829 35.49478
# Shear Modulus (GPa) = -94.34154 23.68632 -35.32761
#
# Velocity S-wave (km/s) = -6.61070 3.31242 -4.04532
# Velocity P-wave (km/s) = 6.62945 5.76149 2.31893
#
# Compressibility (1/GPa) = 0.03235066
#
# Stress axis : x y z
#
# Youngs Moduli (GPa) = 75.89933 36.71884 87.35642
#
# Poissons Ratio (x) = 0.12730 0.22280
# Poissons Ratio (y) = 0.26314 0.32632
# Poissons Ratio (z) = 0.19358 0.13716
#
# Static dielectric constant tensor:
#      x y z
#    x 1.834790 0.000000 0.022570 
#    y 0.000000 1.721990 0.000000 
#    z 0.022570 0.000000 1.836000 
# 
# From -- ./inp_files/22360.got.cif
#   From: 2010.05.17/outbox.cif.g08.bks.cpg/sg10_12_cif.got.tgz:22360.got - 2010.06.03 11:33:40.
