data_PCOD9151752
_publ_section_title
;
Structure prediction by ZEFSAII (Michael W. Deem and Ramdas Pophale) SiO2 
 PCOD9151752
Probable space group: P 2/M
;
_chemical_formula_sum "Si O2"
_cell_formula_units_Z 26
_cell_length_a 14.368005
_cell_length_b 22.782452
_cell_length_c 13.547962
_cell_angle_alpha 90.000000
_cell_angle_beta 158.859897
_cell_angle_gamma 90.000000
_cell_volume 1599.397841
_symmetry_space_group_name_H-M "P 2/M"
_symmetry_group_IT_number 10
_symmetry_cell_setting 'monoclinic'
loop_
_space_group_symop_operation_xyz
x,y,z
-x,y,-z
-x,-y,-z
x,-y,z
loop_
_atom_site_type_symbol
_atom_site_label
_atom_site_fract_x
_atom_site_fract_y
_atom_site_fract_z
Si Si1 0.755783 0.372901 0.685465
Si Si2 0.745866 0.067121 0.815161
Si Si3 0.985332 0.064699 0.603537
Si Si4 0.513131 0.858952 0.896228
Si Si5 0.619803 0.185308 0.804303
Si Si6 0.245689 0.500000 0.316276
Si Si7 0.121823 0.245896 0.230803
O O1 0.500000 0.366433 0.500000
O O2 0.749332 0.436522 0.625970
O O3 0.797084 0.313055 0.666839
O O4 0.000000 0.375557 0.000000
O O5 0.500000 0.067016 0.500000
O O6 0.696117 0.119561 0.843140
O O7 0.771758 0.000000 0.880793
O O8 0.000000 0.079330 0.000000
O O9 0.722504 0.098304 0.362883
O O10 0.000000 0.058052 0.500000
O O11 0.992891 0.000000 0.656003
O O12 0.227076 0.104759 0.864998
O O13 0.517551 0.810889 0.815450
O O14 0.500000 0.842772 0.000000
O O15 0.382165 0.208117 0.501889
O O16 0.882452 0.222342 0.057079
O O17 0.500000 0.500000 0.500000
O O18 0.000000 0.500000 0.000000
O O19 0.000000 0.243058 0.000000
#
# Coordination Sequence:
#
# PCOD9151752 Si02
#       7
#     4   4   4   4   4   2   4
#     4   9  16  27  43  66  94 126 156 185 218 259
#     4  10  21  35  48  63  85 112 146 188 229 270
#     4   9  17  31  50  68  87 110 136 175 230 290
#     4  10  21  35  49  68  93 118 148 188 236 288
#     4  12  22  34  51  69  89 122 158 193 238 281
#     4   8  14  24  40  62  92 126 157 178 209 262
#     4  11  21  33  50  71  95 122 157 195 226 265
#
# _framework density 16.256118000000001
#
# number of rings (size 3 to 8) (size 9 to 14) (size 15 to 20)
#    0.000    2.000    0.000    6.000    0.000    3.077 
#    0.000    1.538    0.000    0.000    0.000    0.000 
#    0.000    0.000    0.000    4.154    0.000    0.615 
#
# Total GULP energy -144813.152119 kJ/mol
# GULP energy per Si atom -5569.736620 kJ/mol
# Density = 1.621912 g / cm^3
# Si number density = 16.256118 Si / 1000 Ang^3
#
#
#
# Elastic Constant Matrix: (Units=GPa)
#
#
# Indices 1 2 3 4 5 6 
#
# 1 66.3585 44.5936 25.3781 0.0000 11.0494 0.0000
# 2 44.5936 118.3348 27.4966 0.0000 14.6974 0.0000
# 3 25.3781 27.4966 113.0963 0.0000 28.7349 0.0000
# 4 0.0000 0.0000 0.0000 24.5158 0.0000 8.8314
# 5 11.0494 14.6974 28.7349 0.0000 36.9938 0.0000
# 6 0.0000 0.0000 0.0000 8.8314 0.0000 6.2084
#
#
#
# Elastic Compliance Matrix: (Units=1/GPa)
#
#
# Indices 1 2 3 4 5 6 
#
# 1 0.021137 -0.007177 -0.002639 0.000000 -0.001412 0.000000
# 2 -0.007177 0.011557 -0.000719 0.000000 -0.001889 0.000000
# 3 -0.002639 -0.000719 0.011632 0.000000 -0.007961 0.000000
# 4 0.000000 0.000000 0.000000 0.083658 0.000000 -0.119002
# 5 -0.001412 -0.001889 -0.007961 0.000000 0.034387 0.000000
# 6 0.000000 0.000000 0.000000 -0.119002 0.000000 0.330348
#
#
# Mechanical properties :
#
#
# Convention : Reuss Voigt Hill
#
# Bulk Modulus (GPa) = 43.00211 54.74737 48.87474
# Shear Modulus (GPa) = 9.58694 26.89835 18.24265
#
# Velocity S-wave (km/s) = 2.43110 4.07216 3.35356
# Velocity P-wave (km/s) = 5.86435 7.47403 6.71758
#
# Compressibility (1/GPa) = 0.02325467
#
# Stress axis : x y z
#
# Youngs Moduli (GPa) = 47.31049 86.52863 85.97077
#
# Poissons Ratio (x) = 0.62099 0.22692
# Poissons Ratio (y) = 0.33953 0.06185
# Poissons Ratio (z) = 0.12487 0.06225
#
# Static dielectric constant tensor:
#      x y z
#    x 1.555430 0.000000 -0.021310 
#    y 0.000000 1.614330 0.000000 
#    z -0.021310 0.000000 1.567870 
# 
# From -- ./inp_files/67836.got.cif
#   From: 2010.05.17/outbox.cif.g08.bks.cpg/sg10_34_cif.got.tgz:67836.got - 2010.06.03 11:33:40.
