data_PCOD9151420
_publ_section_title
;
Structure prediction by ZEFSAII (Michael W. Deem and Ramdas Pophale) SiO2 
 PCOD9151420
Probable space group: P 2/M
;
_chemical_formula_sum "Si O2"
_cell_formula_units_Z 18
_cell_length_a 24.161652
_cell_length_b 8.703892
_cell_length_c 5.051629
_cell_angle_alpha 90.000000
_cell_angle_beta 59.406743
_cell_angle_gamma 90.000000
_cell_volume 914.481234
_symmetry_space_group_name_H-M "P 2/M"
_symmetry_group_IT_number 10
_symmetry_cell_setting 'monoclinic'
loop_
_space_group_symop_operation_xyz
x,y,z
-x,y,-z
-x,-y,-z
x,-y,z
loop_
_atom_site_type_symbol
_atom_site_label
_atom_site_fract_x
_atom_site_fract_y
_atom_site_fract_z
Si Si1 0.545860 0.000000 0.637844
Si Si2 0.330762 0.173954 0.565543
Si Si3 0.269665 0.681800 0.231156
Si Si4 0.929105 0.682851 0.558101
Si Si5 0.863231 0.182784 0.223329
O O1 0.500000 0.000000 0.500000
O O2 0.595578 0.856780 0.528480
O O3 0.500000 0.000000 0.000000
O O4 0.322097 0.274846 0.326456
O O5 0.306644 0.000000 0.563384
O O6 0.290947 0.244091 0.903281
O O7 0.262541 0.500000 0.219960
O O8 0.203771 0.753816 0.500371
O O9 0.922034 0.500000 0.536972
O O10 0.915550 0.765843 0.314528
O O11 0.000000 0.713491 0.500000
O O12 0.879879 0.741730 0.901297
O O13 0.861920 0.000000 0.200659
#
# Coordination Sequence:
#
# PCOD9151420 Si02
#       5
#     2   4   4   4   4
#     4  10  20  38  68  96 122 162 207 246 287 352
#     4  10  22  38  64  92 122 159 206 250 287 363
#     4  12  23  40  61  90 128 162 201 251 318 365
#     4  11  24  43  63  87 120 162 208 254 313 377
#     4  12  25  40  63  90 123 159 206 261 308 369
#
# _framework density 19.683292999999999
#
# number of rings (size 3 to 8) (size 9 to 14) (size 15 to 20)
#    0.667    0.222    0.000    8.667    0.000    4.444 
#    0.000    0.000    0.000   13.333    0.000    0.000 
#    0.000    0.000    0.000    0.000    0.000    0.000 
#
# Total GULP energy -100664.064967 kJ/mol
# GULP energy per Si atom -5592.448054 kJ/mol
# Density = 1.963849 g / cm^3
# Si number density = 19.683293 Si / 1000 Ang^3
#
#
#
# Elastic Constant Matrix: (Units=GPa)
#
#
# Indices 1 2 3 4 5 6 
#
# 1 63.1325 0.2776 -17.3209 0.0000 -5.5382 0.0000
# 2 0.2776 58.1447 -1.8776 0.0000 -20.1093 0.0000
# 3 -17.3209 -1.8776 69.9839 0.0000 -0.7241 0.0000
# 4 0.0000 0.0000 0.0000 33.3880 0.0000 14.4543
# 5 -5.5382 -20.1093 -0.7241 0.0000 32.5563 0.0000
# 6 0.0000 0.0000 0.0000 14.4543 0.0000 28.7180
#
#
#
# Elastic Compliance Matrix: (Units=1/GPa)
#
#
# Indices 1 2 3 4 5 6 
#
# 1 0.017380 0.001417 0.004380 0.000000 0.003929 0.000000
# 2 0.001417 0.022023 0.001085 0.000000 0.013868 0.000000
# 3 0.004380 0.001085 0.015420 0.000000 0.001758 0.000000
# 4 0.000000 0.000000 0.000000 0.038295 0.000000 -0.019275
# 5 0.003929 0.013868 0.001758 0.000000 0.039990 0.000000
# 6 0.000000 0.000000 0.000000 -0.019275 0.000000 0.044523
#
#
# Mechanical properties :
#
#
# Convention : Reuss Voigt Hill
#
# Bulk Modulus (GPa) = 14.57956 17.04658 15.81307
# Shear Modulus (GPa) = 26.77684 32.94459 29.86072
#
# Velocity S-wave (km/s) = 3.69234 4.09557 3.89917
# Velocity P-wave (km/s) = 5.05974 5.57173 5.32189
#
# Compressibility (1/GPa) = 0.06858917
#
# Stress axis : x y z
#
# Youngs Moduli (GPa) = 57.53770 45.40680 64.84910
#
# Poissons Ratio (x) = -0.06436 -0.28405
# Poissons Ratio (y) = -0.08156 -0.07037
# Poissons Ratio (z) = -0.25203 -0.04927
#
# Static dielectric constant tensor:
#      x y z
#    x 1.730470 0.000000 -0.011390 
#    y 0.000000 1.672600 0.000000 
#    z -0.011390 0.000000 1.645610 
# 
# From -- ./inp_files/12961.got.cif
#   From: 2010.05.17/outbox.cif.g08.bks.cpg/sg10_7_cif.got.tgz:12961.got - 2010.06.03 11:33:40.
