data_PCOD9151525
_publ_section_title
;
Structure prediction by ZEFSAII (Michael W. Deem and Ramdas Pophale) SiO2 
 PCOD9151525
Probable space group: P 2/M
;
_chemical_formula_sum "Si O2"
_cell_formula_units_Z 32
_cell_length_a 12.576932
_cell_length_b 13.369153
_cell_length_c 7.452393
_cell_angle_alpha 90.000000
_cell_angle_beta 84.275222
_cell_angle_gamma 90.000000
_cell_volume 1246.817540
_symmetry_space_group_name_H-M "P 2/M"
_symmetry_group_IT_number 10
_symmetry_cell_setting 'monoclinic'
loop_
_space_group_symop_operation_xyz
x,y,z
-x,y,-z
-x,-y,-z
x,-y,z
loop_
_atom_site_type_symbol
_atom_site_label
_atom_site_fract_x
_atom_site_fract_y
_atom_site_fract_z
Si Si1 0.331461 0.616215 0.437392
Si Si2 0.108536 0.886508 0.360655
Si Si3 0.347945 0.617380 0.004388
Si Si4 0.561979 0.757842 0.291081
Si Si5 0.877401 0.293890 0.966261
Si Si6 0.348923 0.887679 0.300558
Si Si7 0.740025 0.115297 0.094667
Si Si8 0.893495 0.337607 0.622794
O O1 0.350930 0.500000 0.468338
O O2 0.398048 0.683668 0.559391
O O3 0.206985 0.644195 0.482432
O O4 0.347356 0.634661 0.220738
O O5 0.230734 0.877946 0.414914
O O6 0.107579 0.773875 0.271717
O O7 0.000000 0.882283 0.500000
O O8 0.106057 0.000000 0.280859
O O9 0.364807 0.500000 0.970226
O O10 0.430187 0.684520 0.879792
O O11 0.236630 0.659584 0.943932
O O12 0.449898 0.817725 0.319423
O O13 0.652315 0.842246 0.244948
O O14 0.882089 0.388287 0.810572
O O15 0.846387 0.180686 0.058623
O O16 0.000000 0.301310 0.000000
O O17 0.385259 0.000000 0.327265
O O18 0.314247 0.877791 0.096342
O O19 0.763960 0.000000 0.129272
O O20 0.000000 0.349973 0.500000
#
# Coordination Sequence:
#
# PCOD9151525 Si02
#       8
#     4   4   4   4   4   4   4   4
#     4  10  23  45  71 104 146 190 246 313 380 445
#     4   9  18  37  67 103 145 192 237 292 363 435
#     4   9  21  43  70 103 145 192 241 307 384 445
#     4  11  22  39  73 106 140 194 248 307 367 439
#     4  10  21  36  63 100 135 188 245 302 367 440
#     4  10  20  39  72 108 145 195 250 298 359 439
#     4  10  21  39  65  99 144 195 245 299 365 438
#     4  10  21  37  65  99 141 190 237 302 369 442
#
# _framework density 25.665344999999999
#
# number of rings (size 3 to 8) (size 9 to 14) (size 15 to 20)
#    0.000    2.125    1.250    1.125    3.500    1.750 
#    0.000    1.875    0.000   25.500    0.000    0.000 
#    0.000    0.000    0.000    0.000    0.000    0.000 
#
# Total GULP energy -178146.497266 kJ/mol
# GULP energy per Si atom -5567.078040 kJ/mol
# Density = 2.560693 g / cm^3
# Si number density = 25.665345 Si / 1000 Ang^3
#
#
#
# Elastic Constant Matrix: (Units=GPa)
#
#
# Indices 1 2 3 4 5 6 
#
# 1 224.1822 60.1510 76.0689 0.0000 -26.4266 0.0000
# 2 60.1510 171.8866 48.1840 0.0000 -7.7423 0.0000
# 3 76.0689 48.1840 78.4004 0.0000 -18.8746 0.0000
# 4 0.0000 0.0000 0.0000 24.5810 0.0000 9.9825
# 5 -26.4266 -7.7423 -18.8746 0.0000 51.0834 0.0000
# 6 0.0000 0.0000 0.0000 9.9825 0.0000 6.3853
#
#
#
# Elastic Compliance Matrix: (Units=1/GPa)
#
#
# Indices 1 2 3 4 5 6 
#
# 1 0.006777 -0.000672 -0.005864 0.000000 0.001237 0.000000
# 2 -0.000672 0.007111 -0.003889 0.000000 -0.000707 0.000000
# 3 -0.005864 -0.003889 0.021912 0.000000 0.004473 0.000000
# 4 0.000000 0.000000 0.000000 0.111425 0.000000 -0.174199
# 5 0.001237 -0.000707 0.004473 0.000000 0.021761 0.000000
# 6 0.000000 0.000000 0.000000 -0.174199 0.000000 0.428947
#
#
# Mechanical properties :
#
#
# Convention : Reuss Voigt Hill
#
# Bulk Modulus (GPa) = 66.89063 93.69746 80.29405
# Shear Modulus (GPa) = 8.01582 35.74762 21.88172
#
# Velocity S-wave (km/s) = 1.76918 3.73612 2.92306
# Velocity P-wave (km/s) = 5.50386 7.42954 6.53799
#
# Compressibility (1/GPa) = 0.01494978
#
# Stress axis : x y z
#
# Youngs Moduli (GPa) = 147.56598 140.62401 45.63739
#
# Poissons Ratio (x) = 0.09447 0.26764
# Poissons Ratio (y) = 0.09913 0.17747
# Poissons Ratio (z) = 0.86539 0.54685
#
# Static dielectric constant tensor:
#      x y z
#    x 2.175360 0.000000 -0.417990 
#    y 0.000000 2.122650 0.000000 
#    z -0.417990 0.000000 3.896640 
# 
# From -- ./inp_files/47390.got.cif
#   From: 2010.05.17/outbox.cif.g08.bks.cpg/sg10_24_cif.got.tgz:47390.got - 2010.06.03 11:33:40.
