data_PCOD9151636
_publ_section_title
;
Structure prediction by ZEFSAII (Michael W. Deem and Ramdas Pophale) SiO2 
 PCOD9151636
Probable space group: P 2/M
;
_chemical_formula_sum "Si O2"
_cell_formula_units_Z 23
_cell_length_a 13.337392
_cell_length_b 10.466339
_cell_length_c 15.846790
_cell_angle_alpha 90.000000
_cell_angle_beta 32.059181
_cell_angle_gamma 90.000000
_cell_volume 1174.177582
_symmetry_space_group_name_H-M "P 2/M"
_symmetry_group_IT_number 10
_symmetry_cell_setting 'monoclinic'
loop_
_space_group_symop_operation_xyz
x,y,z
-x,y,-z
-x,-y,-z
x,-y,z
loop_
_atom_site_type_symbol
_atom_site_label
_atom_site_fract_x
_atom_site_fract_y
_atom_site_fract_z
Si Si1 0.500000 0.772138 0.500000
Si Si2 0.292418 0.645885 0.113496
Si Si3 0.445926 0.859221 0.352468
Si Si4 0.092761 0.233938 0.812497
Si Si5 0.292722 0.358809 0.910020
Si Si6 0.000000 0.000000 0.000000
Si Si7 0.013590 0.852448 0.676850
O O1 0.461559 0.851416 0.442621
O O2 0.699822 0.703292 0.340715
O O3 0.242928 0.500000 0.174862
O O4 0.305094 0.645633 0.002771
O O5 0.500000 0.676270 0.000000
O O6 0.136373 0.750172 0.250418
O O7 0.575173 0.750230 0.221790
O O8 0.225031 0.841260 0.488495
O O9 0.511505 0.000000 0.277762
O O10 0.093431 0.112934 0.873645
O O11 0.038398 0.180139 0.758466
O O12 0.923826 0.327809 0.957527
O O13 0.348159 0.500000 0.841526
O O14 0.952519 0.000000 0.711112
#
# Coordination Sequence:
#
# PCOD9151636 Si02
#       7
#     2   4   4   4   4   1   4
#     4  10  21  36  53  82 109 146 197 234 257 322
#     4   9  19  37  61  83 106 144 188 227 278 351
#     4  10  21  35  57  81 111 151 190 230 273 332
#     4  10  21  32  53  79 109 145 188 226 275 322
#     4  10  22  39  56  81 115 142 183 238 288 330
#     4  12  20  30  54  84 102 146 182 232 260 326
#     4   9  18  35  53  82 116 140 181 230 280 330
#
# _framework density 19.588177999999999
#
# number of rings (size 3 to 8) (size 9 to 14) (size 15 to 20)
#    0.000    2.261    0.870    1.304    6.087    1.739 
#    0.000    8.261    0.000    5.217    0.000    0.000 
#    0.000    0.000    0.000    0.000    0.000    0.000 
#
# Total GULP energy -128038.144576 kJ/mol
# GULP energy per Si atom -5566.875851 kJ/mol
# Density = 1.954359 g / cm^3
# Si number density = 19.588178 Si / 1000 Ang^3
#
#
#
# Elastic Constant Matrix: (Units=GPa)
#
#
# Indices 1 2 3 4 5 6 
#
# 1 56.3606 30.3873 27.5063 0.0000 -33.0731 0.0000
# 2 30.3873 151.1158 84.4275 0.0000 -32.5723 0.0000
# 3 27.5063 84.4275 103.9606 0.0000 -29.4762 0.0000
# 4 0.0000 0.0000 0.0000 15.5455 0.0000 -4.7663
# 5 -33.0731 -32.5723 -29.4762 0.0000 29.6827 0.0000
# 6 0.0000 0.0000 0.0000 -4.7663 0.0000 9.3907
#
#
#
# Elastic Compliance Matrix: (Units=1/GPa)
#
#
# Indices 1 2 3 4 5 6 
#
# 1 0.052443 0.001449 0.002737 0.000000 0.062741 0.000000
# 2 0.001449 0.012689 -0.008745 0.000000 0.006855 0.000000
# 3 0.002737 -0.008745 0.019682 0.000000 0.012999 0.000000
# 4 0.000000 0.000000 0.000000 0.076183 0.000000 0.038667
# 5 0.062741 0.006855 0.012999 0.000000 0.124028 0.000000
# 6 0.000000 0.000000 0.000000 0.038667 0.000000 0.126114
#
#
# Mechanical properties :
#
#
# Convention : Reuss Voigt Hill
#
# Bulk Modulus (GPa) = 13.21061 66.23102 39.72082
# Shear Modulus (GPa) = 11.22358 22.19816 16.71087
#
# Velocity S-wave (km/s) = 2.39629 3.37002 2.92397
# Velocity P-wave (km/s) = 3.79672 7.00199 5.63218
#
# Compressibility (1/GPa) = 0.07569673
#
# Stress axis : x y z
#
# Youngs Moduli (GPa) = 19.06817 78.80589 50.80714
#
# Poissons Ratio (x) = -0.11418 -0.13905
# Poissons Ratio (y) = -0.02763 0.44431
# Poissons Ratio (z) = -0.05219 0.68915
#
# Static dielectric constant tensor:
#      x y z
#    x 1.708380 0.000000 -0.013860 
#    y 0.000000 1.672460 0.000000 
#    z -0.013860 0.000000 1.707650 
# 
# From -- ./inp_files/77687.got.cif
#   From: 2010.05.17/outbox.cif.g08.bks.cpg/sg10_39_cif.got.tgz:77687.got - 2010.06.03 11:33:40.
