data_PCOD9151837
_publ_section_title
;
Structure prediction by ZEFSAII (Michael W. Deem and Ramdas Pophale) SiO2 
 PCOD9151837
Probable space group: P 2/M
;
_chemical_formula_sum "Si O2"
_cell_formula_units_Z 20
_cell_length_a 24.561857
_cell_length_b 8.383855
_cell_length_c 7.677787
_cell_angle_alpha 90.000000
_cell_angle_beta 38.774129
_cell_angle_gamma 90.000000
_cell_volume 990.125027
_symmetry_space_group_name_H-M "P 2/M"
_symmetry_group_IT_number 10
_symmetry_cell_setting 'monoclinic'
loop_
_space_group_symop_operation_xyz
x,y,z
-x,y,-z
-x,-y,-z
x,-y,z
loop_
_atom_site_type_symbol
_atom_site_label
_atom_site_fract_x
_atom_site_fract_y
_atom_site_fract_z
Si Si1 0.230635 0.688498 0.136913
Si Si2 0.899688 0.806807 0.247963
Si Si3 0.593348 0.816697 0.355053
Si Si4 0.594216 0.316946 0.720232
Si Si5 0.221466 0.189568 0.764720
O O1 0.242068 0.500000 0.121663
O O2 0.153412 0.743744 0.454306
O O3 0.320696 0.775524 0.968052
O O4 0.213775 0.734955 0.976444
O O5 0.850498 0.755403 0.193861
O O6 0.897144 0.000000 0.259063
O O7 0.000000 0.756321 0.000000
O O8 0.500000 0.803484 0.500000
O O9 0.595971 0.694450 0.507371
O O10 0.602363 0.000000 0.396147
O O11 0.596353 0.500000 0.776268
O O12 0.682979 0.230555 0.550755
O O13 0.500000 0.244854 0.000000
O O14 0.214545 0.000000 0.803288
#
# Coordination Sequence:
#
# PCOD9151837 Si02
#       5
#     4   4   4   4   4
#     4  11  23  39  61  88 124 160 194 246 303 360
#     4  10  23  43  66  91 118 155 204 252 301 356
#     4  10  21  36  56  83 114 153 200 242 285 346
#     4  10  21  35  53  82 118 155 192 235 293 354
#     4  10  21  39  63  87 117 157 201 249 295 351
#
# _framework density 20.199469000000001
#
# number of rings (size 3 to 8) (size 9 to 14) (size 15 to 20)
#    0.000    1.800    0.000    6.000    2.800    6.000 
#    0.000    4.000    0.000    0.000    0.000    0.000 
#    0.000    0.000    0.000    0.000    0.000    0.000 
#
# Total GULP energy -111634.856733 kJ/mol
# GULP energy per Si atom -5581.742837 kJ/mol
# Density = 2.015349 g / cm^3
# Si number density = 20.199469 Si / 1000 Ang^3
#
#
#
# Elastic Constant Matrix: (Units=GPa)
#
#
# Indices 1 2 3 4 5 6 
#
# 1 124.8642 22.6045 69.8815 0.0000 -28.8794 0.0000
# 2 22.6045 51.2643 21.3048 0.0000 -9.3165 0.0000
# 3 69.8815 21.3048 164.7328 0.0000 -26.3475 0.0000
# 4 0.0000 0.0000 0.0000 33.1187 0.0000 9.8328
# 5 -28.8794 -9.3165 -26.3475 0.0000 33.2941 0.0000
# 6 0.0000 0.0000 0.0000 9.8328 0.0000 -5.5240
#
#
#
# Elastic Compliance Matrix: (Units=1/GPa)
#
#
# Indices 1 2 3 4 5 6 
#
# 1 0.012144 -0.002559 -0.003722 0.000000 0.006873 0.000000
# 2 -0.002559 0.021677 -0.001263 0.000000 0.002847 0.000000
# 3 -0.003722 -0.001263 0.008289 0.000000 0.002978 0.000000
# 4 0.000000 0.000000 0.000000 0.019755 0.000000 0.035163
# 5 0.006873 0.002847 0.002978 0.000000 0.039150 0.000000
# 6 0.000000 0.000000 0.000000 0.035163 0.000000 -0.118436
#
#
# Mechanical properties :
#
#
# Convention : Reuss Voigt Hill
#
# Bulk Modulus (GPa) = 37.00454 63.16035 50.08244
# Shear Modulus (GPa) = 749.21623 27.31580 388.26602
#
# Velocity S-wave (km/s) = 19.27989 3.68136 13.87924
# Velocity P-wave (km/s) = 22.67109 7.02894 16.78368
#
# Compressibility (1/GPa) = 0.02702371
#
# Stress axis : x y z
#
# Youngs Moduli (GPa) = 82.34238 46.13122 120.64558
#
# Poissons Ratio (x) = 0.11806 0.44899
# Poissons Ratio (y) = 0.21074 0.15232
# Poissons Ratio (z) = 0.30644 0.05824
#
# Static dielectric constant tensor:
#      x y z
#    x 1.726310 0.000000 -0.012650 
#    y 0.000000 1.693820 0.000000 
#    z -0.012650 0.000000 1.745410 
# 
# From -- ./inp_files/37814.got.cif
#   From: 2010.05.17/outbox.cif.g08.bks.cpg/sg10_19_cif.got.tgz:37814.got - 2010.06.03 11:33:40.
