data_PCOD9151448
_publ_section_title
;
Structure prediction by ZEFSAII (Michael W. Deem and Ramdas Pophale) SiO2 
 PCOD9151448
Probable space group: P 2/M
;
_chemical_formula_sum "Si O2"
_cell_formula_units_Z 32
_cell_length_a 15.261274
_cell_length_b 8.290739
_cell_length_c 23.253457
_cell_angle_alpha 90.000000
_cell_angle_beta 31.436898
_cell_angle_gamma 90.000000
_cell_volume 1534.529258
_symmetry_space_group_name_H-M "P 2/M"
_symmetry_group_IT_number 10
_symmetry_cell_setting 'monoclinic'
loop_
_space_group_symop_operation_xyz
x,y,z
-x,y,-z
-x,-y,-z
x,-y,z
loop_
_atom_site_type_symbol
_atom_site_label
_atom_site_fract_x
_atom_site_fract_y
_atom_site_fract_z
Si Si1 0.788287 0.691513 0.982371
Si Si2 0.637343 0.807979 0.472677
Si Si3 0.466244 0.194113 0.340649
Si Si4 0.997235 0.312405 0.241538
Si Si5 0.891708 0.183232 0.702824
Si Si6 0.186583 0.810593 0.906195
Si Si7 0.873519 0.313009 0.522065
Si Si8 0.537210 0.691965 0.913735
O O1 0.798788 0.500000 0.990090
O O2 0.944803 0.737810 0.854244
O O3 0.780144 0.789643 0.045065
O O4 0.624797 0.716787 0.034693
O O5 0.500000 0.788169 0.500000
O O6 0.575992 0.755784 0.570256
O O7 0.802287 0.713335 0.361698
O O8 0.678509 0.000000 0.453316
O O9 0.648895 0.257188 0.218417
O O10 0.310445 0.240582 0.386570
O O11 0.474359 0.000000 0.335970
O O12 0.046437 0.500000 0.220258
O O13 0.088909 0.214900 0.240347
O O14 0.699689 0.222630 0.796569
O O15 0.021168 0.293833 0.595756
O O16 0.935889 0.000000 0.664192
O O17 0.177634 0.000000 0.895508
O O18 0.000000 0.739886 0.000000
O O19 0.847312 0.500000 0.551207
O O20 0.000000 0.242896 0.500000
O O21 0.573234 0.500000 0.895952
O O22 0.500000 0.745330 0.000000
#
# Coordination Sequence:
#
# PCOD9151448 Si02
#       8
#     4   4   4   4   4   4   4   4
#     4  10  23  41  63  90 123 165 212 260 308 363
#     4  10  22  39  64  95 125 161 200 253 322 380
#     4  10  22  42  64  94 130 163 208 263 314 369
#     4  11  22  40  63  91 125 162 208 259 314 372
#     4  12  24  38  60  91 126 162 204 256 313 371
#     4  10  24  44  66  91 125 169 212 261 318 375
#     4  11  25  43  64  90 122 168 213 255 313 377
#     4  10  20  39  61  85 124 166 200 246 306 365
#
# _framework density 20.853300000000001
#
# number of rings (size 3 to 8) (size 9 to 14) (size 15 to 20)
#    0.000    1.500    2.500    1.875    3.500    3.750 
#    0.000    0.000    0.000    0.000    0.000    0.000 
#    0.000    0.000    0.000    0.000    0.000    0.000 
#
# Total GULP energy -178777.156962 kJ/mol
# GULP energy per Si atom -5586.786155 kJ/mol
# Density = 2.080584 g / cm^3
# Si number density = 20.853300 Si / 1000 Ang^3
#
#
#
# Elastic Constant Matrix: (Units=GPa)
#
#
# Indices 1 2 3 4 5 6 
#
# 1 62.4504 7.0689 23.8981 0.0000 -10.9642 0.0000
# 2 7.0689 12.1986 5.5781 0.0000 -8.5317 0.0000
# 3 23.8981 5.5781 132.3539 0.0000 -15.8613 0.0000
# 4 0.0000 0.0000 0.0000 41.8114 0.0000 -4.9957
# 5 -10.9642 -8.5317 -15.8613 0.0000 24.5838 0.0000
# 6 0.0000 0.0000 0.0000 -4.9957 0.0000 22.0185
#
#
#
# Elastic Compliance Matrix: (Units=1/GPa)
#
#
# Indices 1 2 3 4 5 6 
#
# 1 0.018485 -0.006511 -0.002543 0.000000 0.004344 0.000000
# 2 -0.006511 0.110545 0.000830 0.000000 0.035996 0.000000
# 3 -0.002543 0.000830 0.008538 0.000000 0.004663 0.000000
# 4 0.000000 0.000000 0.000000 0.024583 0.000000 0.005578
# 5 0.004344 0.035996 0.004663 0.000000 0.058116 0.000000
# 6 0.000000 0.000000 0.000000 0.005578 0.000000 0.046682
#
#
# Mechanical properties :
#
#
# Convention : Reuss Voigt Hill
#
# Bulk Modulus (GPa) = 8.25609 31.12147 19.68878
# Shear Modulus (GPa) = 15.44302 29.04659 22.24481
#
# Velocity S-wave (km/s) = 2.72427 3.73621 3.26962
# Velocity P-wave (km/s) = 3.72334 5.79385 4.86991
#
# Compressibility (1/GPa) = 0.12112264
#
# Stress axis : x y z
#
# Youngs Moduli (GPa) = 54.09662 9.04606 117.11718
#
# Poissons Ratio (x) = 0.05890 0.29780
# Poissons Ratio (y) = 0.35222 -0.09726
# Poissons Ratio (z) = 0.13755 -0.00751
#
# Static dielectric constant tensor:
#      x y z
#    x 1.742470 0.000000 -0.012620 
#    y 0.000000 1.744580 0.000000 
#    z -0.012620 0.000000 1.753990 
# 
# From -- ./inp_files/89569.got.cif
#   From: 2010.05.17/outbox.cif.g08.bks.cpg/sg10_45_cif.got.tgz:89569.got - 2010.06.03 11:33:40.
