data_PCOD9151904
_publ_section_title
;
Structure prediction by ZEFSAII (Michael W. Deem and Ramdas Pophale) SiO2 
 PCOD9151904
Probable space group: P 2/M
;
_chemical_formula_sum "Si O2"
_cell_formula_units_Z 32
_cell_length_a 27.153807
_cell_length_b 7.611072
_cell_length_c 14.633722
_cell_angle_alpha 90.000000
_cell_angle_beta 152.231662
_cell_angle_gamma 90.000000
_cell_volume 1409.035598
_symmetry_space_group_name_H-M "P 2/M"
_symmetry_group_IT_number 10
_symmetry_cell_setting 'monoclinic'
loop_
_space_group_symop_operation_xyz
x,y,z
-x,y,-z
-x,-y,-z
x,-y,z
loop_
_atom_site_type_symbol
_atom_site_label
_atom_site_fract_x
_atom_site_fract_y
_atom_site_fract_z
Si Si1 0.507876 0.783905 0.907824
Si Si2 0.903105 0.800485 0.394350
Si Si3 0.596523 0.292150 0.720120
Si Si4 0.979657 0.705866 0.713064
Si Si5 0.313144 0.795419 0.466716
Si Si6 0.325945 0.795245 0.960549
Si Si7 0.773725 0.789203 0.867325
Si Si8 0.101696 0.712869 0.225746
O O1 0.409559 0.722478 0.684340
O O2 0.506950 0.000000 0.906768
O O3 0.500000 0.728076 0.000000
O O4 0.612730 0.724307 0.026478
O O5 0.787787 0.715366 0.202037
O O6 0.000000 0.713689 0.500000
O O7 0.939062 0.804572 0.557864
O O8 0.892611 0.000000 0.338650
O O9 0.500000 0.222557 0.500000
O O10 0.581929 0.500000 0.707065
O O11 0.704402 0.258824 0.841527
O O12 0.603084 0.214877 0.832184
O O13 0.955977 0.500000 0.661597
O O14 0.920680 0.767835 0.707493
O O15 0.105967 0.724041 0.931796
O O16 0.285159 0.720382 0.320885
O O17 0.207701 0.782090 0.354275
O O18 0.338697 0.000000 0.493031
O O19 0.305353 0.000000 0.906163
O O20 0.779494 0.000000 0.871509
O O21 0.106398 0.500000 0.231254
O O22 0.000000 0.767367 0.000000
#
# Coordination Sequence:
#
# PCOD9151904 Si02
#       8
#     4   4   4   4   4   4   4   4
#     4   9  19  36  58  86 117 152 198 245 296 353
#     4  10  22  39  60  89 121 155 199 248 300 357
#     4  11  24  40  61  89 120 156 196 241 296 357
#     4  11  23  38  59  86 118 158 197 238 296 360
#     4  10  21  35  58  87 115 150 198 250 294 345
#     4  10  21  39  63  88 120 161 199 249 305 351
#     4  11  22  37  59  89 120 152 195 248 297 354
#     4  10  21  38  57  82 120 160 193 235 295 361
#
# _framework density 22.710567000000001
#
# number of rings (size 3 to 8) (size 9 to 14) (size 15 to 20)
#    0.000    1.750    1.250    2.625    1.750    5.500 
#    0.000    0.625    0.000    0.750    0.000    0.000 
#    0.000    0.000    0.000    0.000    0.000    0.000 
#
# Total GULP energy -178924.664483 kJ/mol
# GULP energy per Si atom -5591.395765 kJ/mol
# Density = 2.265888 g / cm^3
# Si number density = 22.710567 Si / 1000 Ang^3
#
#
#
# Elastic Constant Matrix: (Units=GPa)
#
#
# Indices 1 2 3 4 5 6 
#
# 1 144.9734 -6.3289 30.8992 0.0000 4.0953 0.0000
# 2 -6.3289 54.2915 -1.9717 0.0000 0.2432 0.0000
# 3 30.8992 -1.9717 95.9023 0.0000 2.6133 0.0000
# 4 0.0000 0.0000 0.0000 2.1781 0.0000 10.7886
# 5 4.0953 0.2432 2.6133 0.0000 39.0561 0.0000
# 6 0.0000 0.0000 0.0000 10.7886 0.0000 -14.4023
#
#
#
# Elastic Compliance Matrix: (Units=1/GPa)
#
#
# Indices 1 2 3 4 5 6 
#
# 1 0.007455 0.000786 -0.002369 0.000000 -0.000628 0.000000
# 2 0.000786 0.018516 0.000133 0.000000 -0.000207 0.000000
# 3 -0.002369 0.000133 0.011207 0.000000 -0.000502 0.000000
# 4 0.000000 0.000000 0.000000 0.097469 0.000000 0.073013
# 5 -0.000628 -0.000207 -0.000502 0.000000 0.025705 0.000000
# 6 0.000000 0.000000 0.000000 0.073013 0.000000 -0.014740
#
#
# Mechanical properties :
#
#
# Convention : Reuss Voigt Hill
#
# Bulk Modulus (GPa) = 29.17264 37.81827 33.49545
# Shear Modulus (GPa) = 31.26236 23.53762 27.39999
#
# Velocity S-wave (km/s) = 3.71422 3.22284 3.47722
# Velocity P-wave (km/s) = 5.59171 5.52606 5.55898
#
# Compressibility (1/GPa) = 0.03427870
#
# Stress axis : x y z
#
# Youngs Moduli (GPa) = 134.14358 54.00602 89.23114
#
# Poissons Ratio (x) = -0.04244 0.21135
# Poissons Ratio (y) = -0.10541 -0.01188
# Poissons Ratio (z) = 0.31773 -0.00719
#
# Static dielectric constant tensor:
#      x y z
#    x 1.904400 0.000000 0.004660 
#    y 0.000000 1.884790 0.000000 
#    z 0.004660 0.000000 1.834950 
# 
# From -- ./inp_files/71681.got.cif
#   From: 2010.05.17/outbox.cif.g08.bks.cpg/sg10_36_cif.got.tgz:71681.got - 2010.06.03 11:33:40.
