data_PCOD9151746
_publ_section_title
;
Structure prediction by ZEFSAII (Michael W. Deem and Ramdas Pophale) SiO2 
 PCOD9151746
Probable space group: P 2/M
;
_chemical_formula_sum "Si O2"
_cell_formula_units_Z 32
_cell_length_a 13.005442
_cell_length_b 15.206124
_cell_length_c 18.052655
_cell_angle_alpha 90.000000
_cell_angle_beta 27.124484
_cell_angle_gamma 90.000000
_cell_volume 1627.715119
_symmetry_space_group_name_H-M "P 2/M"
_symmetry_group_IT_number 10
_symmetry_cell_setting 'monoclinic'
loop_
_space_group_symop_operation_xyz
x,y,z
-x,y,-z
-x,-y,-z
x,-y,z
loop_
_atom_site_type_symbol
_atom_site_label
_atom_site_fract_x
_atom_site_fract_y
_atom_site_fract_z
Si Si1 0.740360 0.601357 0.144114
Si Si2 0.442519 0.900037 0.224663
Si Si3 0.402677 0.669868 0.481538
Si Si4 0.093246 0.596871 0.206381
Si Si5 0.262886 0.100596 0.179081
Si Si6 0.389328 0.716297 0.914290
Si Si7 0.884345 0.652395 0.643452
Si Si8 0.821939 0.806744 0.476997
O O1 0.714350 0.500000 0.136891
O O2 0.582855 0.619367 0.315559
O O3 0.667020 0.666356 0.125786
O O4 0.000000 0.615675 0.000000
O O5 0.276875 0.899766 0.259453
O O6 0.616866 0.821131 0.095273
O O7 0.309884 0.871415 0.383481
O O8 0.530511 0.000000 0.173926
O O9 0.500000 0.686314 0.500000
O O10 0.336901 0.758784 0.479933
O O11 0.171789 0.614394 0.634645
O O12 0.156794 0.500000 0.137155
O O13 0.140300 0.601448 0.263902
O O14 0.225774 0.674450 0.080286
O O15 0.035326 0.147296 0.301872
O O16 0.260379 0.000000 0.153909
O O17 0.500000 0.141302 0.000000
O O18 0.643188 0.691487 0.775816
O O19 0.000000 0.604151 0.500000
O O20 0.061046 0.730256 0.549212
#
# Coordination Sequence:
#
# PCOD9151746 Si02
#       8
#     4   4   4   4   4   4   4   4
#     4  11  24  43  68  95 123 163 216 269 320 380
#     4  11  22  37  63  95 127 167 213 256 313 379
#     4  11  24  42  65  93 123 165 213 266 323 384
#     4  11  26  41  62  93 129 173 213 262 320 385
#     4  10  21  34  58  97 132 164 207 260 315 375
#     4  12  22  40  63  93 130 168 210 265 320 381
#     4  11  21  37  60  90 131 173 208 251 315 385
#     4  11  20  39  61  89 129 170 210 257 321 383
#
# _framework density 19.659459999999999
#
# number of rings (size 3 to 8) (size 9 to 14) (size 15 to 20)
#    0.000    1.000    3.750    3.375    3.500    4.750 
#    0.000    0.000    0.000    1.875    0.000    0.000 
#    0.000    0.000    0.000    0.000    0.000    0.000 
#
# Total GULP energy -178851.208445 kJ/mol
# GULP energy per Si atom -5589.100264 kJ/mol
# Density = 1.961471 g / cm^3
# Si number density = 19.659460 Si / 1000 Ang^3
#
#
#
# Elastic Constant Matrix: (Units=GPa)
#
#
# Indices 1 2 3 4 5 6 
#
# 1 107.3023 46.7505 29.0549 0.0000 1.7262 0.0000
# 2 46.7505 143.5280 53.8437 0.0000 -2.0277 0.0000
# 3 29.0549 53.8437 113.7545 0.0000 9.5230 0.0000
# 4 0.0000 0.0000 0.0000 10.1883 0.0000 9.2953
# 5 1.7262 -2.0277 9.5230 0.0000 27.2913 0.0000
# 6 0.0000 0.0000 0.0000 9.2953 0.0000 4.8626
#
#
#
# Elastic Compliance Matrix: (Units=1/GPa)
#
#
# Indices 1 2 3 4 5 6 
#
# 1 0.011036 -0.003111 -0.001307 0.000000 -0.000473 0.000000
# 2 -0.003111 0.009466 -0.003874 0.000000 0.002252 0.000000
# 3 -0.001307 -0.003874 0.011306 0.000000 -0.004150 0.000000
# 4 0.000000 0.000000 0.000000 -0.131918 0.000000 0.252172
# 5 -0.000473 0.002252 -0.004150 0.000000 0.038287 0.000000
# 6 0.000000 0.000000 0.000000 0.252172 0.000000 -0.276397
#
#
# Mechanical properties :
#
#
# Convention : Reuss Voigt Hill
#
# Bulk Modulus (GPa) = 65.68711 69.32033 67.50372
# Shear Modulus (GPa) = -15.79476 24.13082 4.16803
#
# Velocity S-wave (km/s) = -2.83754 3.50729 1.45764
# Velocity P-wave (km/s) = 4.76964 7.19295 6.10279
#
# Compressibility (1/GPa) = 0.01522369
#
# Stress axis : x y z
#
# Youngs Moduli (GPa) = 90.60880 105.64117 88.44939
#
# Poissons Ratio (x) = 0.32869 0.11557
# Poissons Ratio (y) = 0.28192 0.34269
# Poissons Ratio (z) = 0.11839 0.40930
#
# Static dielectric constant tensor:
#      x y z
#    x 1.673680 0.000000 0.041150 
#    y 0.000000 1.717490 0.000000 
#    z 0.041150 0.000000 1.712660 
# 
# From -- ./inp_files/77017.got.cif
#   From: 2010.05.17/outbox.cif.g08.bks.cpg/sg10_39_cif.got.tgz:77017.got - 2010.06.03 11:33:40.
