data_PCOD9151458
_publ_section_title
;
Structure prediction by ZEFSAII (Michael W. Deem and Ramdas Pophale) SiO2 
 PCOD9151458
Probable space group: P 2/M
;
_chemical_formula_sum "Si O2"
_cell_formula_units_Z 32
_cell_length_a 8.022824
_cell_length_b 15.186034
_cell_length_c 11.779209
_cell_angle_alpha 90.000000
_cell_angle_beta 91.947571
_cell_angle_gamma 90.000000
_cell_volume 1434.289487
_symmetry_space_group_name_H-M "P 2/M"
_symmetry_group_IT_number 10
_symmetry_cell_setting 'monoclinic'
loop_
_space_group_symop_operation_xyz
x,y,z
-x,y,-z
-x,-y,-z
x,-y,z
loop_
_atom_site_type_symbol
_atom_site_label
_atom_site_fract_x
_atom_site_fract_y
_atom_site_fract_z
Si Si1 0.335412 0.399537 0.665554
Si Si2 0.478167 0.761921 0.257407
Si Si3 0.269748 0.266822 0.467118
Si Si4 0.154634 0.906827 0.588420
Si Si5 0.021675 0.663053 0.272189
Si Si6 0.183403 0.404148 0.060251
Si Si7 0.166471 0.168007 0.816442
Si Si8 0.312700 0.784649 0.034374
O O1 0.388467 0.500000 0.659613
O O2 0.457581 0.339748 0.746002
O O3 0.325646 0.349194 0.544754
O O4 0.144147 0.392591 0.704406
O O5 0.404444 0.769148 0.380867
O O6 0.644409 0.813645 0.225092
O O7 0.329400 0.790843 0.169977
O O8 0.230147 0.186277 0.550145
O O9 0.115246 0.300871 0.386110
O O10 0.102921 0.898945 0.719634
O O11 0.000000 0.912682 0.500000
O O12 0.251083 0.000000 0.578318
O O13 0.948125 0.746592 0.202833
O O14 0.147579 0.611843 0.192963
O O15 0.261230 0.500000 0.041640
O O16 0.274624 0.318669 0.013120
O O17 0.000000 0.404931 0.000000
O O18 0.192054 0.157707 0.952171
O O19 0.500000 0.803444 0.000000
#
# Coordination Sequence:
#
# PCOD9151458 Si02
#       8
#     4   4   4   4   4   4   4   4
#     4  11  24  38  56  84 123 169 208 251 306 367
#     4  10  22  37  59  84 121 159 203 252 297 358
#     4  12  21  38  62  90 122 160 202 252 310 367
#     4  11  22  39  67 101 126 153 196 251 311 374
#     4  11  20  37  58  80 119 160 201 247 303 358
#     4  11  22  34  52  83 115 153 209 261 296 345
#     4  10  20  39  62  84 116 158 198 240 307 362
#     4  10  21  39  59  81 111 166 205 248 302 359
#
# _framework density 22.310697999999999
#
# number of rings (size 3 to 8) (size 9 to 14) (size 15 to 20)
#    0.000    1.250    6.250    1.125    0.000    3.250 
#    0.000    1.250    0.000    4.125    0.000    2.625 
#    0.000    0.000    0.000    0.000    0.000    0.000 
#
# Total GULP energy -178432.178975 kJ/mol
# GULP energy per Si atom -5576.005593 kJ/mol
# Density = 2.225992 g / cm^3
# Si number density = 22.310698 Si / 1000 Ang^3
#
#
#
# Elastic Constant Matrix: (Units=GPa)
#
#
# Indices 1 2 3 4 5 6 
#
# 1 52.6768 -10.6281 19.7352 0.0000 10.2913 0.0000
# 2 -10.6281 63.4794 20.0259 0.0000 9.0712 0.0000
# 3 19.7352 20.0259 133.3406 0.0000 30.6396 0.0000
# 4 0.0000 0.0000 0.0000 16.8549 0.0000 11.2457
# 5 10.2913 9.0712 30.6396 0.0000 36.0582 0.0000
# 6 0.0000 0.0000 0.0000 11.2457 0.0000 12.4038
#
#
#
# Elastic Compliance Matrix: (Units=1/GPa)
#
#
# Indices 1 2 3 4 5 6 
#
# 1 0.022169 0.005369 -0.002887 0.000000 -0.005225 0.000000
# 2 0.005369 0.018027 -0.002619 0.000000 -0.003842 0.000000
# 3 -0.002887 -0.002619 0.009916 0.000000 -0.006943 0.000000
# 4 0.000000 0.000000 0.000000 0.150166 0.000000 -0.136145
# 5 -0.005225 -0.003842 -0.006943 0.000000 0.036090 0.000000
# 6 0.000000 0.000000 0.000000 -0.136145 0.000000 0.204053
#
#
# Mechanical properties :
#
#
# Convention : Reuss Voigt Hill
#
# Bulk Modulus (GPa) = 20.06504 34.19588 27.13046
# Shear Modulus (GPa) = 10.93353 27.75431 19.34392
#
# Velocity S-wave (km/s) = 2.21613 3.53085 2.94772
# Velocity P-wave (km/s) = 3.94478 5.65535 4.87567
#
# Compressibility (1/GPa) = 0.04983793
#
# Stress axis : x y z
#
# Youngs Moduli (GPa) = 45.10732 55.47118 100.85142
#
# Poissons Ratio (x) = -0.29783 0.29115
# Poissons Ratio (y) = -0.24219 0.26416
# Poissons Ratio (z) = 0.13022 0.14530
#
# Static dielectric constant tensor:
#      x y z
#    x 1.888280 0.000000 0.025480 
#    y 0.000000 1.816900 0.000000 
#    z 0.025480 0.000000 1.918150 
# 
# From -- ./inp_files/42993.got.cif
#   From: 2010.05.17/outbox.cif.g08.bks.cpg/sg10_22_cif.got.tgz:42993.got - 2010.06.03 11:33:40.
