data_PCOD9151909
_publ_section_title
;
Structure prediction by ZEFSAII (Michael W. Deem and Ramdas Pophale) SiO2 
 PCOD9151909
Probable space group: P 2/M
;
_chemical_formula_sum "Si O2"
_cell_formula_units_Z 32
_cell_length_a 20.672265
_cell_length_b 20.009804
_cell_length_c 12.135830
_cell_angle_alpha 90.000000
_cell_angle_beta 161.283989
_cell_angle_gamma 90.000000
_cell_volume 1610.793540
_symmetry_space_group_name_H-M "P 2/M"
_symmetry_group_IT_number 10
_symmetry_cell_setting 'monoclinic'
loop_
_space_group_symop_operation_xyz
x,y,z
-x,y,-z
-x,-y,-z
x,-y,z
loop_
_atom_site_type_symbol
_atom_site_label
_atom_site_fract_x
_atom_site_fract_y
_atom_site_fract_z
Si Si1 0.662500 0.801344 0.854656
Si Si2 0.849859 0.338223 0.166218
Si Si3 0.329884 0.817685 0.477297
Si Si4 0.186740 0.321207 0.545722
Si Si5 0.491939 0.577658 0.355361
Si Si6 0.616970 0.667420 0.360668
Si Si7 0.281508 0.924058 0.591543
Si Si8 0.996046 0.174568 0.745787
O O1 0.500000 0.820729 0.500000
O O2 0.556970 0.824571 0.795805
O O3 0.687195 0.720805 0.890200
O O4 0.879346 0.827022 0.166640
O O5 0.000000 0.310249 0.500000
O O6 0.985357 0.350147 0.277500
O O7 0.741203 0.402616 0.040153
O O8 0.325581 0.743244 0.518318
O O9 0.283223 0.874314 0.490406
O O10 0.164035 0.819296 0.113103
O O11 0.237490 0.350061 0.507034
O O12 0.141095 0.241322 0.469507
O O13 0.387926 0.332674 0.943000
O O14 0.500000 0.592632 0.500000
O O15 0.535503 0.500000 0.409634
O O16 0.617787 0.622104 0.471717
O O17 0.129414 0.891114 0.432694
O O18 0.228702 0.000000 0.476571
O O19 0.500000 0.923478 0.000000
#
# Coordination Sequence:
#
# PCOD9151909 Si02
#       8
#     4   4   4   4   4   4   4   4
#     4   9  19  34  57  88 120 146 191 251 302 353
#     4  11  19  35  59  88 115 154 201 251 301 359
#     4  11  20  35  61  91 119 157 201 251 301 359
#     4  10  21  35  58  93 121 150 197 255 311 356
#     4  11  25  43  61  83 119 167 206 249 314 376
#     4  11  21  38  60  87 124 158 198 255 308 370
#     4  11  24  41  58  82 125 170 204 244 301 364
#     4  10  21  35  59  93 119 153 200 251 306 359
#
# _framework density 19.865985999999999
#
# number of rings (size 3 to 8) (size 9 to 14) (size 15 to 20)
#    0.000    1.500    3.750    1.500    3.500    2.250 
#    0.000    2.500    0.000    5.250    0.000    0.000 
#    0.000    0.000    0.000    0.000    0.000    0.000 
#
# Total GULP energy -178547.578804 kJ/mol
# GULP energy per Si atom -5579.611838 kJ/mol
# Density = 1.982077 g / cm^3
# Si number density = 19.865986 Si / 1000 Ang^3
#
#
#
# Elastic Constant Matrix: (Units=GPa)
#
#
# Indices 1 2 3 4 5 6 
#
# 1 119.6622 55.2325 21.4925 0.0000 15.9559 0.0000
# 2 55.2325 86.0590 5.5411 0.0000 2.2601 0.0000
# 3 21.4925 5.5411 31.6653 0.0000 6.4286 0.0000
# 4 0.0000 0.0000 0.0000 10.1305 0.0000 -2.3199
# 5 15.9559 2.2601 6.4286 0.0000 29.2622 0.0000
# 6 0.0000 0.0000 0.0000 -2.3199 0.0000 20.0801
#
#
#
# Elastic Compliance Matrix: (Units=1/GPa)
#
#
# Indices 1 2 3 4 5 6 
#
# 1 0.014351 -0.008606 -0.007097 0.000000 -0.005601 0.000000
# 2 -0.008606 0.016920 0.002296 0.000000 0.002882 0.000000
# 3 -0.007097 0.002296 0.036892 0.000000 -0.004412 0.000000
# 4 0.000000 0.000000 0.000000 0.101395 0.000000 0.011714
# 5 -0.005601 0.002882 -0.004412 0.000000 0.037975 0.000000
# 6 0.000000 0.000000 0.000000 0.011714 0.000000 0.051154
#
#
# Mechanical properties :
#
#
# Convention : Reuss Voigt Hill
#
# Bulk Modulus (GPa) = 24.18595 44.65763 34.42179
# Shear Modulus (GPa) = 16.70653 22.23590 19.47122
#
# Velocity S-wave (km/s) = 2.90308 3.34922 3.13410
# Velocity P-wave (km/s) = 4.84130 6.12247 5.51918
#
# Compressibility (1/GPa) = 0.04134632
#
# Stress axis : x y z
#
# Youngs Moduli (GPa) = 69.68207 59.10184 27.10643
#
# Poissons Ratio (x) = 0.50865 0.19238
# Poissons Ratio (y) = 0.59970 -0.06223
# Poissons Ratio (z) = 0.49456 -0.13567
#
# Static dielectric constant tensor:
#      x y z
#    x 1.763700 0.000000 -0.008540 
#    y 0.000000 1.661270 0.000000 
#    z -0.008540 0.000000 1.767310 
# 
# From -- ./inp_files/56146.got.cif
#   From: 2010.05.17/outbox.cif.g08.bks.cpg/sg10_29_cif.got.tgz:56146.got - 2010.06.03 11:33:40.
