data_PCOD9151755
_publ_section_title
;
Structure prediction by ZEFSAII (Michael W. Deem and Ramdas Pophale) SiO2 
 PCOD9151755
Probable space group: P 2/M
;
_chemical_formula_sum "Si O2"
_cell_formula_units_Z 28
_cell_length_a 22.267085
_cell_length_b 9.588590
_cell_length_c 7.246853
_cell_angle_alpha 90.000000
_cell_angle_beta 90.288378
_cell_angle_gamma 90.000000
_cell_volume 1547.255613
_symmetry_space_group_name_H-M "P 2/M"
_symmetry_group_IT_number 10
_symmetry_cell_setting 'monoclinic'
loop_
_space_group_symop_operation_xyz
x,y,z
-x,y,-z
-x,-y,-z
x,-y,z
loop_
_atom_site_type_symbol
_atom_site_label
_atom_site_fract_x
_atom_site_fract_y
_atom_site_fract_z
Si Si1 0.053146 0.338059 0.739162
Si Si2 0.809104 0.834824 0.885395
Si Si3 0.077473 0.661931 0.183007
Si Si4 0.496550 0.669132 0.791843
Si Si5 0.167779 0.834822 0.685739
Si Si6 0.600186 0.668304 0.505356
Si Si7 0.720808 0.833736 0.580765
O O1 0.056885 0.500000 0.683675
O O2 0.106500 0.249698 0.651762
O O3 0.983904 0.291420 0.717855
O O4 0.064632 0.333147 0.961505
O O5 0.863909 0.754118 0.790624
O O6 0.746735 0.800262 0.784594
O O7 0.818806 0.000000 0.859936
O O8 0.811427 0.805467 0.103128
O O9 0.088155 0.500000 0.229517
O O10 0.495616 0.500000 0.796678
O O11 0.554909 0.705392 0.672002
O O12 0.436728 0.709277 0.679202
O O13 0.500000 0.721876 0.000000
O O14 0.223214 0.802509 0.553525
O O15 0.155196 0.000000 0.671145
O O16 0.608122 0.500000 0.505247
O O17 0.662676 0.746201 0.528442
O O18 0.708654 0.000000 0.569096
#
# Coordination Sequence:
#
# PCOD9151755 Si02
#       7
#     4   4   4   4   4   4   4
#     4   8  14  26  45  68  92 117 149 196 250 292
#     4   9  18  32  48  65  88 123 163 196 232 283
#     4   8  14  26  45  68  92 117 149 196 250 292
#     4   8  15  31  54  78 104 128 152 190 232 266
#     4   9  18  32  48  65  88 123 163 196 232 283
#     4   9  18  32  52  77  99 125 162 192 221 272
#     4  10  21  35  48  67 100 132 156 193 238 272
#
# _framework density 18.096556
#
# number of rings (size 3 to 8) (size 9 to 14) (size 15 to 20)
#    0.000    3.286    0.000    1.714    0.000    2.857 
#    0.000    5.000    0.000    5.143    0.000    0.000 
#    0.000    0.000    0.000    0.000    0.000    0.000 
#
# Total GULP energy -156081.756393 kJ/mol
# GULP energy per Si atom -5574.348443 kJ/mol
# Density = 1.805537 g / cm^3
# Si number density = 18.096556 Si / 1000 Ang^3
#
#
#
# Elastic Constant Matrix: (Units=GPa)
#
#
# Indices 1 2 3 4 5 6 
#
# 1 117.7589 44.3520 31.8930 0.0000 18.8166 0.0000
# 2 44.3520 24.5872 17.9890 0.0000 7.0418 0.0000
# 3 31.8930 17.9890 77.4284 0.0000 10.6789 0.0000
# 4 0.0000 0.0000 0.0000 11.2613 0.0000 8.5684
# 5 18.8166 7.0418 10.6789 0.0000 15.6443 0.0000
# 6 0.0000 0.0000 0.0000 8.5684 0.0000 116.8097
#
#
#
# Elastic Compliance Matrix: (Units=1/GPa)
#
#
# Indices 1 2 3 4 5 6 
#
# 1 0.028685 -0.048922 0.001404 0.000000 -0.013439 0.000000
# 2 -0.048922 0.136234 -0.012318 0.000000 0.005928 0.000000
# 3 0.001404 -0.012318 0.016191 0.000000 -0.007196 0.000000
# 4 0.000000 0.000000 0.000000 0.094049 0.000000 -0.006899
# 5 -0.013439 0.005928 -0.007196 0.000000 0.082329 0.000000
# 6 0.000000 0.000000 0.000000 -0.006899 0.000000 0.009067
#
#
# Mechanical properties :
#
#
# Convention : Reuss Voigt Hill
#
# Bulk Modulus (GPa) = 16.27627 45.36028 30.81827
# Shear Modulus (GPa) = 9.86767 37.11242 23.49005
#
# Velocity S-wave (km/s) = 2.33765 4.53349 3.60674
# Velocity P-wave (km/s) = 4.03730 7.24731 5.86614
#
# Compressibility (1/GPa) = 0.06143915
#
# Stress axis : x y z
#
# Youngs Moduli (GPa) = 34.86191 7.34030 61.76221
#
# Poissons Ratio (x) = 0.35910 -0.08673
# Poissons Ratio (y) = 1.70550 0.76078
# Poissons Ratio (z) = -0.04895 0.09042
#
# Static dielectric constant tensor:
#      x y z
#    x 1.587350 0.000000 0.014490 
#    y 0.000000 1.592830 0.000000 
#    z 0.014490 0.000000 1.686740 
# 
# From -- ./inp_files/33484.got.cif
#   From: 2010.05.17/outbox.cif.g08.bks.cpg/sg10_17_cif.got.tgz:33484.got - 2010.06.03 11:33:40.
