data_PCOD9151421
_publ_section_title
;
Structure prediction by ZEFSAII (Michael W. Deem and Ramdas Pophale) SiO2 
 PCOD9151421
Probable space group: P 2/M
;
_chemical_formula_sum "Si O2"
_cell_formula_units_Z 16
_cell_length_a 17.501662
_cell_length_b 8.525954
_cell_length_c 5.152805
_cell_angle_alpha 90.000000
_cell_angle_beta 89.506868
_cell_angle_gamma 90.000000
_cell_volume 768.864660
_symmetry_space_group_name_H-M "P 2/M"
_symmetry_group_IT_number 10
_symmetry_cell_setting 'monoclinic'
loop_
_space_group_symop_operation_xyz
x,y,z
-x,y,-z
-x,-y,-z
x,-y,z
loop_
_atom_site_type_symbol
_atom_site_label
_atom_site_fract_x
_atom_site_fract_y
_atom_site_fract_z
Si Si1 0.729019 0.321482 0.216291
Si Si2 0.445372 0.000000 0.247798
Si Si3 0.946984 0.000000 0.751805
Si Si4 0.797157 0.827189 0.709627
Si Si5 0.589152 0.324744 0.568411
O O1 0.740137 0.500000 0.134215
O O2 0.775852 0.287745 0.478833
O O3 0.641671 0.301762 0.313515
O O4 0.758781 0.216507 0.981883
O O5 0.500000 0.000000 0.500000
O O6 0.401021 0.166197 0.264617
O O7 0.500000 0.000000 0.000000
O O8 0.887653 0.146027 0.748580
O O9 0.000000 0.000000 0.500000
O O10 0.000000 0.000000 0.000000
O O11 0.769253 0.000000 0.623776
O O12 0.500000 0.332116 0.500000
O O13 0.609265 0.500000 0.675735
#
# Coordination Sequence:
#
# PCOD9151421 Si02
#       5
#     4   2   2   4   4
#     4  11  22  40  62  90 128 170 211 260 322 378
#     4  10  22  36  54  80 108 146 198 258 318 369
#     4  10  20  38  68  98 123 158 209 250 304 373
#     4  10  23  38  65  95 122 164 201 261 302 377
#     4   9  21  40  61  86 123 168 218 271 321 369
#
# _framework density 20.809902999999998
#
# number of rings (size 3 to 8) (size 9 to 14) (size 15 to 20)
#    0.750    1.250    0.000    3.000    3.500    4.500 
#    0.000    7.500    0.000   15.000    0.000    0.000 
#    0.000    0.000    0.000    0.000    0.000    0.000 
#
# Total GULP energy -89290.168022 kJ/mol
# GULP energy per Si atom -5580.635501 kJ/mol
# Density = 2.076254 g / cm^3
# Si number density = 20.809903 Si / 1000 Ang^3
#
#
#
# Elastic Constant Matrix: (Units=GPa)
#
#
# Indices 1 2 3 4 5 6 
#
# 1 142.3333 15.9318 55.9363 0.0000 -7.2154 0.0000
# 2 15.9318 130.1051 26.0196 0.0000 -24.3199 0.0000
# 3 55.9363 26.0196 123.3453 0.0000 -9.6931 0.0000
# 4 0.0000 0.0000 0.0000 198.1821 0.0000 -174.2232
# 5 -7.2154 -24.3199 -9.6931 0.0000 38.4400 0.0000
# 6 0.0000 0.0000 0.0000 -174.2232 0.0000 182.6200
#
#
#
# Elastic Compliance Matrix: (Units=1/GPa)
#
#
# Indices 1 2 3 4 5 6 
#
# 1 0.008569 -0.000190 -0.003804 0.000000 0.000529 0.000000
# 2 -0.000190 0.008977 -0.001392 0.000000 0.005293 0.000000
# 3 -0.003804 -0.001392 0.010203 0.000000 0.000978 0.000000
# 4 0.000000 0.000000 0.000000 0.031280 0.000000 0.029841
# 5 0.000529 0.005293 0.000978 0.000000 0.029709 0.000000
# 6 0.000000 0.000000 0.000000 0.029841 0.000000 0.033945
#
#
# Mechanical properties :
#
#
# Convention : Reuss Voigt Hill
#
# Bulk Modulus (GPa) = 58.90121 65.72878 62.31499
# Shear Modulus (GPa) = 35.94183 103.70815 69.82499
#
# Velocity S-wave (km/s) = 4.16041 7.06712 5.79884
# Velocity P-wave (km/s) = 7.17248 9.91192 8.65132
#
# Compressibility (1/GPa) = 0.01697758
#
# Stress axis : x y z
#
# Youngs Moduli (GPa) = 116.70098 111.39526 98.00993
#
# Poissons Ratio (x) = 0.02111 0.37287
# Poissons Ratio (y) = 0.02212 0.13641
# Poissons Ratio (z) = 0.44397 0.15504
#
# Static dielectric constant tensor:
#      x y z
#    x 1.748990 0.000000 0.014220 
#    y 0.000000 1.787760 0.000000 
#    z 0.014220 0.000000 1.685440 
# 
# From -- ./inp_files/10376.got.cif
#   From: 2010.05.17/outbox.cif.g08.bks.cpg/sg10_6_cif.got.tgz:10376.got - 2010.06.03 11:33:40.
