data_PCOD9151367
_publ_section_title
;
Structure prediction by ZEFSAII (Michael W. Deem and Ramdas Pophale) SiO2 
 PCOD9151367
Probable space group: P 2/M
;
_chemical_formula_sum "Si O2"
_cell_formula_units_Z 28
_cell_length_a 25.096470
_cell_length_b 8.964537
_cell_length_c 9.558950
_cell_angle_alpha 90.000000
_cell_angle_beta 139.281864
_cell_angle_gamma 90.000000
_cell_volume 1402.889940
_symmetry_space_group_name_H-M "P 2/M"
_symmetry_group_IT_number 10
_symmetry_cell_setting 'monoclinic'
loop_
_space_group_symop_operation_xyz
x,y,z
-x,y,-z
-x,-y,-z
x,-y,z
loop_
_atom_site_type_symbol
_atom_site_label
_atom_site_fract_x
_atom_site_fract_y
_atom_site_fract_z
Si Si1 0.587268 0.679379 0.239771
Si Si2 0.406626 0.329121 0.273967
Si Si3 0.150154 0.677866 0.954863
Si Si4 0.155202 0.823218 0.657211
Si Si5 0.692108 0.326372 0.188208
Si Si6 0.681019 0.174356 0.666412
Si Si7 0.006325 0.821738 0.848923
O O1 0.587108 0.500000 0.260636
O O2 0.659359 0.718226 0.274126
O O3 0.610032 0.762535 0.426210
O O4 0.500000 0.719562 0.000000
O O5 0.500000 0.304319 0.500000
O O6 0.385268 0.500000 0.275247
O O7 0.349130 0.213627 0.238283
O O8 0.386403 0.319494 0.070625
O O9 0.150118 0.500000 0.948882
O O10 0.144718 0.742117 0.785740
O O11 0.077072 0.737759 0.905556
O O12 0.235071 0.737405 0.187748
O O13 0.235203 0.766323 0.734950
O O14 0.077838 0.795773 0.402305
O O15 0.160970 0.000000 0.695436
O O16 0.717705 0.500000 0.243658
O O17 0.693526 0.000000 0.671395
O O18 0.023004 0.000000 0.878270
O O19 0.000000 0.778158 0.000000
#
# Coordination Sequence:
#
# PCOD9151367 Si02
#       7
#     4   4   4   4   4   4   4
#     4  10  22  42  65  91 126 172 218 264 321 380
#     4  10  20  38  64  92 123 163 210 261 313 370
#     4  12  25  43  67  95 127 167 215 263 312 372
#     4  11  23  41  66  95 129 168 206 256 320 381
#     4  10  21  37  62  93 125 164 212 262 309 373
#     4  12  25  40  62  93 129 169 213 263 319 377
#     4  10  24  45  68  97 131 166 203 251 317 384
#
# _framework density 19.958798999999999
#
# number of rings (size 3 to 8) (size 9 to 14) (size 15 to 20)
#    0.000    1.286    1.429    4.286    2.000    6.571 
#    0.000    1.429    0.000    0.000    0.000    0.000 
#    0.000    0.000    0.000    0.000    0.000    0.000 
#
# Total GULP energy -156542.781863 kJ/mol
# GULP energy per Si atom -5590.813638 kJ/mol
# Density = 1.991337 g / cm^3
# Si number density = 19.958799 Si / 1000 Ang^3
#
#
#
# Elastic Constant Matrix: (Units=GPa)
#
#
# Indices 1 2 3 4 5 6 
#
# 1 83.3220 45.1046 20.2637 0.0000 -0.2501 0.0000
# 2 45.1046 76.4381 42.1758 0.0000 5.8027 0.0000
# 3 20.2637 42.1758 80.8356 0.0000 2.7447 0.0000
# 4 0.0000 0.0000 0.0000 27.2322 0.0000 -10.5090
# 5 -0.2501 5.8027 2.7447 0.0000 32.1841 0.0000
# 6 0.0000 0.0000 0.0000 -10.5090 0.0000 59.5414
#
#
#
# Elastic Compliance Matrix: (Units=1/GPa)
#
#
# Indices 1 2 3 4 5 6 
#
# 1 0.017889 -0.011516 0.001453 0.000000 0.002091 0.000000
# 2 -0.011516 0.025988 -0.010541 0.000000 -0.003876 0.000000
# 3 0.001453 -0.010541 0.017492 0.000000 0.000420 0.000000
# 4 0.000000 0.000000 0.000000 0.039405 0.000000 0.006955
# 5 0.002091 -0.003876 0.000420 0.000000 0.031750 0.000000
# 6 0.000000 0.000000 0.000000 0.006955 0.000000 0.018023
#
#
# Mechanical properties :
#
#
# Convention : Reuss Voigt Hill
#
# Bulk Modulus (GPa) = 49.60054 50.63156 50.11605
# Shear Modulus (GPa) = 25.19203 32.66163 28.92683
#
# Velocity S-wave (km/s) = 3.55660 4.04970 3.81113
# Velocity P-wave (km/s) = 6.46307 6.87676 6.67312
#
# Compressibility (1/GPa) = 0.02016107
#
# Stress axis : x y z
#
# Youngs Moduli (GPa) = 55.90152 38.47866 57.16932
#
# Poissons Ratio (x) = 0.44314 -0.08309
# Poissons Ratio (y) = 0.64378 0.60262
# Poissons Ratio (z) = -0.08125 0.40560
#
# Static dielectric constant tensor:
#      x y z
#    x 1.682370 0.000000 0.002890 
#    y 0.000000 1.675310 0.000000 
#    z 0.002890 0.000000 1.699700 
# 
# From -- ./inp_files/37255.got.cif
#   From: 2010.05.17/outbox.cif.g08.bks.cpg/sg10_19_cif.got.tgz:37255.got - 2010.06.03 11:33:40.
