data_PCOD9151843
_publ_section_title
;
Structure prediction by ZEFSAII (Michael W. Deem and Ramdas Pophale) SiO2 
 PCOD9151843
Probable space group: P 2/M
;
_chemical_formula_sum "Si O2"
_cell_formula_units_Z 32
_cell_length_a 5.753327
_cell_length_b 10.311367
_cell_length_c 25.569869
_cell_angle_alpha 90.000000
_cell_angle_beta 90.915252
_cell_angle_gamma 90.000000
_cell_volume 1516.730407
_symmetry_space_group_name_H-M "P 2/M"
_symmetry_group_IT_number 10
_symmetry_cell_setting 'monoclinic'
loop_
_space_group_symop_operation_xyz
x,y,z
-x,y,-z
-x,-y,-z
x,-y,z
loop_
_atom_site_type_symbol
_atom_site_label
_atom_site_fract_x
_atom_site_fract_y
_atom_site_fract_z
Si Si1 0.799690 0.857129 0.456238
Si Si2 0.349287 0.638675 0.706303
Si Si3 0.159955 0.860895 0.370086
Si Si4 0.283300 0.357085 0.208735
Si Si5 0.984022 0.148509 0.253429
Si Si6 0.970219 0.343246 0.938481
Si Si7 0.535547 0.346646 0.105705
Si Si8 0.499677 0.352728 0.410621
O O1 0.639429 0.732196 0.452692
O O2 0.000000 0.840605 0.500000
O O3 0.916787 0.864966 0.399404
O O4 0.696507 0.000000 0.465616
O O5 0.232506 0.500000 0.720731
O O6 0.601377 0.633804 0.733847
O O7 0.361895 0.641313 0.644087
O O8 0.232447 0.765574 0.729012
O O9 0.132662 0.856380 0.307882
O O10 0.283674 0.736305 0.393840
O O11 0.279058 0.000000 0.383185
O O12 0.180650 0.500000 0.195230
O O13 0.111996 0.235938 0.210580
O O14 0.488114 0.336131 0.167456
O O15 0.935291 0.000000 0.238066
O O16 0.964203 0.500000 0.931307
O O17 0.712163 0.296633 0.919223
O O18 0.209973 0.296123 0.911023
O O19 0.000000 0.316750 0.000000
O O20 0.541912 0.500000 0.091949
O O21 0.446802 0.500000 0.426037
#
# Coordination Sequence:
#
# PCOD9151843 Si02
#       8
#     4   4   4   4   4   4   4   4
#     4  10  22  41  61  79 103 138 179 224 276 329
#     4  10  21  35  54  79 108 146 183 220 272 335
#     4  10  21  37  57  80 105 137 178 221 267 329
#     4  10  21  36  54  79 115 152 188 227 279 346
#     4  11  22  35  56  82 109 144 185 229 276 327
#     4   9  16  28  46  72 109 153 199 244 294 351
#     4   9  18  29  47  75 110 154 195 239 296 354
#     4  11  22  36  57  83 109 139 176 220 273 332
#
# _framework density 21.098015
#
# number of rings (size 3 to 8) (size 9 to 14) (size 15 to 20)
#    0.000    2.000    2.500    1.125    1.750    4.250 
#    0.000    2.500    0.000    0.000    0.000    0.000 
#    0.000    3.000    0.000    0.000    0.000    0.000 
#
# Total GULP energy -178296.818543 kJ/mol
# GULP energy per Si atom -5571.775579 kJ/mol
# Density = 2.105000 g / cm^3
# Si number density = 21.098015 Si / 1000 Ang^3
#
#
#
# Elastic Constant Matrix: (Units=GPa)
#
#
# Indices 1 2 3 4 5 6 
#
# 1 68.7655 42.0139 19.0213 0.0000 -11.8352 0.0000
# 2 42.0139 175.6912 12.2111 0.0000 -4.6209 0.0000
# 3 19.0213 12.2111 66.8527 0.0000 -4.8376 0.0000
# 4 0.0000 0.0000 0.0000 -24.5960 0.0000 -6.3593
# 5 -11.8352 -4.6209 -4.8376 0.0000 44.5698 0.0000
# 6 0.0000 0.0000 0.0000 -6.3593 0.0000 27.0557
#
#
#
# Elastic Compliance Matrix: (Units=1/GPa)
#
#
# Indices 1 2 3 4 5 6 
#
# 1 0.018979 -0.004128 -0.004346 0.000000 0.004140 0.000000
# 2 -0.004128 0.006673 -0.000074 0.000000 -0.000412 0.000000
# 3 -0.004346 -0.000074 0.016252 0.000000 0.000602 0.000000
# 4 0.000000 0.000000 0.000000 -0.038328 0.000000 -0.009009
# 5 0.004140 -0.000412 0.000602 0.000000 0.023559 0.000000
# 6 0.000000 0.000000 0.000000 -0.009009 0.000000 0.034843
#
#
# Mechanical properties :
#
#
# Convention : Reuss Voigt Hill
#
# Bulk Modulus (GPa) = 40.31051 50.86688 45.58870
# Shear Modulus (GPa) = 57.24488 25.27676 41.26082
#
# Velocity S-wave (km/s) = 5.21457 3.46506 4.42710
# Velocity P-wave (km/s) = 7.44335 6.33806 6.91283
#
# Compressibility (1/GPa) = 0.02480742
#
# Stress axis : x y z
#
# Youngs Moduli (GPa) = 52.69040 149.85395 61.53062
#
# Poissons Ratio (x) = 0.61852 0.26744
# Poissons Ratio (y) = 0.21748 0.00457
# Poissons Ratio (z) = 0.22902 0.01114
#
# Static dielectric constant tensor:
#      x y z
#    x 1.825380 0.000000 0.001240 
#    y 0.000000 1.779730 0.000000 
#    z 0.001240 0.000000 1.778920 
# 
# From -- ./inp_files/94328.got.cif
#   From: 2010.05.17/outbox.cif.g08.bks.cpg/sg10_48_cif.got.tgz:94328.got - 2010.06.03 11:33:40.
