data_PCOD9151979
_publ_section_title
;
Structure prediction by ZEFSAII (Michael W. Deem and Ramdas Pophale) SiO2 
 PCOD9151979
Probable space group: P 2/M
;
_chemical_formula_sum "Si O2"
_cell_formula_units_Z 28
_cell_length_a 9.356834
_cell_length_b 7.575485
_cell_length_c 29.721680
_cell_angle_alpha 90.000000
_cell_angle_beta 39.213110
_cell_angle_gamma 90.000000
_cell_volume 1331.900399
_symmetry_space_group_name_H-M "P 2/M"
_symmetry_group_IT_number 10
_symmetry_cell_setting 'monoclinic'
loop_
_space_group_symop_operation_xyz
x,y,z
-x,y,-z
-x,-y,-z
x,-y,z
loop_
_atom_site_type_symbol
_atom_site_label
_atom_site_fract_x
_atom_site_fract_y
_atom_site_fract_z
Si Si1 0.481028 0.792875 0.134691
Si Si2 0.679871 0.295723 0.991049
Si Si3 0.753757 0.707044 0.569173
Si Si4 0.425607 0.785377 0.567478
Si Si5 0.982208 0.208763 0.274956
Si Si6 0.349885 0.713827 0.726083
Si Si7 0.191676 0.714401 0.862837
O O1 0.578321 0.709365 0.065657
O O2 0.655552 0.773180 0.132894
O O3 0.234718 0.719051 0.208423
O O4 0.453708 0.000000 0.131059
O O5 0.709452 0.500000 0.969619
O O6 0.500000 0.215544 0.000000
O O7 0.933071 0.220945 0.929381
O O8 0.786658 0.500000 0.571863
O O9 0.607245 0.724311 0.559780
O O10 0.590104 0.779740 0.648128
O O11 0.000000 0.785927 0.500000
O O12 0.500000 0.726896 0.500000
O O13 0.181604 0.722767 0.645416
O O14 0.423992 0.000000 0.568274
O O15 0.843074 0.233426 0.262595
O O16 0.005706 0.000000 0.277516
O O17 0.354662 0.500000 0.724629
O O18 0.293122 0.771513 0.790166
O O19 0.191803 0.500000 0.864018
#
# Coordination Sequence:
#
# PCOD9151979 Si02
#       7
#     4   4   4   4   4   4   4
#     4  11  23  36  52  77 108 137 165 204 255 304
#     4  10  21  38  59  79 100 131 171 211 249 294
#     4   9  18  32  50  75 106 134 164 208 257 302
#     4   9  18  33  52  73  99 133 173 212 248 294
#     4   9  19  35  52  73 102 134 169 210 253 297
#     4   9  18  34  55  76  99 133 174 210 249 300
#     4  10  21  36  54  77 104 133 168 210 251 294
#
# _framework density 21.022590999999998
#
# number of rings (size 3 to 8) (size 9 to 14) (size 15 to 20)
#    0.000    2.429    0.000    1.714    0.000    7.143 
#    0.000    0.000    0.000    0.000    0.000    0.000 
#    0.000    0.000    0.000    0.000    0.000    0.000 
#
# Total GULP energy -156304.285627 kJ/mol
# GULP energy per Si atom -5582.295915 kJ/mol
# Density = 2.097474 g / cm^3
# Si number density = 21.022591 Si / 1000 Ang^3
#
#
#
# Elastic Constant Matrix: (Units=GPa)
#
#
# Indices 1 2 3 4 5 6 
#
# 1 106.6046 -17.2925 99.1570 0.0000 -17.4937 0.0000
# 2 -17.2925 45.9935 -9.2392 0.0000 -7.6165 0.0000
# 3 99.1570 -9.2392 196.7151 0.0000 -19.4897 0.0000
# 4 0.0000 0.0000 0.0000 9.9444 0.0000 5.0746
# 5 -17.4937 -7.6165 -19.4897 0.0000 43.8294 0.0000
# 6 0.0000 0.0000 0.0000 5.0746 0.0000 23.4800
#
#
#
# Elastic Compliance Matrix: (Units=1/GPa)
#
#
# Indices 1 2 3 4 5 6 
#
# 1 0.019755 0.006400 -0.009170 0.000000 0.004920 0.000000
# 2 0.006400 0.024893 -0.001439 0.000000 0.006241 0.000000
# 3 -0.009170 -0.001439 0.009677 0.000000 0.000393 0.000000
# 4 0.000000 0.000000 0.000000 0.113024 0.000000 -0.024428
# 5 0.004920 0.006241 0.000393 0.000000 0.026039 0.000000
# 6 0.000000 0.000000 0.000000 -0.024428 0.000000 0.047869
#
#
# Mechanical properties :
#
#
# Convention : Reuss Voigt Hill
#
# Bulk Modulus (GPa) = 21.78249 54.95153 38.36701
# Shear Modulus (GPa) = 18.86961 33.89662 26.38311
#
# Velocity S-wave (km/s) = 2.99923 4.01981 3.54643
# Velocity P-wave (km/s) = 4.73051 6.90950 5.92111
#
# Compressibility (1/GPa) = 0.04590844
#
# Stress axis : x y z
#
# Youngs Moduli (GPa) = 50.61979 40.17200 103.33716
#
# Poissons Ratio (x) = -0.25710 0.94759
# Poissons Ratio (y) = -0.32397 0.14866
# Poissons Ratio (z) = 0.46418 0.05779
#
# Static dielectric constant tensor:
#      x y z
#    x 1.693920 0.000000 -0.028650 
#    y 0.000000 1.804560 0.000000 
#    z -0.028650 0.000000 1.772780 
# 
# From -- ./inp_files/31653.got.cif
#   From: 2010.05.17/outbox.cif.g08.bks.cpg/sg10_16_cif.got.tgz:31653.got - 2010.06.03 11:33:40.
