data_PCOD9151311
_publ_section_title
;
Structure prediction by ZEFSAII (Michael W. Deem and Ramdas Pophale) SiO2 
 PCOD9151311
Probable space group: P 2/M
;
_chemical_formula_sum "Si O2"
_cell_formula_units_Z 26
_cell_length_a 5.381257
_cell_length_b 30.550922
_cell_length_c 7.175776
_cell_angle_alpha 90.000000
_cell_angle_beta 103.293979
_cell_angle_gamma 90.000000
_cell_volume 1148.101770
_symmetry_space_group_name_H-M "P 2/M"
_symmetry_group_IT_number 10
_symmetry_cell_setting 'monoclinic'
loop_
_space_group_symop_operation_xyz
x,y,z
-x,y,-z
-x,-y,-z
x,-y,z
loop_
_atom_site_type_symbol
_atom_site_label
_atom_site_fract_x
_atom_site_fract_y
_atom_site_fract_z
Si Si1 0.555161 0.310964 0.733616
Si Si2 0.430339 0.140211 0.708994
Si Si3 0.000000 0.802140 0.500000
Si Si4 0.789468 0.547939 0.126518
Si Si5 0.761579 0.779321 0.824850
Si Si6 0.059751 0.357711 0.724590
Si Si7 0.289314 0.048392 0.629462
O O1 0.500000 0.310753 0.500000
O O2 0.576528 0.261529 0.810182
O O3 0.322416 0.332693 0.801893
O O4 0.817793 0.338985 0.795788
O O5 0.500000 0.137222 0.500000
O O6 0.169397 0.167041 0.660458
O O7 0.637429 0.172677 0.832065
O O8 0.376268 0.090736 0.762100
O O9 0.838428 0.775658 0.619623
O O10 0.791800 0.500000 0.223730
O O11 0.878825 0.590948 0.249058
O O12 0.500000 0.553902 0.000000
O O13 0.000000 0.545442 0.000000
O O14 0.000000 0.773874 0.000000
O O15 0.000000 0.348584 0.500000
O O16 0.500000 0.045895 0.500000
O O17 0.000000 0.056040 0.500000
O O18 0.285713 0.000000 0.719047
#
# Coordination Sequence:
#
# PCOD9151311 Si02
#       7
#     4   4   2   4   4   4   4
#     4  10  22  40  61  85 119 161 197 254 312 362
#     4   9  18  34  55  83 117 158 200 253 312 364
#     4  10  20  38  63  78 120 160 193 264 314 354
#     4  10  21  38  61  89 123 161 200 247 302 358
#     4  11  25  39  59  90 119 163 215 253 310 383
#     4  10  22  39  63  87 120 156 199 248 305 358
#     4   9  16  28  51  85 118 152 202 255 307 374
#
# _framework density 22.646077999999999
#
# number of rings (size 3 to 8) (size 9 to 14) (size 15 to 20)
#    0.000    2.154    0.769    2.308    5.385    2.769 
#    0.000    0.000    0.000    6.000    0.000    1.077 
#    0.000    0.000    0.000    0.000    0.000    0.000 
#
# Total GULP energy -145173.599445 kJ/mol
# GULP energy per Si atom -5583.599979 kJ/mol
# Density = 2.259453 g / cm^3
# Si number density = 22.646078 Si / 1000 Ang^3
#
#
#
# Elastic Constant Matrix: (Units=GPa)
#
#
# Indices 1 2 3 4 5 6 
#
# 1 141.3122 48.4250 31.7696 0.0000 16.1468 0.0000
# 2 48.4250 167.6746 28.3713 0.0000 17.0050 0.0000
# 3 31.7696 28.3713 65.3828 0.0000 12.9930 0.0000
# 4 0.0000 0.0000 0.0000 23.9838 0.0000 5.0458
# 5 16.1468 17.0050 12.9930 0.0000 33.8492 0.0000
# 6 0.0000 0.0000 0.0000 5.0458 0.0000 21.9403
#
#
#
# Elastic Compliance Matrix: (Units=1/GPa)
#
#
# Indices 1 2 3 4 5 6 
#
# 1 0.008591 -0.001765 -0.002999 0.000000 -0.002060 0.000000
# 2 -0.001765 0.006975 -0.001776 0.000000 -0.001981 0.000000
# 3 -0.002999 -0.001776 0.018470 0.000000 -0.004767 0.000000
# 4 0.000000 0.000000 0.000000 0.043815 0.000000 -0.010076
# 5 -0.002060 -0.001981 -0.004767 0.000000 0.033350 0.000000
# 6 0.000000 0.000000 0.000000 -0.010076 0.000000 0.047896
#
#
# Mechanical properties :
#
#
# Convention : Reuss Voigt Hill
#
# Bulk Modulus (GPa) = 47.71754 65.72238 56.71996
# Shear Modulus (GPa) = 27.90794 33.67489 30.79142
#
# Velocity S-wave (km/s) = 3.51430 3.86036 3.69138
# Velocity P-wave (km/s) = 6.13056 6.99674 6.57792
#
# Compressibility (1/GPa) = 0.02095665
#
# Stress axis : x y z
#
# Youngs Moduli (GPa) = 116.40172 143.37166 54.14307
#
# Poissons Ratio (x) = 0.25300 0.16238
# Poissons Ratio (y) = 0.20541 0.09613
# Poissons Ratio (z) = 0.34911 0.25456
#
# Static dielectric constant tensor:
#      x y z
#    x 1.902810 0.000000 -0.049950 
#    y 0.000000 1.881810 0.000000 
#    z -0.049950 0.000000 1.857190 
# 
# From -- ./inp_files/15853.got.cif
#   From: 2010.05.17/outbox.cif.g08.bks.cpg/sg10_8_cif.got.tgz:15853.got - 2010.06.03 11:33:40.
