data_PCOD9151082
_publ_section_title
;
Structure prediction by ZEFSAII (Michael W. Deem and Ramdas Pophale) SiO2 
 PCOD9151082
Probable space group: P 2/M
;
_chemical_formula_sum "Si O2"
_cell_formula_units_Z 28
_cell_length_a 22.612500
_cell_length_b 8.085886
_cell_length_c 25.844440
_cell_angle_alpha 90.000000
_cell_angle_beta 162.143650
_cell_angle_gamma 90.000000
_cell_volume 1448.972644
_symmetry_space_group_name_H-M "P 2/M"
_symmetry_group_IT_number 10
_symmetry_cell_setting 'monoclinic'
loop_
_space_group_symop_operation_xyz
x,y,z
-x,y,-z
-x,-y,-z
x,-y,z
loop_
_atom_site_type_symbol
_atom_site_label
_atom_site_fract_x
_atom_site_fract_y
_atom_site_fract_z
Si Si1 0.952767 0.696067 0.089099
Si Si2 0.390176 0.700195 0.266282
Si Si3 0.006969 0.814611 0.663762
Si Si4 0.464857 0.177927 0.032422
Si Si5 0.012819 0.500000 0.423313
Si Si6 0.700280 0.197453 0.693752
Si Si7 0.160250 0.298134 0.366572
Si Si8 0.694148 0.500000 0.239102
O O1 0.927118 0.500000 0.074995
O O2 0.118567 0.724571 0.184562
O O3 0.039041 0.759290 0.215307
O O4 0.751206 0.760429 0.897461
O O5 0.387085 0.500000 0.263277
O O6 0.308144 0.758040 0.253047
O O7 0.614275 0.750817 0.449534
O O8 0.950599 0.664365 0.579340
O O9 0.928707 0.774606 0.655418
O O10 0.945502 0.000000 0.596353
O O11 0.239193 0.813725 0.856439
O O12 0.569696 0.336313 0.141535
O O13 0.540601 0.000000 0.114525
O O14 0.500000 0.180844 0.000000
O O15 0.149128 0.500000 0.585933
O O16 0.797524 0.500000 0.268753
O O17 0.500000 0.253648 0.500000
O O18 0.713263 0.000000 0.698726
O O19 0.153621 0.500000 0.363130
#
# Coordination Sequence:
#
# PCOD9151082 Si02
#       8
#     4   4   4   4   2   4   4   2
#     4  10  21  38  61  88 112 149 200 249 304 365
#     4  10  21  38  60  86 115 152 198 249 305 363
#     4  11  23  41  64  89 124 166 207 254 310 370
#     4  10  20  37  62  92 123 161 209 256 304 364
#     4  11  23  40  61  96 129 163 206 250 314 373
#     4  11  22  35  56  84 117 154 194 246 306 363
#     4  10  21  39  60  83 120 160 203 255 306 367
#     4  11  22  37  66  95 128 165 199 259 315 361
#
# _framework density 19.324036
#
# number of rings (size 3 to 8) (size 9 to 14) (size 15 to 20)
#    0.000    1.571    3.571    1.500    0.000    4.571 
#    2.571    1.429    0.000    0.000    0.000    0.000 
#    0.000    0.000    0.000    0.000    0.000    0.000 
#
# Total GULP energy -156328.153609 kJ/mol
# GULP energy per Si atom -5583.148343 kJ/mol
# Density = 1.928005 g / cm^3
# Si number density = 19.324036 Si / 1000 Ang^3
#
#
#
# Elastic Constant Matrix: (Units=GPa)
#
#
# Indices 1 2 3 4 5 6 
#
# 1 109.9899 24.8119 34.0123 0.0000 -6.9299 0.0000
# 2 24.8119 92.5685 30.4175 0.0000 -16.0961 0.0000
# 3 34.0123 30.4175 89.1964 0.0000 -25.0864 0.0000
# 4 0.0000 0.0000 0.0000 20.3221 0.0000 30.0073
# 5 -6.9299 -16.0961 -25.0864 0.0000 21.1115 0.0000
# 6 0.0000 0.0000 0.0000 30.0073 0.0000 -118.8499
#
#
#
# Elastic Compliance Matrix: (Units=1/GPa)
#
#
# Indices 1 2 3 4 5 6 
#
# 1 0.010662 -0.001996 -0.004249 0.000000 -0.003070 0.000000
# 2 -0.001996 0.013169 -0.001638 0.000000 0.007440 0.000000
# 3 -0.004249 -0.001638 0.018994 0.000000 0.019927 0.000000
# 4 0.000000 0.000000 0.000000 0.035844 0.000000 0.009050
# 5 -0.003070 0.007440 0.019927 0.000000 0.075711 0.000000
# 6 0.000000 0.000000 0.000000 0.009050 0.000000 -0.006129
#
#
# Mechanical properties :
#
#
# Convention : Reuss Voigt Hill
#
# Bulk Modulus (GPa) = 36.95190 52.24868 44.60029
# Shear Modulus (GPa) = 28.89545 -1.98238 13.45653
#
# Velocity S-wave (km/s) = 3.87112 -1.01395 2.64173
# Velocity P-wave (km/s) = 6.25656 5.07209 5.69520
#
# Compressibility (1/GPa) = 0.02706221
#
# Stress axis : x y z
#
# Youngs Moduli (GPa) = 93.78817 75.93309 52.64732
#
# Poissons Ratio (x) = 0.15154 0.22368
# Poissons Ratio (y) = 0.18717 0.08621
# Poissons Ratio (z) = 0.39848 0.12435
#
# Static dielectric constant tensor:
#      x y z
#    x 1.626250 0.000000 -0.014760 
#    y 0.000000 1.694000 0.000000 
#    z -0.014760 0.000000 1.664760 
# 
# From -- ./inp_files/90418.got.cif
#   From: 2010.05.17/outbox.cif.g08.bks.cpg/sg10_46_cif.got.tgz:90418.got - 2010.06.03 11:33:40.
