data_PCOD9151854
_publ_section_title
;
Structure prediction by ZEFSAII (Michael W. Deem and Ramdas Pophale) SiO2 
 PCOD9151854
Probable space group: P 2/M
;
_chemical_formula_sum "Si O2"
_cell_formula_units_Z 28
_cell_length_a 8.975874
_cell_length_b 12.129496
_cell_length_c 14.358633
_cell_angle_alpha 90.000000
_cell_angle_beta 113.362484
_cell_angle_gamma 90.000000
_cell_volume 1435.099874
_symmetry_space_group_name_H-M "P 2/M"
_symmetry_group_IT_number 10
_symmetry_cell_setting 'monoclinic'
loop_
_space_group_symop_operation_xyz
x,y,z
-x,y,-z
-x,-y,-z
x,-y,z
loop_
_atom_site_type_symbol
_atom_site_label
_atom_site_fract_x
_atom_site_fract_y
_atom_site_fract_z
Si Si1 0.476974 0.246187 0.095978
Si Si2 0.180156 0.128121 0.776404
Si Si3 0.478050 0.500000 0.603630
Si Si4 0.853243 0.123487 0.017942
Si Si5 0.369530 0.125633 0.551607
Si Si6 0.125143 0.258737 0.365260
Si Si7 0.604707 0.276579 0.719569
Si Si8 0.131975 0.500000 0.454366
O O1 0.645077 0.186950 0.167081
O O2 0.406127 0.299370 0.172894
O O3 0.500000 0.305360 0.000000
O O4 0.329315 0.164602 0.037056
O O5 0.109289 0.123253 0.863782
O O6 0.051150 0.201862 0.687761
O O7 0.194633 0.000000 0.748323
O O8 0.500000 0.500000 0.500000
O O9 0.553682 0.390549 0.661246
O O10 0.287365 0.500000 0.560455
O O11 0.845466 0.000000 0.977591
O O12 0.000000 0.182677 0.000000
O O13 0.500000 0.121673 0.500000
O O14 0.223777 0.197425 0.472595
O O15 0.467698 0.186192 0.657972
O O16 0.322298 0.000000 0.562238
O O17 0.229730 0.243984 0.294676
O O18 0.121812 0.388482 0.390344
O O19 0.000000 0.500000 0.500000
#
# Coordination Sequence:
#
# PCOD9151854 Si02
#       8
#     4   4   2   4   4   4   4   2
#     4  10  22  38  56  85 122 160 202 251 307 357
#     4  10  21  35  54  84 125 164 196 241 306 365
#     4  12  20  44  67  91 116 155 207 253 298 357
#     4   9  17  33  57  82 111 154 206 253 293 350
#     4   9  18  32  54  87 122 153 193 248 301 354
#     4  11  21  38  60  90 122 159 205 250 297 363
#     4  11  21  37  64  87 116 160 208 255 300 356
#     4  12  26  40  62  89 124 156 198 248 297 356
#
# _framework density 19.510838
#
# number of rings (size 3 to 8) (size 9 to 14) (size 15 to 20)
#    0.000    1.714    2.857    2.143    2.000    3.429 
#    0.000    0.357    0.000    5.143    0.000    9.000 
#    0.000    0.000    0.000    0.000    0.000    0.000 
#
# Total GULP energy -155890.717447 kJ/mol
# GULP energy per Si atom -5567.525623 kJ/mol
# Density = 1.946643 g / cm^3
# Si number density = 19.510838 Si / 1000 Ang^3
#
#
#
# Elastic Constant Matrix: (Units=GPa)
#
#
# Indices 1 2 3 4 5 6 
#
# 1 88.9542 5.7267 30.4576 0.0000 3.6213 0.0000
# 2 5.7267 99.8684 33.1776 0.0000 10.4506 0.0000
# 3 30.4576 33.1776 83.6829 0.0000 -4.5849 0.0000
# 4 0.0000 0.0000 0.0000 17.3330 0.0000 5.3838
# 5 3.6213 10.4506 -4.5849 0.0000 52.5334 0.0000
# 6 0.0000 0.0000 0.0000 5.3838 0.0000 3.7646
#
#
#
# Elastic Compliance Matrix: (Units=1/GPa)
#
#
# Indices 1 2 3 4 5 6 
#
# 1 0.013047 0.001181 -0.005304 0.000000 -0.001597 0.000000
# 2 0.001181 0.012035 -0.005363 0.000000 -0.002944 0.000000
# 3 -0.005304 -0.005363 0.016162 0.000000 0.002843 0.000000
# 4 0.000000 0.000000 0.000000 0.103805 0.000000 -0.148454
# 5 -0.001597 -0.002944 0.002843 0.000000 0.019979 0.000000
# 6 0.000000 0.000000 0.000000 -0.148454 0.000000 0.477940
#
#
# Mechanical properties :
#
#
# Convention : Reuss Voigt Hill
#
# Bulk Modulus (GPa) = 44.89841 45.69215 45.29528
# Shear Modulus (GPa) = 7.46977 28.26910 17.86943
#
# Velocity S-wave (km/s) = 1.95878 3.81056 3.02962
# Velocity P-wave (km/s) = 5.30827 6.54448 5.95852
#
# Compressibility (1/GPa) = 0.02227250
#
# Stress axis : x y z
#
# Youngs Moduli (GPa) = 76.64632 83.09068 61.87191
#
# Poissons Ratio (x) = -0.09815 0.32820
# Poissons Ratio (y) = -0.09054 0.33180
# Poissons Ratio (z) = 0.40657 0.44559
#
# Static dielectric constant tensor:
#      x y z
#    x 1.715050 0.000000 -0.057440 
#    y 0.000000 1.663690 0.000000 
#    z -0.057440 0.000000 1.710200 
# 
# From -- ./inp_files/61305.got.cif
#   From: 2010.05.17/outbox.cif.g08.bks.cpg/sg10_31_cif.got.tgz:61305.got - 2010.06.03 11:33:40.
