data_PCOD9151573
_publ_section_title
;
Structure prediction by ZEFSAII (Michael W. Deem and Ramdas Pophale) SiO2 
 PCOD9151573
Probable space group: P 2/M
;
_chemical_formula_sum "Si O2"
_cell_formula_units_Z 28
_cell_length_a 9.459016
_cell_length_b 9.467837
_cell_length_c 21.638494
_cell_angle_alpha 90.000000
_cell_angle_beta 46.380726
_cell_angle_gamma 90.000000
_cell_volume 1402.898462
_symmetry_space_group_name_H-M "P 2/M"
_symmetry_group_IT_number 10
_symmetry_cell_setting 'monoclinic'
loop_
_space_group_symop_operation_xyz
x,y,z
-x,y,-z
-x,-y,-z
x,-y,z
loop_
_atom_site_type_symbol
_atom_site_label
_atom_site_fract_x
_atom_site_fract_y
_atom_site_fract_z
Si Si1 0.112879 0.838914 0.050752
Si Si2 0.348631 0.162453 0.789112
Si Si3 0.270046 0.838569 0.140937
Si Si4 0.880635 0.668877 0.473420
Si Si5 0.919657 0.165082 0.342646
Si Si6 0.522691 0.833060 0.391070
Si Si7 0.408204 0.667013 0.887307
O O1 0.220198 0.823332 0.084159
O O2 0.884395 0.821585 0.133185
O O3 0.143815 0.000000 0.019007
O O4 0.207106 0.731726 0.974404
O O5 0.407116 0.186020 0.700726
O O6 0.444686 0.267733 0.808713
O O7 0.399485 0.000000 0.789530
O O8 0.426379 0.727920 0.117585
O O9 0.073810 0.821899 0.240503
O O10 0.341966 0.000000 0.129012
O O11 0.869446 0.500000 0.471024
O O12 0.973995 0.738272 0.384193
O O13 0.666524 0.738628 0.541436
O O14 0.000000 0.702366 0.500000
O O15 0.704489 0.200271 0.381124
O O16 0.918265 0.000000 0.361758
O O17 0.476678 0.000000 0.413519
O O18 0.403832 0.500000 0.887293
#
# Coordination Sequence:
#
# PCOD9151573 Si02
#       7
#     4   4   4   4   4   4   4
#     4  10  20  40  66  89 116 155 207 258 306 356
#     4  10  21  40  65  91 118 155 204 256 306 355
#     4  10  21  40  65  91 118 155 204 256 306 355
#     4  11  26  43  60  90 132 167 196 233 290 364
#     4  10  21  41  68  95 119 150 202 258 302 351
#     4  10  21  41  68  95 119 150 202 258 302 351
#     4  12  26  38  54  87 130 167 202 246 300 360
#
# _framework density 19.958677999999999
#
# number of rings (size 3 to 8) (size 9 to 14) (size 15 to 20)
#    0.000    1.571    1.429    3.000    2.000    9.143 
#    0.000    0.000    0.000    0.000    0.000    0.000 
#    0.000    0.000    0.000    0.000    0.000    0.000 
#
# Total GULP energy -156616.789009 kJ/mol
# GULP energy per Si atom -5593.456750 kJ/mol
# Density = 1.991325 g / cm^3
# Si number density = 19.958678 Si / 1000 Ang^3
#
#
#
# Elastic Constant Matrix: (Units=GPa)
#
#
# Indices 1 2 3 4 5 6 
#
# 1 73.2195 49.8471 19.2362 0.0000 20.0494 0.0000
# 2 49.8471 95.6785 33.0272 0.0000 16.7444 0.0000
# 3 19.2362 33.0272 67.1686 0.0000 13.6075 0.0000
# 4 0.0000 0.0000 0.0000 -26.0025 0.0000 22.4418
# 5 20.0494 16.7444 13.6075 0.0000 36.0345 0.0000
# 6 0.0000 0.0000 0.0000 22.4418 0.0000 -41.3864
#
#
#
# Elastic Compliance Matrix: (Units=1/GPa)
#
#
# Indices 1 2 3 4 5 6 
#
# 1 0.023059 -0.010717 0.000277 0.000000 -0.007955 0.000000
# 2 -0.010717 0.018070 -0.005764 0.000000 -0.000257 0.000000
# 3 0.000277 -0.005764 0.018550 0.000000 -0.004481 0.000000
# 4 0.000000 0.000000 0.000000 -0.072288 0.000000 -0.039198
# 5 -0.007955 -0.000257 -0.004481 0.000000 0.033989 0.000000
# 6 0.000000 0.000000 0.000000 -0.039198 0.000000 -0.045418
#
#
# Mechanical properties :
#
#
# Convention : Reuss Voigt Hill
#
# Bulk Modulus (GPa) = 36.66726 48.92086 42.79406
# Shear Modulus (GPa) = 286.39188 2.65951 144.52569
#
# Velocity S-wave (km/s) = 11.99183 1.15559 8.51878
# Velocity P-wave (km/s) = 14.49655 5.13272 10.87416
#
# Compressibility (1/GPa) = 0.02727229
#
# Stress axis : x y z
#
# Youngs Moduli (GPa) = 43.36723 55.34159 53.90739
#
# Poissons Ratio (x) = 0.59309 -0.01495
# Poissons Ratio (y) = 0.46476 0.31070
# Poissons Ratio (z) = -0.01203 0.31897
#
# Static dielectric constant tensor:
#      x y z
#    x 1.705870 0.000000 -0.005660 
#    y 0.000000 1.657540 0.000000 
#    z -0.005660 0.000000 1.711420 
# 
# From -- ./inp_files/34211.got.cif
#   From: 2010.05.17/outbox.cif.g08.bks.cpg/sg10_18_cif.got.tgz:34211.got - 2010.06.03 11:33:40.
