data_PCOD9151373
_publ_section_title
;
Structure prediction by ZEFSAII (Michael W. Deem and Ramdas Pophale) SiO2 
 PCOD9151373
Probable space group: P 2/M
;
_chemical_formula_sum "Si O2"
_cell_formula_units_Z 24
_cell_length_a 9.178728
_cell_length_b 14.541203
_cell_length_c 16.962939
_cell_angle_alpha 90.000000
_cell_angle_beta 149.173721
_cell_angle_gamma 90.000000
_cell_volume 1160.176941
_symmetry_space_group_name_H-M "P 2/M"
_symmetry_group_IT_number 10
_symmetry_cell_setting 'monoclinic'
loop_
_space_group_symop_operation_xyz
x,y,z
-x,y,-z
-x,-y,-z
x,-y,z
loop_
_atom_site_type_symbol
_atom_site_label
_atom_site_fract_x
_atom_site_fract_y
_atom_site_fract_z
Si Si1 0.454846 0.807320 0.644377
Si Si2 0.832156 0.000000 0.175705
Si Si3 0.168463 0.000000 0.497263
Si Si4 0.803633 0.324812 0.595267
Si Si5 0.939972 0.204368 0.158576
Si Si6 0.183138 0.500000 0.504906
Si Si7 0.317330 0.294081 0.105928
Si Si8 0.659659 0.500000 0.848061
O O1 0.367563 0.911601 0.594419
O O2 0.239127 0.751807 0.490683
O O3 0.761761 0.793460 0.748574
O O4 0.477777 0.763226 0.741209
O O5 0.920309 0.099889 0.180849
O O6 0.500000 0.000000 0.000000
O O7 0.960889 0.000000 0.324497
O O8 0.000000 0.000000 0.500000
O O9 0.500000 0.338324 0.500000
O O10 0.028708 0.282278 0.760184
O O11 0.871237 0.414489 0.577005
O O12 0.709991 0.238994 0.988387
O O13 0.504551 0.500000 0.690420
O O14 0.000000 0.500000 0.500000
O O15 0.410807 0.401253 0.144821
O O16 0.000000 0.295476 0.000000
O O17 0.000000 0.500000 0.000000
#
# Coordination Sequence:
#
# PCOD9151373 Si02
#       8
#     4   2   2   4   4   2   4   2
#     4  10  20  40  67  95 119 163 220 264 318 371
#     4  12  27  45  58  90 130 171 208 255 345 383
#     4  12  27  41  62  92 128 169 214 261 323 405
#     4  10  21  40  68  98 125 166 225 273 320 377
#     4  10  22  41  68  94 124 163 214 277 314 378
#     4  12  25  42  64 101 140 176 215 275 335 402
#     4   9  19  36  64  97 126 158 208 262 320 371
#     4  10  20  38  64  93 129 170 222 261 317 382
#
# _framework density 20.686499999999999
#
# number of rings (size 3 to 8) (size 9 to 14) (size 15 to 20)
#    0.000    1.667    3.333    0.750    4.667    2.000 
#    3.000    2.500    0.000    1.000    0.000    0.000 
#    0.000    0.000    0.000    0.000    0.000    0.000 
#
# Total GULP energy -133877.074065 kJ/mol
# GULP energy per Si atom -5578.211419 kJ/mol
# Density = 2.063942 g / cm^3
# Si number density = 20.686500 Si / 1000 Ang^3
#
#
#
# Elastic Constant Matrix: (Units=GPa)
#
#
# Indices 1 2 3 4 5 6 
#
# 1 42.4076 42.9849 50.5176 0.0000 -28.9602 0.0000
# 2 42.9849 191.6619 46.6408 0.0000 -40.5087 0.0000
# 3 50.5176 46.6408 119.6546 0.0000 -42.7220 0.0000
# 4 0.0000 0.0000 0.0000 22.2178 0.0000 -29.4966
# 5 -28.9602 -40.5087 -42.7220 0.0000 37.2897 0.0000
# 6 0.0000 0.0000 0.0000 -29.4966 0.0000 -11.6966
#
#
#
# Elastic Compliance Matrix: (Units=1/GPa)
#
#
# Indices 1 2 3 4 5 6 
#
# 1 0.067686 -0.005257 -0.016580 0.000000 0.027861 0.000000
# 2 -0.005257 0.007181 0.001266 0.000000 0.005168 0.000000
# 3 -0.016580 0.001266 0.018204 0.000000 0.009354 0.000000
# 4 0.000000 0.000000 0.000000 0.010352 0.000000 -0.026105
# 5 0.027861 0.005168 0.009354 0.000000 0.064785 0.000000
# 6 0.000000 0.000000 0.000000 -0.026105 0.000000 -0.019663
#
#
# Mechanical properties :
#
#
# Convention : Reuss Voigt Hill
#
# Bulk Modulus (GPa) = 19.25748 70.44565 44.85156
# Shear Modulus (GPa) = 24.15489 23.80091 23.97790
#
# Velocity S-wave (km/s) = 3.42082 3.39566 3.40826
# Velocity P-wave (km/s) = 4.99320 7.03576 6.10057
#
# Compressibility (1/GPa) = 0.05192786
#
# Stress axis : x y z
#
# Youngs Moduli (GPa) = 14.77403 139.25983 54.93308
#
# Poissons Ratio (x) = 0.73210 0.91080
# Poissons Ratio (y) = 0.07767 -0.06953
# Poissons Ratio (z) = 0.24496 -0.17625
#
# Static dielectric constant tensor:
#      x y z
#    x 1.681330 0.000000 0.056040 
#    y 0.000000 1.610150 0.000000 
#    z 0.056040 0.000000 1.733480 
# 
# From -- ./inp_files/62019.got.cif
#   From: 2010.05.17/outbox.cif.g08.bks.cpg/sg10_32_cif.got.tgz:62019.got - 2010.06.03 11:33:40.
