data_PCOD9151393
_publ_section_title
;
Structure prediction by ZEFSAII (Michael W. Deem and Ramdas Pophale) SiO2 
 PCOD9151393
Probable space group: P 2/M
;
_chemical_formula_sum "Si O2"
_cell_formula_units_Z 28
_cell_length_a 26.559183
_cell_length_b 9.896021
_cell_length_c 7.621961
_cell_angle_alpha 90.000000
_cell_angle_beta 38.841418
_cell_angle_gamma 90.000000
_cell_volume 1256.392258
_symmetry_space_group_name_H-M "P 2/M"
_symmetry_group_IT_number 10
_symmetry_cell_setting 'monoclinic'
loop_
_space_group_symop_operation_xyz
x,y,z
-x,y,-z
-x,-y,-z
x,-y,z
loop_
_atom_site_type_symbol
_atom_site_label
_atom_site_fract_x
_atom_site_fract_y
_atom_site_fract_z
Si Si1 0.138981 0.651253 0.274801
Si Si2 0.677114 0.343880 0.651010
Si Si3 0.826057 0.163002 0.138174
Si Si4 0.285266 0.284047 0.070849
Si Si5 0.583780 0.345392 0.573980
Si Si6 0.653340 0.000000 0.061329
Si Si7 0.500000 0.803394 0.500000
Si Si8 0.034766 0.653298 0.099692
O O1 0.153008 0.500000 0.162665
O O2 0.195096 0.660818 0.294222
O O3 0.044796 0.663678 0.565561
O O4 0.166005 0.772936 0.077103
O O5 0.696534 0.500000 0.547069
O O6 0.745943 0.232748 0.430981
O O7 0.670121 0.343357 0.879746
O O8 0.605056 0.301555 0.714466
O O9 0.823569 0.000000 0.149888
O O10 0.901226 0.231356 0.032969
O O11 0.334346 0.327208 0.762771
O O12 0.282323 0.122596 0.094063
O O13 0.560140 0.500000 0.646592
O O14 0.518624 0.273090 0.630228
O O15 0.580825 0.113167 0.251888
O O16 0.068265 0.500000 0.028939
O O17 0.000000 0.665024 0.000000
#
# Coordination Sequence:
#
# PCOD9151393 Si02
#       8
#     4   4   4   4   4   2   2   4
#     4  11  22  39  65  92 123 167 218 269 319 374
#     4  11  23  41  66  94 127 167 219 270 316 378
#     4  12  26  40  60  93 130 170 216 265 324 385
#     4  11  22  39  65  93 127 166 213 268 320 379
#     4  10  20  38  65  95 123 161 213 268 316 369
#     4   9  22  40  61  94 129 171 204 252 318 391
#     4   9  19  40  64  90 131 171 206 246 321 394
#     4  10  22  42  65  89 123 171 220 270 323 376
#
# _framework density 22.286034999999998
#
# number of rings (size 3 to 8) (size 9 to 14) (size 15 to 20)
#    0.000    1.429    1.429    4.071    2.000    3.714 
#    1.286    3.571    0.000    7.714    0.000    0.000 
#    0.000    0.000    0.000    0.000    0.000    0.000 
#
# Total GULP energy -155869.477903 kJ/mol
# GULP energy per Si atom -5566.767068 kJ/mol
# Density = 2.223531 g / cm^3
# Si number density = 22.286035 Si / 1000 Ang^3
#
#
#
# Elastic Constant Matrix: (Units=GPa)
#
#
# Indices 1 2 3 4 5 6 
#
# 1 175.3571 56.4102 23.5232 0.0000 -2.9440 0.0000
# 2 56.4102 177.3537 29.0514 0.0000 -15.7909 0.0000
# 3 23.5232 29.0514 34.7128 0.0000 1.9214 0.0000
# 4 0.0000 0.0000 0.0000 -2.3641 0.0000 -46.5126
# 5 -2.9440 -15.7909 1.9214 0.0000 34.5170 0.0000
# 6 0.0000 0.0000 0.0000 -46.5126 0.0000 -54.3520
#
#
#
# Elastic Compliance Matrix: (Units=1/GPa)
#
#
# Indices 1 2 3 4 5 6 
#
# 1 0.006640 -0.001592 -0.003168 0.000000 0.000015 0.000000
# 2 -0.001592 0.007314 -0.005237 0.000000 0.003502 0.000000
# 3 -0.003168 -0.005237 0.035595 0.000000 -0.004647 0.000000
# 4 0.000000 0.000000 0.000000 0.026709 0.000000 -0.022857
# 5 0.000015 0.003502 -0.004647 0.000000 0.030833 0.000000
# 6 0.000000 0.000000 0.000000 -0.022857 0.000000 0.001162
#
#
# Mechanical properties :
#
#
# Convention : Reuss Voigt Hill
#
# Bulk Modulus (GPa) = 33.83447 67.26593 50.55020
# Shear Modulus (GPa) = 36.20611 14.12278 25.16444
#
# Velocity S-wave (km/s) = 4.03502 2.52008 3.36394
# Velocity P-wave (km/s) = 6.07646 6.22224 6.14978
#
# Compressibility (1/GPa) = 0.02955566
#
# Stress axis : x y z
#
# Youngs Moduli (GPa) = 150.60429 136.71879 28.09416
#
# Poissons Ratio (x) = 0.21761 0.08901
# Poissons Ratio (y) = 0.23971 0.14712
# Poissons Ratio (z) = 0.47716 0.71594
#
# Static dielectric constant tensor:
#      x y z
#    x 1.893930 0.000000 0.022520 
#    y 0.000000 1.800590 0.000000 
#    z 0.022520 0.000000 1.889720 
# 
# From -- ./inp_files/37184.got.cif
#   From: 2010.05.17/outbox.cif.g08.bks.cpg/sg10_19_cif.got.tgz:37184.got - 2010.06.03 11:33:40.
