data_PCOD9151134
_publ_section_title
;
Structure prediction by ZEFSAII (Michael W. Deem and Ramdas Pophale) SiO2 
 PCOD9151134
Probable space group: P 2/M
;
_chemical_formula_sum "Si O2"
_cell_formula_units_Z 28
_cell_length_a 14.541024
_cell_length_b 7.674054
_cell_length_c 19.729606
_cell_angle_alpha 90.000000
_cell_angle_beta 144.933200
_cell_angle_gamma 90.000000
_cell_volume 1264.887152
_symmetry_space_group_name_H-M "P 2/M"
_symmetry_group_IT_number 10
_symmetry_cell_setting 'monoclinic'
loop_
_space_group_symop_operation_xyz
x,y,z
-x,y,-z
-x,-y,-z
x,-y,z
loop_
_atom_site_type_symbol
_atom_site_label
_atom_site_fract_x
_atom_site_fract_y
_atom_site_fract_z
Si Si1 0.649683 0.711941 0.547356
Si Si2 0.993239 0.711817 0.201025
Si Si3 0.263716 0.710075 0.550236
Si Si4 0.913547 0.713180 0.304151
Si Si5 0.439339 0.289482 0.889950
Si Si6 0.443023 0.199697 0.182319
Si Si7 0.893503 0.701215 0.995983
O O1 0.500000 0.776597 0.500000
O O2 0.640781 0.500000 0.540245
O O3 0.818937 0.755093 0.683368
O O4 0.661348 0.769658 0.476374
O O5 0.976777 0.500000 0.192670
O O6 0.921351 0.768561 0.229806
O O7 0.921148 0.778742 0.087471
O O8 0.257720 0.500000 0.545459
O O9 0.383963 0.760133 0.681863
O O10 0.078493 0.769876 0.439508
O O11 0.914502 0.500000 0.305865
O O12 0.743931 0.769634 0.231470
O O13 0.439936 0.500000 0.892091
O O14 0.547100 0.238109 0.891573
O O15 0.500000 0.229010 0.000000
O O16 0.406952 0.000000 0.171646
O O17 0.296732 0.297943 0.129983
O O18 0.947405 0.500000 0.034147
O O19 0.000000 0.779560 0.000000
#
# Coordination Sequence:
#
# PCOD9151134 Si02
#       7
#     4   4   4   4   4   4   4
#     4   8  14  24  48  83 112 136 170 228 284 324
#     4   8  14  27  48  81 115 135 167 223 285 337
#     4   9  18  34  56  81 112 147 190 234 279 336
#     4   8  15  30  55  86 113 141 178 233 291 333
#     4  10  20  37  64  90 113 144 188 241 291 338
#     4  12  26  40  54  78 118 157 190 231 283 344
#     4  10  21  36  59  86 110 143 190 239 284 335
#
# _framework density 22.136362999999999
#
# number of rings (size 3 to 8) (size 9 to 14) (size 15 to 20)
#    0.000    2.714    0.000    3.857    2.000    3.429 
#    0.000    3.571    0.000    5.571    0.000    0.000 
#    0.000    0.000    0.000    0.000    0.000    0.000 
#
# Total GULP energy -156272.811307 kJ/mol
# GULP energy per Si atom -5581.171832 kJ/mol
# Density = 2.208598 g / cm^3
# Si number density = 22.136363 Si / 1000 Ang^3
#
#
#
# Elastic Constant Matrix: (Units=GPa)
#
#
# Indices 1 2 3 4 5 6 
#
# 1 106.9539 0.1637 50.1169 0.0000 22.0333 0.0000
# 2 0.1637 35.9754 -3.9035 0.0000 -2.7352 0.0000
# 3 50.1169 -3.9035 88.5261 0.0000 -8.8241 0.0000
# 4 0.0000 0.0000 0.0000 -152.9250 0.0000 225.1066
# 5 22.0333 -2.7352 -8.8241 0.0000 33.3507 0.0000
# 6 0.0000 0.0000 0.0000 225.1066 0.0000 -466.1218
#
#
#
# Elastic Compliance Matrix: (Units=1/GPa)
#
#
# Indices 1 2 3 4 5 6 
#
# 1 0.018055 -0.002530 -0.011855 0.000000 -0.015272 0.000000
# 2 -0.002530 0.028521 0.003173 0.000000 0.004850 0.000000
# 3 -0.011855 0.003173 0.019468 0.000000 0.013243 0.000000
# 4 0.000000 0.000000 0.000000 -0.022618 0.000000 -0.010923
# 5 -0.015272 0.004850 0.013243 0.000000 0.043976 0.000000
# 6 0.000000 0.000000 0.000000 -0.010923 0.000000 -0.007420
#
#
# Mechanical properties :
#
#
# Convention : Reuss Voigt Hill
#
# Bulk Modulus (GPa) = 22.92502 36.02329 29.47416
# Shear Modulus (GPa) = 42.75480 -104.80066 -31.02293
#
# Velocity S-wave (km/s) = 4.39957 -6.88811 -3.74765
# Velocity P-wave (km/s) = 6.01557 6.85220 2.32009
#
# Compressibility (1/GPa) = 0.04362046
#
# Stress axis : x y z
#
# Youngs Moduli (GPa) = 55.38577 35.06153 51.36705
#
# Poissons Ratio (x) = 0.08869 0.60898
# Poissons Ratio (y) = 0.14011 -0.16300
# Poissons Ratio (z) = 0.65662 -0.11126
#
# Static dielectric constant tensor:
#      x y z
#    x 1.800680 0.000000 0.003570 
#    y 0.000000 1.856000 0.000000 
#    z 0.003570 0.000000 1.829310 
# 
# From -- ./inp_files/84973.got.cif
#   From: 2010.05.17/outbox.cif.g08.bks.cpg/sg10_43_cif.got.tgz:84973.got - 2010.06.03 11:33:40.
