data_PCOD9151115
_publ_section_title
;
Structure prediction by ZEFSAII (Michael W. Deem and Ramdas Pophale) SiO2 
 PCOD9151115
Probable space group: P 2/M
;
_chemical_formula_sum "Si O2"
_cell_formula_units_Z 30
_cell_length_a 14.567970
_cell_length_b 7.595570
_cell_length_c 12.195021
_cell_angle_alpha 90.000000
_cell_angle_beta 83.771220
_cell_angle_gamma 90.000000
_cell_volume 1341.437817
_symmetry_space_group_name_H-M "P 2/M"
_symmetry_group_IT_number 10
_symmetry_cell_setting 'monoclinic'
loop_
_space_group_symop_operation_xyz
x,y,z
-x,y,-z
-x,-y,-z
x,-y,z
loop_
_atom_site_type_symbol
_atom_site_label
_atom_site_fract_x
_atom_site_fract_y
_atom_site_fract_z
Si Si1 0.993757 0.500000 0.744946
Si Si2 0.729519 0.212136 0.488435
Si Si3 0.928484 0.801419 0.109152
Si Si4 0.580035 0.790246 0.909783
Si Si5 0.630834 0.704021 0.293562
Si Si6 0.274707 0.288780 0.935926
Si Si7 0.914167 0.794201 0.595210
Si Si8 0.430251 0.795164 0.334428
O O1 0.935053 0.656258 0.687698
O O2 0.052237 0.654342 0.803498
O O3 0.714854 0.277484 0.367074
O O4 0.823413 0.258604 0.537729
O O5 0.642305 0.280292 0.570274
O O6 0.727214 0.000000 0.481053
O O7 0.826615 0.783664 0.071472
O O8 0.940078 0.000000 0.151342
O O9 0.000000 0.774146 0.000000
O O10 0.576643 0.718146 0.787208
O O11 0.564336 0.000000 0.903636
O O12 0.500000 0.717373 0.000000
O O13 0.677139 0.759761 0.956697
O O14 0.609206 0.500000 0.282570
O O15 0.659767 0.777487 0.171744
O O16 0.537567 0.787541 0.352609
O O17 0.269643 0.500000 0.929328
O O18 0.000000 0.786093 0.500000
O O19 0.903177 0.000000 0.631777
O O20 0.403896 0.000000 0.329185
#
# Coordination Sequence:
#
# PCOD9151115 Si02
#       8
#     2   4   4   4   4   4   4   4
#     4  12  24  44  74 100 136 174 228 287 343 406
#     4  10  23  41  62  91 128 172 221 272 331 399
#     4  11  26  47  71 101 138 177 225 281 343 412
#     4  10  20  37  63  91 126 170 218 265 324 397
#     4  11  24  38  62  94 131 168 220 272 325 395
#     4  11  24  41  65  98 131 172 220 276 336 396
#     4  10  24  44  68 100 137 181 229 281 345 409
#     4  10  21  40  62  90 128 170 216 272 330 391
#
# _framework density 22.364062000000001
#
# number of rings (size 3 to 8) (size 9 to 14) (size 15 to 20)
#    0.000    1.467    2.000    2.000    2.800    5.600 
#    0.000    2.667    0.000    0.000    0.000    0.000 
#    0.000    0.000    0.000    0.000    0.000    0.000 
#
# Total GULP energy -167232.920239 kJ/mol
# GULP energy per Si atom -5574.430675 kJ/mol
# Density = 2.231316 g / cm^3
# Si number density = 22.364062 Si / 1000 Ang^3
#
#
#
# Elastic Constant Matrix: (Units=GPa)
#
#
# Indices 1 2 3 4 5 6 
#
# 1 105.3757 4.8758 26.6039 0.0000 21.6722 0.0000
# 2 4.8758 88.8536 15.4837 0.0000 9.9268 0.0000
# 3 26.6039 15.4837 56.5499 0.0000 30.0435 0.0000
# 4 0.0000 0.0000 0.0000 5.4732 0.0000 28.9818
# 5 21.6722 9.9268 30.0435 0.0000 43.8975 0.0000
# 6 0.0000 0.0000 0.0000 28.9818 0.0000 35.6529
#
#
#
# Elastic Compliance Matrix: (Units=1/GPa)
#
#
# Indices 1 2 3 4 5 6 
#
# 1 0.011022 0.000374 -0.003695 0.000000 -0.002997 0.000000
# 2 0.000374 0.011846 -0.002983 0.000000 -0.000822 0.000000
# 3 -0.003695 -0.002983 0.029716 0.000000 -0.017839 0.000000
# 4 0.000000 0.000000 0.000000 -0.055292 0.000000 0.044946
# 5 -0.002997 -0.000822 -0.017839 0.000000 0.036655 0.000000
# 6 0.000000 0.000000 0.000000 0.044946 0.000000 -0.008488
#
#
# Mechanical properties :
#
#
# Convention : Reuss Voigt Hill
#
# Bulk Modulus (GPa) = 25.01549 38.30069 31.65809
# Shear Modulus (GPa) = 97.29332 30.59242 63.94287
#
# Velocity S-wave (km/s) = 6.60294 3.70256 5.35293
# Velocity P-wave (km/s) = 8.32716 5.95330 7.23821
#
# Compressibility (1/GPa) = 0.03997523
#
# Stress axis : x y z
#
# Youngs Moduli (GPa) = 90.72849 84.42004 33.65196
#
# Poissons Ratio (x) = -0.03157 0.12436
# Poissons Ratio (y) = -0.03393 0.10037
# Poissons Ratio (z) = 0.33528 0.25179
#
# Static dielectric constant tensor:
#      x y z
#    x 1.791970 0.000000 -0.030220 
#    y 0.000000 1.831400 0.000000 
#    z -0.030220 0.000000 1.810230 
# 
# From -- ./inp_files/49286.got.cif
#   From: 2010.05.17/outbox.cif.g08.bks.cpg/sg10_25_cif.got.tgz:49286.got - 2010.06.03 11:33:40.
