data_PCOD9151574
_publ_section_title
;
Structure prediction by ZEFSAII (Michael W. Deem and Ramdas Pophale) SiO2 
 PCOD9151574
Probable space group: P 2/M
;
_chemical_formula_sum "Si O2"
_cell_formula_units_Z 28
_cell_length_a 19.888174
_cell_length_b 14.658939
_cell_length_c 9.026677
_cell_angle_alpha 90.000000
_cell_angle_beta 37.186653
_cell_angle_gamma 90.000000
_cell_volume 1590.594737
_symmetry_space_group_name_H-M "P 2/M"
_symmetry_group_IT_number 10
_symmetry_cell_setting 'monoclinic'
loop_
_space_group_symop_operation_xyz
x,y,z
-x,y,-z
-x,-y,-z
x,-y,z
loop_
_atom_site_type_symbol
_atom_site_label
_atom_site_fract_x
_atom_site_fract_y
_atom_site_fract_z
Si Si1 0.758442 0.750762 0.592829
Si Si2 0.828207 0.000000 0.215049
Si Si3 0.967356 0.198193 0.390390
Si Si4 0.434239 0.253257 0.466025
Si Si5 0.430786 0.892212 0.968470
Si Si6 0.074927 0.000000 0.643164
Si Si7 0.610086 0.398646 0.712267
Si Si8 0.799340 0.806394 0.184049
O O1 0.866186 0.742601 0.505928
O O2 0.692933 0.658303 0.672172
O O3 0.799078 0.778017 0.356618
O O4 0.676655 0.828676 0.804384
O O5 0.835412 0.000000 0.380812
O O6 0.772948 0.912658 0.243786
O O7 0.955177 0.000000 0.934783
O O8 0.000000 0.217550 0.500000
O O9 0.924410 0.093188 0.449461
O O10 0.079500 0.207937 0.097080
O O11 0.500000 0.274382 0.500000
O O12 0.495409 0.166741 0.278369
O O13 0.424879 0.335827 0.365261
O O14 0.303605 0.234362 0.724468
O O15 0.409027 0.000000 0.966226
O O16 0.500000 0.894326 0.000000
O O17 0.651438 0.500000 0.598348
O O18 0.500000 0.408230 0.000000
#
# Coordination Sequence:
#
# PCOD9151574 Si02
#       8
#     4   2   4   4   4   2   4   4
#     4  11  20  37  60  83 115 149 200 236 286 344
#     4   9  16  30  51  70  99 146 205 235 258 317
#     4  11  23  34  52  81 117 153 189 240 290 342
#     4  11  23  39  59  86 126 152 192 238 298 358
#     4  11  22  37  58  86 119 161 201 235 281 340
#     4   9  17  32  48  71 104 148 202 234 270 314
#     4  10  20  40  66  90 112 144 198 250 292 345
#     4  10  21  35  54  78 107 157 195 235 278 335
#
# _framework density 17.603477999999999
#
# number of rings (size 3 to 8) (size 9 to 14) (size 15 to 20)
#    0.000    1.571    5.714    0.643    5.000    0.571 
#    0.000    0.000    0.000    7.286    0.000    0.000 
#    0.000    0.000    0.000    0.000    0.000    0.000 
#
# Total GULP energy -156019.777661 kJ/mol
# GULP energy per Si atom -5572.134916 kJ/mol
# Density = 1.756341 g / cm^3
# Si number density = 17.603478 Si / 1000 Ang^3
#
#
#
# Elastic Constant Matrix: (Units=GPa)
#
#
# Indices 1 2 3 4 5 6 
#
# 1 133.0979 51.9399 32.3138 0.0000 -21.4058 0.0000
# 2 51.9399 116.5114 33.5328 0.0000 -11.0737 0.0000
# 3 32.3138 33.5328 75.1858 0.0000 -16.7907 0.0000
# 4 0.0000 0.0000 0.0000 15.4898 0.0000 -2.9678
# 5 -21.4058 -11.0737 -16.7907 0.0000 12.7188 0.0000
# 6 0.0000 0.0000 0.0000 -2.9678 0.0000 6.2657
#
#
#
# Elastic Compliance Matrix: (Units=1/GPa)
#
#
# Indices 1 2 3 4 5 6 
#
# 1 0.011544 -0.003673 0.000427 0.000000 0.016795 0.000000
# 2 -0.003673 0.011156 -0.003699 0.000000 -0.001351 0.000000
# 3 0.000427 -0.003699 0.020148 0.000000 0.024097 0.000000
# 4 0.000000 0.000000 0.000000 0.071002 0.000000 0.033630
# 5 0.016795 -0.001351 0.024097 0.000000 0.137525 0.000000
# 6 0.000000 0.000000 0.000000 0.033630 0.000000 0.175528
#
#
# Mechanical properties :
#
#
# Convention : Reuss Voigt Hill
#
# Bulk Modulus (GPa) = 34.53140 62.26311 48.39726
# Shear Modulus (GPa) = 11.10014 20.69545 15.89779
#
# Velocity S-wave (km/s) = 2.51383 3.43249 3.00843
# Velocity P-wave (km/s) = 5.29949 7.15233 6.29446
#
# Compressibility (1/GPa) = 0.02895915
#
# Stress axis : x y z
#
# Youngs Moduli (GPa) = 86.62586 89.63498 49.63318
#
# Poissons Ratio (x) = 0.32922 -0.02121
# Poissons Ratio (y) = 0.31817 0.18359
# Poissons Ratio (z) = -0.03702 0.33155
#
# Static dielectric constant tensor:
#      x y z
#    x 1.583900 0.000000 -0.015440 
#    y 0.000000 1.650170 0.000000 
#    z -0.015440 0.000000 1.631310 
# 
# From -- ./inp_files/32807.got.cif
#   From: 2010.05.17/outbox.cif.g08.bks.cpg/sg10_17_cif.got.tgz:32807.got - 2010.06.03 11:33:40.
