data_PCOD9151971
_publ_section_title
;
Structure prediction by ZEFSAII (Michael W. Deem and Ramdas Pophale) SiO2 
 PCOD9151971
Probable space group: P 2/M
;
_chemical_formula_sum "Si O2"
_cell_formula_units_Z 30
_cell_length_a 27.528817
_cell_length_b 14.199240
_cell_length_c 24.967411
_cell_angle_alpha 90.000000
_cell_angle_beta 170.127157
_cell_angle_gamma 90.000000
_cell_volume 1673.379518
_symmetry_space_group_name_H-M "P 2/M"
_symmetry_group_IT_number 10
_symmetry_cell_setting 'monoclinic'
loop_
_space_group_symop_operation_xyz
x,y,z
-x,y,-z
-x,-y,-z
x,-y,z
loop_
_atom_site_type_symbol
_atom_site_label
_atom_site_fract_x
_atom_site_fract_y
_atom_site_fract_z
Si Si1 0.072120 0.290484 0.732958
Si Si2 0.673436 0.392028 0.384976
Si Si3 0.956222 0.608665 0.809489
Si Si4 0.168240 0.607669 0.627306
Si Si5 0.252724 0.860849 0.003739
Si Si6 0.668067 0.893515 0.627042
Si Si7 0.772085 0.000000 0.532797
Si Si8 0.523261 0.730121 0.659794
O O1 0.121960 0.184373 0.807498
O O2 0.874901 0.340086 0.562442
O O3 0.933689 0.314543 0.525579
O O4 0.375703 0.340305 0.063025
O O5 0.633417 0.500000 0.324667
O O6 0.813908 0.391611 0.596035
O O7 0.996031 0.500000 0.868914
O O8 0.743488 0.665393 0.616070
O O9 0.245447 0.665770 0.117942
O O10 0.117997 0.500000 0.551868
O O11 0.000000 0.616330 0.500000
O O12 0.500000 0.616386 0.000000
O O13 0.347477 0.775932 0.145955
O O14 0.005870 0.918972 0.766111
O O15 0.536442 0.918972 0.296693
O O16 0.500000 0.884150 0.500000
O O17 0.566569 0.817108 0.474823
O O18 0.617617 0.000000 0.551252
O O19 0.000000 0.884048 0.000000
#
# Coordination Sequence:
#
# PCOD9151971 Si02
#       8
#     4   4   4   4   4   4   2   4
#     4  12  21  36  57  82 117 153 204 240 279 355
#     4  11  20  32  51  82 120 155 187 232 285 338
#     4  11  22  37  57  89 128 161 200 243 293 354
#     4  10  21  36  53  81 118 157 197 237 285 339
#     4  11  22  39  57  90 114 155 195 238 307 376
#     4  10  23  43  63  91 118 154 201 249 304 365
#     4  10  24  38  54  80 126 148 182 238 310 374
#     4  12  22  40  64  90 123 162 202 248 302 366
#
# _framework density 17.927793000000001
#
# number of rings (size 3 to 8) (size 9 to 14) (size 15 to 20)
#    0.000    1.067    2.667    4.800    1.867    3.200 
#    2.400    0.000    0.000    8.000    0.000    9.333 
#    0.000    0.000    0.000    0.000    0.000    0.000 
#
# Total GULP energy -167070.215597 kJ/mol
# GULP energy per Si atom -5569.007187 kJ/mol
# Density = 1.788699 g / cm^3
# Si number density = 17.927793 Si / 1000 Ang^3
#
#
#
# Elastic Constant Matrix: (Units=GPa)
#
#
# Indices 1 2 3 4 5 6 
#
# 1 64.1502 51.5302 67.8213 0.0000 22.3729 0.0000
# 2 51.5302 125.6085 59.2141 0.0000 12.2815 0.0000
# 3 67.8213 59.2141 102.3991 0.0000 46.5452 0.0000
# 4 0.0000 0.0000 0.0000 15.1353 0.0000 49.4902
# 5 22.3729 12.2815 46.5452 0.0000 49.7633 0.0000
# 6 0.0000 0.0000 0.0000 49.4902 0.0000 -10.5645
#
#
#
# Elastic Compliance Matrix: (Units=1/GPa)
#
#
# Indices 1 2 3 4 5 6 
#
# 1 0.062613 -0.005961 -0.045048 0.000000 0.015457 0.000000
# 2 -0.005961 0.012489 -0.005377 0.000000 0.004627 0.000000
# 3 -0.045048 -0.005377 0.057237 0.000000 -0.031955 0.000000
# 4 0.000000 0.000000 0.000000 0.004049 0.000000 0.018968
# 5 0.015457 0.004627 -0.031955 0.000000 0.041893 0.000000
# 6 0.000000 0.000000 0.000000 0.018968 0.000000 -0.005801
#
#
# Mechanical properties :
#
#
# Convention : Reuss Voigt Hill
#
# Bulk Modulus (GPa) = 51.11081 72.14322 61.62702
# Shear Modulus (GPa) = 17.13648 18.43963 17.78805
#
# Velocity S-wave (km/s) = 3.09505 3.21058 3.15335
# Velocity P-wave (km/s) = 6.42990 7.35337 6.90709
#
# Compressibility (1/GPa) = 0.01956533
#
# Stress axis : x y z
#
# Youngs Moduli (GPa) = 15.97121 80.06880 17.47123
#
# Poissons Ratio (x) = 0.47730 0.78705
# Poissons Ratio (y) = 0.09521 0.09395
# Poissons Ratio (z) = 0.71948 0.43054
#
# Static dielectric constant tensor:
#      x y z
#    x 1.605440 0.000000 -0.016760 
#    y 0.000000 1.627370 0.000000 
#    z -0.016760 0.000000 1.596520 
# 
# From -- ./inp_files/91314.got.cif
#   From: 2010.05.17/outbox.cif.g08.bks.cpg/sg10_46_cif.got.tgz:91314.got - 2010.06.03 11:33:40.
