data_PCOD9151034
_publ_section_title
;
Structure prediction by ZEFSAII (Michael W. Deem and Ramdas Pophale) SiO2 
 PCOD9151034
Probable space group: P 2/M
;
_chemical_formula_sum "Si O2"
_cell_formula_units_Z 20
_cell_length_a 13.375426
_cell_length_b 11.305400
_cell_length_c 5.612133
_cell_angle_alpha 90.000000
_cell_angle_beta 110.612671
_cell_angle_gamma 90.000000
_cell_volume 794.307877
_symmetry_space_group_name_H-M "P 2/M"
_symmetry_group_IT_number 10
_symmetry_cell_setting 'monoclinic'
loop_
_space_group_symop_operation_xyz
x,y,z
-x,y,-z
-x,-y,-z
x,-y,z
loop_
_atom_site_type_symbol
_atom_site_label
_atom_site_fract_x
_atom_site_fract_y
_atom_site_fract_z
Si Si1 0.874278 0.500000 0.662579
Si Si2 0.644533 0.295387 0.239809
Si Si3 0.295251 0.866477 0.079559
Si Si4 0.937839 0.000000 0.694444
Si Si5 0.254126 0.500000 0.939566
Si Si6 0.500000 0.770668 0.500000
Si Si7 0.849448 0.743919 0.720920
O O1 0.832728 0.500000 0.351263
O O2 0.925973 0.631321 0.741891
O O3 0.796964 0.500000 0.839941
O O4 0.669770 0.389054 0.055971
O O5 0.538939 0.305198 0.306908
O O6 0.743627 0.303597 0.501708
O O7 0.654766 0.167121 0.130495
O O8 0.395521 0.845341 0.340320
O O9 0.194509 0.781591 0.055349
O O10 0.257956 0.000000 0.061938
O O11 0.880358 0.871616 0.644013
O O12 0.000000 0.000000 0.500000
O O13 0.000000 0.000000 0.000000
#
# Coordination Sequence:
#
# PCOD9151034 Si02
#       7
#     2   4   4   2   2   2   4
#     4  10  20  40  70  99 129 170 230 269 319 398
#     4  10  22  37  62  87 130 174 231 273 334 387
#     4  11  21  36  62  87 128 172 232 272 337 388
#     4  12  30  48  74 109 144 167 210 272 338 408
#     4  10  20  37  61  96 126 174 228 283 319 379
#     4  10  23  37  48  92 130 179 221 294 328 385
#     4  10  23  42  68  99 130 177 219 270 331 397
#
# _framework density 25.179151999999998
#
# number of rings (size 3 to 8) (size 9 to 14) (size 15 to 20)
#    0.000    1.600    3.000    0.900    4.200    2.800 
#    0.000    4.000    0.000    0.000    0.000    0.000 
#    0.000    0.000    0.000    0.000    0.000    0.000 
#
# Total GULP energy -111484.149434 kJ/mol
# GULP energy per Si atom -5574.207472 kJ/mol
# Density = 2.512184 g / cm^3
# Si number density = 25.179152 Si / 1000 Ang^3
#
#
#
# Elastic Constant Matrix: (Units=GPa)
#
#
# Indices 1 2 3 4 5 6 
#
# 1 38.5981 20.2446 19.5502 0.0000 -25.5388 0.0000
# 2 20.2446 159.1551 8.9315 0.0000 -16.6614 0.0000
# 3 19.5502 8.9315 109.2231 0.0000 -16.1082 0.0000
# 4 0.0000 0.0000 0.0000 17.1772 0.0000 -1.6299
# 5 -25.5388 -16.6614 -16.1082 0.0000 59.6247 0.0000
# 6 0.0000 0.0000 0.0000 -1.6299 0.0000 -82.0614
#
#
#
# Elastic Compliance Matrix: (Units=1/GPa)
#
#
# Indices 1 2 3 4 5 6 
#
# 1 0.039827 -0.003245 -0.004667 0.000000 0.014891 0.000000
# 2 -0.003245 0.006745 0.000107 0.000000 0.000524 0.000000
# 3 -0.004667 0.000107 0.010094 0.000000 0.000758 0.000000
# 4 0.000000 0.000000 0.000000 0.058107 0.000000 -0.001154
# 5 0.014891 0.000524 0.000758 0.000000 0.023501 0.000000
# 6 0.000000 0.000000 0.000000 -0.001154 0.000000 -0.012163
#
#
# Mechanical properties :
#
#
# Convention : Reuss Voigt Hill
#
# Bulk Modulus (GPa) = 24.35813 44.93652 34.64733
# Shear Modulus (GPa) = 32.17353 16.16477 24.16915
#
# Velocity S-wave (km/s) = 3.57849 2.53650 3.10157
# Velocity P-wave (km/s) = 5.17388 5.14431 5.15912
#
# Compressibility (1/GPa) = 0.04105405
#
# Stress axis : x y z
#
# Youngs Moduli (GPa) = 25.10858 148.26245 99.06868
#
# Poissons Ratio (x) = 0.48114 0.46238
# Poissons Ratio (y) = 0.08148 -0.01055
# Poissons Ratio (z) = 0.11719 -0.01580
#
# Static dielectric constant tensor:
#      x y z
#    x 2.047200 0.000000 0.034560 
#    y 0.000000 2.167640 0.000000 
#    z 0.034560 0.000000 1.999270 
# 
# From -- ./inp_files/8995.got.cif
#   From: 2010.05.17/outbox.cif.g08.bks.cpg/sg10_5_cif.got.tgz:8995.got - 2010.06.03 11:33:40.
