data_PCOD9151605
_publ_section_title
;
Structure prediction by ZEFSAII (Michael W. Deem and Ramdas Pophale) SiO2 
 PCOD9151605
Probable space group: P 2/M
;
_chemical_formula_sum "Si O2"
_cell_formula_units_Z 19
_cell_length_a 5.348234
_cell_length_b 26.791764
_cell_length_c 5.290040
_cell_angle_alpha 90.000000
_cell_angle_beta 85.541741
_cell_angle_gamma 90.000000
_cell_volume 755.709005
_symmetry_space_group_name_H-M "P 2/M"
_symmetry_group_IT_number 10
_symmetry_cell_setting 'monoclinic'
loop_
_space_group_symop_operation_xyz
x,y,z
-x,y,-z
-x,-y,-z
x,-y,z
loop_
_atom_site_type_symbol
_atom_site_label
_atom_site_fract_x
_atom_site_fract_y
_atom_site_fract_z
Si Si1 0.268807 0.891738 0.336042
Si Si2 0.000000 0.500000 0.000000
Si Si3 0.832946 0.000000 0.767751
Si Si4 0.834081 0.215407 0.768542
Si Si5 0.827024 0.678468 0.762026
Si Si6 0.653003 0.431172 0.741527
O O1 0.500000 0.885376 0.500000
O O2 0.303690 0.946720 0.217335
O O3 0.271790 0.840130 0.183079
O O4 0.000000 0.893672 0.500000
O O5 0.081708 0.456389 0.206798
O O6 0.000000 0.000000 0.500000
O O7 0.000000 0.000000 0.000000
O O8 0.684879 0.267736 0.763015
O O9 0.000000 0.212468 0.500000
O O10 0.000000 0.223449 0.000000
O O11 0.667794 0.628567 0.751010
O O12 0.000000 0.678580 0.500000
O O13 0.000000 0.674079 0.000000
O O14 0.500000 0.445025 0.500000
O O15 0.500000 0.448491 0.000000
#
# Coordination Sequence:
#
# PCOD9151605 Si02
#       6
#     4   1   2   4   4   4
#     4  10  21  40  63  94 132 174 226 279 341 404
#     4  12  28  50  72  92 146 172 218 272 342 382
#     4  10  21  40  64  92 130 174 224 278 340 406
#     4   9  19  37  63  94 129 170 217 266 329 397
#     4  10  20  41  68  94 133 173 210 269 334 389
#     4  12  27  45  71 103 131 173 226 270 333 403
#
# _framework density 25.141952
#
# number of rings (size 3 to 8) (size 9 to 14) (size 15 to 20)
#    0.000    1.684    1.053    2.842    0.000    1.684 
#    0.000   25.263    0.000    0.000    0.000    0.000 
#    0.000    0.000    0.000    0.000    0.000    0.000 
#
# Total GULP energy -105826.420631 kJ/mol
# GULP energy per Si atom -5569.811612 kJ/mol
# Density = 2.508473 g / cm^3
# Si number density = 25.141952 Si / 1000 Ang^3
#
#
#
# Elastic Constant Matrix: (Units=GPa)
#
#
# Indices 1 2 3 4 5 6 
#
# 1 67.5373 4.3076 38.6997 0.0000 -2.2374 0.0000
# 2 4.3076 303.4668 12.9155 0.0000 14.7883 0.0000
# 3 38.6997 12.9155 194.0240 0.0000 15.1044 0.0000
# 4 0.0000 0.0000 0.0000 -177.2236 0.0000 132.3123
# 5 -2.2374 14.7883 15.1044 0.0000 63.5101 0.0000
# 6 0.0000 0.0000 0.0000 132.3123 0.0000 -30.2618
#
#
#
# Elastic Compliance Matrix: (Units=1/GPa)
#
#
# Indices 1 2 3 4 5 6 
#
# 1 0.016850 -0.000163 -0.003463 0.000000 0.001455 0.000000
# 2 -0.000163 0.003340 -0.000131 0.000000 -0.000752 0.000000
# 3 -0.003463 -0.000131 0.005971 0.000000 -0.001512 0.000000
# 4 0.000000 0.000000 0.000000 0.002492 0.000000 0.010896
# 5 0.001455 -0.000752 -0.001512 0.000000 0.016331 0.000000
# 6 0.000000 0.000000 0.000000 0.010896 0.000000 0.014594
#
#
# Mechanical properties :
#
#
# Convention : Reuss Voigt Hill
#
# Bulk Modulus (GPa) = 53.63029 75.20817 64.41923
# Shear Modulus (GPa) = 68.20513 5.14530 36.67522
#
# Velocity S-wave (km/s) = 5.21411 1.43211 3.82347
# Velocity P-wave (km/s) = 7.59121 5.71952 6.72084
#
# Compressibility (1/GPa) = 0.01864618
#
# Stress axis : x y z
#
# Youngs Moduli (GPa) = 59.34821 299.41861 167.47090
#
# Poissons Ratio (x) = 0.04871 0.57999
# Poissons Ratio (y) = 0.00966 0.02199
# Poissons Ratio (z) = 0.20554 0.03932
#
# Static dielectric constant tensor:
#      x y z
#    x 2.214400 0.000000 -0.156600 
#    y 0.000000 1.945130 0.000000 
#    z -0.156600 0.000000 2.148950 
# 
# From -- ./inp_files/2071.got.cif
#   From: 2010.05.17/outbox.cif.g08.bks.cpg/sg10_2_cif.got.tgz:2071.got - 2010.06.03 11:33:40.
