data_PCOD9151300
_publ_section_title
;
Structure prediction by ZEFSAII (Michael W. Deem and Ramdas Pophale) SiO2 
 PCOD9151300
Probable space group: P 2/M
;
_chemical_formula_sum "Si O2"
_cell_formula_units_Z 18
_cell_length_a 17.418566
_cell_length_b 10.410523
_cell_length_c 5.073032
_cell_angle_alpha 90.000000
_cell_angle_beta 73.103715
_cell_angle_gamma 90.000000
_cell_volume 880.214331
_symmetry_space_group_name_H-M "P 2/M"
_symmetry_group_IT_number 10
_symmetry_cell_setting 'monoclinic'
loop_
_space_group_symop_operation_xyz
x,y,z
-x,y,-z
-x,-y,-z
x,-y,z
loop_
_atom_site_type_symbol
_atom_site_label
_atom_site_fract_x
_atom_site_fract_y
_atom_site_fract_z
Si Si1 0.587639 0.846239 0.483913
Si Si2 0.688723 0.846320 0.889699
Si Si3 0.820008 0.643123 0.572249
Si Si4 0.088847 0.719826 0.038638
Si Si5 0.057960 0.000000 0.188937
O O1 0.500000 0.792961 0.500000
O O2 0.616418 0.827202 0.752612
O O3 0.583115 0.000000 0.449134
O O4 0.656174 0.806418 0.208679
O O5 0.758857 0.752937 0.724955
O O6 0.709531 0.000000 0.864326
O O7 0.784568 0.500000 0.611934
O O8 0.852238 0.675011 0.250107
O O9 0.893432 0.646274 0.708925
O O10 0.000000 0.709052 0.000000
O O11 0.104361 0.867799 0.108628
O O12 0.000000 0.000000 0.500000
O O13 0.000000 0.000000 0.000000
#
# Coordination Sequence:
#
# PCOD9151300 Si02
#       5
#     4   4   4   4   2
#     4   9  17  33  59  91 119 148 193 247 294 342
#     4  10  21  36  59  87 119 157 196 241 295 356
#     4  12  26  41  60  87 124 164 199 250 305 357
#     4  11  24  41  64  87 115 156 207 257 304 359
#     4  10  20  38  62  90 116 140 185 254 315 350
#
# _framework density 20.449562
#
# number of rings (size 3 to 8) (size 9 to 14) (size 15 to 20)
#    0.000    1.556    0.000    6.000    3.111    5.333 
#    0.000    0.000    0.000    4.000    0.000    0.000 
#    0.000    0.000    0.000    0.000    0.000    0.000 
#
# Total GULP energy -100482.029749 kJ/mol
# GULP energy per Si atom -5582.334986 kJ/mol
# Density = 2.040302 g / cm^3
# Si number density = 20.449562 Si / 1000 Ang^3
#
#
#
# Elastic Constant Matrix: (Units=GPa)
#
#
# Indices 1 2 3 4 5 6 
#
# 1 58.0229 22.9650 -2.1527 0.0000 -2.2299 0.0000
# 2 22.9650 100.2709 12.2812 0.0000 -1.8130 0.0000
# 3 -2.1527 12.2812 81.3041 0.0000 22.2073 0.0000
# 4 0.0000 0.0000 0.0000 -43.4126 0.0000 -14.1057
# 5 -2.2299 -1.8130 22.2073 0.0000 25.8776 0.0000
# 6 0.0000 0.0000 0.0000 -14.1057 0.0000 1.1019
#
#
#
# Elastic Compliance Matrix: (Units=1/GPa)
#
#
# Indices 1 2 3 4 5 6 
#
# 1 0.019067 -0.004491 0.001072 0.000000 0.000409 0.000000
# 2 -0.004491 0.011360 -0.002542 0.000000 0.002591 0.000000
# 3 0.001072 -0.002542 0.016634 0.000000 -0.014361 0.000000
# 4 0.000000 0.000000 0.000000 -0.004465 0.000000 -0.057153
# 5 0.000409 0.002591 -0.014361 0.000000 0.051184 0.000000
# 6 0.000000 0.000000 0.000000 -0.057153 0.000000 0.175897
#
#
# Mechanical properties :
#
#
# Convention : Reuss Voigt Hill
#
# Bulk Modulus (GPa) = 28.45915 33.97610 31.21762
# Shear Modulus (GPa) = 17.04655 10.48034 13.76344
#
# Velocity S-wave (km/s) = 2.89033 2.26630 2.59712
# Velocity P-wave (km/s) = 5.00856 4.84755 4.92871
#
# Compressibility (1/GPa) = 0.03513809
#
# Stress axis : x y z
#
# Youngs Moduli (GPa) = 52.44531 88.03004 60.11626
#
# Poissons Ratio (x) = 0.39533 -0.06441
# Poissons Ratio (y) = 0.23552 0.15284
# Poissons Ratio (z) = -0.05620 0.22381
#
# Static dielectric constant tensor:
#      x y z
#    x 1.753050 0.000000 -0.004460 
#    y 0.000000 1.791440 0.000000 
#    z -0.004460 0.000000 1.698810 
# 
# From -- ./inp_files/10484.got.cif
#   From: 2010.05.17/outbox.cif.g08.bks.cpg/sg10_6_cif.got.tgz:10484.got - 2010.06.03 11:33:40.
