data_PCOD9151214
_publ_section_title
;
Structure prediction by ZEFSAII (Michael W. Deem and Ramdas Pophale) SiO2 
 PCOD9151214
Probable space group: P 2/M
;
_chemical_formula_sum "Si O2"
_cell_formula_units_Z 32
_cell_length_a 14.005254
_cell_length_b 18.959245
_cell_length_c 9.805181
_cell_angle_alpha 90.000000
_cell_angle_beta 43.648358
_cell_angle_gamma 90.000000
_cell_volume 1797.056748
_symmetry_space_group_name_H-M "P 2/M"
_symmetry_group_IT_number 10
_symmetry_cell_setting 'monoclinic'
loop_
_space_group_symop_operation_xyz
x,y,z
-x,y,-z
-x,-y,-z
x,-y,z
loop_
_atom_site_type_symbol
_atom_site_label
_atom_site_fract_x
_atom_site_fract_y
_atom_site_fract_z
Si Si1 0.842130 0.823769 0.178025
Si Si2 0.336520 0.858261 0.155145
Si Si3 0.638679 0.299259 0.773116
Si Si4 0.135711 0.080402 0.582257
Si Si5 0.868506 0.582038 0.221599
Si Si6 0.362254 0.302946 0.552541
Si Si7 0.133284 0.418770 0.456023
Si Si8 0.818254 0.083424 0.933741
O O1 0.833181 0.866204 0.328203
O O2 0.730545 0.762123 0.298824
O O3 0.819838 0.878676 0.078197
O O4 0.000000 0.796268 0.000000
O O5 0.311752 0.777147 0.224459
O O6 0.241550 0.905502 0.351463
O O7 0.287627 0.876424 0.054204
O O8 0.500000 0.871792 0.000000
O O9 0.612044 0.294538 0.637312
O O10 0.749822 0.360256 0.686944
O O11 0.500000 0.315279 0.000000
O O12 0.974071 0.090243 0.712115
O O13 0.148691 0.000000 0.617775
O O14 0.843839 0.500000 0.213416
O O15 0.733418 0.628060 0.333918
O O16 0.903409 0.586553 0.345978
O O17 0.000000 0.607174 0.000000
O O18 0.500000 0.307567 0.500000
O O19 0.180219 0.500000 0.383104
O O20 0.000000 0.406157 0.500000
O O21 0.787437 0.000000 0.975498
#
# Coordination Sequence:
#
# PCOD9151214 Si02
#       8
#     4   4   4   4   4   4   4   4
#     4  10  21  38  59  84 111 145 186 237 288 343
#     4  11  23  38  55  81 116 152 189 234 279 339
#     4  10  23  40  55  82 116 155 191 232 279 333
#     4  10  20  38  60  82 111 144 184 234 289 340
#     4   9  19  38  61  88 122 153 189 235 281 332
#     4  11  23  38  59  84 116 153 193 235 281 337
#     4   9  19  37  61  89 118 150 190 234 279 330
#     4  10  22  38  60  86 110 143 190 237 288 345
#
# _framework density 17.806895000000001
#
# number of rings (size 3 to 8) (size 9 to 14) (size 15 to 20)
#    0.000    2.000    1.250    1.500    3.500    6.000 
#    2.250    0.000    0.000    2.250    0.000    0.000 
#    0.000    0.000    0.000    0.000    0.000    0.000 
#
# Total GULP energy -178591.135569 kJ/mol
# GULP energy per Si atom -5580.972987 kJ/mol
# Density = 1.776637 g / cm^3
# Si number density = 17.806895 Si / 1000 Ang^3
#
#
#
# Elastic Constant Matrix: (Units=GPa)
#
#
# Indices 1 2 3 4 5 6 
#
# 1 135.8124 67.6719 33.1037 0.0000 -10.1815 0.0000
# 2 67.6719 92.5509 37.1388 0.0000 -12.5267 0.0000
# 3 33.1037 37.1388 76.2351 0.0000 -7.3970 0.0000
# 4 0.0000 0.0000 0.0000 19.9937 0.0000 7.2155
# 5 -10.1815 -12.5267 -7.3970 0.0000 15.9897 0.0000
# 6 0.0000 0.0000 0.0000 7.2155 0.0000 11.4685
#
#
#
# Elastic Compliance Matrix: (Units=1/GPa)
#
#
# Indices 1 2 3 4 5 6 
#
# 1 0.011667 -0.007999 -0.001106 0.000000 0.000651 0.000000
# 2 -0.007999 0.019925 -0.005458 0.000000 0.007992 0.000000
# 3 -0.001106 -0.005458 0.016515 0.000000 0.002659 0.000000
# 4 0.000000 0.000000 0.000000 0.064708 0.000000 -0.040711
# 5 0.000651 0.007992 0.002659 0.000000 0.070446 0.000000
# 6 0.000000 0.000000 0.000000 -0.040711 0.000000 0.112809
#
#
# Mechanical properties :
#
#
# Convention : Reuss Voigt Hill
#
# Bulk Modulus (GPa) = 52.68515 64.49194 58.58854
# Shear Modulus (GPa) = 15.08187 20.60264 17.84225
#
# Velocity S-wave (km/s) = 2.91343 3.40517 3.16885
# Velocity P-wave (km/s) = 6.40067 7.19418 6.80899
#
# Compressibility (1/GPa) = 0.01898068
#
# Stress axis : x y z
#
# Youngs Moduli (GPa) = 85.71054 50.18721 60.55187
#
# Poissons Ratio (x) = 0.40144 0.06699
# Poissons Ratio (y) = 0.68558 0.33050
# Poissons Ratio (z) = 0.09483 0.27393
#
# Static dielectric constant tensor:
#      x y z
#    x 1.583980 0.000000 0.006240 
#    y 0.000000 1.606490 0.000000 
#    z 0.006240 0.000000 1.599440 
# 
# From -- ./inp_files/26067.got.cif
#   From: 2010.05.17/outbox.cif.g08.bks.cpg/sg10_14_cif.got.tgz:26067.got - 2010.06.03 11:33:40.
