data_PCOD9151271
_publ_section_title
;
Structure prediction by ZEFSAII (Michael W. Deem and Ramdas Pophale) SiO2 
 PCOD9151271
Probable space group: P 2/M
;
_chemical_formula_sum "Si O2"
_cell_formula_units_Z 28
_cell_length_a 21.889218
_cell_length_b 7.400800
_cell_length_c 24.133566
_cell_angle_alpha 90.000000
_cell_angle_beta 18.803926
_cell_angle_gamma 90.000000
_cell_volume 1260.178008
_symmetry_space_group_name_H-M "P 2/M"
_symmetry_group_IT_number 10
_symmetry_cell_setting 'monoclinic'
loop_
_space_group_symop_operation_xyz
x,y,z
-x,y,-z
-x,-y,-z
x,-y,z
loop_
_atom_site_type_symbol
_atom_site_label
_atom_site_fract_x
_atom_site_fract_y
_atom_site_fract_z
Si Si1 0.503774 0.208149 0.558636
Si Si2 0.627737 0.720482 0.728079
Si Si3 0.683652 0.719972 0.806754
Si Si4 0.794589 0.278870 0.918441
Si Si5 0.863130 0.217387 0.066030
Si Si6 0.924026 0.706818 0.229232
Si Si7 0.972425 0.720130 0.649933
O O1 0.500000 0.290668 0.500000
O O2 0.346862 0.281452 0.735969
O O3 0.718181 0.209750 0.395807
O O4 0.441713 0.000000 0.604370
O O5 0.625474 0.500000 0.730126
O O6 0.663588 0.778355 0.760795
O O7 0.809596 0.777552 0.536874
O O8 0.420986 0.779466 0.885987
O O9 0.687074 0.500000 0.802199
O O10 0.866975 0.777365 0.684190
O O11 0.500000 0.772161 0.000000
O O12 0.794333 0.500000 0.920073
O O13 0.945670 0.215769 0.833919
O O14 0.858053 0.224152 0.802429
O O15 0.864209 0.000000 0.058127
O O16 0.000000 0.261742 0.000000
O O17 0.953275 0.289326 0.932292
O O18 0.882595 0.500000 0.279617
O O19 0.969537 0.500000 0.652152
#
# Coordination Sequence:
#
# PCOD9151271 Si02
#       7
#     4   4   4   4   4   4   4
#     4  10  20  38  62  82 102 134 176 218 261 313
#     4   9  15  23  36  52  76 116 165 210 249 290
#     4   9  13  19  33  52  73 103 158 223 256 276
#     4   9  18  30  39  56  91 134 166 194 244 310
#     4  10  20  38  62  82 102 134 176 218 261 313
#     4  11  23  35  52  81 116 144 172 214 264 321
#     4   9  15  23  36  52  76 116 165 210 249 290
#
# _framework density 22.219083999999999
#
# number of rings (size 3 to 8) (size 9 to 14) (size 15 to 20)
#    0.000    2.429    2.857    0.857    0.000    4.000 
#    0.000    2.857    0.000    0.000    0.000    0.000 
#    0.000    0.000    0.000   10.286    0.000   50.286 
#
# Total GULP energy -156390.131314 kJ/mol
# GULP energy per Si atom -5585.361833 kJ/mol
# Density = 2.216851 g / cm^3
# Si number density = 22.219084 Si / 1000 Ang^3
#
#
#
# Elastic Constant Matrix: (Units=GPa)
#
#
# Indices 1 2 3 4 5 6 
#
# 1 65.5666 -6.3418 18.4425 0.0000 -31.0149 0.0000
# 2 -6.3418 70.0598 -6.0887 0.0000 -1.4682 0.0000
# 3 18.4425 -6.0887 155.4916 0.0000 -23.2848 0.0000
# 4 0.0000 0.0000 0.0000 165.1692 0.0000 -34.3476
# 5 -31.0149 -1.4682 -23.2848 0.0000 31.2603 0.0000
# 6 0.0000 0.0000 0.0000 -34.3476 0.0000 10.8077
#
#
#
# Elastic Compliance Matrix: (Units=1/GPa)
#
#
# Indices 1 2 3 4 5 6 
#
# 1 0.029665 0.003426 0.001179 0.000000 0.030471 0.000000
# 2 0.003426 0.014760 0.000883 0.000000 0.004750 0.000000
# 3 0.001179 0.000883 0.007324 0.000000 0.006667 0.000000
# 4 0.000000 0.000000 0.000000 0.017854 0.000000 0.056741
# 5 0.030471 0.004750 0.006667 0.000000 0.067410 0.000000
# 6 0.000000 0.000000 0.000000 0.056741 0.000000 0.272853
#
#
# Mechanical properties :
#
#
# Convention : Reuss Voigt Hill
#
# Bulk Modulus (GPa) = 15.94248 33.68244 24.81246
# Shear Modulus (GPa) = 11.91046 60.45451 36.18248
#
# Velocity S-wave (km/s) = 2.31778 5.22182 4.03977
# Velocity P-wave (km/s) = 3.78860 7.17974 5.74031
#
# Compressibility (1/GPa) = 0.06272550
#
# Stress axis : x y z
#
# Youngs Moduli (GPa) = 33.70936 67.75088 136.53186
#
# Poissons Ratio (x) = -0.23214 -0.16093
# Poissons Ratio (y) = -0.11550 -0.12055
# Poissons Ratio (z) = -0.03973 -0.05982
#
# Static dielectric constant tensor:
#      x y z
#    x 1.768750 0.000000 -0.006250 
#    y 0.000000 1.865900 0.000000 
#    z -0.006250 0.000000 1.797780 
# 
# From -- ./inp_files/90344.got.cif
#   From: 2010.05.17/outbox.cif.g08.bks.cpg/sg10_46_cif.got.tgz:90344.got - 2010.06.03 11:33:40.
