data_PCOD9151429
_publ_section_title
;
Structure prediction by ZEFSAII (Michael W. Deem and Ramdas Pophale) SiO2 
 PCOD9151429
Probable space group: P 2/M
;
_chemical_formula_sum "Si O2"
_cell_formula_units_Z 28
_cell_length_a 21.699085
_cell_length_b 8.950688
_cell_length_c 14.980169
_cell_angle_alpha 90.000000
_cell_angle_beta 28.967534
_cell_angle_gamma 90.000000
_cell_volume 1409.099078
_symmetry_space_group_name_H-M "P 2/M"
_symmetry_group_IT_number 10
_symmetry_cell_setting 'monoclinic'
loop_
_space_group_symop_operation_xyz
x,y,z
-x,y,-z
-x,-y,-z
x,-y,z
loop_
_atom_site_type_symbol
_atom_site_label
_atom_site_fract_x
_atom_site_fract_y
_atom_site_fract_z
Si Si1 0.977541 0.177930 0.257896
Si Si2 0.889398 0.328188 0.204675
Si Si3 0.893255 0.181976 0.563328
Si Si4 0.402882 0.181708 0.045427
Si Si5 0.375613 0.671411 0.562806
Si Si6 0.575093 0.177069 0.184068
Si Si7 0.751244 0.678008 0.094099
O O1 0.880473 0.234626 0.306041
O O2 0.938284 0.224147 0.407103
O O3 0.986783 0.000000 0.244396
O O4 0.112708 0.249152 0.061651
O O5 0.923498 0.500000 0.184544
O O6 0.760859 0.330313 0.312010
O O7 0.000000 0.267933 0.000000
O O8 0.745669 0.230455 0.761322
O O9 0.000000 0.232234 0.500000
O O10 0.891323 0.000000 0.571140
O O11 0.400873 0.000000 0.054164
O O12 0.500000 0.234022 0.000000
O O13 0.450784 0.220866 0.885369
O O14 0.426031 0.500000 0.497561
O O15 0.463120 0.776056 0.392457
O O16 0.346291 0.716625 0.701790
O O17 0.697362 0.259986 0.069692
O O18 0.597248 0.000000 0.158458
O O19 0.762754 0.500000 0.079182
#
# Coordination Sequence:
#
# PCOD9151429 Si02
#       7
#     4   4   4   4   4   4   4
#     4  11  22  34  59  93 118 144 192 250 296 329
#     4  10  20  39  59  79 114 161 200 227 280 359
#     4   9  18  34  56  83 117 153 190 237 296 357
#     4   9  19  36  57  82 117 157 193 235 296 364
#     4  10  22  39  59  81 113 161 201 227 277 360
#     4  11  23  37  60  90 116 144 193 252 295 329
#     4  11  22  40  61  82 117 162 196 223 283 365
#
# _framework density 19.870853
#
# number of rings (size 3 to 8) (size 9 to 14) (size 15 to 20)
#    0.000    1.857    1.429    2.571    2.000    6.000 
#    0.000    0.000    0.000   11.143    0.000    0.000 
#    0.000    0.000    0.000    0.000    0.000    0.000 
#
# Total GULP energy -156328.243734 kJ/mol
# GULP energy per Si atom -5583.151562 kJ/mol
# Density = 1.982563 g / cm^3
# Si number density = 19.870853 Si / 1000 Ang^3
#
#
#
# Elastic Constant Matrix: (Units=GPa)
#
#
# Indices 1 2 3 4 5 6 
#
# 1 167.8089 31.4809 45.5114 0.0000 13.3914 0.0000
# 2 31.4809 29.2552 22.1767 0.0000 12.8480 0.0000
# 3 45.5114 22.1767 76.4428 0.0000 9.6812 0.0000
# 4 0.0000 0.0000 0.0000 405.3744 0.0000 -7.0083
# 5 13.3914 12.8480 9.6812 0.0000 34.5570 0.0000
# 6 0.0000 0.0000 0.0000 -7.0083 0.0000 26.7729
#
#
#
# Elastic Compliance Matrix: (Units=1/GPa)
#
#
# Indices 1 2 3 4 5 6 
#
# 1 0.007932 -0.006403 -0.002879 0.000000 0.000113 0.000000
# 2 -0.006403 0.055679 -0.010403 0.000000 -0.015306 0.000000
# 3 -0.002879 -0.010403 0.017815 0.000000 -0.000007 0.000000
# 4 0.000000 0.000000 0.000000 0.002478 0.000000 0.000649
# 5 0.000113 -0.015306 -0.000007 0.000000 0.034586 0.000000
# 6 0.000000 0.000000 0.000000 0.000649 0.000000 0.037521
#
#
# Mechanical properties :
#
#
# Convention : Reuss Voigt Hill
#
# Bulk Modulus (GPa) = 23.77745 52.42721 38.10233
# Shear Modulus (GPa) = 23.87774 104.96340 64.42057
#
# Velocity S-wave (km/s) = 3.47024 7.27581 5.70000
# Velocity P-wave (km/s) = 5.29610 9.85010 7.90801
#
# Compressibility (1/GPa) = 0.04205666
#
# Stress axis : x y z
#
# Youngs Moduli (GPa) = 126.06856 17.96003 56.13308
#
# Poissons Ratio (x) = 0.11499 0.16163
# Poissons Ratio (y) = 0.80718 0.58393
# Poissons Ratio (z) = 0.36300 0.18683
#
# Static dielectric constant tensor:
#      x y z
#    x 1.715630 0.000000 -0.020120 
#    y 0.000000 1.668240 0.000000 
#    z -0.020120 0.000000 1.713030 
# 
# From -- ./inp_files/63683.got.cif
#   From: 2010.05.17/outbox.cif.g08.bks.cpg/sg10_32_cif.got.tgz:63683.got - 2010.06.03 11:33:40.
