data_PCOD9151248
_publ_section_title
;
Structure prediction by ZEFSAII (Michael W. Deem and Ramdas Pophale) SiO2 
 PCOD9151248
Probable space group: P 2/M
;
_chemical_formula_sum "Si O2"
_cell_formula_units_Z 32
_cell_length_a 15.287495
_cell_length_b 8.950312
_cell_length_c 12.055729
_cell_angle_alpha 90.000000
_cell_angle_beta 86.178738
_cell_angle_gamma 90.000000
_cell_volume 1645.892188
_symmetry_space_group_name_H-M "P 2/M"
_symmetry_group_IT_number 10
_symmetry_cell_setting 'monoclinic'
loop_
_space_group_symop_operation_xyz
x,y,z
-x,y,-z
-x,-y,-z
x,-y,z
loop_
_atom_site_type_symbol
_atom_site_label
_atom_site_fract_x
_atom_site_fract_y
_atom_site_fract_z
Si Si1 0.912469 0.825991 0.452940
Si Si2 0.714472 0.819125 0.472739
Si Si3 0.843206 0.321459 0.079951
Si Si4 0.172672 0.678125 0.175020
Si Si5 0.674256 0.320802 0.241117
Si Si6 0.510121 0.180363 0.128713
Si Si7 0.662196 0.820612 0.718133
Si Si8 0.989057 0.171764 0.204628
O O1 0.815375 0.765884 0.483430
O O2 0.930234 0.823063 0.320439
O O3 0.000000 0.757310 0.500000
O O4 0.909670 0.000000 0.491639
O O5 0.678441 0.747400 0.363701
O O6 0.659841 0.783029 0.587805
O O7 0.716469 0.000000 0.459067
O O8 0.856304 0.500000 0.084485
O O9 0.763797 0.281062 0.168473
O O10 0.931615 0.243207 0.112540
O O11 0.819057 0.282861 0.956108
O O12 0.174171 0.500000 0.185802
O O13 0.251754 0.748956 0.236002
O O14 0.078664 0.741196 0.218989
O O15 0.668717 0.500000 0.247045
O O16 0.593673 0.255843 0.178074
O O17 0.423533 0.223364 0.205413
O O18 0.519474 0.000000 0.133766
O O19 0.500000 0.221006 0.000000
O O20 0.670530 0.000000 0.724968
O O21 0.010028 0.000000 0.178565
#
# Coordination Sequence:
#
# PCOD9151248 Si02
#       8
#     4   4   4   4   4   4   4   4
#     4   9  17  31  53  80 111 149 193 242 290 336
#     4  10  20  38  61  85 118 156 197 245 297 349
#     4  10  22  39  56  80 118 158 196 240 293 352
#     4  11  23  38  57  82 118 160 194 238 299 355
#     4  11  23  39  62  89 120 158 200 245 294 356
#     4  10  22  41  65  93 122 152 193 246 301 355
#     4  10  22  40  63  89 116 151 196 246 293 348
#     4  11  21  34  56  85 114 151 200 246 291 346
#
# _framework density 19.442340999999999
#
# number of rings (size 3 to 8) (size 9 to 14) (size 15 to 20)
#    0.000    1.750    1.250    3.000    0.000    6.750 
#    0.000    2.500    0.000    1.875    0.000    0.000 
#    0.000    0.000    0.000    0.000    0.000    0.000 
#
# Total GULP energy -178784.102845 kJ/mol
# GULP energy per Si atom -5587.003214 kJ/mol
# Density = 1.939809 g / cm^3
# Si number density = 19.442341 Si / 1000 Ang^3
#
#
#
# Elastic Constant Matrix: (Units=GPa)
#
#
# Indices 1 2 3 4 5 6 
#
# 1 111.2091 25.9041 35.1168 0.0000 0.9815 0.0000
# 2 25.9041 11.2843 18.3091 0.0000 -2.9010 0.0000
# 3 35.1168 18.3091 64.2723 0.0000 -8.3373 0.0000
# 4 0.0000 0.0000 0.0000 26.0503 0.0000 12.1498
# 5 0.9815 -2.9010 -8.3373 0.0000 35.7191 0.0000
# 6 0.0000 0.0000 0.0000 12.1498 0.0000 41.3107
#
#
#
# Elastic Compliance Matrix: (Units=1/GPa)
#
#
# Indices 1 2 3 4 5 6 
#
# 1 0.020417 -0.053848 0.003655 0.000000 -0.004081 0.000000
# 2 -0.053848 0.307022 -0.056318 0.000000 0.013270 0.000000
# 3 0.003655 -0.056318 0.029904 0.000000 0.002306 0.000000
# 4 0.000000 0.000000 0.000000 0.044490 0.000000 -0.013085
# 5 -0.004081 0.013270 0.002306 0.000000 0.029724 0.000000
# 6 0.000000 0.000000 0.000000 -0.013085 0.000000 0.028055
#
#
# Mechanical properties :
#
#
# Convention : Reuss Voigt Hill
#
# Bulk Modulus (GPa) = 6.92904 38.38062 22.65483
# Shear Modulus (GPa) = 6.93729 27.77841 17.35785
#
# Velocity S-wave (km/s) = 1.89100 3.78399 2.99119
# Velocity P-wave (km/s) = 2.88781 6.23499 4.85873
#
# Compressibility (1/GPa) = 0.14432010
#
# Stress axis : x y z
#
# Youngs Moduli (GPa) = 48.97895 3.25710 33.44024
#
# Poissons Ratio (x) = 0.17539 -0.12222
# Poissons Ratio (y) = 2.63744 1.88329
# Poissons Ratio (z) = -0.17902 0.18343
#
# Static dielectric constant tensor:
#      x y z
#    x 1.657970 0.000000 -0.018780 
#    y 0.000000 1.653390 0.000000 
#    z -0.018780 0.000000 1.682970 
# 
# From -- ./inp_files/49840.got.cif
#   From: 2010.05.17/outbox.cif.g08.bks.cpg/sg10_25_cif.got.tgz:49840.got - 2010.06.03 11:33:40.
