data_PCOD9151052
_publ_section_title
;
Structure prediction by ZEFSAII (Michael W. Deem and Ramdas Pophale) SiO2 
 PCOD9151052
Probable space group: P 2/M
;
_chemical_formula_sum "Si O2"
_cell_formula_units_Z 32
_cell_length_a 23.740621
_cell_length_b 7.769319
_cell_length_c 14.716465
_cell_angle_alpha 90.000000
_cell_angle_beta 148.027913
_cell_angle_gamma 90.000000
_cell_volume 1437.306735
_symmetry_space_group_name_H-M "P 2/M"
_symmetry_group_IT_number 10
_symmetry_cell_setting 'monoclinic'
loop_
_space_group_symop_operation_xyz
x,y,z
-x,y,-z
-x,-y,-z
x,-y,z
loop_
_atom_site_type_symbol
_atom_site_label
_atom_site_fract_x
_atom_site_fract_y
_atom_site_fract_z
Si Si1 0.519463 0.199791 0.799943
Si Si2 0.989171 0.210946 0.381055
Si Si3 0.279075 0.300949 0.465403
Si Si4 0.392158 0.697618 0.895847
Si Si5 0.825934 0.793346 0.010980
Si Si6 0.585691 0.789202 0.690283
Si Si7 0.180154 0.802333 0.514481
Si Si8 0.104705 0.292787 0.090730
O O1 0.392300 0.213880 0.638585
O O2 0.548484 0.261307 0.739488
O O3 0.549917 0.000000 0.849493
O O4 0.584800 0.297274 0.966220
O O5 0.086686 0.267453 0.450255
O O6 0.000000 0.269088 0.500000
O O7 0.883698 0.265298 0.182215
O O8 0.991382 0.000000 0.386416
O O9 0.303927 0.500000 0.481648
O O10 0.205499 0.288525 0.454141
O O11 0.210919 0.228765 0.287927
O O12 0.381234 0.500000 0.848584
O O13 0.287954 0.793607 0.720747
O O14 0.500000 0.771629 0.000000
O O15 0.821165 0.000000 0.009735
O O16 0.705527 0.729082 0.836302
O O17 0.891562 0.749785 0.010219
O O18 0.500000 0.729317 0.500000
O O19 0.585917 0.000000 0.687741
O O20 0.154427 0.000000 0.457044
O O21 0.105771 0.500000 0.101178
O O22 0.000000 0.228948 0.000000
#
# Coordination Sequence:
#
# PCOD9151052 Si02
#       8
#     4   4   4   4   4   4   4   4
#     4  11  22  36  60  89 115 149 196 241 285 348
#     4   9  20  37  59  87 117 150 193 245 299 349
#     4  11  22  37  57  83 118 156 187 234 298 350
#     4  11  23  39  58  83 120 159 190 235 296 352
#     4  10  20  37  62  87 116 153 193 244 298 345
#     4   9  19  35  57  88 121 151 188 237 293 344
#     4  11  22  36  60  88 114 149 197 245 290 346
#     4  10  22  39  59  83 115 155 194 235 288 349
#
# _framework density 22.263863000000001
#
# number of rings (size 3 to 8) (size 9 to 14) (size 15 to 20)
#    0.000    1.750    1.250    3.000    1.750    2.750 
#    0.000    1.875    0.000    5.250    0.000    0.000 
#    0.000    0.000    0.000    0.000    0.000    0.000 
#
# Total GULP energy -178910.495223 kJ/mol
# GULP energy per Si atom -5590.952976 kJ/mol
# Density = 2.221319 g / cm^3
# Si number density = 22.263863 Si / 1000 Ang^3
#
#
#
# Elastic Constant Matrix: (Units=GPa)
#
#
# Indices 1 2 3 4 5 6 
#
# 1 118.5664 -10.0745 40.7977 0.0000 -10.7479 0.0000
# 2 -10.0745 34.1750 -3.7100 0.0000 2.2647 0.0000
# 3 40.7977 -3.7100 119.4633 0.0000 -15.2452 0.0000
# 4 0.0000 0.0000 0.0000 7.2396 0.0000 7.9309
# 5 -10.7479 2.2647 -15.2452 0.0000 42.5376 0.0000
# 6 0.0000 0.0000 0.0000 7.9309 0.0000 81.6961
#
#
#
# Elastic Compliance Matrix: (Units=1/GPa)
#
#
# Indices 1 2 3 4 5 6 
#
# 1 0.009831 0.002477 -0.003123 0.000000 0.001233 0.000000
# 2 0.002477 0.030053 -0.000039 0.000000 -0.000988 0.000000
# 3 -0.003123 -0.000039 0.009783 0.000000 0.002719 0.000000
# 4 0.000000 0.000000 0.000000 0.154568 0.000000 -0.015005
# 5 0.001233 -0.000988 0.002719 0.000000 0.024847 0.000000
# 6 0.000000 0.000000 0.000000 -0.015005 0.000000 0.013697
#
#
# Mechanical properties :
#
#
# Convention : Reuss Voigt Hill
#
# Bulk Modulus (GPa) = 20.70492 36.24790 28.47641
# Shear Modulus (GPa) = 19.21249 42.64076 30.92663
#
# Velocity S-wave (km/s) = 2.94078 4.38110 3.73110
# Velocity P-wave (km/s) = 4.56628 6.47367 5.60176
#
# Compressibility (1/GPa) = 0.04829770
#
# Stress axis : x y z
#
# Youngs Moduli (GPa) = 101.71931 33.27489 102.21666
#
# Poissons Ratio (x) = -0.08243 0.31923
# Poissons Ratio (y) = -0.25200 0.00397
# Poissons Ratio (z) = 0.31768 0.00129
#
# Static dielectric constant tensor:
#      x y z
#    x 1.800910 0.000000 -0.000240 
#    y 0.000000 1.798490 0.000000 
#    z -0.000240 0.000000 1.807480 
# 
# From -- ./inp_files/71708.got.cif
#   From: 2010.05.17/outbox.cif.g08.bks.cpg/sg10_36_cif.got.tgz:71708.got - 2010.06.03 11:33:40.
