data_PCOD9151970
_publ_section_title
;
Structure prediction by ZEFSAII (Michael W. Deem and Ramdas Pophale) SiO2 
 PCOD9151970
Probable space group: P 2/M
;
_chemical_formula_sum "Si O2"
_cell_formula_units_Z 32
_cell_length_a 16.147925
_cell_length_b 7.978063
_cell_length_c 21.831537
_cell_angle_alpha 90.000000
_cell_angle_beta 147.193283
_cell_angle_gamma 90.000000
_cell_volume 1523.852417
_symmetry_space_group_name_H-M "P 2/M"
_symmetry_group_IT_number 10
_symmetry_cell_setting 'monoclinic'
loop_
_space_group_symop_operation_xyz
x,y,z
-x,y,-z
-x,-y,-z
x,-y,z
loop_
_atom_site_type_symbol
_atom_site_label
_atom_site_fract_x
_atom_site_fract_y
_atom_site_fract_z
Si Si1 0.007710 0.804554 0.937836
Si Si2 0.792161 0.699723 0.418303
Si Si3 0.873057 0.703151 0.334362
Si Si4 0.208139 0.307532 0.375361
Si Si5 0.666738 0.804147 0.671578
Si Si6 0.881714 0.796313 0.118637
Si Si7 0.669251 0.799185 0.092227
Si Si8 0.415055 0.810455 0.605861
O O1 0.836004 0.802881 0.805124
O O2 0.110647 0.733817 0.946731
O O3 0.055804 0.000000 0.975853
O O4 0.000000 0.725008 0.000000
O O5 0.806677 0.500000 0.424102
O O6 0.793018 0.758747 0.348395
O O7 0.646040 0.738922 0.368652
O O8 0.950036 0.759317 0.548707
O O9 0.872424 0.500000 0.331277
O O10 0.784022 0.764750 0.219617
O O11 0.208172 0.500000 0.395590
O O12 0.316652 0.283781 0.383544
O O13 0.273017 0.198333 0.470709
O O14 0.039494 0.256010 0.249490
O O15 0.550577 0.730599 0.649519
O O16 0.625432 0.000000 0.634558
O O17 0.744219 0.736352 0.075719
O O18 0.881610 0.000000 0.116218
O O19 0.657091 0.000000 0.078431
O O20 0.500000 0.731436 0.000000
O O21 0.463883 0.000000 0.648434
#
# Coordination Sequence:
#
# PCOD9151970 Si02
#       8
#     4   4   4   4   4   4   4   4
#     4   8  14  29  53  75  94 127 173 211 246 299
#     4   9  19  36  56  78 105 138 180 222 265 321
#     4   9  19  37  58  77 102 141 182 222 267 322
#     4  11  21  32  51  76 102 137 177 217 258 306
#     4   9  19  34  49  72 105 137 171 211 257 312
#     4   9  18  34  54  76 103 137 174 216 265 314
#     4  10  21  36  53  80 112 141 176 227 280 320
#     4  11  21  32  48  76 109 139 170 209 261 316
#
# _framework density 20.999409
#
# number of rings (size 3 to 8) (size 9 to 14) (size 15 to 20)
#    0.000    2.500    0.000    4.125    0.000    6.250 
#    2.250    1.250    0.000    6.000    0.000    0.000 
#    0.000    0.000    0.000    0.000    0.000    0.000 
#
# Total GULP energy -178509.482270 kJ/mol
# GULP energy per Si atom -5578.421321 kJ/mol
# Density = 2.095161 g / cm^3
# Si number density = 20.999409 Si / 1000 Ang^3
#
#
#
# Elastic Constant Matrix: (Units=GPa)
#
#
# Indices 1 2 3 4 5 6 
#
# 1 200.8966 7.0254 38.7054 0.0000 2.4633 0.0000
# 2 7.0254 19.0135 -2.0138 0.0000 3.1782 0.0000
# 3 38.7054 -2.0138 30.3659 0.0000 -9.4106 0.0000
# 4 0.0000 0.0000 0.0000 6.1068 0.0000 2.0963
# 5 2.4633 3.1782 -9.4106 0.0000 27.0132 0.0000
# 6 0.0000 0.0000 0.0000 2.0963 0.0000 22.3359
#
#
#
# Elastic Compliance Matrix: (Units=1/GPa)
#
#
# Indices 1 2 3 4 5 6 
#
# 1 0.007174 -0.003107 -0.010582 0.000000 -0.003975 0.000000
# 2 -0.003107 0.055082 0.006382 0.000000 -0.003974 0.000000
# 3 -0.010582 0.006382 0.052587 0.000000 0.018534 0.000000
# 4 0.000000 0.000000 0.000000 0.169203 0.000000 -0.015880
# 5 -0.003975 -0.003974 0.018534 0.000000 0.044306 0.000000
# 6 0.000000 0.000000 0.000000 -0.015880 0.000000 0.046261
#
#
# Mechanical properties :
#
#
# Convention : Reuss Voigt Hill
#
# Bulk Modulus (GPa) = 9.97723 37.52337 23.75030
# Shear Modulus (GPa) = 11.83048 24.86179 18.34613
#
# Velocity S-wave (km/s) = 2.37612 3.44456 2.95896
# Velocity P-wave (km/s) = 3.50563 5.80754 4.79672
#
# Compressibility (1/GPa) = 0.10022818
#
# Stress axis : x y z
#
# Youngs Moduli (GPa) = 139.39531 18.15465 19.01616
#
# Poissons Ratio (x) = 0.05641 0.20123
# Poissons Ratio (y) = 0.43310 -0.12135
# Poissons Ratio (z) = 1.47508 -0.11586
#
# Static dielectric constant tensor:
#      x y z
#    x 1.822280 0.000000 0.008280 
#    y 0.000000 1.749920 0.000000 
#    z 0.008280 0.000000 1.722340 
# 
# From -- ./inp_files/84758.got.cif
#   From: 2010.05.17/outbox.cif.g08.bks.cpg/sg10_43_cif.got.tgz:84758.got - 2010.06.03 11:33:40.
