data_PCOD9151286
_publ_section_title
;
Structure prediction by ZEFSAII (Michael W. Deem and Ramdas Pophale) SiO2 
 PCOD9151286
Probable space group: P 2/M
;
_chemical_formula_sum "Si O2"
_cell_formula_units_Z 20
_cell_length_a 19.237496
_cell_length_b 8.215866
_cell_length_c 13.792364
_cell_angle_alpha 90.000000
_cell_angle_beta 21.877357
_cell_angle_gamma 90.000000
_cell_volume 812.284222
_symmetry_space_group_name_H-M "P 2/M"
_symmetry_group_IT_number 10
_symmetry_cell_setting 'monoclinic'
loop_
_space_group_symop_operation_xyz
x,y,z
-x,y,-z
-x,-y,-z
x,-y,z
loop_
_atom_site_type_symbol
_atom_site_label
_atom_site_fract_x
_atom_site_fract_y
_atom_site_fract_z
Si Si1 0.899491 0.191953 0.031935
Si Si2 0.545915 0.303694 0.589346
Si Si3 0.417481 0.312753 0.240210
Si Si4 0.122072 0.309063 0.148023
Si Si5 0.225422 0.816815 0.302363
O O1 0.681469 0.224416 0.336180
O O2 0.935401 0.000000 0.974230
O O3 0.954511 0.280753 0.861841
O O4 0.000000 0.251536 0.000000
O O5 0.544582 0.500000 0.575437
O O6 0.625209 0.271316 0.594268
O O7 0.333033 0.244924 0.869081
O O8 0.365287 0.500000 0.287522
O O9 0.320436 0.201220 0.286139
O O10 0.641415 0.295772 0.934896
O O11 0.128388 0.500000 0.160056
O O12 0.987351 0.229467 0.401343
O O13 0.241344 0.000000 0.246273
#
# Coordination Sequence:
#
# PCOD9151286 Si02
#       5
#     4   4   4   4   4
#     4  11  24  40  60  87 117 149 188 235 286 341
#     4  10  23  40  60  86 115 150 192 237 283 338
#     4  10  20  38  62  86 114 152 195 236 283 336
#     4  11  23  40  60  84 116 152 192 236 284 339
#     4  11  22  37  58  87 119 151 192 238 285 336
#
# _framework density 24.621922000000001
#
# number of rings (size 3 to 8) (size 9 to 14) (size 15 to 20)
#    0.000    1.400    0.000    6.600    0.000   11.200 
#    0.000    4.000    0.000    0.000    0.000    0.000 
#    0.000    0.000    0.000    0.000    0.000    0.000 
#
# Total GULP energy -112028.748703 kJ/mol
# GULP energy per Si atom -5601.437435 kJ/mol
# Density = 2.456588 g / cm^3
# Si number density = 24.621922 Si / 1000 Ang^3
#
#
#
# Elastic Constant Matrix: (Units=GPa)
#
#
# Indices 1 2 3 4 5 6 
#
# 1 64.2416 -4.2536 5.5523 0.0000 7.5126 0.0000
# 2 -4.2536 48.8649 -4.6884 0.0000 5.8617 0.0000
# 3 5.5523 -4.6884 123.1489 0.0000 7.4549 0.0000
# 4 0.0000 0.0000 0.0000 -419.3617 0.0000 -211.4011
# 5 7.5126 5.8617 7.4549 0.0000 46.5451 0.0000
# 6 0.0000 0.0000 0.0000 -211.4011 0.0000 -58.4192
#
#
#
# Elastic Compliance Matrix: (Units=1/GPa)
#
#
# Indices 1 2 3 4 5 6 
#
# 1 0.016038 0.001675 -0.000495 0.000000 -0.002720 0.000000
# 2 0.001675 0.021066 0.000912 0.000000 -0.003069 0.000000
# 3 -0.000495 0.000912 0.008259 0.000000 -0.001358 0.000000
# 4 0.000000 0.000000 0.000000 0.002893 0.000000 -0.010470
# 5 -0.002720 -0.003069 -0.001358 0.000000 0.022528 0.000000
# 6 0.000000 0.000000 0.000000 -0.010470 0.000000 0.020769
#
#
# Mechanical properties :
#
#
# Convention : Reuss Voigt Hill
#
# Bulk Modulus (GPa) = 20.18210 25.49732 22.83971
# Shear Modulus (GPa) = 48.13029 -70.27082 -11.07027
#
# Velocity S-wave (km/s) = 4.42608 -5.34807 -2.12270
# Velocity P-wave (km/s) = 5.85959 5.26857 1.81342
#
# Compressibility (1/GPa) = 0.04954885
#
# Stress axis : x y z
#
# Youngs Moduli (GPa) = 62.35186 47.46956 121.07284
#
# Poissons Ratio (x) = -0.07951 0.05989
# Poissons Ratio (y) = -0.10444 -0.11046
# Poissons Ratio (z) = 0.03084 -0.04331
#
# Static dielectric constant tensor:
#      x y z
#    x 2.010760 0.000000 -0.093230 
#    y 0.000000 1.828510 0.000000 
#    z -0.093230 0.000000 1.988020 
# 
# From -- ./inp_files/31320.got.cif
#   From: 2010.05.17/outbox.cif.g08.bks.cpg/sg10_16_cif.got.tgz:31320.got - 2010.06.03 11:33:40.
