data_PCOD9151262
_publ_section_title
;
Structure prediction by ZEFSAII (Michael W. Deem and Ramdas Pophale) SiO2 
 PCOD9151262
Probable space group: P 2/M
;
_chemical_formula_sum "Si O2"
_cell_formula_units_Z 32
_cell_length_a 19.473006
_cell_length_b 12.436312
_cell_length_c 8.881558
_cell_angle_alpha 90.000000
_cell_angle_beta 49.098819
_cell_angle_gamma 90.000000
_cell_volume 1625.712029
_symmetry_space_group_name_H-M "P 2/M"
_symmetry_group_IT_number 10
_symmetry_cell_setting 'monoclinic'
loop_
_space_group_symop_operation_xyz
x,y,z
-x,y,-z
-x,-y,-z
x,-y,z
loop_
_atom_site_type_symbol
_atom_site_label
_atom_site_fract_x
_atom_site_fract_y
_atom_site_fract_z
Si Si1 0.768485 0.879350 0.933524
Si Si2 0.563763 0.828126 0.280930
Si Si3 0.436701 0.743436 0.226063
Si Si4 0.259101 0.125041 0.372072
Si Si5 0.087305 0.211247 0.782186
Si Si6 0.995172 0.380379 0.331796
Si Si7 0.620123 0.377342 0.389191
Si Si8 0.825274 0.315375 0.060197
O O1 0.770773 0.845775 0.755301
O O2 0.805977 0.000000 0.895847
O O3 0.661347 0.880288 0.125547
O O4 0.813803 0.794053 0.979311
O O5 0.500000 0.877442 0.500000
O O6 0.506108 0.824688 0.211334
O O7 0.584398 0.706816 0.314286
O O8 0.344417 0.801664 0.301741
O O9 0.407921 0.663858 0.403601
O O10 0.500000 0.697919 0.000000
O O11 0.168719 0.137433 0.603705
O O12 0.287708 0.000000 0.330291
O O13 0.051346 0.287117 0.699212
O O14 0.136031 0.287079 0.832920
O O15 0.000000 0.164119 0.000000
O O16 0.953614 0.500000 0.371861
O O17 0.000000 0.353246 0.500000
O O18 0.098863 0.384289 0.129274
O O19 0.593317 0.500000 0.404324
O O20 0.728185 0.368376 0.217734
#
# Coordination Sequence:
#
# PCOD9151262 Si02
#       8
#     4   4   4   4   4   4   4   4
#     4  10  21  37  59  85 118 158 201 246 301 358
#     4   9  20  36  55  82 117 154 194 251 293 348
#     4  11  21  38  60  85 120 154 200 255 292 351
#     4  11  23  40  61  87 121 162 201 245 306 361
#     4  10  22  40  62  91 123 154 195 250 297 352
#     4  10  21  38  64  93 122 156 197 245 301 359
#     4  10  21  38  60  84 117 162 201 240 302 360
#     4  10  20  38  61  89 121 157 197 253 296 349
#
# _framework density 19.683682000000001
#
# number of rings (size 3 to 8) (size 9 to 14) (size 15 to 20)
#    0.000    1.875    2.500    1.125    0.000    7.000 
#    0.000    1.875    0.000    6.750    0.000    0.000 
#    0.000    0.000    0.000    0.000    0.000    0.000 
#
# Total GULP energy -178406.529774 kJ/mol
# GULP energy per Si atom -5575.204055 kJ/mol
# Density = 1.963888 g / cm^3
# Si number density = 19.683682 Si / 1000 Ang^3
#
#
#
# Elastic Constant Matrix: (Units=GPa)
#
#
# Indices 1 2 3 4 5 6 
#
# 1 82.8075 30.5311 32.2365 0.0000 -2.0785 0.0000
# 2 30.5311 86.2432 18.5934 0.0000 8.0323 0.0000
# 3 32.2365 18.5934 100.9815 0.0000 7.0316 0.0000
# 4 0.0000 0.0000 0.0000 39.8764 0.0000 9.8853
# 5 -2.0785 8.0323 7.0316 0.0000 34.8975 0.0000
# 6 0.0000 0.0000 0.0000 9.8853 0.0000 -5.9845
#
#
#
# Elastic Compliance Matrix: (Units=1/GPa)
#
#
# Indices 1 2 3 4 5 6 
#
# 1 0.015617 -0.004875 -0.004291 0.000000 0.002917 0.000000
# 2 -0.004875 0.013792 -0.000752 0.000000 -0.003313 0.000000
# 3 -0.004291 -0.000752 0.011579 0.000000 -0.002416 0.000000
# 4 0.000000 0.000000 0.000000 0.017792 0.000000 0.029389
# 5 0.002917 -0.003313 -0.002416 0.000000 0.030078 0.000000
# 6 0.000000 0.000000 0.000000 0.029389 0.000000 -0.118553
#
#
# Mechanical properties :
#
#
# Convention : Reuss Voigt Hill
#
# Bulk Modulus (GPa) = 47.27864 48.08380 47.68122
# Shear Modulus (GPa) = -1782.07140 26.33595 -877.86773
#
# Velocity S-wave (km/s) = -30.12176 3.66178 -21.14133
# Velocity P-wave (km/s) = 34.43383 6.50841 23.90951
#
# Compressibility (1/GPa) = 0.02115120
#
# Stress axis : x y z
#
# Youngs Moduli (GPa) = 64.03115 72.50681 86.36056
#
# Poissons Ratio (x) = 0.35349 0.37057
# Poissons Ratio (y) = 0.31217 0.06498
# Poissons Ratio (z) = 0.27476 0.05455
#
# Static dielectric constant tensor:
#      x y z
#    x 1.675880 0.000000 -0.018800 
#    y 0.000000 1.681200 0.000000 
#    z -0.018800 0.000000 1.752200 
# 
# From -- ./inp_files/34823.got.cif
#   From: 2010.05.17/outbox.cif.g08.bks.cpg/sg10_18_cif.got.tgz:34823.got - 2010.06.03 11:33:40.
