data_PCOD9151425
_publ_section_title
;
Structure prediction by ZEFSAII (Michael W. Deem and Ramdas Pophale) SiO2 
 PCOD9151425
Probable space group: P 2/M
;
_chemical_formula_sum "Si O2"
_cell_formula_units_Z 24
_cell_length_a 7.974419
_cell_length_b 16.904220
_cell_length_c 14.079770
_cell_angle_alpha 90.000000
_cell_angle_beta 39.474854
_cell_angle_gamma 90.000000
_cell_volume 1206.615637
_symmetry_space_group_name_H-M "P 2/M"
_symmetry_group_IT_number 10
_symmetry_cell_setting 'monoclinic'
loop_
_space_group_symop_operation_xyz
x,y,z
-x,y,-z
-x,-y,-z
x,-y,z
loop_
_atom_site_type_symbol
_atom_site_label
_atom_site_fract_x
_atom_site_fract_y
_atom_site_fract_z
Si Si1 0.975575 0.341116 0.898660
Si Si2 0.701725 0.785618 0.594016
Si Si3 0.948822 0.224894 0.287846
Si Si4 0.196411 0.500000 0.823329
Si Si5 0.761320 0.500000 0.677497
Si Si6 0.673989 0.911040 0.327648
Si Si7 0.623743 0.328878 0.801817
O O1 0.112627 0.274180 0.778678
O O2 0.116472 0.421270 0.805366
O O3 0.660437 0.344248 0.028316
O O4 0.000000 0.328629 0.000000
O O5 0.754436 0.761708 0.461539
O O6 0.493973 0.857990 0.674249
O O7 0.614907 0.713804 0.701290
O O8 0.000000 0.809851 0.500000
O O9 0.927993 0.136020 0.257519
O O10 0.218106 0.263434 0.207523
O O11 0.487644 0.500000 0.737625
O O12 0.000000 0.500000 0.000000
O O13 0.758359 0.415624 0.733998
O O14 0.000000 0.500000 0.500000
O O15 0.500000 0.916065 0.500000
O O16 0.725179 0.000000 0.271331
#
# Coordination Sequence:
#
# PCOD9151425 Si02
#       7
#     4   4   4   2   2   4   4
#     4  11  20  37  62  80 115 159 204 244 296 361
#     4   9  19  36  57  86 120 151 198 253 300 355
#     4  10  21  35  56  88 114 151 199 246 298 359
#     4  10  20  39  57  85 116 165 205 253 299 355
#     4  12  22  37  61  87 125 163 205 254 302 345
#     4   9  18  34  57  84 118 155 192 245 308 367
#     4  11  21  38  59  85 120 161 199 247 301 354
#
# _framework density 19.890345
#
# number of rings (size 3 to 8) (size 9 to 14) (size 15 to 20)
#    0.000    1.833    3.333    3.000    0.000    1.000 
#    3.000    5.000    0.000    8.500    0.000    0.000 
#    0.000    0.000    0.000    0.000    0.000    0.000 
#
# Total GULP energy -133631.378391 kJ/mol
# GULP energy per Si atom -5567.974100 kJ/mol
# Density = 1.984507 g / cm^3
# Si number density = 19.890345 Si / 1000 Ang^3
#
#
#
# Elastic Constant Matrix: (Units=GPa)
#
#
# Indices 1 2 3 4 5 6 
#
# 1 89.9888 38.4493 19.0206 0.0000 -7.6244 0.0000
# 2 38.4493 107.2042 8.4325 0.0000 6.0325 0.0000
# 3 19.0206 8.4325 45.0108 0.0000 -1.5736 0.0000
# 4 0.0000 0.0000 0.0000 16.5005 0.0000 -7.3030
# 5 -7.6244 6.0325 -1.5736 0.0000 39.1461 0.0000
# 6 0.0000 0.0000 0.0000 -7.3030 0.0000 16.9498
#
#
#
# Elastic Compliance Matrix: (Units=1/GPa)
#
#
# Indices 1 2 3 4 5 6 
#
# 1 0.014638 -0.005040 -0.005122 0.000000 0.003422 0.000000
# 2 -0.005040 0.011295 -0.000082 0.000000 -0.002726 0.000000
# 3 -0.005122 -0.000082 0.024396 0.000000 -0.000004 0.000000
# 4 0.000000 0.000000 0.000000 0.074884 0.000000 0.032265
# 5 0.003422 -0.002726 -0.000004 0.000000 0.026632 0.000000
# 6 0.000000 0.000000 0.000000 0.032265 0.000000 0.072899
#
#
# Mechanical properties :
#
#
# Convention : Reuss Voigt Hill
#
# Bulk Modulus (GPa) = 33.50853 41.55650 37.53252
# Shear Modulus (GPa) = 19.59399 26.27272 22.93336
#
# Velocity S-wave (km/s) = 3.14204 3.63833 3.39925
# Velocity P-wave (km/s) = 5.48146 6.21193 5.85809
#
# Compressibility (1/GPa) = 0.02984315
#
# Stress axis : x y z
#
# Youngs Moduli (GPa) = 68.31354 88.53218 40.98950
#
# Poissons Ratio (x) = 0.44618 0.20995
# Poissons Ratio (y) = 0.34429 0.00335
# Poissons Ratio (z) = 0.34991 0.00723
#
# Static dielectric constant tensor:
#      x y z
#    x 1.878630 0.000000 -0.024600 
#    y 0.000000 1.771580 0.000000 
#    z -0.024600 0.000000 1.683390 
# 
# From -- ./inp_files/61721.got.cif
#   From: 2010.05.17/outbox.cif.g08.bks.cpg/sg10_31_cif.got.tgz:61721.got - 2010.06.03 11:33:40.
