data_PCOD9151194
_publ_section_title
;
Structure prediction by ZEFSAII (Michael W. Deem and Ramdas Pophale) SiO2 
 PCOD9151194
Probable space group: P 2/M
;
_chemical_formula_sum "Si O2"
_cell_formula_units_Z 16
_cell_length_a 5.052112
_cell_length_b 20.211763
_cell_length_c 7.814762
_cell_angle_alpha 90.000000
_cell_angle_beta 90.803358
_cell_angle_gamma 90.000000
_cell_volume 797.903245
_symmetry_space_group_name_H-M "P 2/M"
_symmetry_group_IT_number 10
_symmetry_cell_setting 'monoclinic'
loop_
_space_group_symop_operation_xyz
x,y,z
-x,y,-z
-x,-y,-z
x,-y,z
loop_
_atom_site_type_symbol
_atom_site_label
_atom_site_fract_x
_atom_site_fract_y
_atom_site_fract_z
Si Si1 0.752493 0.642870 0.626473
Si Si2 0.375864 0.216184 0.309269
Si Si3 0.246090 0.000000 0.873763
Si Si4 0.246197 0.500000 0.373458
Si Si5 0.125703 0.143081 0.811661
O O1 0.500000 0.639316 0.500000
O O2 0.716896 0.709234 0.735415
O O3 0.766222 0.571295 0.718827
O O4 0.000000 0.651212 0.500000
O O5 0.500000 0.217194 0.500000
O O6 0.615133 0.188639 0.197431
O O7 0.116676 0.170319 0.302430
O O8 0.222121 0.931453 0.771386
O O9 0.500000 0.000000 0.000000
O O10 0.000000 0.000000 0.000000
O O11 0.500000 0.500000 0.500000
O O12 0.000000 0.500000 0.500000
O O13 0.000000 0.143419 0.000000
#
# Coordination Sequence:
#
# PCOD9151194 Si02
#       5
#     4   4   2   2   4
#     4   9  16  28  46  72 105 139 170 212 261 305
#     4  11  21  35  54  82 114 140 168 219 278 318
#     4  10  20  38  59  78 101 136 181 226 259 302
#     4   8  14  24  42  68  99 134 175 210 247 300
#     4  11  22  38  58  79 102 140 184 219 259 320
#
# _framework density 20.052558999999999
#
# number of rings (size 3 to 8) (size 9 to 14) (size 15 to 20)
#    0.000    2.000    0.000    7.500    0.000    0.000 
#    0.000    3.750    0.000    0.000    0.000    5.250 
#    0.000    0.000    0.000    0.000    0.000    0.000 
#
# Total GULP energy -89164.641371 kJ/mol
# GULP energy per Si atom -5572.790086 kJ/mol
# Density = 2.000692 g / cm^3
# Si number density = 20.052559 Si / 1000 Ang^3
#
#
#
# Elastic Constant Matrix: (Units=GPa)
#
#
# Indices 1 2 3 4 5 6 
#
# 1 162.2946 62.6967 6.3321 0.0000 -2.4554 0.0000
# 2 62.6967 229.5161 26.9474 0.0000 -3.1920 0.0000
# 3 6.3321 26.9474 22.6839 0.0000 -0.5827 0.0000
# 4 0.0000 0.0000 0.0000 55.0082 0.0000 14.5297
# 5 -2.4554 -3.1920 -0.5827 0.0000 32.5379 0.0000
# 6 0.0000 0.0000 0.0000 14.5297 0.0000 43.6156
#
#
#
# Elastic Compliance Matrix: (Units=1/GPa)
#
#
# Indices 1 2 3 4 5 6 
#
# 1 0.006895 -0.001922 0.000367 0.000000 0.000338 0.000000
# 2 -0.001922 0.005604 -0.006113 0.000000 0.000295 0.000000
# 3 0.000367 -0.006113 0.051253 0.000000 0.000346 0.000000
# 4 0.000000 0.000000 0.000000 0.019933 0.000000 -0.006640
# 5 0.000338 0.000295 0.000346 0.000000 0.030794 0.000000
# 6 0.000000 0.000000 0.000000 -0.006640 0.000000 0.025140
#
#
# Mechanical properties :
#
#
# Convention : Reuss Voigt Hill
#
# Bulk Modulus (GPa) = 20.65443 67.38300 44.01872
# Shear Modulus (GPa) = 29.22400 47.46690 38.34545
#
# Velocity S-wave (km/s) = 3.82169 4.87059 4.37767
# Velocity P-wave (km/s) = 5.45860 8.08123 6.89575
#
# Compressibility (1/GPa) = 0.04841576
#
# Stress axis : x y z
#
# Youngs Moduli (GPa) = 145.03528 178.44974 19.51120
#
# Poissons Ratio (x) = 0.34296 -0.00716
# Poissons Ratio (y) = 0.27874 0.11927
# Poissons Ratio (z) = -0.05324 1.09087
#
# Static dielectric constant tensor:
#      x y z
#    x 1.676940 0.000000 0.005000 
#    y 0.000000 1.839710 0.000000 
#    z 0.005000 0.000000 1.718190 
# 
# From -- ./inp_files/3748.got.cif
#   From: 2010.05.17/outbox.cif.g08.bks.cpg/sg10_2_cif.got.tgz:3748.got - 2010.06.03 11:33:40.
