data_PCOD9151476
_publ_section_title
;
Structure prediction by ZEFSAII (Michael W. Deem and Ramdas Pophale) SiO2 
 PCOD9151476
Probable space group: P 2/M
;
_chemical_formula_sum "Si O2"
_cell_formula_units_Z 32
_cell_length_a 12.820070
_cell_length_b 14.629788
_cell_length_c 17.838780
_cell_angle_alpha 90.000000
_cell_angle_beta 30.141136
_cell_angle_gamma 90.000000
_cell_volume 1680.007662
_symmetry_space_group_name_H-M "P 2/M"
_symmetry_group_IT_number 10
_symmetry_cell_setting 'monoclinic'
loop_
_space_group_symop_operation_xyz
x,y,z
-x,y,-z
-x,-y,-z
x,-y,z
loop_
_atom_site_type_symbol
_atom_site_label
_atom_site_fract_x
_atom_site_fract_y
_atom_site_fract_z
Si Si1 0.651182 0.394830 0.836680
Si Si2 0.874121 0.890711 0.288035
Si Si3 0.667087 0.892850 0.956586
Si Si4 0.501569 0.898855 0.768239
Si Si5 0.793189 0.178173 0.168678
Si Si6 0.760258 0.723305 0.633453
Si Si7 0.413958 0.741321 0.474720
Si Si8 0.137307 0.603008 0.565638
O O1 0.613182 0.500000 0.833025
O O2 0.641457 0.316874 0.779418
O O3 0.889247 0.392665 0.716242
O O4 0.500000 0.378246 0.000000
O O5 0.850916 0.863937 0.214267
O O6 0.688181 0.840937 0.447745
O O7 0.862081 0.000000 0.301403
O O8 0.096030 0.857307 0.183956
O O9 0.580512 0.890907 0.095236
O O10 0.691648 0.000000 0.920458
O O11 0.500000 0.854586 0.000000
O O12 0.315823 0.889427 0.823486
O O13 0.653860 0.812755 0.665216
O O14 0.596976 0.000000 0.700419
O O15 0.612402 0.251228 0.297733
O O16 0.000000 0.213636 0.000000
O O17 0.776969 0.637826 0.567161
O O18 0.000000 0.748024 0.500000
O O19 0.500000 0.708807 0.500000
O O20 0.234075 0.674751 0.561632
O O21 0.201055 0.500000 0.542057
#
# Coordination Sequence:
#
# PCOD9151476 Si02
#       8
#     4   4   4   4   4   4   4   4
#     4   9  19  37  63  93 118 148 194 243 290 343
#     4  10  21  37  59  84 116 156 195 243 289 335
#     4   9  19  35  53  79 116 158 196 229 280 343
#     4  11  22  35  56  86 118 156 200 241 283 343
#     4  11  21  39  63  84 113 152 203 253 289 334
#     4  10  21  37  58  86 118 155 195 236 289 345
#     4  10  23  39  57  88 115 146 194 243 294 354
#     4  10  20  39  63  85 115 152 190 237 295 352
#
# _framework density 19.047532
#
# number of rings (size 3 to 8) (size 9 to 14) (size 15 to 20)
#    0.000    2.000    2.500    0.750    0.000    8.750 
#    0.000    0.000    0.000    0.375    0.000    0.000 
#    0.000    0.000    0.000    0.000    0.000    0.000 
#
# Total GULP energy -178403.348081 kJ/mol
# GULP energy per Si atom -5575.104628 kJ/mol
# Density = 1.900418 g / cm^3
# Si number density = 19.047532 Si / 1000 Ang^3
#
#
#
# Elastic Constant Matrix: (Units=GPa)
#
#
# Indices 1 2 3 4 5 6 
#
# 1 96.2378 21.2618 18.7930 0.0000 -9.4504 0.0000
# 2 21.2618 82.3857 35.5063 0.0000 -2.7869 0.0000
# 3 18.7930 35.5063 79.6839 0.0000 11.7128 0.0000
# 4 0.0000 0.0000 0.0000 15.3733 0.0000 -12.1465
# 5 -9.4504 -2.7869 11.7128 0.0000 19.4659 0.0000
# 6 0.0000 0.0000 0.0000 -12.1465 0.0000 18.5572
#
#
#
# Elastic Compliance Matrix: (Units=1/GPa)
#
#
# Indices 1 2 3 4 5 6 
#
# 1 0.012116 -0.001420 -0.003356 0.000000 0.007698 0.000000
# 2 -0.001420 0.016051 -0.007738 0.000000 0.006265 0.000000
# 3 -0.003356 -0.007738 0.018860 0.000000 -0.014085 0.000000
# 4 0.000000 0.000000 0.000000 0.134719 0.000000 0.088180
# 5 0.007698 0.006265 -0.014085 0.000000 0.064482 0.000000
# 6 0.000000 0.000000 0.000000 0.088180 0.000000 0.111605
#
#
# Mechanical properties :
#
#
# Convention : Reuss Voigt Hill
#
# Bulk Modulus (GPa) = 45.45896 45.49217 45.47557
# Shear Modulus (GPa) = 12.81411 22.86237 17.83824
#
# Velocity S-wave (km/s) = 2.59654 3.46826 3.06357
# Velocity P-wave (km/s) = 5.73649 6.32249 6.03660
#
# Compressibility (1/GPa) = 0.02199786
#
# Stress axis : x y z
#
# Youngs Moduli (GPa) = 82.53531 62.29956 53.02295
#
# Poissons Ratio (x) = 0.08846 0.17797
# Poissons Ratio (y) = 0.11719 0.41031
# Poissons Ratio (z) = 0.27702 0.48210
#
# Static dielectric constant tensor:
#      x y z
#    x 1.713440 0.000000 0.003290 
#    y 0.000000 1.643700 0.000000 
#    z 0.003290 0.000000 1.670420 
# 
# From -- ./inp_files/76976.got.cif
#   From: 2010.05.17/outbox.cif.g08.bks.cpg/sg10_39_cif.got.tgz:76976.got - 2010.06.03 11:33:40.
