data_PCOD9151372
_publ_section_title
;
Structure prediction by ZEFSAII (Michael W. Deem and Ramdas Pophale) SiO2 
 PCOD9151372
Probable space group: P 2/M
;
_chemical_formula_sum "Si O2"
_cell_formula_units_Z 24
_cell_length_a 8.794054
_cell_length_b 18.437936
_cell_length_c 9.387501
_cell_angle_alpha 90.000000
_cell_angle_beta 132.238031
_cell_angle_gamma 90.000000
_cell_volume 1126.921161
_symmetry_space_group_name_H-M "P 2/M"
_symmetry_group_IT_number 10
_symmetry_cell_setting 'monoclinic'
loop_
_space_group_symop_operation_xyz
x,y,z
-x,y,-z
-x,-y,-z
x,-y,z
loop_
_atom_site_type_symbol
_atom_site_label
_atom_site_fract_x
_atom_site_fract_y
_atom_site_fract_z
Si Si1 0.285885 0.082810 0.444383
Si Si2 0.523905 0.144664 0.184252
Si Si3 0.907196 0.827801 0.090587
Si Si4 0.271750 0.418126 0.793784
Si Si5 0.217071 0.717921 0.561715
Si Si6 0.977291 0.676687 0.153821
O O1 0.500000 0.106849 0.500000
O O2 0.332274 0.089002 0.642016
O O3 0.085018 0.131234 0.286806
O O4 0.247744 0.000000 0.377265
O O5 0.613195 0.221565 0.296976
O O6 0.500000 0.144005 0.000000
O O7 0.289660 0.126342 0.074868
O O8 0.836452 0.748353 0.099522
O O9 0.000000 0.805808 0.000000
O O10 0.222456 0.500000 0.717872
O O11 0.262626 0.359069 0.663174
O O12 0.119165 0.389798 0.821025
O O13 0.500000 0.417376 0.000000
O O14 0.179079 0.702801 0.369629
O O15 0.000000 0.741853 0.500000
O O16 0.000000 0.661018 0.000000
#
# Coordination Sequence:
#
# PCOD9151372 Si02
#       6
#     4   4   4   4   4   4
#     4  11  25  45  67  95 129 171 214 256 323 395
#     4  12  24  39  67  96 130 164 214 272 320 368
#     4  11  22  41  65  93 127 169 217 259 318 384
#     4  10  21  39  60  88 127 172 214 255 316 387
#     4  10  20  38  64  93 127 169 217 259 317 389
#     4  10  21  36  61  93 123 159 213 271 316 363
#
# _framework density 21.296965
#
# number of rings (size 3 to 8) (size 9 to 14) (size 15 to 20)
#    0.000    1.333    3.333    3.500    0.000    4.667 
#    0.000    3.333    0.000    2.000    0.000    0.000 
#    0.000    0.000    0.000    0.000    0.000    0.000 
#
# Total GULP energy -133708.305703 kJ/mol
# GULP energy per Si atom -5571.179404 kJ/mol
# Density = 2.124849 g / cm^3
# Si number density = 21.296965 Si / 1000 Ang^3
#
#
#
# Elastic Constant Matrix: (Units=GPa)
#
#
# Indices 1 2 3 4 5 6 
#
# 1 28.8716 13.7976 23.1050 0.0000 3.7694 0.0000
# 2 13.7976 94.2931 20.3664 0.0000 8.8640 0.0000
# 3 23.1050 20.3664 133.3528 0.0000 -3.0684 0.0000
# 4 0.0000 0.0000 0.0000 23.7955 0.0000 -6.2595
# 5 3.7694 8.8640 -3.0684 0.0000 44.8986 0.0000
# 6 0.0000 0.0000 0.0000 -6.2595 0.0000 25.7073
#
#
#
# Elastic Compliance Matrix: (Units=1/GPa)
#
#
# Indices 1 2 3 4 5 6 
#
# 1 0.042606 -0.004475 -0.006771 0.000000 -0.003156 0.000000
# 2 -0.004475 0.011676 -0.001054 0.000000 -0.002001 0.000000
# 3 -0.006771 -0.001054 0.008865 0.000000 0.001382 0.000000
# 4 0.000000 0.000000 0.000000 0.044901 0.000000 0.010933
# 5 -0.003156 -0.002001 0.001382 0.000000 0.023027 0.000000
# 6 0.000000 0.000000 0.000000 0.010933 0.000000 0.041562
#
#
# Mechanical properties :
#
#
# Convention : Reuss Voigt Hill
#
# Bulk Modulus (GPa) = 25.94302 41.22838 33.58570
# Shear Modulus (GPa) = 23.79996 32.16351 27.98173
#
# Velocity S-wave (km/s) = 3.34657 3.89040 3.62869
# Velocity P-wave (km/s) = 5.20968 6.29135 5.77589
#
# Compressibility (1/GPa) = 0.03854601
#
# Stress axis : x y z
#
# Youngs Moduli (GPa) = 23.47111 85.64704 112.80518
#
# Poissons Ratio (x) = 0.38328 0.76382
# Poissons Ratio (y) = 0.10504 0.11888
# Poissons Ratio (z) = 0.15893 0.09026
#
# Static dielectric constant tensor:
#      x y z
#    x 1.806550 0.000000 0.008690 
#    y 0.000000 1.791310 0.000000 
#    z 0.008690 0.000000 1.835070 
# 
# From -- ./inp_files/20266.got.cif
#   From: 2010.05.17/outbox.cif.g08.bks.cpg/sg10_11_cif.got.tgz:20266.got - 2010.06.03 11:33:40.
