data_PCOD9151622
_publ_section_title
;
Structure prediction by ZEFSAII (Michael W. Deem and Ramdas Pophale) SiO2 
 PCOD9151622
Probable space group: P 2/M
;
_chemical_formula_sum "Si O2"
_cell_formula_units_Z 26
_cell_length_a 9.372225
_cell_length_b 19.720203
_cell_length_c 9.512797
_cell_angle_alpha 90.000000
_cell_angle_beta 46.724491
_cell_angle_gamma 90.000000
_cell_volume 1280.067801
_symmetry_space_group_name_H-M "P 2/M"
_symmetry_group_IT_number 10
_symmetry_cell_setting 'monoclinic'
loop_
_space_group_symop_operation_xyz
x,y,z
-x,y,-z
-x,-y,-z
x,-y,z
loop_
_atom_site_type_symbol
_atom_site_label
_atom_site_fract_x
_atom_site_fract_y
_atom_site_fract_z
Si Si1 0.509018 0.871077 0.152086
Si Si2 0.500000 0.339446 0.500000
Si Si3 0.568847 0.285070 0.754986
Si Si4 0.102523 0.421931 0.778729
Si Si5 0.057270 0.178522 0.118401
Si Si6 0.170915 0.682917 0.184564
Si Si7 0.862813 0.078012 0.456610
O O1 0.426050 0.794079 0.208824
O O2 0.363215 0.913131 0.346926
O O3 0.500000 0.898505 0.000000
O O4 0.735202 0.860416 0.036416
O O5 0.549690 0.294939 0.602732
O O6 0.312123 0.386375 0.652064
O O7 0.756925 0.317256 0.703437
O O8 0.373227 0.316920 0.956811
O O9 0.121566 0.500000 0.721015
O O10 0.968416 0.377784 0.765544
O O11 0.000000 0.420185 0.000000
O O12 0.077553 0.245294 0.201106
O O13 0.913071 0.127613 0.295062
O O14 0.000000 0.199843 0.000000
O O15 0.000000 0.095830 0.500000
O O16 0.905778 0.000000 0.392526
#
# Coordination Sequence:
#
# PCOD9151622 Si02
#       7
#     4   2   4   4   4   4   4
#     4  11  21  42  64  93 130 170 216 274 325 373
#     4  12  25  40  66 100 127 166 214 270 323 382
#     4  10  21  39  66  97 129 159 220 271 318 384
#     4  11  24  43  65  94 134 173 213 264 323 383
#     4  11  24  41  67  97 133 168 217 274 326 383
#     4  10  20  43  65  93 127 173 213 265 323 380
#     4  11  24  41  66  99 129 173 225 262 322 396
#
# _framework density 20.311425
#
# number of rings (size 3 to 8) (size 9 to 14) (size 15 to 20)
#    0.000    1.231    6.154    0.692    4.308    2.462 
#    0.000    4.615    0.000    0.000    0.000    0.000 
#    0.000    0.000    0.000    0.000    0.000    0.000 
#
# Total GULP energy -145356.965269 kJ/mol
# GULP energy per Si atom -5590.652510 kJ/mol
# Density = 2.026519 g / cm^3
# Si number density = 20.311425 Si / 1000 Ang^3
#
#
#
# Elastic Constant Matrix: (Units=GPa)
#
#
# Indices 1 2 3 4 5 6 
#
# 1 93.1906 21.2324 17.3821 0.0000 21.6850 0.0000
# 2 21.2324 68.0538 22.6280 0.0000 10.4200 0.0000
# 3 17.3821 22.6280 55.1628 0.0000 10.4829 0.0000
# 4 0.0000 0.0000 0.0000 80.0340 0.0000 -31.2480
# 5 21.6850 10.4200 10.4829 0.0000 37.5664 0.0000
# 6 0.0000 0.0000 0.0000 -31.2480 0.0000 6.4078
#
#
#
# Elastic Compliance Matrix: (Units=1/GPa)
#
#
# Indices 1 2 3 4 5 6 
#
# 1 0.013133 -0.002489 -0.001909 0.000000 -0.006358 0.000000
# 2 -0.002489 0.017797 -0.006179 0.000000 -0.001775 0.000000
# 3 -0.001909 -0.006179 0.021890 0.000000 -0.003293 0.000000
# 4 0.000000 0.000000 0.000000 -0.013822 0.000000 -0.067404
# 5 -0.006358 -0.001775 -0.003293 0.000000 0.031701 0.000000
# 6 0.000000 0.000000 0.000000 -0.067404 0.000000 -0.172639
#
#
# Mechanical properties :
#
#
# Convention : Reuss Voigt Hill
#
# Bulk Modulus (GPa) = 31.57917 37.65470 34.61693
# Shear Modulus (GPa) = -71.19424 35.14596 -18.02414
#
# Velocity S-wave (km/s) = -5.92684 4.16427 -2.98214
# Velocity P-wave (km/s) = 5.59065 6.45758 2.28529
#
# Compressibility (1/GPa) = 0.03166645
#
# Stress axis : x y z
#
# Youngs Moduli (GPa) = 76.14169 56.18870 45.68302
#
# Poissons Ratio (x) = 0.13987 0.08721
# Poissons Ratio (y) = 0.18954 0.28226
# Poissons Ratio (z) = 0.14536 0.34717
#
# Static dielectric constant tensor:
#      x y z
#    x 1.725590 0.000000 -0.006910 
#    y 0.000000 1.678060 0.000000 
#    z -0.006910 0.000000 1.745010 
# 
# From -- ./inp_files/20434.got.cif
#   From: 2010.05.17/outbox.cif.g08.bks.cpg/sg10_11_cif.got.tgz:20434.got - 2010.06.03 11:33:40.
