data_PCOD9151751
_publ_section_title
;
Structure prediction by ZEFSAII (Michael W. Deem and Ramdas Pophale) SiO2 
 PCOD9151751
Probable space group: P 2/M
;
_chemical_formula_sum "Si O2"
_cell_formula_units_Z 28
_cell_length_a 28.499938
_cell_length_b 7.482475
_cell_length_c 14.000079
_cell_angle_alpha 90.000000
_cell_angle_beta 148.568845
_cell_angle_gamma 90.000000
_cell_volume 1556.868992
_symmetry_space_group_name_H-M "P 2/M"
_symmetry_group_IT_number 10
_symmetry_cell_setting 'monoclinic'
loop_
_space_group_symop_operation_xyz
x,y,z
-x,y,-z
-x,-y,-z
x,-y,z
loop_
_atom_site_type_symbol
_atom_site_label
_atom_site_fract_x
_atom_site_fract_y
_atom_site_fract_z
Si Si1 0.902916 0.718052 0.716213
Si Si2 0.292582 0.284645 0.338987
Si Si3 0.275930 0.282169 0.690896
Si Si4 0.474335 0.207705 0.557912
Si Si5 0.432331 0.289874 0.081336
Si Si6 0.610411 0.282405 0.296221
Si Si7 0.895369 0.717880 0.925046
O O1 0.903019 0.500000 0.715855
O O2 0.824382 0.780249 0.509034
O O3 0.882821 0.768796 0.791650
O O4 0.004865 0.775628 0.871200
O O5 0.292847 0.500000 0.335254
O O6 0.368092 0.224998 0.395481
O O7 0.330885 0.233046 0.509519
O O8 0.189335 0.223006 0.158757
O O9 0.268981 0.500000 0.679996
O O10 0.339680 0.228742 0.712837
O O11 0.332837 0.222455 0.882306
O O12 0.500000 0.287852 0.500000
O O13 0.529777 0.276204 0.745795
O O14 0.497333 0.000000 0.594809
O O15 0.428911 0.500000 0.054131
O O16 0.510188 0.216802 0.146199
O O17 0.607337 0.500000 0.287675
O O18 0.894921 0.500000 0.925139
#
# Coordination Sequence:
#
# PCOD9151751 Si02
#       7
#     4   4   4   4   4   4   4
#     4   8  12  17  30  56  93 123 141 164 192 226
#     4   9  15  25  44  66  86 109 139 172 203 236
#     4   9  13  19  33  58  89 119 142 161 191 232
#     4  10  21  35  47  59  77 102 133 173 222 266
#     4   9  17  26  41  63  84 107 138 172 202 238
#     4   8  12  19  32  55  85 112 137 163 189 224
#     4   8  12  19  32  58  91 118 141 167 197 226
#
# _framework density 17.984815999999999
#
# number of rings (size 3 to 8) (size 9 to 14) (size 15 to 20)
#    0.000    3.286    1.429    2.571    0.000    2.857 
#    0.000    0.000    0.000    6.857    0.000    4.000 
#    0.000    8.000    0.000    0.000    0.000    0.000 
#
# Total GULP energy -155896.192521 kJ/mol
# GULP energy per Si atom -5567.721161 kJ/mol
# Density = 1.794388 g / cm^3
# Si number density = 17.984816 Si / 1000 Ang^3
#
#
#
# Elastic Constant Matrix: (Units=GPa)
#
#
# Indices 1 2 3 4 5 6 
#
# 1 77.3593 -8.5317 54.2980 0.0000 11.1405 0.0000
# 2 -8.5317 42.4714 0.8262 0.0000 0.8630 0.0000
# 3 54.2980 0.8262 160.2689 0.0000 27.1644 0.0000
# 4 0.0000 0.0000 0.0000 -11.9059 0.0000 -5.0924
# 5 11.1405 0.8630 27.1644 0.0000 15.3181 0.0000
# 6 0.0000 0.0000 0.0000 -5.0924 0.0000 12.5361
#
#
#
# Elastic Compliance Matrix: (Units=1/GPa)
#
#
# Indices 1 2 3 4 5 6 
#
# 1 0.017628 0.003716 -0.005409 0.000000 -0.003438 0.000000
# 2 0.003716 0.024358 -0.000992 0.000000 -0.002316 0.000000
# 3 -0.005409 -0.000992 0.010581 0.000000 -0.014775 0.000000
# 4 0.000000 0.000000 0.000000 -0.071559 0.000000 -0.029069
# 5 -0.003438 -0.002316 -0.014775 0.000000 0.094114 0.000000
# 6 0.000000 0.000000 0.000000 -0.029069 0.000000 0.067961
#
#
# Mechanical properties :
#
#
# Convention : Reuss Voigt Hill
#
# Bulk Modulus (GPa) = 21.18718 41.47607 31.33162
# Shear Modulus (GPa) = 30.45319 18.75679 24.60499
#
# Velocity S-wave (km/s) = 4.11940 3.23294 3.70279
# Velocity P-wave (km/s) = 5.86789 6.08668 5.97828
#
# Compressibility (1/GPa) = 0.04719836
#
# Stress axis : x y z
#
# Youngs Moduli (GPa) = 56.72803 41.05403 94.50693
#
# Poissons Ratio (x) = -0.15257 0.51115
# Poissons Ratio (y) = -0.21081 0.09376
# Poissons Ratio (z) = 0.30682 0.04073
#
# Static dielectric constant tensor:
#      x y z
#    x 1.605500 0.000000 0.015390 
#    y 0.000000 1.680760 0.000000 
#    z 0.015390 0.000000 1.669320 
# 
# From -- ./inp_files/72478.got.cif
#   From: 2010.05.17/outbox.cif.g08.bks.cpg/sg10_37_cif.got.tgz:72478.got - 2010.06.03 11:33:40.
