data_PCOD9151920
_publ_section_title
;
Structure prediction by ZEFSAII (Michael W. Deem and Ramdas Pophale) SiO2 
 PCOD9151920
Probable space group: P 2/M
;
_chemical_formula_sum "Si O2"
_cell_formula_units_Z 30
_cell_length_a 15.972721
_cell_length_b 20.603791
_cell_length_c 8.775595
_cell_angle_alpha 90.000000
_cell_angle_beta 29.903651
_cell_angle_gamma 90.000000
_cell_volume 1439.810108
_symmetry_space_group_name_H-M "P 2/M"
_symmetry_group_IT_number 10
_symmetry_cell_setting 'monoclinic'
loop_
_space_group_symop_operation_xyz
x,y,z
-x,y,-z
-x,-y,-z
x,-y,z
loop_
_atom_site_type_symbol
_atom_site_label
_atom_site_fract_x
_atom_site_fract_y
_atom_site_fract_z
Si Si1 0.000000 0.831635 0.000000
Si Si2 0.665902 0.426931 0.138104
Si Si3 0.269067 0.739988 0.724161
Si Si4 0.833240 0.323148 0.659395
Si Si5 0.626551 0.218001 0.100636
Si Si6 0.041306 0.072031 0.685403
Si Si7 0.061689 0.611839 0.060648
Si Si8 0.277604 0.926426 0.016030
O O1 0.869883 0.788670 0.115116
O O2 0.910682 0.876885 0.264250
O O3 0.500000 0.410156 0.500000
O O4 0.639905 0.500000 0.117605
O O5 0.708927 0.373318 0.942541
O O6 0.830392 0.428524 0.987954
O O7 0.304994 0.754032 0.845787
O O8 0.442650 0.753752 0.366770
O O9 0.192867 0.669566 0.818642
O O10 0.000000 0.316628 0.500000
O O11 0.902976 0.354897 0.395521
O O12 0.749681 0.251876 0.784001
O O13 0.618082 0.140007 0.132340
O O14 0.161322 0.074147 0.349909
O O15 0.852093 0.081775 0.919926
O O16 0.051046 0.000000 0.734800
O O17 0.000000 0.581432 0.000000
O O18 0.352728 0.000000 0.887073
#
# Coordination Sequence:
#
# PCOD9151920 Si02
#       8
#     2   4   4   4   4   4   4   4
#     4  12  21  36  56  80 113 150 188 244 308 360
#     4  10  21  41  67  93 125 165 209 248 284 346
#     4  11  23  36  57  88 119 150 193 253 302 349
#     4  10  21  35  65  92 115 166 205 247 293 357
#     4  11  21  38  61  85 115 157 202 249 303 363
#     4   9  19  33  54  79 108 146 192 242 299 365
#     4  11  23  39  59  93 130 156 198 254 306 355
#     4   9  19  35  56  82 109 150 201 250 297 363
#
# _framework density 20.836079000000002
#
# number of rings (size 3 to 8) (size 9 to 14) (size 15 to 20)
#    0.000    1.733    4.667    1.800    3.733    2.667 
#    0.000    7.333    0.000    3.200    0.000    0.000 
#    0.000    0.000    0.000    0.000    0.000    0.000 
#
# Total GULP energy -167410.572500 kJ/mol
# GULP energy per Si atom -5580.352417 kJ/mol
# Density = 2.078866 g / cm^3
# Si number density = 20.836079 Si / 1000 Ang^3
#
#
#
# Elastic Constant Matrix: (Units=GPa)
#
#
# Indices 1 2 3 4 5 6 
#
# 1 28.8107 -6.2275 -8.6100 0.0000 1.0752 0.0000
# 2 -6.2275 109.1103 22.8039 0.0000 -7.2855 0.0000
# 3 -8.6100 22.8039 74.1189 0.0000 -8.0530 0.0000
# 4 0.0000 0.0000 0.0000 -40.6297 0.0000 -3.9903
# 5 1.0752 -7.2855 -8.0530 0.0000 15.0672 0.0000
# 6 0.0000 0.0000 0.0000 -3.9903 0.0000 -3.5334
#
#
#
# Elastic Compliance Matrix: (Units=1/GPa)
#
#
# Indices 1 2 3 4 5 6 
#
# 1 0.036121 0.001270 0.003813 0.000000 0.000074 0.000000
# 2 0.001270 0.009998 -0.002562 0.000000 0.003375 0.000000
# 3 0.003813 -0.002562 0.015456 0.000000 0.006750 0.000000
# 4 0.000000 0.000000 0.000000 -0.027683 0.000000 0.031263
# 5 0.000074 0.003375 0.006750 0.000000 0.071604 0.000000
# 6 0.000000 0.000000 0.000000 0.031263 0.000000 -0.318318
#
#
# Mechanical properties :
#
#
# Convention : Reuss Voigt Hill
#
# Bulk Modulus (GPa) = 15.01113 25.33029 20.17071
# Shear Modulus (GPa) = -25.55474 7.78572 -8.88451
#
# Velocity S-wave (km/s) = -3.50589 1.93514 -2.06719
# Velocity P-wave (km/s) = 3.02793 4.14444 2.00100
#
# Compressibility (1/GPa) = 0.06661725
#
# Stress axis : x y z
#
# Youngs Moduli (GPa) = 27.68507 100.01721 64.69780
#
# Poissons Ratio (x) = -0.12698 -0.24672
# Poissons Ratio (y) = -0.03515 0.16576
# Poissons Ratio (z) = -0.10557 0.25624
#
# Static dielectric constant tensor:
#      x y z
#    x 1.735930 0.000000 0.035920 
#    y 0.000000 1.786030 0.000000 
#    z 0.035920 0.000000 1.777320 
# 
# From -- ./inp_files/30546.got.cif
#   From: 2010.05.17/outbox.cif.g08.bks.cpg/sg10_16_cif.got.tgz:30546.got - 2010.06.03 11:33:40.
