data_PCOD9151094
_publ_section_title
;
Structure prediction by ZEFSAII (Michael W. Deem and Ramdas Pophale) SiO2 
 PCOD9151094
Probable space group: P 2/M
;
_chemical_formula_sum "Si O2"
_cell_formula_units_Z 28
_cell_length_a 26.054799
_cell_length_b 8.671756
_cell_length_c 10.296840
_cell_angle_alpha 90.000000
_cell_angle_beta 39.858961
_cell_angle_gamma 90.000000
_cell_volume 1491.038970
_symmetry_space_group_name_H-M "P 2/M"
_symmetry_group_IT_number 10
_symmetry_cell_setting 'monoclinic'
loop_
_space_group_symop_operation_xyz
x,y,z
-x,y,-z
-x,-y,-z
x,-y,z
loop_
_atom_site_type_symbol
_atom_site_label
_atom_site_fract_x
_atom_site_fract_y
_atom_site_fract_z
Si Si1 0.354164 0.814077 0.044654
Si Si2 0.065631 0.686232 0.767195
Si Si3 0.235297 0.185571 0.045057
Si Si4 0.246522 0.313708 0.484249
Si Si5 0.693229 0.315569 0.350009
Si Si6 0.520831 0.186336 0.608113
Si Si7 0.937828 0.813988 0.509624
O O1 0.305415 0.770800 0.009141
O O2 0.308394 0.744921 0.256031
O O3 0.351391 0.000000 0.059810
O O4 0.446185 0.768030 0.844147
O O5 0.065775 0.500000 0.766568
O O6 0.155927 0.738176 0.627554
O O7 0.044687 0.744463 0.664612
O O8 0.000000 0.737733 0.000000
O O9 0.151090 0.231123 0.271749
O O10 0.236505 0.000000 0.029454
O O11 0.250921 0.258061 0.875297
O O12 0.246459 0.500000 0.482108
O O13 0.274195 0.262671 0.573449
O O14 0.691667 0.500000 0.353174
O O15 0.604407 0.253849 0.493144
O O16 0.500000 0.231513 0.500000
O O17 0.526884 0.000000 0.596933
O O18 0.000000 0.766451 0.500000
O O19 0.940112 0.000000 0.495046
#
# Coordination Sequence:
#
# PCOD9151094 Si02
#       7
#     4   4   4   4   4   4   4
#     4  10  20  37  63  86 109 151 197 236 284 344
#     4  10  22  40  61  84 116 158 196 233 282 341
#     4  10  20  38  60  84 117 153 191 237 287 339
#     4  10  23  41  57  82 120 155 191 237 285 338
#     4  11  24  38  57  87 119 152 193 237 286 342
#     4  10  20  38  60  84 116 149 190 241 288 338
#     4  10  22  39  60  90 121 148 188 241 291 339
#
# _framework density 18.778853000000002
#
# number of rings (size 3 to 8) (size 9 to 14) (size 15 to 20)
#    0.000    1.857    2.857    0.429    2.000    4.286 
#    0.000    2.857    0.000    0.000    0.000    0.000 
#    0.000    0.000    0.000    0.000    0.000    0.000 
#
# Total GULP energy -156395.574193 kJ/mol
# GULP energy per Si atom -5585.556221 kJ/mol
# Density = 1.873611 g / cm^3
# Si number density = 18.778853 Si / 1000 Ang^3
#
#
#
# Elastic Constant Matrix: (Units=GPa)
#
#
# Indices 1 2 3 4 5 6 
#
# 1 116.6599 20.6137 68.6416 0.0000 20.2816 0.0000
# 2 20.6137 6.7653 27.2409 0.0000 3.8680 0.0000
# 3 68.6416 27.2409 173.7786 0.0000 15.9663 0.0000
# 4 0.0000 0.0000 0.0000 32.3217 0.0000 5.1943
# 5 20.2816 3.8680 15.9663 0.0000 35.5830 0.0000
# 6 0.0000 0.0000 0.0000 5.1943 0.0000 19.6595
#
#
#
# Elastic Compliance Matrix: (Units=1/GPa)
#
#
# Indices 1 2 3 4 5 6 
#
# 1 0.020650 -0.078644 0.004659 0.000000 -0.005312 0.000000
# 2 -0.078644 0.709253 -0.080468 0.000000 0.003835 0.000000
# 3 0.004659 -0.080468 0.016655 0.000000 -0.001382 0.000000
# 4 0.000000 0.000000 0.000000 0.032311 0.000000 -0.008537
# 5 -0.005312 0.003835 -0.001382 0.000000 0.031334 0.000000
# 6 0.000000 0.000000 0.000000 -0.008537 0.000000 0.053122
#
#
# Mechanical properties :
#
#
# Convention : Reuss Voigt Hill
#
# Bulk Modulus (GPa) = 2.28492 58.91069 30.59781
# Shear Modulus (GPa) = 3.79330 29.56001 16.67665
#
# Velocity S-wave (km/s) = 1.42280 3.97181 2.98326
# Velocity P-wave (km/s) = 1.97953 7.24380 5.30995
#
# Compressibility (1/GPa) = 0.43765185
#
# Stress axis : x y z
#
# Youngs Moduli (GPa) = 48.42559 1.40993 60.04210
#
# Poissons Ratio (x) = 0.11088 -0.27975
# Poissons Ratio (y) = 3.80837 4.83150
# Poissons Ratio (z) = -0.22563 0.11346
#
# Static dielectric constant tensor:
#      x y z
#    x 1.634570 0.000000 -0.012100 
#    y 0.000000 1.642830 0.000000 
#    z -0.012100 0.000000 1.628510 
# 
# From -- ./inp_files/36929.got.cif
#   From: 2010.05.17/outbox.cif.g08.bks.cpg/sg10_19_cif.got.tgz:36929.got - 2010.06.03 11:33:40.
