data_PCOD9151478
_publ_section_title
;
Structure prediction by ZEFSAII (Michael W. Deem and Ramdas Pophale) SiO2 
 PCOD9151478
Probable space group: P 2/M
;
_chemical_formula_sum "Si O2"
_cell_formula_units_Z 28
_cell_length_a 27.320502
_cell_length_b 7.771337
_cell_length_c 9.124159
_cell_angle_alpha 90.000000
_cell_angle_beta 131.837018
_cell_angle_gamma 90.000000
_cell_volume 1443.310886
_symmetry_space_group_name_H-M "P 2/M"
_symmetry_group_IT_number 10
_symmetry_cell_setting 'monoclinic'
loop_
_space_group_symop_operation_xyz
x,y,z
-x,y,-z
-x,-y,-z
x,-y,z
loop_
_atom_site_type_symbol
_atom_site_label
_atom_site_fract_x
_atom_site_fract_y
_atom_site_fract_z
Si Si1 0.429270 0.500000 0.285166
Si Si2 0.066247 0.295061 0.557717
Si Si3 0.194243 0.791914 0.296861
Si Si4 0.328278 0.797966 0.731058
Si Si5 0.429369 0.500000 0.932969
Si Si6 0.667093 0.807660 0.911626
Si Si7 0.065353 0.791649 0.215215
Si Si8 0.800245 0.701725 0.030001
O O1 0.500000 0.500000 0.500000
O O2 0.385815 0.665938 0.239379
O O3 0.436944 0.500000 0.124317
O O4 0.066964 0.500000 0.587948
O O5 0.064870 0.265818 0.381941
O O6 0.000000 0.224323 0.500000
O O7 0.133759 0.226873 0.762359
O O8 0.261719 0.748160 0.514351
O O9 0.130879 0.733270 0.262097
O O10 0.193432 0.721579 0.131284
O O11 0.191550 0.000000 0.282822
O O12 0.386798 0.668823 0.807586
O O13 0.342534 0.000000 0.729522
O O14 0.317619 0.781300 0.885010
O O15 0.500000 0.500000 0.000000
O O16 0.734446 0.789354 0.957375
O O17 0.640539 0.000000 0.840805
O O18 0.065481 0.000000 0.214922
O O19 0.000000 0.733335 0.000000
O O20 0.793939 0.500000 0.055303
#
# Coordination Sequence:
#
# PCOD9151478 Si02
#       8
#     2   4   4   4   2   4   4   4
#     4  10  22  40  60  90 125 152 197 240 276 354
#     4  10  22  38  55  79 114 152 194 243 295 353
#     4  10  21  36  54  83 115 147 191 240 292 348
#     4   9  20  38  60  85 115 152 195 237 283 345
#     4  10  22  38  60  88 117 154 189 230 288 338
#     4  10  20  39  63  86 118 158 195 242 296 341
#     4  10  21  37  57  81 111 148 194 245 293 348
#     4  11  22  35  55  85 116 151 197 244 292 351
#
# _framework density 19.399837999999999
#
# number of rings (size 3 to 8) (size 9 to 14) (size 15 to 20)
#    0.000    2.000    0.714    2.143    1.000    5.143 
#    0.000    0.000    0.000    0.000    0.000    0.000 
#    0.000    0.000    0.000    0.000    0.000    0.000 
#
# Total GULP energy -156449.098097 kJ/mol
# GULP energy per Si atom -5587.467789 kJ/mol
# Density = 1.935568 g / cm^3
# Si number density = 19.399838 Si / 1000 Ang^3
#
#
#
# Elastic Constant Matrix: (Units=GPa)
#
#
# Indices 1 2 3 4 5 6 
#
# 1 142.3945 35.5911 57.9958 0.0000 25.5134 0.0000
# 2 35.5911 64.2230 45.6946 0.0000 15.4101 0.0000
# 3 57.9958 45.6946 150.6777 0.0000 28.4021 0.0000
# 4 0.0000 0.0000 0.0000 -38.3137 0.0000 -29.4666
# 5 25.5134 15.4101 28.4021 0.0000 29.8576 0.0000
# 6 0.0000 0.0000 0.0000 -29.4666 0.0000 13.6909
#
#
#
# Elastic Compliance Matrix: (Units=1/GPa)
#
#
# Indices 1 2 3 4 5 6 
#
# 1 0.009313 -0.002681 -0.001867 0.000000 -0.004798 0.000000
# 2 -0.002681 0.021399 -0.004639 0.000000 -0.004340 0.000000
# 3 -0.001867 -0.004639 0.009760 0.000000 -0.005295 0.000000
# 4 0.000000 0.000000 0.000000 -0.009830 0.000000 -0.021156
# 5 -0.004798 -0.004340 -0.005295 0.000000 0.044869 0.000000
# 6 0.000000 0.000000 0.000000 -0.021156 0.000000 0.027508
#
#
# Mechanical properties :
#
#
# Convention : Reuss Voigt Hill
#
# Bulk Modulus (GPa) = 45.25546 70.65090 57.95318
# Shear Modulus (GPa) = 38.83178 15.58120 27.20649
#
# Velocity S-wave (km/s) = 4.47884 2.83708 3.74894
# Velocity P-wave (km/s) = 7.07991 6.87237 6.97691
#
# Compressibility (1/GPa) = 0.02209678
#
# Stress axis : x y z
#
# Youngs Moduli (GPa) = 107.37600 46.73120 102.45676
#
# Poissons Ratio (x) = 0.12531 0.19129
# Poissons Ratio (y) = 0.28792 0.47533
# Poissons Ratio (z) = 0.20047 0.21680
#
# Static dielectric constant tensor:
#      x y z
#    x 1.633210 0.000000 0.002630 
#    y 0.000000 1.704180 0.000000 
#    z 0.002630 0.000000 1.641900 
# 
# From -- ./inp_files/37369.got.cif
#   From: 2010.05.17/outbox.cif.g08.bks.cpg/sg10_19_cif.got.tgz:37369.got - 2010.06.03 11:33:40.
