data_PCOD9151176
_publ_section_title
;
Structure prediction by ZEFSAII (Michael W. Deem and Ramdas Pophale) SiO2 
 PCOD9151176
Probable space group: P 2/M
;
_chemical_formula_sum "Si O2"
_cell_formula_units_Z 26
_cell_length_a 14.460574
_cell_length_b 7.261220
_cell_length_c 17.453964
_cell_angle_alpha 90.000000
_cell_angle_beta 132.940866
_cell_angle_gamma 90.000000
_cell_volume 1341.634490
_symmetry_space_group_name_H-M "P 2/M"
_symmetry_group_IT_number 10
_symmetry_cell_setting 'monoclinic'
loop_
_space_group_symop_operation_xyz
x,y,z
-x,y,-z
-x,-y,-z
x,-y,z
loop_
_atom_site_type_symbol
_atom_site_label
_atom_site_fract_x
_atom_site_fract_y
_atom_site_fract_z
Si Si1 0.450257 0.723584 0.312210
Si Si2 0.960216 0.719948 0.125242
Si Si3 0.689407 0.279180 0.922559
Si Si4 0.379004 0.000000 0.984907
Si Si5 0.260280 0.721947 0.495840
Si Si6 0.764553 0.722913 0.695784
Si Si7 0.926733 0.000000 0.538057
Si Si8 0.106810 0.000000 0.782533
O O1 0.449743 0.500000 0.313868
O O2 0.385794 0.776673 0.195774
O O3 0.595609 0.776394 0.403765
O O4 0.359208 0.786774 0.329397
O O5 0.959617 0.500000 0.134705
O O6 0.104333 0.773625 0.187903
O O7 0.930508 0.823702 0.187378
O O8 0.840169 0.764789 0.003840
O O9 0.678512 0.500000 0.925097
O O10 0.634555 0.173557 0.965168
O O11 0.500000 0.000000 0.000000
O O12 0.256896 0.000000 0.861522
O O13 0.248941 0.500000 0.494992
O O14 0.233107 0.776852 0.392028
O O15 0.163356 0.824903 0.496582
O O16 0.759076 0.500000 0.692587
O O17 0.000000 0.000000 0.500000
O O18 0.032886 0.000000 0.663040
#
# Coordination Sequence:
#
# PCOD9151176 Si02
#       8
#     4   4   4   2   4   4   2   2
#     4   9  18  33  56  86 120 152 182 224 274 332
#     4   9  17  32  56  80 108 147 182 216 263 323
#     4   9  19  35  54  81 115 145 180 227 278 326
#     4  10  22  38  60  81 102 141 187 233 282 334
#     4  10  21  39  58  80 116 152 186 229 277 329
#     4   9  16  30  57  85 112 153 190 217 267 334
#     4  12  26  40  59  85 107 140 192 243 285 329
#     4  10  20  38  56  77 108 136 177 232 278 323
#
# _framework density 19.379348
#
# number of rings (size 3 to 8) (size 9 to 14) (size 15 to 20)
#    0.000    2.462    1.538    0.462    0.000    4.923 
#    0.000    6.923    0.000    2.769    0.000    0.000 
#    0.000    0.000    0.000    0.000    0.000    0.000 
#
# Total GULP energy -145063.497585 kJ/mol
# GULP energy per Si atom -5579.365292 kJ/mol
# Density = 1.933524 g / cm^3
# Si number density = 19.379348 Si / 1000 Ang^3
#
#
#
# Elastic Constant Matrix: (Units=GPa)
#
#
# Indices 1 2 3 4 5 6 
#
# 1 162.1835 31.5418 69.7178 0.0000 22.3261 0.0000
# 2 31.5418 85.8065 20.7555 0.0000 4.0372 0.0000
# 3 69.7178 20.7555 119.7934 0.0000 25.3004 0.0000
# 4 0.0000 0.0000 0.0000 10.5536 0.0000 -1.6874
# 5 22.3261 4.0372 25.3004 0.0000 26.3825 0.0000
# 6 0.0000 0.0000 0.0000 -1.6874 0.0000 14.0970
#
#
#
# Elastic Compliance Matrix: (Units=1/GPa)
#
#
# Indices 1 2 3 4 5 6 
#
# 1 0.008757 -0.002087 -0.004059 0.000000 -0.003198 0.000000
# 2 -0.002087 0.012662 -0.001183 0.000000 0.000962 0.000000
# 3 -0.004059 -0.001183 0.012730 0.000000 -0.008591 0.000000
# 4 0.000000 0.000000 0.000000 0.096603 0.000000 0.011564
# 5 -0.003198 0.000962 -0.008591 0.000000 0.048702 0.000000
# 6 0.000000 0.000000 0.000000 0.011564 0.000000 0.072321
#
#
# Mechanical properties :
#
#
# Convention : Reuss Voigt Hill
#
# Bulk Modulus (GPa) = 51.30543 67.97927 59.64235
# Shear Modulus (GPa) = 18.31974 26.59118 22.45546
#
# Velocity S-wave (km/s) = 3.07795 3.70826 3.40771
# Velocity P-wave (km/s) = 6.25807 7.31364 6.80635
#
# Compressibility (1/GPa) = 0.01949111
#
# Stress axis : x y z
#
# Youngs Moduli (GPa) = 114.19499 78.97678 78.55718
#
# Poissons Ratio (x) = 0.16479 0.31889
# Poissons Ratio (y) = 0.23828 0.09291
# Poissons Ratio (z) = 0.46356 0.09341
#
# Static dielectric constant tensor:
#      x y z
#    x 1.637960 0.000000 0.035000 
#    y 0.000000 1.709850 0.000000 
#    z 0.035000 0.000000 1.677870 
# 
# From -- ./inp_files/63599.got.cif
#   From: 2010.05.17/outbox.cif.g08.bks.cpg/sg10_32_cif.got.tgz:63599.got - 2010.06.03 11:33:40.
