data_PCOD9151486
_publ_section_title
;
Structure prediction by ZEFSAII (Michael W. Deem and Ramdas Pophale) SiO2 
 PCOD9151486
Probable space group: P 2/M
;
_chemical_formula_sum "Si O2"
_cell_formula_units_Z 28
_cell_length_a 14.682954
_cell_length_b 13.320706
_cell_length_c 7.523695
_cell_angle_alpha 90.000000
_cell_angle_beta 60.053511
_cell_angle_gamma 90.000000
_cell_volume 1275.077021
_symmetry_space_group_name_H-M "P 2/M"
_symmetry_group_IT_number 10
_symmetry_cell_setting 'monoclinic'
loop_
_space_group_symop_operation_xyz
x,y,z
-x,y,-z
-x,-y,-z
x,-y,z
loop_
_atom_site_type_symbol
_atom_site_label
_atom_site_fract_x
_atom_site_fract_y
_atom_site_fract_z
Si Si1 0.727710 0.314445 0.741533
Si Si2 0.593779 0.704977 0.190578
Si Si3 0.259150 0.115293 0.850984
Si Si4 0.929472 0.389363 0.745730
Si Si5 0.377377 0.612974 0.482395
Si Si6 0.189316 0.884603 0.505598
Si Si7 0.032611 0.173278 0.164381
O O1 0.815089 0.363812 0.780509
O O2 0.715627 0.369314 0.564929
O O3 0.756365 0.200195 0.665426
O O4 0.623762 0.321700 0.961398
O O5 0.647594 0.811407 0.181226
O O6 0.470049 0.691012 0.342579
O O7 0.646853 0.633105 0.288385
O O8 0.228495 0.132066 0.672340
O O9 0.289011 0.000000 0.842519
O O10 0.152012 0.136012 0.066905
O O11 0.933809 0.500000 0.824869
O O12 0.964784 0.293948 0.825387
O O13 0.000000 0.390005 0.500000
O O14 0.417482 0.500000 0.421021
O O15 0.063241 0.865843 0.622570
O O16 0.211915 0.000000 0.436563
O O17 0.000000 0.139116 0.000000
#
# Coordination Sequence:
#
# PCOD9151486 Si02
#       7
#     4   4   4   4   4   4   4
#     4  12  23  42  67  96 133 169 213 268 319 386
#     4  11  23  42  67  98 127 158 218 275 318 389
#     4  10  20  39  66  97 132 172 214 265 327 382
#     4  11  23  38  56  88 131 171 209 255 315 382
#     4  11  26  47  69  94 127 169 217 271 329 384
#     4  10  21  39  65  95 133 175 215 263 319 380
#     4  10  20  39  63  94 132 171 220 267 305 378
#
# _framework density 21.959455999999999
#
# number of rings (size 3 to 8) (size 9 to 14) (size 15 to 20)
#    0.000    1.286    4.286    2.143    0.000    5.429 
#    0.000    2.857    0.000    1.714    0.000    0.000 
#    0.000    0.000    0.000    0.000    0.000    0.000 
#
# Total GULP energy -156427.031549 kJ/mol
# GULP energy per Si atom -5586.679698 kJ/mol
# Density = 2.190948 g / cm^3
# Si number density = 21.959456 Si / 1000 Ang^3
#
#
#
# Elastic Constant Matrix: (Units=GPa)
#
#
# Indices 1 2 3 4 5 6 
#
# 1 47.2718 9.1556 4.4308 0.0000 5.6771 0.0000
# 2 9.1556 94.1019 4.3594 0.0000 -13.0954 0.0000
# 3 4.4308 4.3594 69.2608 0.0000 -0.5739 0.0000
# 4 0.0000 0.0000 0.0000 21.2683 0.0000 6.7121
# 5 5.6771 -13.0954 -0.5739 0.0000 31.0957 0.0000
# 6 0.0000 0.0000 0.0000 6.7121 0.0000 25.2288
#
#
#
# Elastic Compliance Matrix: (Units=1/GPa)
#
#
# Indices 1 2 3 4 5 6 
#
# 1 0.022472 -0.002869 -0.001301 0.000000 -0.005335 0.000000
# 2 -0.002869 0.011686 -0.000507 0.000000 0.005436 0.000000
# 3 -0.001301 -0.000507 0.014556 0.000000 0.000293 0.000000
# 4 0.000000 0.000000 0.000000 0.051328 0.000000 -0.013656
# 5 -0.005335 0.005436 0.000293 0.000000 0.035427 0.000000
# 6 0.000000 0.000000 0.000000 -0.013656 0.000000 0.043270
#
#
# Mechanical properties :
#
#
# Convention : Reuss Voigt Hill
#
# Bulk Modulus (GPa) = 25.40622 27.39177 26.39899
# Shear Modulus (GPa) = 24.84926 28.36449 26.60687
#
# Velocity S-wave (km/s) = 3.36757 3.59789 3.48463
# Velocity P-wave (km/s) = 5.16870 5.45533 5.31395
#
# Compressibility (1/GPa) = 0.03936044
#
# Stress axis : x y z
#
# Youngs Moduli (GPa) = 44.49883 85.57400 68.70127
#
# Poissons Ratio (x) = 0.24547 0.08940
# Poissons Ratio (y) = 0.12765 0.03483
# Poissons Ratio (z) = 0.05791 0.04338
#
# Static dielectric constant tensor:
#      x y z
#    x 1.834830 0.000000 -0.011960 
#    y 0.000000 1.779660 0.000000 
#    z -0.011960 0.000000 1.825330 
# 
# From -- ./inp_files/28472.got.cif
#   From: 2010.05.17/outbox.cif.g08.bks.cpg/sg10_15_cif.got.tgz:28472.got - 2010.06.03 11:33:40.
