data_PCOD9151235
_publ_section_title
;
Structure prediction by ZEFSAII (Michael W. Deem and Ramdas Pophale) SiO2 
 PCOD9151235
Probable space group: P 2/M
;
_chemical_formula_sum "Si O2"
_cell_formula_units_Z 32
_cell_length_a 27.700714
_cell_length_b 9.334415
_cell_length_c 21.731477
_cell_angle_alpha 90.000000
_cell_angle_beta 161.457226
_cell_angle_gamma 90.000000
_cell_volume 1786.946514
_symmetry_space_group_name_H-M "P 2/M"
_symmetry_group_IT_number 10
_symmetry_cell_setting 'monoclinic'
loop_
_space_group_symop_operation_xyz
x,y,z
-x,y,-z
-x,-y,-z
x,-y,z
loop_
_atom_site_type_symbol
_atom_site_label
_atom_site_fract_x
_atom_site_fract_y
_atom_site_fract_z
Si Si1 0.137382 0.329769 0.560549
Si Si2 0.167117 0.832613 0.807499
Si Si3 0.286186 0.829977 0.631759
Si Si4 0.842647 0.328152 0.778655
Si Si5 0.639709 0.165086 0.081209
Si Si6 0.524501 0.327925 0.458800
Si Si7 0.614527 0.829078 0.820958
Si Si8 0.292201 0.829758 0.495640
O O1 0.134531 0.500000 0.557115
O O2 0.178771 0.264555 0.544140
O O3 0.265443 0.269479 0.761153
O O4 0.974932 0.263858 0.381920
O O5 0.294047 0.824573 0.907721
O O6 0.120240 0.000000 0.754554
O O7 0.242656 0.790040 0.963753
O O8 0.274884 0.793489 0.546135
O O9 0.253528 0.000000 0.599480
O O10 0.460586 0.807534 0.863409
O O11 0.844819 0.500000 0.774133
O O12 0.695219 0.292236 0.642127
O O13 0.816971 0.254995 0.681968
O O14 0.000000 0.283563 0.000000
O O15 0.663705 0.000000 0.131063
O O16 0.500000 0.285366 0.500000
O O17 0.506638 0.500000 0.433117
O O18 0.410335 0.253144 0.272858
O O19 0.463467 0.800387 0.679114
O O20 0.620872 0.000000 0.817842
O O21 0.267993 0.000000 0.459880
#
# Coordination Sequence:
#
# PCOD9151235 Si02
#       8
#     4   4   4   4   4   4   4   4
#     4  12  26  38  50  80 119 148 177 224 277 322
#     4  10  20  38  61  82 107 142 184 227 274 328
#     4  10  20  38  61  82 107 142 184 227 274 328
#     4   9  18  33  52  75 106 144 179 211 254 313
#     4  10  20  38  64  84 101 140 189 226 271 330
#     4   9  18  33  52  75 106 144 179 211 254 313
#     4   9  17  33  58  84 106 132 176 229 269 311
#     4   9  17  33  58  84 106 132 176 229 269 311
#
# _framework density 17.907643
#
# number of rings (size 3 to 8) (size 9 to 14) (size 15 to 20)
#    0.000    2.250    1.250    1.875    0.000    5.500 
#    2.250    0.000    0.000    0.000    0.000    0.000 
#    0.000    0.000    0.000    0.000    0.000    0.000 
#
# Total GULP energy -178610.337057 kJ/mol
# GULP energy per Si atom -5581.573033 kJ/mol
# Density = 1.786688 g / cm^3
# Si number density = 17.907643 Si / 1000 Ang^3
#
#
#
# Elastic Constant Matrix: (Units=GPa)
#
#
# Indices 1 2 3 4 5 6 
#
# 1 58.7036 16.9291 3.8942 0.0000 -18.7933 0.0000
# 2 16.9291 36.8030 27.7050 0.0000 -7.6211 0.0000
# 3 3.8942 27.7050 61.4388 0.0000 -16.1824 0.0000
# 4 0.0000 0.0000 0.0000********** 0.000015965.7813
# 5 -18.7933 -7.6211 -16.1824 0.0000 30.6521 0.0000
# 6 0.0000 0.0000 0.000015965.7813 0.0000-7723.4713
#
#
#
# Elastic Compliance Matrix: (Units=1/GPa)
#
#
# Indices 1 2 3 4 5 6 
#
# 1 0.026815 -0.016499 0.010442 0.000000 0.017851 0.000000
# 2 -0.016499 0.051294 -0.024845 0.000000 -0.010479 0.000000
# 3 0.010442 -0.024845 0.031218 0.000000 0.016706 0.000000
# 4 0.000000 0.000000 0.000000 0.011618 0.000000 0.024017
# 5 0.017851 -0.010479 0.016706 0.000000 0.049784 0.000000
# 6 0.000000 0.000000 0.000000 0.024017 0.000000 0.049518
#
#
# Mechanical properties :
#
#
# Convention : Reuss Voigt Hill
#
# Bulk Modulus (GPa) = 21.04177 28.22245 24.63211
# Shear Modulus (GPa) = 16.78470 -8114.94041 -4049.07785
#
# Velocity S-wave (km/s) = 3.06485 -67.38983 -47.60250
# Velocity P-wave (km/s) = 4.92951 77.71352 54.84109
#
# Compressibility (1/GPa) = 0.04752452
#
# Stress axis : x y z
#
# Youngs Moduli (GPa) = 37.29269 19.49549 32.03269
#
# Poissons Ratio (x) = 0.32165 -0.33449
# Poissons Ratio (y) = 0.61529 0.79584
# Poissons Ratio (z) = -0.38942 0.48436
#
# Static dielectric constant tensor:
#      x y z
#    x 1.613190 0.000000 0.002890 
#    y 0.000000 1.589310 0.000000 
#    z 0.002890 0.000000 1.600310 
# 
# From -- ./inp_files/86927.got.cif
#   From: 2010.05.17/outbox.cif.g08.bks.cpg/sg10_44_cif.got.tgz:86927.got - 2010.06.03 11:33:40.
