data_PCOD9151333
_publ_section_title
;
Structure prediction by ZEFSAII (Michael W. Deem and Ramdas Pophale) SiO2 
 PCOD9151333
Probable space group: P 2/M
;
_chemical_formula_sum "Si O2"
_cell_formula_units_Z 18
_cell_length_a 8.208356
_cell_length_b 20.971989
_cell_length_c 8.464808
_cell_angle_alpha 90.000000
_cell_angle_beta 146.477798
_cell_angle_gamma 90.000000
_cell_volume 804.741805
_symmetry_space_group_name_H-M "P 2/M"
_symmetry_group_IT_number 10
_symmetry_cell_setting 'monoclinic'
loop_
_space_group_symop_operation_xyz
x,y,z
-x,y,-z
-x,-y,-z
x,-y,z
loop_
_atom_site_type_symbol
_atom_site_label
_atom_site_fract_x
_atom_site_fract_y
_atom_site_fract_z
Si Si1 0.575214 0.639791 0.383326
Si Si2 0.822853 0.861578 0.693411
Si Si3 0.207299 0.573553 0.868480
Si Si4 0.315050 0.763503 0.699808
Si Si5 0.830831 0.000000 0.701021
O O1 0.500000 0.657971 0.500000
O O2 0.512290 0.703367 0.231081
O O3 0.906607 0.614095 0.618190
O O4 0.344853 0.584912 0.151323
O O5 0.500000 0.870119 0.500000
O O6 0.780068 0.811775 0.516833
O O7 0.911157 0.931130 0.693158
O O8 0.000000 0.844718 0.000000
O O9 0.138178 0.500000 0.779897
O O10 0.500000 0.590891 0.000000
O O11 0.000000 0.738081 0.500000
O O12 0.500000 0.789791 0.000000
O O13 0.500000 0.000000 0.500000
O O14 0.000000 0.000000 0.000000
#
# Coordination Sequence:
#
# PCOD9151333 Si02
#       5
#     4   4   4   4   2
#     4  12  25  41  64  91 122 163 212 263 311 370
#     4  10  20  38  63  90 121 160 209 255 305 370
#     4  11  24  43  66  92 124 162 203 254 320 385
#     4  12  25  41  61  89 127 167 208 258 319 375
#     4   8  16  32  58  88 118 156 200 252 306 364
#
# _framework density 22.367422000000001
#
# number of rings (size 3 to 8) (size 9 to 14) (size 15 to 20)
#    0.000    1.111    0.000    7.333    0.000    6.222 
#    0.000    1.111    0.000    0.000    0.000    0.000 
#    0.000    0.000    0.000    0.000    0.000    0.000 
#
# Total GULP energy -100297.757534 kJ/mol
# GULP energy per Si atom -5572.097641 kJ/mol
# Density = 2.231651 g / cm^3
# Si number density = 22.367422 Si / 1000 Ang^3
#
#
#
# Elastic Constant Matrix: (Units=GPa)
#
#
# Indices 1 2 3 4 5 6 
#
# 1 61.6597 42.5449 24.7448 0.0000 -15.9575 0.0000
# 2 42.5449 139.1121 38.9421 0.0000 -24.2331 0.0000
# 3 24.7448 38.9421 163.1511 0.0000 -8.4040 0.0000
# 4 0.0000 0.0000 0.0000 19.7626 0.0000 -13.7627
# 5 -15.9575 -24.2331 -8.4040 0.0000 37.4693 0.0000
# 6 0.0000 0.0000 0.0000 -13.7627 0.0000 21.8964
#
#
#
# Elastic Compliance Matrix: (Units=1/GPa)
#
#
# Indices 1 2 3 4 5 6 
#
# 1 0.022008 -0.005258 -0.001796 0.000000 0.005570 0.000000
# 2 -0.005258 0.009841 -0.001355 0.000000 0.003822 0.000000
# 3 -0.001796 -0.001355 0.006718 0.000000 -0.000134 0.000000
# 4 0.000000 0.000000 0.000000 0.089991 0.000000 0.056563
# 5 0.005570 0.003822 -0.000134 0.000000 0.031502 0.000000
# 6 0.000000 0.000000 0.000000 0.056563 0.000000 0.081222
#
#
# Mechanical properties :
#
#
# Convention : Reuss Voigt Hill
#
# Bulk Modulus (GPa) = 45.97591 64.04293 55.00942
# Shear Modulus (GPa) = 18.84306 33.00507 25.92407
#
# Velocity S-wave (km/s) = 2.90562 3.84550 3.40812
# Velocity P-wave (km/s) = 5.64414 6.95784 6.33514
#
# Compressibility (1/GPa) = 0.02175052
#
# Stress axis : x y z
#
# Youngs Moduli (GPa) = 45.43786 101.61117 148.85086
#
# Poissons Ratio (x) = 0.53425 0.26735
# Poissons Ratio (y) = 0.23890 0.20165
# Poissons Ratio (z) = 0.08161 0.13766
#
# Static dielectric constant tensor:
#      x y z
#    x 1.848920 0.000000 -0.028420 
#    y 0.000000 1.901690 0.000000 
#    z -0.028420 0.000000 1.797790 
# 
# From -- ./inp_files/20384.got.cif
#   From: 2010.05.17/outbox.cif.g08.bks.cpg/sg10_11_cif.got.tgz:20384.got - 2010.06.03 11:33:40.
