data_PCOD9151268
_publ_section_title
;
Structure prediction by ZEFSAII (Michael W. Deem and Ramdas Pophale) SiO2 
 PCOD9151268
Probable space group: P 2/M
;
_chemical_formula_sum "Si O2"
_cell_formula_units_Z 32
_cell_length_a 8.496441
_cell_length_b 22.954848
_cell_length_c 14.790204
_cell_angle_alpha 90.000000
_cell_angle_beta 32.432819
_cell_angle_gamma 90.000000
_cell_volume 1547.040916
_symmetry_space_group_name_H-M "P 2/M"
_symmetry_group_IT_number 10
_symmetry_cell_setting 'monoclinic'
loop_
_space_group_symop_operation_xyz
x,y,z
-x,y,-z
-x,-y,-z
x,-y,z
loop_
_atom_site_type_symbol
_atom_site_label
_atom_site_fract_x
_atom_site_fract_y
_atom_site_fract_z
Si Si1 0.207819 0.882712 0.170773
Si Si2 0.652255 0.434695 0.161754
Si Si3 0.358365 0.616069 0.470843
Si Si4 0.167394 0.848723 0.823528
Si Si5 0.782508 0.765190 0.736933
Si Si6 0.321889 0.365965 0.172924
Si Si7 0.577902 0.253063 0.630210
Si Si8 0.649194 0.934020 0.527622
O O1 0.317318 0.823827 0.167224
O O2 0.031246 0.867032 0.164988
O O3 0.981672 0.914125 0.347848
O O4 0.500000 0.916798 0.000000
O O5 0.603093 0.500000 0.148999
O O6 0.498499 0.429018 0.333373
O O7 0.507594 0.386485 0.168514
O O8 0.000000 0.425278 0.000000
O O9 0.500000 0.611709 0.500000
O O10 0.433723 0.679626 0.391910
O O11 0.008232 0.611225 0.651942
O O12 0.289018 0.783467 0.748719
O O13 0.456196 0.890033 0.680995
O O14 0.000000 0.852563 0.000000
O O15 0.710245 0.703892 0.818435
O O16 0.653040 0.757260 0.699096
O O17 0.135760 0.770616 0.560614
O O18 0.500000 0.387870 0.000000
O O19 0.500000 0.933282 0.500000
O O20 0.635680 0.000000 0.568740
#
# Coordination Sequence:
#
# PCOD9151268 Si02
#       8
#     4   4   4   4   4   4   4   4
#     4  11  22  38  62  91 127 166 215 263 320 384
#     4  11  25  47  70  95 131 174 223 273 321 383
#     4  11  24  41  67  98 131 171 216 268 328 393
#     4  11  23  38  61  93 126 169 214 262 323 382
#     4  10  20  38  61  90 128 165 205 264 320 381
#     4  11  23  41  65  98 132 170 218 268 328 386
#     4  10  21  37  61  90 128 164 206 260 321 384
#     4   9  20  40  64  88 123 171 218 266 316 377
#
# _framework density 20.684650000000001
#
# number of rings (size 3 to 8) (size 9 to 14) (size 15 to 20)
#    0.000    1.500    2.500    2.250    3.500    2.500 
#    2.250    0.000    0.000    5.250    0.000    0.000 
#    0.000    0.000    0.000    0.000    0.000    0.000 
#
# Total GULP energy -178775.709237 kJ/mol
# GULP energy per Si atom -5586.740914 kJ/mol
# Density = 2.063757 g / cm^3
# Si number density = 20.684650 Si / 1000 Ang^3
#
#
#
# Elastic Constant Matrix: (Units=GPa)
#
#
# Indices 1 2 3 4 5 6 
#
# 1 48.0006 2.5942 30.8524 0.0000 6.3884 0.0000
# 2 2.5942 52.2856 40.8667 0.0000 -7.0108 0.0000
# 3 30.8524 40.8667 155.9805 0.0000 -3.3179 0.0000
# 4 0.0000 0.0000 0.0000 105.5404 0.0000 -4.4010
# 5 6.3884 -7.0108 -3.3179 0.0000 34.5492 0.0000
# 6 0.0000 0.0000 0.0000 -4.4010 0.0000 15.3795
#
#
#
# Elastic Compliance Matrix: (Units=1/GPa)
#
#
# Indices 1 2 3 4 5 6 
#
# 1 0.024990 0.002614 -0.005726 0.000000 -0.004640 0.000000
# 2 0.002614 0.024974 -0.006977 0.000000 0.003915 0.000000
# 3 -0.005726 -0.006977 0.009383 0.000000 0.000544 0.000000
# 4 0.000000 0.000000 0.000000 0.009589 0.000000 0.002744
# 5 -0.004640 0.003915 0.000544 0.000000 0.030649 0.000000
# 6 0.000000 0.000000 0.000000 0.002744 0.000000 0.065807
#
#
# Mechanical properties :
#
#
# Convention : Reuss Voigt Hill
#
# Bulk Modulus (GPa) = 25.53096 44.98815 35.25955
# Shear Modulus (GPa) = 25.17269 43.22404 34.19836
#
# Velocity S-wave (km/s) = 3.49230 4.57625 4.07052
# Velocity P-wave (km/s) = 5.35082 7.05120 6.25902
#
# Compressibility (1/GPa) = 0.03916814
#
# Stress axis : x y z
#
# Youngs Moduli (GPa) = 40.01587 40.04147 106.57300
#
# Poissons Ratio (x) = -0.10466 0.61028
# Poissons Ratio (y) = -0.10459 0.74355
# Poissons Ratio (z) = 0.22915 0.27936
#
# Static dielectric constant tensor:
#      x y z
#    x 1.733250 0.000000 0.079820 
#    y 0.000000 1.724530 0.000000 
#    z 0.079820 0.000000 2.369870 
# 
# From -- ./inp_files/30567.got.cif
#   From: 2010.05.17/outbox.cif.g08.bks.cpg/sg10_16_cif.got.tgz:30567.got - 2010.06.03 11:33:40.
