data_PCOD9151430
_publ_section_title
;
Structure prediction by ZEFSAII (Michael W. Deem and Ramdas Pophale) SiO2 
 PCOD9151430
Probable space group: P 2/M
;
_chemical_formula_sum "Si O2"
_cell_formula_units_Z 28
_cell_length_a 11.199456
_cell_length_b 9.529535
_cell_length_c 14.840807
_cell_angle_alpha 90.000000
_cell_angle_beta 67.597928
_cell_angle_gamma 90.000000
_cell_volume 1464.361225
_symmetry_space_group_name_H-M "P 2/M"
_symmetry_group_IT_number 10
_symmetry_cell_setting 'monoclinic'
loop_
_space_group_symop_operation_xyz
x,y,z
-x,y,-z
-x,-y,-z
x,-y,z
loop_
_atom_site_type_symbol
_atom_site_label
_atom_site_fract_x
_atom_site_fract_y
_atom_site_fract_z
Si Si1 0.225778 0.661481 0.749865
Si Si2 0.420225 0.662736 0.855317
Si Si3 0.656622 0.837731 0.755134
Si Si4 0.952509 0.659519 0.910673
Si Si5 0.851768 0.169641 0.547336
Si Si6 0.348615 0.169455 0.553419
Si Si7 0.702544 0.162347 0.955045
O O1 0.243076 0.500000 0.714589
O O2 0.296638 0.673014 0.825833
O O3 0.289620 0.765000 0.660650
O O4 0.074782 0.685622 0.811346
O O5 0.446936 0.500000 0.866020
O O6 0.538098 0.735765 0.769610
O O7 0.390099 0.746180 0.955167
O O8 0.783268 0.798618 0.662193
O O9 0.677166 0.829206 0.856080
O O10 0.624403 0.000000 0.741204
O O11 0.902900 0.500000 0.908277
O O12 0.843768 0.774241 0.929037
O O13 0.000000 0.662439 0.000000
O O14 0.748781 0.213653 0.499767
O O15 0.000000 0.222484 0.500000
O O16 0.859581 0.000000 0.537758
O O17 0.500000 0.210958 0.500000
O O18 0.346389 0.000000 0.557846
O O19 0.691415 0.000000 0.985659
#
# Coordination Sequence:
#
# PCOD9151430 Si02
#       7
#     4   4   4   4   4   4   4
#     4  10  22  38  59  85 115 154 192 236 289 342
#     4  11  22  39  60  84 117 158 195 229 286 355
#     4  10  22  39  59  85 117 150 192 243 290 338
#     4  10  20  39  59  79 116 158 194 233 285 348
#     4   9  19  37  60  83 115 156 193 237 298 356
#     4  10  21  37  61  90 115 147 196 248 295 348
#     4  11  23  36  57  89 120 150 192 242 288 337
#
# _framework density 19.120964000000001
#
# number of rings (size 3 to 8) (size 9 to 14) (size 15 to 20)
#    0.000    1.857    1.429    2.143    2.000    6.286 
#    0.000    0.714    0.000    0.857    0.000    0.000 
#    0.000    0.000    0.000    0.000    0.000    0.000 
#
# Total GULP energy -156292.596643 kJ/mol
# GULP energy per Si atom -5581.878452 kJ/mol
# Density = 1.907744 g / cm^3
# Si number density = 19.120964 Si / 1000 Ang^3
#
#
#
# Elastic Constant Matrix: (Units=GPa)
#
#
# Indices 1 2 3 4 5 6 
#
# 1 92.9666 36.6683 36.1068 0.0000 -19.7003 0.0000
# 2 36.6683 64.7252 44.7682 0.0000 -9.7975 0.0000
# 3 36.1068 44.7682 107.5476 0.0000 -20.5592 0.0000
# 4 0.0000 0.0000 0.0000 20.5675 0.0000 -20.0361
# 5 -19.7003 -9.7975 -20.5592 0.0000 28.5179 0.0000
# 6 0.0000 0.0000 0.0000 -20.0361 0.0000 30.7643
#
#
#
# Elastic Compliance Matrix: (Units=1/GPa)
#
#
# Indices 1 2 3 4 5 6 
#
# 1 0.015478 -0.007060 -0.000786 0.000000 0.007700 0.000000
# 2 -0.007060 0.024946 -0.008476 0.000000 -0.002417 0.000000
# 3 -0.000786 -0.008476 0.014417 0.000000 0.006939 0.000000
# 4 0.000000 0.000000 0.000000 0.133007 0.000000 0.086625
# 5 0.007700 -0.002417 0.006939 0.000000 0.044557 0.000000
# 6 0.000000 0.000000 0.000000 0.086625 0.000000 0.088922
#
#
# Mechanical properties :
#
#
# Convention : Reuss Voigt Hill
#
# Bulk Modulus (GPa) = 45.04907 55.59178 50.32043
# Shear Modulus (GPa) = 13.83627 25.81633 19.82630
#
# Velocity S-wave (km/s) = 2.69293 3.67844 3.22357
# Velocity P-wave (km/s) = 5.76891 6.86863 6.34265
#
# Compressibility (1/GPa) = 0.02219801
#
# Stress axis : x y z
#
# Youngs Moduli (GPa) = 64.60809 40.08650 69.36406
#
# Poissons Ratio (x) = 0.28299 0.05450
# Poissons Ratio (y) = 0.45610 0.58794
# Poissons Ratio (z) = 0.05076 0.33978
#
# Static dielectric constant tensor:
#      x y z
#    x 1.695520 0.000000 -0.003280 
#    y 0.000000 1.641800 0.000000 
#    z -0.003280 0.000000 1.654790 
# 
# From -- ./inp_files/63392.got.cif
#   From: 2010.05.17/outbox.cif.g08.bks.cpg/sg10_32_cif.got.tgz:63392.got - 2010.06.03 11:33:40.
