data_PCOD9151765
_publ_section_title
;
Structure prediction by ZEFSAII (Michael W. Deem and Ramdas Pophale) SiO2 
 PCOD9151765
Probable space group: P 2/M
;
_chemical_formula_sum "Si O2"
_cell_formula_units_Z 28
_cell_length_a 9.614477
_cell_length_b 13.091268
_cell_length_c 13.724510
_cell_angle_alpha 90.000000
_cell_angle_beta 67.362390
_cell_angle_gamma 90.000000
_cell_volume 1594.358759
_symmetry_space_group_name_H-M "P 2/M"
_symmetry_group_IT_number 10
_symmetry_cell_setting 'monoclinic'
loop_
_space_group_symop_operation_xyz
x,y,z
-x,y,-z
-x,-y,-z
x,-y,z
loop_
_atom_site_type_symbol
_atom_site_label
_atom_site_fract_x
_atom_site_fract_y
_atom_site_fract_z
Si Si1 0.188019 0.383798 0.164807
Si Si2 0.242750 0.121005 0.391988
Si Si3 0.075137 0.878890 0.634403
Si Si4 0.265726 0.624323 0.917176
Si Si5 0.873524 0.705368 0.230677
Si Si6 0.557688 0.618591 0.384450
Si Si7 0.420820 0.708263 0.245276
O O1 0.228613 0.500000 0.176514
O O2 0.288107 0.314213 0.206559
O O3 0.012204 0.363662 0.228137
O O4 0.224375 0.366544 0.041269
O O5 0.192606 0.150941 0.515918
O O6 0.379955 0.184324 0.307864
O O7 0.091343 0.136809 0.367525
O O8 0.274107 0.000000 0.384241
O O9 0.095401 0.814814 0.727972
O O10 0.092472 0.000000 0.646502
O O11 0.274510 0.500000 0.892433
O O12 0.146054 0.680771 0.879004
O O13 0.423596 0.682270 0.853028
O O14 0.711373 0.671381 0.312563
O O15 0.500000 0.663865 0.500000
O O16 0.590987 0.500000 0.388916
O O17 0.434517 0.632563 0.333561
#
# Coordination Sequence:
#
# PCOD9151765 Si02
#       7
#     4   4   4   4   4   4   4
#     4  11  21  34  55  82 105 136 190 235 257 306
#     4   9  18  34  56  81 107 136 174 222 273 319
#     4   9  18  34  56  81 107 136 174 222 273 319
#     4  10  22  37  53  76 113 149 175 216 279 324
#     4  11  19  34  56  79 104 141 182 221 263 316
#     4  10  21  35  49  73 115 152 169 201 272 337
#     4  11  19  34  56  79 104 141 182 221 263 316
#
# _framework density 17.561920000000001
#
# number of rings (size 3 to 8) (size 9 to 14) (size 15 to 20)
#    0.000    1.857    1.429    6.000    0.000    2.286 
#    0.000    2.857    0.000   16.286    0.000    0.000 
#    0.000    0.000    0.000    0.000    0.000    0.000 
#
# Total GULP energy -155909.669244 kJ/mol
# GULP energy per Si atom -5568.202473 kJ/mol
# Density = 1.752195 g / cm^3
# Si number density = 17.561920 Si / 1000 Ang^3
#
#
#
# Elastic Constant Matrix: (Units=GPa)
#
#
# Indices 1 2 3 4 5 6 
#
# 1 59.1351 9.3378 16.3107 0.0000 8.5020 0.0000
# 2 9.3378 66.2260 30.6096 0.0000 -1.8228 0.0000
# 3 16.3107 30.6096 76.9626 0.0000 3.9966 0.0000
# 4 0.0000 0.0000 0.0000 38.7842 0.0000 1.9311
# 5 8.5020 -1.8228 3.9966 0.0000 22.6261 0.0000
# 6 0.0000 0.0000 0.0000 1.9311 0.0000 29.3874
#
#
#
# Elastic Compliance Matrix: (Units=1/GPa)
#
#
# Indices 1 2 3 4 5 6 
#
# 1 0.018953 -0.001422 -0.003104 0.000000 -0.006688 0.000000
# 2 -0.001422 0.018787 -0.007344 0.000000 0.003345 0.000000
# 3 -0.003104 -0.007344 0.016695 0.000000 -0.002374 0.000000
# 4 0.000000 0.000000 0.000000 0.025868 0.000000 -0.001700
# 5 -0.006688 0.003345 -0.002374 0.000000 0.047399 0.000000
# 6 0.000000 0.000000 0.000000 -0.001700 0.000000 0.034140
#
#
# Mechanical properties :
#
#
# Convention : Reuss Voigt Hill
#
# Bulk Modulus (GPa) = 32.57863 34.98222 33.78043
# Shear Modulus (GPa) = 25.53452 27.89725 26.71589
#
# Velocity S-wave (km/s) = 3.81723 3.98993 3.90454
# Velocity P-wave (km/s) = 6.16598 6.41784 6.29317
#
# Compressibility (1/GPa) = 0.03069497
#
# Stress axis : x y z
#
# Youngs Moduli (GPa) = 52.76326 53.22867 59.89668
#
# Poissons Ratio (x) = 0.07568 0.18591
# Poissons Ratio (y) = 0.07502 0.43990
# Poissons Ratio (z) = 0.16377 0.39093
#
# Static dielectric constant tensor:
#      x y z
#    x 1.605050 0.000000 0.005980 
#    y 0.000000 1.587360 0.000000 
#    z 0.005980 0.000000 1.625520 
# 
# From -- ./inp_files/60916.got.cif
#   From: 2010.05.17/outbox.cif.g08.bks.cpg/sg10_31_cif.got.tgz:60916.got - 2010.06.03 11:33:40.
