data_PCOD9151808
_publ_section_title
;
Structure prediction by ZEFSAII (Michael W. Deem and Ramdas Pophale) SiO2 
 PCOD9151808
Probable space group: P 2/M
;
_chemical_formula_sum "Si O2"
_cell_formula_units_Z 24
_cell_length_a 21.808487
_cell_length_b 7.419895
_cell_length_c 14.043773
_cell_angle_alpha 90.000000
_cell_angle_beta 26.255580
_cell_angle_gamma 90.000000
_cell_volume 1005.306957
_symmetry_space_group_name_H-M "P 2/M"
_symmetry_group_IT_number 10
_symmetry_cell_setting 'monoclinic'
loop_
_space_group_symop_operation_xyz
x,y,z
-x,y,-z
-x,-y,-z
x,-y,z
loop_
_atom_site_type_symbol
_atom_site_label
_atom_site_fract_x
_atom_site_fract_y
_atom_site_fract_z
Si Si1 0.339850 0.715345 0.121306
Si Si2 0.845708 0.219183 0.013129
Si Si3 0.581891 0.208410 0.487362
Si Si4 0.342151 0.279439 0.327118
Si Si5 0.687972 0.786002 0.046279
Si Si6 0.095273 0.292365 0.785990
O O1 0.345584 0.500000 0.119058
O O2 0.289715 0.776811 0.294798
O O3 0.498924 0.779757 0.888061
O O4 0.264901 0.759081 0.127253
O O5 0.732534 0.282644 0.249999
O O6 0.789428 0.278654 0.988453
O O7 0.847328 0.000000 0.012536
O O8 0.995948 0.286942 0.832157
O O9 0.500000 0.210697 0.500000
O O10 0.468197 0.289442 0.717424
O O11 0.604763 0.000000 0.481363
O O12 0.340296 0.500000 0.333038
O O13 0.242043 0.214199 0.550083
O O14 0.675500 0.000000 0.079020
O O15 0.119410 0.500000 0.779584
O O16 0.000000 0.205764 0.000000
#
# Coordination Sequence:
#
# PCOD9151808 Si02
#       6
#     4   4   4   4   4   4
#     4   9  17  32  56  75  94 129 170 205 241 293
#     4   9  18  33  50  71 102 136 166 196 241 302
#     4   7  12  25  44  65  94 130 158 186 233 288
#     4   8  17  35  52  71 100 133 165 201 247 295
#     4   9  17  30  50  76 103 128 160 207 253 286
#     4  10  21  35  52  73 101 132 163 204 250 291
#
# _framework density 23.873304999999998
#
# number of rings (size 3 to 8) (size 9 to 14) (size 15 to 20)
#    0.000    3.333    0.000    3.000    2.333    1.000 
#    0.000    4.167    0.000    8.000    0.000    0.000 
#    0.000    0.000    0.000    0.000    0.000    0.000 
#
# Total GULP energy -133914.892442 kJ/mol
# GULP energy per Si atom -5579.787185 kJ/mol
# Density = 2.381897 g / cm^3
# Si number density = 23.873305 Si / 1000 Ang^3
#
#
#
# Elastic Constant Matrix: (Units=GPa)
#
#
# Indices 1 2 3 4 5 6 
#
# 1 98.8623 2.5421 13.2746 0.0000 22.6270 0.0000
# 2 2.5421 84.7492 5.1560 0.0000 2.0360 0.0000
# 3 13.2746 5.1560 83.6477 0.0000 17.5430 0.0000
# 4 0.0000 0.0000 0.0000 0.5629 0.0000 0.6167
# 5 22.6270 2.0360 17.5430 0.0000 40.1258 0.0000
# 6 0.0000 0.0000 0.0000 0.6167 0.0000 21.6192
#
#
#
# Elastic Compliance Matrix: (Units=1/GPa)
#
#
# Indices 1 2 3 4 5 6 
#
# 1 0.011637 -0.000166 -0.000509 0.000000 -0.006331 0.000000
# 2 -0.000166 0.011850 -0.000658 0.000000 -0.000220 0.000000
# 3 -0.000509 -0.000658 0.013221 0.000000 -0.005460 0.000000
# 4 0.000000 0.000000 0.000000 1.833850 0.000000 -0.052310
# 5 -0.006331 -0.000220 -0.005460 0.000000 0.030890 0.000000
# 6 0.000000 0.000000 0.000000 -0.052310 0.000000 0.047747
#
#
# Mechanical properties :
#
#
# Convention : Reuss Voigt Hill
#
# Bulk Modulus (GPa) = 29.37497 34.35605 31.86551
# Shear Modulus (GPa) = 2.54685 28.88067 15.71376
#
# Velocity S-wave (km/s) = 1.03399 3.48192 2.56835
# Velocity P-wave (km/s) = 3.70901 5.53057 4.70871
#
# Compressibility (1/GPa) = 0.03404258
#
# Stress axis : x y z
#
# Youngs Moduli (GPa) = 85.93514 84.38947 75.63552
#
# Poissons Ratio (x) = 0.01401 0.03847
# Poissons Ratio (y) = 0.01427 0.04976
# Poissons Ratio (z) = 0.04371 0.05552
#
# Static dielectric constant tensor:
#      x y z
#    x 1.947020 0.000000 0.022110 
#    y 0.000000 1.910420 0.000000 
#    z 0.022110 0.000000 1.925760 
# 
# From -- ./inp_files/37472.got.cif
#   From: 2010.05.17/outbox.cif.g08.bks.cpg/sg10_19_cif.got.tgz:37472.got - 2010.06.03 11:33:40.
