data_PCOD9151092
_publ_section_title
;
Structure prediction by ZEFSAII (Michael W. Deem and Ramdas Pophale) SiO2 
 PCOD9151092
Probable space group: P 2/M
;
_chemical_formula_sum "Si O2"
_cell_formula_units_Z 16
_cell_length_a 9.377072
_cell_length_b 10.694921
_cell_length_c 10.557531
_cell_angle_alpha 90.000000
_cell_angle_beta 43.166901
_cell_angle_gamma 90.000000
_cell_volume 724.341244
_symmetry_space_group_name_H-M "P 2/M"
_symmetry_group_IT_number 10
_symmetry_cell_setting 'monoclinic'
loop_
_space_group_symop_operation_xyz
x,y,z
-x,y,-z
-x,-y,-z
x,-y,z
loop_
_atom_site_type_symbol
_atom_site_label
_atom_site_fract_x
_atom_site_fract_y
_atom_site_fract_z
Si Si1 0.289522 0.860365 0.094585
Si Si2 0.103148 0.287219 0.560452
Si Si3 0.803634 0.635834 0.224159
Si Si4 0.536806 0.144594 0.290909
O O1 0.076295 0.806359 0.278574
O O2 0.299557 0.000000 0.143161
O O3 0.500000 0.789943 0.000000
O O4 0.314657 0.863562 0.928225
O O5 0.136523 0.366395 0.666482
O O6 0.316771 0.210242 0.398176
O O7 0.000000 0.345394 0.500000
O O8 0.703107 0.500000 0.258184
O O9 0.659721 0.757430 0.299283
O O10 0.000000 0.646595 0.000000
O O11 0.505394 0.000000 0.353388
#
# Coordination Sequence:
#
# PCOD9151092 Si02
#       4
#     4   4   4   4
#     4  10  20  37  62  98 145 180 212 272 341 399
#     4  12  24  40  69 103 138 174 226 277 339 400
#     4  11  26  49  71  95 135 185 230 277 338 404
#     4  11  24  42  70 105 137 176 226 278 337 403
#
# _framework density 22.089037000000001
#
# number of rings (size 3 to 8) (size 9 to 14) (size 15 to 20)
#    0.000    1.000    5.000    1.500    0.000    7.000 
#    0.000    0.000    0.000    4.500    0.000    0.000 
#    0.000    0.000    0.000    0.000    0.000    0.000 
#
# Total GULP energy -89197.123887 kJ/mol
# GULP energy per Si atom -5574.820243 kJ/mol
# Density = 2.203876 g / cm^3
# Si number density = 22.089037 Si / 1000 Ang^3
#
#
#
# Elastic Constant Matrix: (Units=GPa)
#
#
# Indices 1 2 3 4 5 6 
#
# 1 127.5056 50.9834 23.7088 0.0000 10.5889 0.0000
# 2 50.9834 128.8045 19.5334 0.0000 -14.0114 0.0000
# 3 23.7088 19.5334 117.6365 0.0000 1.9189 0.0000
# 4 0.0000 0.0000 0.0000 -44.6537 0.0000 25.1706
# 5 10.5889 -14.0114 1.9189 0.0000 43.4043 0.0000
# 6 0.0000 0.0000 0.0000 25.1706 0.0000 22.6870
#
#
#
# Elastic Compliance Matrix: (Units=1/GPa)
#
#
# Indices 1 2 3 4 5 6 
#
# 1 0.010072 -0.004203 -0.001271 0.000000 -0.003758 0.000000
# 2 -0.004203 0.010030 -0.000889 0.000000 0.004302 0.000000
# 3 -0.001271 -0.000889 0.008910 0.000000 -0.000371 0.000000
# 4 0.000000 0.000000 0.000000 -0.013778 0.000000 0.015286
# 5 -0.003758 0.004302 -0.000371 0.000000 0.025361 0.000000
# 6 0.000000 0.000000 0.000000 0.015286 0.000000 0.027118
#
#
# Mechanical properties :
#
#
# Convention : Reuss Voigt Hill
#
# Bulk Modulus (GPa) = 61.39450 62.48863 61.94156
# Shear Modulus (GPa) = 58.22977 22.93557 40.58267
#
# Velocity S-wave (km/s) = 5.13990 3.22580 4.29094
# Velocity P-wave (km/s) = 7.94225 6.49809 7.25619
#
# Compressibility (1/GPa) = 0.01628810
#
# Stress axis : x y z
#
# Youngs Moduli (GPa) = 99.28983 99.70163 112.22746
#
# Poissons Ratio (x) = 0.41900 0.14261
# Poissons Ratio (y) = 0.41727 0.09973
# Poissons Ratio (z) = 0.12617 0.08860
#
# Static dielectric constant tensor:
#      x y z
#    x 1.909860 0.000000 0.027930 
#    y 0.000000 1.807270 0.000000 
#    z 0.027930 0.000000 1.801880 
# 
# From -- ./inp_files/23773.got.cif
#   From: 2010.05.17/outbox.cif.g08.bks.cpg/sg10_12_cif.got.tgz:23773.got - 2010.06.03 11:33:40.
