data_PCOD9151141
_publ_section_title
;
Structure prediction by ZEFSAII (Michael W. Deem and Ramdas Pophale) SiO2 
 PCOD9151141
Probable space group: P 2/M
;
_chemical_formula_sum "Si O2"
_cell_formula_units_Z 28
_cell_length_a 17.894660
_cell_length_b 8.232449
_cell_length_c 16.042717
_cell_angle_alpha 90.000000
_cell_angle_beta 143.785459
_cell_angle_gamma 90.000000
_cell_volume 1396.299517
_symmetry_space_group_name_H-M "P 2/M"
_symmetry_group_IT_number 10
_symmetry_cell_setting 'monoclinic'
loop_
_space_group_symop_operation_xyz
x,y,z
-x,y,-z
-x,-y,-z
x,-y,z
loop_
_atom_site_type_symbol
_atom_site_label
_atom_site_fract_x
_atom_site_fract_y
_atom_site_fract_z
Si Si1 0.696994 0.187999 0.682282
Si Si2 0.507337 0.692050 0.631392
Si Si3 0.940883 0.192616 0.678236
Si Si4 0.366659 0.302824 0.839626
Si Si5 0.956563 0.314860 0.873883
Si Si6 0.658423 0.194383 0.373384
Si Si7 0.905311 0.695187 0.341757
O O1 0.588825 0.213514 0.515977
O O2 0.642489 0.240257 0.723007
O O3 0.806617 0.305091 0.750348
O O4 0.736595 0.000000 0.717448
O O5 0.503819 0.500000 0.611423
O O6 0.455341 0.727485 0.676155
O O7 0.984761 0.235081 0.810878
O O8 0.796324 0.252063 0.531309
O O9 0.033973 0.259955 0.691737
O O10 0.936523 0.000000 0.665467
O O11 0.367151 0.500000 0.838431
O O12 0.353424 0.240226 0.733633
O O13 0.238989 0.249210 0.773116
O O14 0.500000 0.250188 0.000000
O O15 0.003349 0.500000 0.913650
O O16 0.000000 0.235568 0.000000
O O17 0.652429 0.000000 0.378535
O O18 0.903364 0.500000 0.346161
O O19 0.000000 0.756291 0.500000
#
# Coordination Sequence:
#
# PCOD9151141 Si02
#       7
#     4   4   4   4   4   4   4
#     4  11  21  36  58  85 119 153 192 245 304 360
#     4  11  21  35  59  87 116 153 198 247 295 353
#     4  11  23  38  62  92 122 158 204 259 313 369
#     4  10  22  41  63  89 122 162 203 253 312 372
#     4  11  24  42  63  87 119 162 210 258 310 372
#     4  11  22  37  60  90 121 156 200 254 309 368
#     4  10  20  37  64  93 122 159 207 256 306 370
#
# _framework density 20.053004999999999
#
# number of rings (size 3 to 8) (size 9 to 14) (size 15 to 20)
#    0.000    1.286    2.857    4.714    0.000    3.429 
#    2.571    0.000    0.000    0.000    0.000    0.000 
#    0.000    0.000    0.000    0.000    0.000    0.000 
#
# Total GULP energy -156311.584904 kJ/mol
# GULP energy per Si atom -5582.556604 kJ/mol
# Density = 2.000736 g / cm^3
# Si number density = 20.053005 Si / 1000 Ang^3
#
#
#
# Elastic Constant Matrix: (Units=GPa)
#
#
# Indices 1 2 3 4 5 6 
#
# 1 152.6702 5.8012 39.0756 0.0000 -15.2471 0.0000
# 2 5.8012 44.5811 6.9742 0.0000 1.8570 0.0000
# 3 39.0756 6.9742 81.9514 0.0000 -15.0052 0.0000
# 4 0.0000 0.0000 0.0000 15.9511 0.0000 11.9282
# 5 -15.2471 1.8570 -15.0052 0.0000 25.1428 0.0000
# 6 0.0000 0.0000 0.0000 11.9282 0.0000 -84.8092
#
#
#
# Elastic Compliance Matrix: (Units=1/GPa)
#
#
# Indices 1 2 3 4 5 6 
#
# 1 0.007644 -0.000633 -0.003069 0.000000 0.002851 0.000000
# 2 -0.000633 0.023015 -0.002288 0.000000 -0.003450 0.000000
# 3 -0.003069 -0.002288 0.015213 0.000000 0.007387 0.000000
# 4 0.000000 0.000000 0.000000 0.056725 0.000000 0.007978
# 5 0.002851 -0.003450 0.007387 0.000000 0.046165 0.000000
# 6 0.000000 0.000000 0.000000 0.007978 0.000000 -0.010669
#
#
# Mechanical properties :
#
#
# Convention : Reuss Voigt Hill
#
# Bulk Modulus (GPa) = 29.50622 42.54496 36.02559
# Shear Modulus (GPa) = 30.98430 6.41372 18.69901
#
# Velocity S-wave (km/s) = 3.93507 1.79034 3.05696
# Velocity P-wave (km/s) = 5.94915 5.05332 5.51944
#
# Compressibility (1/GPa) = 0.03389116
#
# Stress axis : x y z
#
# Youngs Moduli (GPa) = 130.81528 43.44973 65.73322
#
# Poissons Ratio (x) = 0.02752 0.20174
# Poissons Ratio (y) = 0.08285 0.15041
# Poissons Ratio (z) = 0.40148 0.09942
#
# Static dielectric constant tensor:
#      x y z
#    x 1.726990 0.000000 0.030220 
#    y 0.000000 1.685860 0.000000 
#    z 0.030220 0.000000 1.762650 
# 
# From -- ./inp_files/68714.got.cif
#   From: 2010.05.17/outbox.cif.g08.bks.cpg/sg10_35_cif.got.tgz:68714.got - 2010.06.03 11:33:40.
