data_PCOD9151917
_publ_section_title
;
Structure prediction by ZEFSAII (Michael W. Deem and Ramdas Pophale) SiO2 
 PCOD9151917
Probable space group: P 2/M
;
_chemical_formula_sum "Si O2"
_cell_formula_units_Z 32
_cell_length_a 22.636382
_cell_length_b 13.589516
_cell_length_c 9.524281
_cell_angle_alpha 90.000000
_cell_angle_beta 146.756415
_cell_angle_gamma 90.000000
_cell_volume 1606.134506
_symmetry_space_group_name_H-M "P 2/M"
_symmetry_group_IT_number 10
_symmetry_cell_setting 'monoclinic'
loop_
_space_group_symop_operation_xyz
x,y,z
-x,y,-z
-x,-y,-z
x,-y,z
loop_
_atom_site_type_symbol
_atom_site_label
_atom_site_fract_x
_atom_site_fract_y
_atom_site_fract_z
Si Si1 0.892344 0.190767 0.366474
Si Si2 0.251673 0.882999 0.316256
Si Si3 0.780701 0.612957 0.053009
Si Si4 0.333940 0.886804 0.179564
Si Si5 0.594825 0.293492 0.855893
Si Si6 0.370723 0.616028 0.499342
Si Si7 0.992367 0.117204 0.151380
Si Si8 0.375729 0.754244 0.768628
O O1 0.862677 0.302425 0.263965
O O2 0.789162 0.126442 0.118846
O O3 0.000000 0.158154 0.500000
O O4 0.920840 0.176396 0.586040
O O5 0.297731 0.834931 0.547658
O O6 0.249509 0.000000 0.326938
O O7 0.326409 0.860551 0.330026
O O8 0.128623 0.852102 0.045043
O O9 0.817567 0.500000 0.137014
O O10 0.674553 0.630793 0.937615
O O11 0.735458 0.632466 0.806085
O O12 0.399005 0.808279 0.217926
O O13 0.367751 0.000000 0.230819
O O14 0.639728 0.272442 0.100953
O O15 0.475088 0.335170 0.634197
O O16 0.388933 0.500000 0.542540
O O17 0.362238 0.662012 0.636782
O O18 0.005947 0.000000 0.206262
O O19 0.000000 0.131624 0.000000
O O20 0.500000 0.788006 0.000000
#
# Coordination Sequence:
#
# PCOD9151917 Si02
#       8
#     4   4   4   4   4   4   4   4
#     4  11  21  36  60  85 113 152 192 246 288 339
#     4  10  21  38  58  81 117 159 195 235 283 344
#     4  10  22  38  59  87 116 150 192 241 295 350
#     4  10  21  37  59  87 119 155 197 238 288 348
#     4  10  21  35  60  90 117 153 191 245 290 344
#     4  10  21  40  64  86 113 151 196 241 291 351
#     4  10  22  37  59  87 114 151 198 239 283 340
#     4  10  22  37  57  86 117 150 191 237 292 345
#
# _framework density 19.923611999999999
#
# number of rings (size 3 to 8) (size 9 to 14) (size 15 to 20)
#    0.000    1.875    1.250    2.625    3.500    6.250 
#    0.000    1.875    0.000   16.125    0.000    0.000 
#    0.000    0.000    0.000    0.000    0.000    0.000 
#
# Total GULP energy -178840.307233 kJ/mol
# GULP energy per Si atom -5588.759601 kJ/mol
# Density = 1.987827 g / cm^3
# Si number density = 19.923612 Si / 1000 Ang^3
#
#
#
# Elastic Constant Matrix: (Units=GPa)
#
#
# Indices 1 2 3 4 5 6 
#
# 1 64.9891 20.1114 22.3388 0.0000 -13.4984 0.0000
# 2 20.1114 77.5222 15.3750 0.0000 1.9090 0.0000
# 3 22.3388 15.3750 109.2672 0.0000 -14.5878 0.0000
# 4 0.0000 0.0000 0.0000 23.6375 0.0000 4.4960
# 5 -13.4984 1.9090 -14.5878 0.0000 23.8582 0.0000
# 6 0.0000 0.0000 0.0000 4.4960 0.0000 7.0486
#
#
#
# Elastic Compliance Matrix: (Units=1/GPa)
#
#
# Indices 1 2 3 4 5 6 
#
# 1 0.019761 -0.004996 -0.001950 0.000000 0.010388 0.000000
# 2 -0.004996 0.014660 -0.001715 0.000000 -0.005048 0.000000
# 3 -0.001950 -0.001715 0.010522 0.000000 0.005467 0.000000
# 4 0.000000 0.000000 0.000000 0.048147 0.000000 -0.030712
# 5 0.010388 -0.005048 0.005467 0.000000 0.051538 0.000000
# 6 0.000000 0.000000 0.000000 -0.030712 0.000000 0.161463
#
#
# Mechanical properties :
#
#
# Convention : Reuss Voigt Hill
#
# Bulk Modulus (GPa) = 36.20517 40.82544 38.51531
# Shear Modulus (GPa) = 15.03213 23.83906 19.43559
#
# Velocity S-wave (km/s) = 2.74977 3.46283 3.12670
# Velocity P-wave (km/s) = 5.31913 6.04349 5.69284
#
# Compressibility (1/GPa) = 0.02762037
#
# Stress axis : x y z
#
# Youngs Moduli (GPa) = 50.60477 68.21251 95.03981
#
# Poissons Ratio (x) = 0.34076 0.18535
# Poissons Ratio (y) = 0.25280 0.16304
# Poissons Ratio (z) = 0.09869 0.11702
#
# Static dielectric constant tensor:
#      x y z
#    x 1.725830 0.000000 0.003310 
#    y 0.000000 1.686290 0.000000 
#    z 0.003310 0.000000 1.708420 
# 
# From -- ./inp_files/36375.got.cif
#   From: 2010.05.17/outbox.cif.g08.bks.cpg/sg10_19_cif.got.tgz:36375.got - 2010.06.03 11:33:40.
