data_PCOD9151652
_publ_section_title
;
Structure prediction by ZEFSAII (Michael W. Deem and Ramdas Pophale) SiO2 
 PCOD9151652
Probable space group: P 2/M
;
_chemical_formula_sum "Si O2"
_cell_formula_units_Z 28
_cell_length_a 16.911766
_cell_length_b 7.479767
_cell_length_c 14.420464
_cell_angle_alpha 90.000000
_cell_angle_beta 138.740849
_cell_angle_gamma 90.000000
_cell_volume 1202.952835
_symmetry_space_group_name_H-M "P 2/M"
_symmetry_group_IT_number 10
_symmetry_cell_setting 'monoclinic'
loop_
_space_group_symop_operation_xyz
x,y,z
-x,y,-z
-x,-y,-z
x,-y,z
loop_
_atom_site_type_symbol
_atom_site_label
_atom_site_fract_x
_atom_site_fract_y
_atom_site_fract_z
Si Si1 0.080560 0.787476 0.359819
Si Si2 0.981406 0.714332 0.087164
Si Si3 0.720921 0.719319 0.847305
Si Si4 0.717663 0.214985 0.323046
Si Si5 0.531216 0.286622 0.299744
Si Si6 0.635799 0.704391 0.577825
Si Si7 0.108337 0.792331 0.672006
O O1 0.079538 0.760642 0.249873
O O2 0.957151 0.712921 0.296066
O O3 0.191819 0.716739 0.516760
O O4 0.079463 0.000000 0.374983
O O5 0.980395 0.500000 0.081750
O O6 0.848495 0.775456 0.999502
O O7 0.000000 0.781936 0.000000
O O8 0.718644 0.500000 0.842636
O O9 0.603749 0.777844 0.800539
O O10 0.708992 0.780377 0.729265
O O11 0.587195 0.254161 0.248538
O O12 0.774637 0.283080 0.276792
O O13 0.726297 0.000000 0.326066
O O14 0.528794 0.500000 0.311669
O O15 0.615768 0.213534 0.458300
O O16 0.500000 0.697247 0.500000
O O17 0.679005 0.500000 0.603537
O O18 0.000000 0.789232 0.500000
O O19 0.135441 0.000000 0.716373
#
# Coordination Sequence:
#
# PCOD9151652 Si02
#       7
#     4   4   4   4   4   4   4
#     4   9  18  33  51  69  93 125 157 189 231 280
#     4  10  21  33  48  70  95 125 161 197 227 265
#     4   8  15  29  44  62  91 125 158 189 226 272
#     4   9  17  29  48  74  99 118 145 191 241 284
#     4   9  16  26  46  70  91 119 154 191 231 277
#     4   7  11  21  39  60  80 110 150 184 214 257
#     4   7  12  27  49  68  88 120 154 183 228 287
#
# _framework density 23.276056000000001
#
# number of rings (size 3 to 8) (size 9 to 14) (size 15 to 20)
#    0.000    3.571    0.000    3.429    2.000    0.857 
#    0.000    1.429    0.000    7.286    0.000    6.000 
#    0.000    0.000    0.000    0.000    0.000    0.000 
#
# Total GULP energy -156025.352297 kJ/mol
# GULP energy per Si atom -5572.334011 kJ/mol
# Density = 2.322308 g / cm^3
# Si number density = 23.276056 Si / 1000 Ang^3
#
#
#
# Elastic Constant Matrix: (Units=GPa)
#
#
# Indices 1 2 3 4 5 6 
#
# 1 120.8995 -0.5039 -10.4922 0.0000 7.3315 0.0000
# 2 -0.5039 65.7970 -2.3984 0.0000 2.2953 0.0000
# 3 -10.4922 -2.3984 29.5291 0.0000 5.7194 0.0000
# 4 0.0000 0.0000 0.0000 5.5240 0.0000 -2.2922
# 5 7.3315 2.2953 5.7194 0.0000 25.7217 0.0000
# 6 0.0000 0.0000 0.0000 -2.2922 0.0000 18.3011
#
#
#
# Elastic Compliance Matrix: (Units=1/GPa)
#
#
# Indices 1 2 3 4 5 6 
#
# 1 0.008809 0.000325 0.003812 0.000000 -0.003388 0.000000
# 2 0.000325 0.015328 0.001717 0.000000 -0.001842 0.000000
# 3 0.003812 0.001717 0.037201 0.000000 -0.009512 0.000000
# 4 0.000000 0.000000 0.000000 0.190954 0.000000 0.023917
# 5 -0.003388 -0.001842 -0.009512 0.000000 0.042123 0.000000
# 6 0.000000 0.000000 0.000000 0.023917 0.000000 0.057637
#
#
# Mechanical properties :
#
#
# Convention : Reuss Voigt Hill
#
# Bulk Modulus (GPa) = 13.68998 21.04850 17.36924
# Shear Modulus (GPa) = 13.71020 25.21737 19.46378
#
# Velocity S-wave (km/s) = 2.42962 3.29508 2.89488
# Velocity P-wave (km/s) = 3.71013 4.85174 4.31882
#
# Compressibility (1/GPa) = 0.07304615
#
# Stress axis : x y z
#
# Youngs Moduli (GPa) = 113.52064 65.24184 26.88078
#
# Poissons Ratio (x) = -0.02118 -0.10248
# Poissons Ratio (y) = -0.03685 -0.04616
# Poissons Ratio (z) = -0.43279 -0.11202
#
# Static dielectric constant tensor:
#      x y z
#    x 1.957280 0.000000 0.007270 
#    y 0.000000 1.903800 0.000000 
#    z 0.007270 0.000000 1.868310 
# 
# From -- ./inp_files/64129.got.cif
#   From: 2010.05.17/outbox.cif.g08.bks.cpg/sg10_33_cif.got.tgz:64129.got - 2010.06.03 11:33:40.
