data_PCOD9151119
_publ_section_title
;
Structure prediction by ZEFSAII (Michael W. Deem and Ramdas Pophale) SiO2 
 PCOD9151119
Probable space group: P 2/M
;
_chemical_formula_sum "Si O2"
_cell_formula_units_Z 28
_cell_length_a 28.438219
_cell_length_b 7.743862
_cell_length_c 9.449039
_cell_angle_alpha 90.000000
_cell_angle_beta 137.551859
_cell_angle_gamma 90.000000
_cell_volume 1404.434924
_symmetry_space_group_name_H-M "P 2/M"
_symmetry_group_IT_number 10
_symmetry_cell_setting 'monoclinic'
loop_
_space_group_symop_operation_xyz
x,y,z
-x,y,-z
-x,-y,-z
x,-y,z
loop_
_atom_site_type_symbol
_atom_site_label
_atom_site_fract_x
_atom_site_fract_y
_atom_site_fract_z
Si Si1 0.436527 0.500000 0.466098
Si Si2 0.067739 0.209236 0.563294
Si Si3 0.205110 0.791860 0.365904
Si Si4 0.343770 0.794391 0.844279
Si Si5 0.458043 0.500000 0.049819
Si Si6 0.662056 0.809560 0.836959
Si Si7 0.069326 0.788748 0.239016
Si Si8 0.792983 0.699100 0.959803
O O1 0.500000 0.500000 0.500000
O O2 0.477648 0.500000 0.701137
O O3 0.389341 0.666264 0.335962
O O4 0.068110 0.267083 0.400357
O O5 0.000000 0.267351 0.500000
O O6 0.067051 0.000000 0.559457
O O7 0.135473 0.265979 0.799586
O O8 0.278023 0.742023 0.601125
O O9 0.138714 0.731190 0.310086
O O10 0.200678 0.737699 0.192681
O O11 0.203155 0.000000 0.364386
O O12 0.358511 0.000000 0.853378
O O13 0.408458 0.667674 0.959386
O O14 0.323458 0.775643 0.964826
O O15 0.500000 0.500000 0.000000
O O16 0.732277 0.804212 0.901974
O O17 0.630169 0.000000 0.756552
O O18 0.069842 0.000000 0.241034
O O19 0.000000 0.735724 0.000000
O O20 0.773629 0.500000 0.933716
#
# Coordination Sequence:
#
# PCOD9151119 Si02
#       8
#     2   4   4   4   2   4   4   4
#     4  12  24  46  68 102 131 164 215 258 318 392
#     4  10  20  37  63  92 124 165 215 268 323 380
#     4  10  21  38  60  89 124 163 214 262 313 383
#     4  10  23  43  67  95 126 169 214 258 317 383
#     4  12  28  44  68  94 137 168 203 264 316 384
#     4  11  23  43  70  96 129 169 214 265 321 380
#     4   9  17  33  60  91 122 159 207 264 319 375
#     4  12  25  39  60  92 128 168 217 267 318 379
#
# _framework density 19.936845999999999
#
# number of rings (size 3 to 8) (size 9 to 14) (size 15 to 20)
#    0.000    1.429    2.143    3.000    3.000    6.000 
#    0.000    0.714    0.000    1.714    0.000    0.000 
#    0.000    0.000    0.000    0.000    0.000    0.000 
#
# Total GULP energy -156466.719260 kJ/mol
# GULP energy per Si atom -5588.097116 kJ/mol
# Density = 1.989147 g / cm^3
# Si number density = 19.936846 Si / 1000 Ang^3
#
#
#
# Elastic Constant Matrix: (Units=GPa)
#
#
# Indices 1 2 3 4 5 6 
#
# 1 156.7679 39.0384 78.5890 0.0000 -21.5439 0.0000
# 2 39.0384 73.9320 52.3531 0.0000 0.9730 0.0000
# 3 78.5890 52.3531 191.9329 0.0000 -18.7171 0.0000
# 4 0.0000 0.0000 0.0000 22.1096 0.0000 2.7818
# 5 -21.5439 0.9730 -18.7171 0.0000 38.7158 0.0000
# 6 0.0000 0.0000 0.0000 2.7818 0.0000 18.6232
#
#
#
# Elastic Compliance Matrix: (Units=1/GPa)
#
#
# Indices 1 2 3 4 5 6 
#
# 1 0.008879 -0.003011 -0.002440 0.000000 0.003837 0.000000
# 2 -0.003011 0.018071 -0.004097 0.000000 -0.004111 0.000000
# 3 -0.002440 -0.004097 0.007561 0.000000 0.002400 0.000000
# 4 0.000000 0.000000 0.000000 0.046096 0.000000 -0.006885
# 5 0.003837 -0.004111 0.002400 0.000000 0.029228 0.000000
# 6 0.000000 0.000000 0.000000 -0.006885 0.000000 0.054725
#
#
# Mechanical properties :
#
#
# Convention : Reuss Voigt Hill
#
# Bulk Modulus (GPa) = 64.87350 84.73263 74.80306
# Shear Modulus (GPa) = 26.48369 32.73321 29.60845
#
# Velocity S-wave (km/s) = 3.64865 4.05636 3.85790
# Velocity P-wave (km/s) = 7.09650 8.03315 7.57931
#
# Compressibility (1/GPa) = 0.01541461
#
# Stress axis : x y z
#
# Youngs Moduli (GPa) = 112.62198 55.33635 132.25746
#
# Poissons Ratio (x) = 0.16662 0.32274
# Poissons Ratio (y) = 0.33911 0.54189
# Poissons Ratio (z) = 0.27482 0.22673
#
# Static dielectric constant tensor:
#      x y z
#    x 1.652450 0.000000 -0.006370 
#    y 0.000000 1.712040 0.000000 
#    z -0.006370 0.000000 1.645820 
# 
# From -- ./inp_files/37367.got.cif
#   From: 2010.05.17/outbox.cif.g08.bks.cpg/sg10_19_cif.got.tgz:37367.got - 2010.06.03 11:33:40.
