data_PCOD9151974
_publ_section_title
;
Structure prediction by ZEFSAII (Michael W. Deem and Ramdas Pophale) SiO2 
 PCOD9151974
Probable space group: P 2/M
;
_chemical_formula_sum "Si O2"
_cell_formula_units_Z 32
_cell_length_a 16.589280
_cell_length_b 9.106423
_cell_length_c 10.850659
_cell_angle_alpha 90.000000
_cell_angle_beta 95.371694
_cell_angle_gamma 90.000000
_cell_volume 1631.999406
_symmetry_space_group_name_H-M "P 2/M"
_symmetry_group_IT_number 10
_symmetry_cell_setting 'monoclinic'
loop_
_space_group_symop_operation_xyz
x,y,z
-x,y,-z
-x,-y,-z
x,-y,z
loop_
_atom_site_type_symbol
_atom_site_label
_atom_site_fract_x
_atom_site_fract_y
_atom_site_fract_z
Si Si1 0.769630 0.178114 0.360201
Si Si2 0.955155 0.178895 0.868668
Si Si3 0.625441 0.330532 0.958004
Si Si4 0.669855 0.828263 0.583414
Si Si5 0.232078 0.828596 0.146338
Si Si6 0.473922 0.670291 0.312551
Si Si7 0.612989 0.174378 0.202088
Si Si8 0.045529 0.179559 0.632185
O O1 0.725408 0.226176 0.479442
O O2 0.706203 0.214328 0.243980
O O3 0.861155 0.229962 0.356761
O O4 0.774153 0.000000 0.367299
O O5 0.860753 0.219520 0.858027
O O6 0.999443 0.227508 0.749625
O O7 0.957217 0.000000 0.867520
O O8 0.000000 0.226833 0.000000
O O9 0.627749 0.500000 0.995436
O O10 0.713475 0.268161 0.935698
O O11 0.573152 0.319428 0.825827
O O12 0.591423 0.237862 0.066153
O O13 0.725160 0.821653 0.714067
O O14 0.587979 0.739808 0.598687
O O15 0.649533 0.000000 0.558813
O O16 0.234483 0.000000 0.106569
O O17 0.489491 0.500000 0.341003
O O18 0.555838 0.758347 0.299067
O O19 0.604480 0.000000 0.202356
O O20 0.000000 0.223562 0.500000
O O21 0.045632 0.000000 0.633519
#
# Coordination Sequence:
#
# PCOD9151974 Si02
#       8
#     4   4   4   4   4   4   4   4
#     4   9  19  32  49  76 109 140 171 215 266 313
#     4   9  17  26  43  75 110 137 167 217 271 313
#     4  10  21  36  54  75 103 140 178 218 264 316
#     4   9  17  33  54  76 103 135 176 218 258 311
#     4   9  17  30  52  79 104 135 174 216 262 315
#     4  10  21  37  55  76 103 137 177 219 265 316
#     4  11  22  34  52  78 108 140 174 216 266 316
#     4   9  16  28  47  72 106 145 178 211 262 324
#
# _framework density 19.607849999999999
#
# number of rings (size 3 to 8) (size 9 to 14) (size 15 to 20)
#    0.000    2.500    0.000    2.250    1.750    6.500 
#    0.000    3.750    0.000    0.375    0.000    0.000 
#    0.000    7.000    0.000    0.000    0.000    0.000 
#
# Total GULP energy -178629.016740 kJ/mol
# GULP energy per Si atom -5582.156773 kJ/mol
# Density = 1.956322 g / cm^3
# Si number density = 19.607850 Si / 1000 Ang^3
#
#
#
# Elastic Constant Matrix: (Units=GPa)
#
#
# Indices 1 2 3 4 5 6 
#
# 1 141.1995 35.3487 38.3766 0.0000 -11.3978 0.0000
# 2 35.3487 45.5784 22.5005 0.0000 0.2034 0.0000
# 3 38.3766 22.5005 90.0817 0.0000 -12.0023 0.0000
# 4 0.0000 0.0000 0.0000 5.0277 0.0000 4.6422
# 5 -11.3978 0.2034 -12.0023 0.0000 24.4458 0.0000
# 6 0.0000 0.0000 0.0000 4.6422 0.0000 -8.9179
#
#
#
# Elastic Compliance Matrix: (Units=1/GPa)
#
#
# Indices 1 2 3 4 5 6 
#
# 1 0.009510 -0.006413 -0.001981 0.000000 0.003515 0.000000
# 2 -0.006413 0.029635 -0.005458 0.000000 -0.005917 0.000000
# 3 -0.001981 -0.005458 0.014115 0.000000 0.006052 0.000000
# 4 0.000000 0.000000 0.000000 0.134332 0.000000 0.069927
# 5 0.003515 -0.005917 0.006052 0.000000 0.045566 0.000000
# 6 0.000000 0.000000 0.000000 0.069927 0.000000 -0.075734
#
#
# Mechanical properties :
#
#
# Convention : Reuss Voigt Hill
#
# Bulk Modulus (GPa) = 39.13256 52.14569 45.63913
# Shear Modulus (GPa) = 25.82023 16.15339 20.98681
#
# Velocity S-wave (km/s) = 3.63275 2.87334 3.27513
# Velocity P-wave (km/s) = 6.13162 6.13679 6.13421
#
# Compressibility (1/GPa) = 0.02555417
#
# Stress axis : x y z
#
# Youngs Moduli (GPa) = 105.15414 33.74394 70.84761
#
# Poissons Ratio (x) = 0.21640 0.14037
# Poissons Ratio (y) = 0.67436 0.38671
# Poissons Ratio (z) = 0.20834 0.18419
#
# Static dielectric constant tensor:
#      x y z
#    x 1.683370 0.000000 0.015870 
#    y 0.000000 1.650180 0.000000 
#    z 0.015870 0.000000 1.699570 
# 
# From -- ./inp_files/49893.got.cif
#   From: 2010.05.17/outbox.cif.g08.bks.cpg/sg10_25_cif.got.tgz:49893.got - 2010.06.03 11:33:40.
