data_PCOD9151199
_publ_section_title
;
Structure prediction by ZEFSAII (Michael W. Deem and Ramdas Pophale) SiO2 
 PCOD9151199
Probable space group: P 2/M
;
_chemical_formula_sum "Si O2"
_cell_formula_units_Z 14
_cell_length_a 9.454595
_cell_length_b 17.320281
_cell_length_c 7.904930
_cell_angle_alpha 90.000000
_cell_angle_beta 147.816897
_cell_angle_gamma 90.000000
_cell_volume 689.475484
_symmetry_space_group_name_H-M "P 2/M"
_symmetry_group_IT_number 10
_symmetry_cell_setting 'monoclinic'
loop_
_space_group_symop_operation_xyz
x,y,z
-x,y,-z
-x,-y,-z
x,-y,z
loop_
_atom_site_type_symbol
_atom_site_label
_atom_site_fract_x
_atom_site_fract_y
_atom_site_fract_z
Si Si1 0.745025 0.500000 0.619868
Si Si2 0.255222 0.084702 0.879269
Si Si3 0.120396 0.247668 0.810588
Si Si4 0.377263 0.667055 0.564153
O O1 0.500000 0.500000 0.500000
O O2 0.719750 0.580052 0.493768
O O3 0.000000 0.500000 0.000000
O O4 0.212803 0.160606 0.948426
O O5 0.000000 0.079795 0.500000
O O6 0.290736 0.000000 0.997368
O O7 0.500000 0.098354 0.000000
O O8 0.000000 0.246562 0.500000
O O9 0.881217 0.279470 0.682116
O O10 0.379176 0.301601 0.078641
O O11 0.500000 0.667895 0.500000
#
# Coordination Sequence:
#
# PCOD9151199 Si02
#       4
#     2   4   4   4
#     4  10  20  38  59  80 105 146 197 228 257 330
#     4   9  17  31  53  80 109 145 186 223 263 323
#     4  11  21  36  57  86 116 142 181 236 285 323
#     4  11  22  38  59  81 109 149 190 228 275 334
#
# _framework density 20.305289999999999
#
# number of rings (size 3 to 8) (size 9 to 14) (size 15 to 20)
#    0.000    1.714    0.000    8.571    0.000    0.000 
#    0.000    4.286    0.000    5.143    0.000    0.000 
#    0.000    0.000    0.000    0.000    0.000    0.000 
#
# Total GULP energy -78100.158463 kJ/mol
# GULP energy per Si atom -5578.582747 kJ/mol
# Density = 2.025907 g / cm^3
# Si number density = 20.305290 Si / 1000 Ang^3
#
#
#
# Elastic Constant Matrix: (Units=GPa)
#
#
# Indices 1 2 3 4 5 6 
#
# 1 48.3083 44.1755 15.4035 0.0000 24.2133 0.0000
# 2 44.1755 216.4274 60.5888 0.0000 18.9717 0.0000
# 3 15.4035 60.5888 135.2827 0.0000 30.2335 0.0000
# 4 0.0000 0.0000 0.0000 50.5093 0.0000 0.8177
# 5 24.2133 18.9717 30.2335 0.0000 42.5651 0.0000
# 6 0.0000 0.0000 0.0000 0.8177 0.0000 32.7022
#
#
#
# Elastic Compliance Matrix: (Units=1/GPa)
#
#
# Indices 1 2 3 4 5 6 
#
# 1 0.035302 -0.006392 0.003203 0.000000 -0.019508 0.000000
# 2 -0.006392 0.006463 -0.002776 0.000000 0.002728 0.000000
# 3 0.003203 -0.002776 0.009987 0.000000 -0.007678 0.000000
# 4 0.000000 0.000000 0.000000 0.019806 0.000000 -0.000495
# 5 -0.019508 0.002728 -0.007678 0.000000 0.038828 0.000000
# 6 0.000000 0.000000 0.000000 -0.000495 0.000000 0.030591
#
#
# Mechanical properties :
#
#
# Convention : Reuss Voigt Hill
#
# Bulk Modulus (GPa) = 25.11248 71.15044 48.13146
# Shear Modulus (GPa) = 30.08719 43.81201 36.94960
#
# Velocity S-wave (km/s) = 3.85352 4.65011 4.27043
# Velocity P-wave (km/s) = 5.67395 7.99673 6.93331
#
# Compressibility (1/GPa) = 0.03982084
#
# Stress axis : x y z
#
# Youngs Moduli (GPa) = 28.32673 154.71686 100.13391
#
# Poissons Ratio (x) = 0.98900 -0.32073
# Poissons Ratio (y) = 0.18107 0.27802
# Poissons Ratio (z) = -0.09073 0.42957
#
# Static dielectric constant tensor:
#      x y z
#    x 1.718430 0.000000 -0.021110 
#    y 0.000000 1.826210 0.000000 
#    z -0.021110 0.000000 1.699780 
# 
# From -- ./inp_files/6515.got.cif
#   From: 2010.05.17/outbox.cif.g08.bks.cpg/sg10_4_cif.got.tgz:6515.got - 2010.06.03 11:33:40.
