data_PCOD9151953
_publ_section_title
;
Structure prediction by ZEFSAII (Michael W. Deem and Ramdas Pophale) SiO2 
 PCOD9151953
Probable space group: P 2/M
;
_chemical_formula_sum "Si O2"
_cell_formula_units_Z 32
_cell_length_a 10.857398
_cell_length_b 7.388720
_cell_length_c 19.536490
_cell_angle_alpha 90.000000
_cell_angle_beta 121.234884
_cell_angle_gamma 90.000000
_cell_volume 1340.085044
_symmetry_space_group_name_H-M "P 2/M"
_symmetry_group_IT_number 10
_symmetry_cell_setting 'monoclinic'
loop_
_space_group_symop_operation_xyz
x,y,z
-x,y,-z
-x,-y,-z
x,-y,z
loop_
_atom_site_type_symbol
_atom_site_label
_atom_site_fract_x
_atom_site_fract_y
_atom_site_fract_z
Si Si1 0.086814 0.781048 0.591041
Si Si2 0.848869 0.718255 0.186897
Si Si3 0.837809 0.279125 0.931737
Si Si4 0.649654 0.719332 0.006291
Si Si5 0.574803 0.298467 0.588890
Si Si6 0.631674 0.277731 0.757566
Si Si7 0.889008 0.792184 0.658302
Si Si8 0.350257 0.292993 0.747638
O O1 0.246156 0.711599 0.651543
O O2 0.000000 0.721867 0.500000
O O3 0.991842 0.723158 0.628149
O O4 0.903960 0.000000 0.407312
O O5 0.853989 0.500000 0.192625
O O6 0.776514 0.766728 0.095400
O O7 0.742508 0.786875 0.216887
O O8 0.010047 0.782957 0.246345
O O9 0.840987 0.500000 0.933723
O O10 0.778629 0.226760 0.839215
O O11 0.714412 0.223846 0.951588
O O12 0.000000 0.221154 0.000000
O O13 0.635863 0.500000 0.998368
O O14 0.500000 0.780670 0.000000
O O15 0.500000 0.213768 0.500000
O O16 0.508785 0.500000 0.577202
O O17 0.587926 0.214254 0.668663
O O18 0.742451 0.311582 0.619426
O O19 0.632456 0.500000 0.753392
O O20 0.501939 0.216889 0.769427
O O21 0.852753 0.000000 0.633016
O O22 0.378840 0.500000 0.776518
#
# Coordination Sequence:
#
# PCOD9151953 Si02
#       8
#     4   4   4   4   4   4   4   4
#     4   9  19  34  51  72  99 130 164 211 262 307
#     4   9  17  30  52  79 107 136 167 211 262 313
#     4   9  17  27  43  71 104 139 172 206 257 315
#     4   9  16  26  45  75 108 136 169 214 263 314
#     4  10  22  37  54  76 103 138 176 217 263 309
#     4   9  18  32  49  72 109 140 167 212 260 309
#     4  10  21  36  53  74 102 135 175 217 258 310
#     4   9  17  30  49  75 102 132 165 204 256 306
#
# _framework density 23.879083999999999
#
# number of rings (size 3 to 8) (size 9 to 14) (size 15 to 20)
#    0.000    2.750    0.000    1.125    3.500    4.000 
#    0.000    0.625    0.000    0.375    0.000    2.625 
#    0.000    0.000    0.000    0.000    0.000    0.000 
#
# Total GULP energy -178501.548178 kJ/mol
# GULP energy per Si atom -5578.173381 kJ/mol
# Density = 2.382473 g / cm^3
# Si number density = 23.879084 Si / 1000 Ang^3
#
#
#
# Elastic Constant Matrix: (Units=GPa)
#
#
# Indices 1 2 3 4 5 6 
#
# 1 96.5200 1.2801 62.2711 0.0000 10.9514 0.0000
# 2 1.2801 80.0775 0.8721 0.0000 -0.7772 0.0000
# 3 62.2711 0.8721 191.8476 0.0000 -6.0075 0.0000
# 4 0.0000 0.0000 0.0000 -1.8157 0.0000 3.3102
# 5 10.9514 -0.7772 -6.0075 0.0000 31.5963 0.0000
# 6 0.0000 0.0000 0.0000 3.3102 0.0000 -1.6163
#
#
#
# Elastic Compliance Matrix: (Units=1/GPa)
#
#
# Indices 1 2 3 4 5 6 
#
# 1 0.014087 -0.000230 -0.004753 0.000000 -0.005792 0.000000
# 2 -0.000230 0.012495 0.000030 0.000000 0.000393 0.000000
# 3 -0.004753 0.000030 0.006847 0.000000 0.002950 0.000000
# 4 0.000000 0.000000 0.000000 0.201465 0.000000 0.412601
# 5 -0.005792 0.000393 0.002950 0.000000 0.034227 0.000000
# 6 0.000000 0.000000 0.000000 0.412601 0.000000 0.226314
#
#
# Mechanical properties :
#
#
# Convention : Reuss Voigt Hill
#
# Bulk Modulus (GPa) = 42.50848 55.25466 48.88157
# Shear Modulus (GPa) = 9.74313 25.90098 17.82205
#
# Velocity S-wave (km/s) = 2.02214 3.29701 2.73490
# Velocity P-wave (km/s) = 4.82621 6.13867 5.52157
#
# Compressibility (1/GPa) = 0.02352472
#
# Stress axis : x y z
#
# Youngs Moduli (GPa) = 70.98688 80.03165 146.04066
#
# Poissons Ratio (x) = 0.01838 0.69410
# Poissons Ratio (y) = 0.01630 -0.00439
# Poissons Ratio (z) = 0.33739 -0.00240
#
# Static dielectric constant tensor:
#      x y z
#    x 1.906480 0.000000 -0.044120 
#    y 0.000000 1.938120 0.000000 
#    z -0.044120 0.000000 1.944700 
# 
# From -- ./inp_files/83609.got.cif
#   From: 2010.05.17/outbox.cif.g08.bks.cpg/sg10_42_cif.got.tgz:83609.got - 2010.06.03 11:33:40.
