data_PCOD9151925
_publ_section_title
;
Structure prediction by ZEFSAII (Michael W. Deem and Ramdas Pophale) SiO2 
 PCOD9151925
Probable space group: P 2/M
;
_chemical_formula_sum "Si O2"
_cell_formula_units_Z 24
_cell_length_a 23.278612
_cell_length_b 9.904002
_cell_length_c 16.874120
_cell_angle_alpha 90.000000
_cell_angle_beta 16.058260
_cell_angle_gamma 90.000000
_cell_volume 1076.128453
_symmetry_space_group_name_H-M "P 2/M"
_symmetry_group_IT_number 10
_symmetry_cell_setting 'monoclinic'
loop_
_space_group_symop_operation_xyz
x,y,z
-x,y,-z
-x,-y,-z
x,-y,z
loop_
_atom_site_type_symbol
_atom_site_label
_atom_site_fract_x
_atom_site_fract_y
_atom_site_fract_z
Si Si1 0.631675 0.356432 0.433154
Si Si2 0.527749 0.839789 0.054859
Si Si3 0.105635 0.151274 0.012890
Si Si4 0.138282 0.346437 0.111410
Si Si5 0.219431 0.149326 0.137272
Si Si6 0.678224 0.774377 0.525882
O O1 0.703687 0.500000 0.303252
O O2 0.724270 0.231637 0.263051
O O3 0.383636 0.355380 0.764711
O O4 0.702205 0.343217 0.430866
O O5 0.385020 0.745961 0.299401
O O6 0.466241 0.000000 0.144405
O O7 0.500000 0.806724 0.000000
O O8 0.747654 0.832055 0.811181
O O9 0.057453 0.241359 0.153733
O O10 0.169630 0.000000 0.949091
O O11 0.893394 0.148320 0.243948
O O12 0.056886 0.500000 0.218619
O O13 0.123136 0.272187 0.216430
O O14 0.134495 0.000000 0.233038
O O15 0.464852 0.149649 0.784085
#
# Coordination Sequence:
#
# PCOD9151925 Si02
#       6
#     4   4   4   4   4   4
#     4  10  22  38  53  71 100 140 180 212 248 298
#     4   8  14  28  54  83 105 126 158 206 259 305
#     4  12  23  32  49  77 107 137 171 211 254 299
#     4  10  21  36  51  69 100 139 177 211 248 296
#     4   8  15  31  54  76 100 128 164 205 250 299
#     4   9  19  33  52  78 108 131 163 210 259 303
#
# _framework density 22.30217
#
# number of rings (size 3 to 8) (size 9 to 14) (size 15 to 20)
#    1.000    1.500    0.000    3.000    0.000    9.333 
#    0.000    0.000    0.000    3.000    0.000    5.833 
#    0.000    0.000    0.000    0.000    0.000    0.000 
#
# Total GULP energy -133601.545454 kJ/mol
# GULP energy per Si atom -5566.731061 kJ/mol
# Density = 2.225141 g / cm^3
# Si number density = 22.302170 Si / 1000 Ang^3
#
#
#
# Elastic Constant Matrix: (Units=GPa)
#
#
# Indices 1 2 3 4 5 6 
#
# 1 124.5345 65.7240 2.4350 0.0000 15.8282 0.0000
# 2 65.7240 162.0730 21.2584 0.0000 1.2196 0.0000
# 3 2.4350 21.2584 34.4782 0.0000 4.0971 0.0000
# 4 0.0000 0.0000 0.0000 7.8899 0.0000 9.9646
# 5 15.8282 1.2196 4.0971 0.0000 17.1451 0.0000
# 6 0.0000 0.0000 0.0000 9.9646 0.0000 13.1147
#
#
#
# Elastic Compliance Matrix: (Units=1/GPa)
#
#
# Indices 1 2 3 4 5 6 
#
# 1 0.012331 -0.005421 0.003889 0.000000 -0.011927 0.000000
# 2 -0.005421 0.009101 -0.005914 0.000000 0.005770 0.000000
# 3 0.003889 -0.005914 0.033709 0.000000 -0.011225 0.000000
# 4 0.000000 0.000000 0.000000 3.136900 0.000000 -2.383419
# 5 -0.011927 0.005770 -0.011225 0.000000 0.071609 0.000000
# 6 0.000000 0.000000 0.000000 -2.383419 0.000000 1.887174
#
#
# Mechanical properties :
#
#
# Convention : Reuss Voigt Hill
#
# Bulk Modulus (GPa) = 24.84552 55.54672 40.19612
# Shear Modulus (GPa) = 0.96541 23.07448 12.01995
#
# Velocity S-wave (km/s) = 0.65865 3.22006 2.32407
# Velocity P-wave (km/s) = 3.42681 6.22780 5.02636
#
# Compressibility (1/GPa) = 0.04024871
#
# Stress axis : x y z
#
# Youngs Moduli (GPa) = 81.09922 109.88367 29.66526
#
# Poissons Ratio (x) = 0.59564 -0.11536
# Poissons Ratio (y) = 0.43961 0.17544
# Poissons Ratio (z) = -0.31537 0.64985
#
# Static dielectric constant tensor:
#      x y z
#    x 1.911750 0.000000 -0.015510 
#    y 0.000000 1.804250 0.000000 
#    z -0.015510 0.000000 1.891740 
# 
# From -- ./inp_files/80050.got.cif
#   From: 2010.05.17/outbox.cif.g08.bks.cpg/sg10_41_cif.got.tgz:80050.got - 2010.06.03 11:33:40.
