data_PCOD9151427
_publ_section_title
;
Structure prediction by ZEFSAII (Michael W. Deem and Ramdas Pophale) SiO2 
 PCOD9151427
Probable space group: P 2/M
;
_chemical_formula_sum "Si O2"
_cell_formula_units_Z 32
_cell_length_a 24.073737
_cell_length_b 8.918206
_cell_length_c 12.821063
_cell_angle_alpha 90.000000
_cell_angle_beta 46.280285
_cell_angle_gamma 90.000000
_cell_volume 1989.393768
_symmetry_space_group_name_H-M "P 2/M"
_symmetry_group_IT_number 10
_symmetry_cell_setting 'monoclinic'
loop_
_space_group_symop_operation_xyz
x,y,z
-x,y,-z
-x,-y,-z
x,-y,z
loop_
_atom_site_type_symbol
_atom_site_label
_atom_site_fract_x
_atom_site_fract_y
_atom_site_fract_z
Si Si1 0.498931 0.672871 0.874555
Si Si2 0.834787 0.321625 0.746962
Si Si3 0.916403 0.179060 0.833274
Si Si4 0.807203 0.678685 0.392728
Si Si5 0.331951 0.319849 0.123240
Si Si6 0.912273 0.179796 0.081235
Si Si7 0.905974 0.820766 0.451157
Si Si8 0.656461 0.822181 0.662591
O O1 0.511097 0.500000 0.827311
O O2 0.588208 0.720298 0.037881
O O3 0.570110 0.771826 0.745624
O O4 0.500000 0.676504 0.000000
O O5 0.845801 0.500000 0.723050
O O6 0.862638 0.264978 0.822499
O O7 0.745245 0.288709 0.840011
O O8 0.883530 0.239256 0.593855
O O9 0.005397 0.212103 0.690622
O O10 0.906060 0.000000 0.833743
O O11 0.902125 0.215799 0.972684
O O12 0.805032 0.500000 0.400969
O O13 0.853840 0.735066 0.231892
O O14 0.852062 0.742782 0.435507
O O15 0.721567 0.745042 0.508464
O O16 0.335565 0.500000 0.139061
O O17 0.329437 0.236863 0.237504
O O18 0.902662 0.000000 0.107960
O O19 0.000000 0.215066 0.000000
O O20 0.895002 0.000000 0.460031
O O21 0.664145 0.000000 0.649699
#
# Coordination Sequence:
#
# PCOD9151427 Si02
#       8
#     4   4   4   4   4   4   4   4
#     4   8  15  29  47  67  99 137 168 202 250 304
#     4  11  22  34  51  77 108 140 176 214 252 303
#     4  10  22  38  55  73 100 137 176 216 260 307
#     4  12  23  34  52  78 105 135 172 215 263 309
#     4   9  18  32  48  70 103 141 170 204 254 304
#     4  10  20  39  59  75  98 133 174 216 263 310
#     4  11  21  36  54  74 101 139 178 213 259 309
#     4  11  20  30  48  74 103 135 170 210 253 305
#
# _framework density 16.085303
#
# number of rings (size 3 to 8) (size 9 to 14) (size 15 to 20)
#    0.000    1.750    2.500    4.125    0.000    6.000 
#    0.000    0.000    0.000    0.000    0.000    0.875 
#    0.000    7.000    0.000    0.000    0.000    0.000 
#
# Total GULP energy -178641.137799 kJ/mol
# GULP energy per Si atom -5582.535556 kJ/mol
# Density = 1.604869 g / cm^3
# Si number density = 16.085303 Si / 1000 Ang^3
#
#
#
# Elastic Constant Matrix: (Units=GPa)
#
#
# Indices 1 2 3 4 5 6 
#
# 1 55.4839 47.5693 59.5822 0.0000 -7.7797 0.0000
# 2 47.5693 76.9684 60.5070 0.0000 -11.8699 0.0000
# 3 59.5822 60.5070 104.0349 0.0000 -13.4001 0.0000
# 4 0.0000 0.0000 0.0000 24.2077 0.0000 3.9041
# 5 -7.7797 -11.8699 -13.4001 0.0000 26.2369 0.0000
# 6 0.0000 0.0000 0.0000 3.9041 0.0000 33.1884
#
#
#
# Elastic Compliance Matrix: (Units=1/GPa)
#
#
# Indices 1 2 3 4 5 6 
#
# 1 0.057764 -0.018129 -0.022895 0.000000 -0.002767 0.000000
# 2 -0.018129 0.030021 -0.006445 0.000000 0.004915 0.000000
# 3 -0.022895 -0.006445 0.026999 0.000000 0.004085 0.000000
# 4 0.000000 0.000000 0.000000 0.042108 0.000000 -0.004953
# 5 -0.002767 0.004915 0.004085 0.000000 0.041604 0.000000
# 6 0.000000 0.000000 0.000000 -0.004953 0.000000 0.030714
#
#
# Mechanical properties :
#
#
# Convention : Reuss Voigt Hill
#
# Bulk Modulus (GPa) = 50.38504 63.53379 56.95942
# Shear Modulus (GPa) = 15.11667 21.31519 18.21593
#
# Velocity S-wave (km/s) = 3.06891 3.64419 3.36885
# Velocity P-wave (km/s) = 6.62943 7.56906 7.11477
#
# Compressibility (1/GPa) = 0.01984716
#
# Stress axis : x y z
#
# Youngs Moduli (GPa) = 17.31182 33.31034 37.03890
#
# Poissons Ratio (x) = 0.60387 0.84800
# Poissons Ratio (y) = 0.31384 0.23870
# Poissons Ratio (z) = 0.39635 0.21467
#
# Static dielectric constant tensor:
#      x y z
#    x 1.539850 0.000000 -0.025580 
#    y 0.000000 1.535960 0.000000 
#    z -0.025580 0.000000 1.526170 
# 
# From -- ./inp_files/57167.got.cif
#   From: 2010.05.17/outbox.cif.g08.bks.cpg/sg10_29_cif.got.tgz:57167.got - 2010.06.03 11:33:40.
