data_PCOD9151452
_publ_section_title
;
Structure prediction by ZEFSAII (Michael W. Deem and Ramdas Pophale) SiO2 
 PCOD9151452
Probable space group: P 2/M
;
_chemical_formula_sum "Si O2"
_cell_formula_units_Z 28
_cell_length_a 12.780956
_cell_length_b 19.321319
_cell_length_c 5.578614
_cell_angle_alpha 90.000000
_cell_angle_beta 59.869088
_cell_angle_gamma 90.000000
_cell_volume 1191.468705
_symmetry_space_group_name_H-M "P 2/M"
_symmetry_group_IT_number 10
_symmetry_cell_setting 'monoclinic'
loop_
_space_group_symop_operation_xyz
x,y,z
-x,y,-z
-x,-y,-z
x,-y,z
loop_
_atom_site_type_symbol
_atom_site_label
_atom_site_fract_x
_atom_site_fract_y
_atom_site_fract_z
Si Si1 0.073545 0.926135 0.165457
Si Si2 0.623929 0.224612 0.505432
Si Si3 0.852951 0.232849 0.913797
Si Si4 0.280774 0.680029 0.272749
Si Si5 0.037803 0.636983 0.714318
Si Si6 0.426754 0.421354 0.828990
Si Si7 0.576335 0.074278 0.663844
O O1 0.125133 0.848733 0.104870
O O2 0.000000 0.927824 0.500000
O O3 0.146152 0.000000 0.084647
O O4 0.000000 0.928420 0.000000
O O5 0.500000 0.222239 0.500000
O O6 0.610328 0.285425 0.712169
O O7 0.644398 0.146973 0.580428
O O8 0.744364 0.243896 0.224227
O O9 0.794993 0.254007 0.729211
O O10 0.963665 0.287971 0.810391
O O11 0.182710 0.640058 0.541750
O O12 0.322476 0.633400 0.004721
O O13 0.000000 0.607790 0.500000
O O14 0.000000 0.599935 0.000000
O O15 0.500000 0.405344 0.500000
O O16 0.381674 0.500000 0.848989
O O17 0.500000 0.421766 0.000000
O O18 0.500000 0.073473 0.500000
O O19 0.643258 0.000000 0.592130
O O20 0.500000 0.076222 0.000000
#
# Coordination Sequence:
#
# PCOD9151452 Si02
#       7
#     4   4   4   4   4   4   4
#     4  10  22  41  66  94 130 175 233 298 356 413
#     4  11  26  39  60  99 135 177 236 288 351 416
#     4  11  24  39  64  95 137 179 227 291 348 414
#     4  11  25  40  70 100 139 180 227 289 346 412
#     4  10  20  39  61  93 130 174 222 272 339 398
#     4  10  25  47  72 103 143 186 227 276 343 418
#     4   9  20  40  59  76 115 170 220 274 334 402
#
# _framework density 23.500406999999999
#
# number of rings (size 3 to 8) (size 9 to 14) (size 15 to 20)
#    0.000    1.714    1.429    1.714   10.000    0.571 
#    0.000    0.714    0.000    4.286    0.000    0.000 
#    0.000    0.000    0.000    0.000    0.000    0.000 
#
# Total GULP energy -156033.090625 kJ/mol
# GULP energy per Si atom -5572.610379 kJ/mol
# Density = 2.344692 g / cm^3
# Si number density = 23.500407 Si / 1000 Ang^3
#
#
#
# Elastic Constant Matrix: (Units=GPa)
#
#
# Indices 1 2 3 4 5 6 
#
# 1 44.4018 26.8466 35.5040 0.0000 8.1402 0.0000
# 2 26.8466 90.6368 26.8007 0.0000 -5.1475 0.0000
# 3 35.5040 26.8007 182.5228 0.0000 3.1973 0.0000
# 4 0.0000 0.0000 0.0000 31.1237 0.0000 5.6924
# 5 8.1402 -5.1475 3.1973 0.0000 42.5310 0.0000
# 6 0.0000 0.0000 0.0000 5.6924 0.0000 12.9300
#
#
#
# Elastic Compliance Matrix: (Units=1/GPa)
#
#
# Indices 1 2 3 4 5 6 
#
# 1 0.033103 -0.008714 -0.005037 0.000000 -0.007012 0.000000
# 2 -0.008714 0.013927 -0.000409 0.000000 0.003384 0.000000
# 3 -0.005037 -0.000409 0.006511 0.000000 0.000425 0.000000
# 4 0.000000 0.000000 0.000000 0.034944 0.000000 -0.015384
# 5 -0.007012 0.003384 0.000425 0.000000 0.025232 0.000000
# 6 0.000000 0.000000 0.000000 -0.015384 0.000000 0.084112
#
#
# Mechanical properties :
#
#
# Convention : Reuss Voigt Hill
#
# Bulk Modulus (GPa) = 39.64863 55.09602 47.37232
# Shear Modulus (GPa) = 21.31676 32.54428 26.93052
#
# Velocity S-wave (km/s) = 3.01505 3.72538 3.38888
# Velocity P-wave (km/s) = 5.38783 6.48076 5.95940
#
# Compressibility (1/GPa) = 0.02522155
#
# Stress axis : x y z
#
# Youngs Moduli (GPa) = 30.20836 71.80110 153.58205
#
# Poissons Ratio (x) = 0.62568 0.77357
# Poissons Ratio (y) = 0.26324 0.06285
# Poissons Ratio (z) = 0.15216 0.02938
#
# Static dielectric constant tensor:
#      x y z
#    x 2.009990 0.000000 0.015840 
#    y 0.000000 1.916610 0.000000 
#    z 0.015840 0.000000 1.971040 
# 
# From -- ./inp_files/9764.got.cif
#   From: 2010.05.17/outbox.cif.g08.bks.cpg/sg10_5_cif.got.tgz:9764.got - 2010.06.03 11:33:40.
