data_PCOD9151713
_publ_section_title
;
Structure prediction by ZEFSAII (Michael W. Deem and Ramdas Pophale) SiO2 
 PCOD9151713
Probable space group: P 2/M
;
_chemical_formula_sum "Si O2"
_cell_formula_units_Z 32
_cell_length_a 12.412413
_cell_length_b 13.723639
_cell_length_c 18.408914
_cell_angle_alpha 90.000000
_cell_angle_beta 34.998517
_cell_angle_gamma 90.000000
_cell_volume 1798.576518
_symmetry_space_group_name_H-M "P 2/M"
_symmetry_group_IT_number 10
_symmetry_cell_setting 'monoclinic'
loop_
_space_group_symop_operation_xyz
x,y,z
-x,y,-z
-x,-y,-z
x,-y,z
loop_
_atom_site_type_symbol
_atom_site_label
_atom_site_fract_x
_atom_site_fract_y
_atom_site_fract_z
Si Si1 0.689990 0.611894 0.211040
Si Si2 0.520725 0.765650 0.571527
Si Si3 0.847546 0.117864 0.641724
Si Si4 0.772999 0.114687 0.194297
Si Si5 0.099220 0.884811 0.639259
Si Si6 0.907219 0.188466 0.889404
Si Si7 0.107735 0.610636 0.050179
Si Si8 0.430721 0.116529 0.842732
O O1 0.620979 0.500000 0.251939
O O2 0.552303 0.684021 0.331081
O O3 0.895144 0.612823 0.136219
O O4 0.745757 0.633920 0.096282
O O5 0.500000 0.729348 0.500000
O O6 0.374615 0.854775 0.662420
O O7 0.724368 0.813405 0.471667
O O8 0.640121 0.155811 0.738525
O O9 0.000000 0.154021 0.500000
O O10 0.934487 0.136103 0.672437
O O11 0.837981 0.000000 0.639531
O O12 0.670966 0.144988 0.176220
O O13 0.964742 0.167769 0.109817
O O14 0.810208 0.000000 0.171610
O O15 0.013419 0.862829 0.765285
O O16 0.152002 0.000000 0.603106
O O17 0.886421 0.304254 0.894156
O O18 0.704887 0.144386 0.016850
O O19 0.143860 0.500000 0.054507
O O20 0.442731 0.000000 0.832411
#
# Coordination Sequence:
#
# PCOD9151713 Si02
#       8
#     4   4   4   4   4   4   4   4
#     4   9  18  33  52  73 101 141 183 222 267 322
#     4  12  21  32  48  75 108 149 179 216 267 328
#     4   9  19  38  56  72 100 144 195 234 261 302
#     4  11  21  32  48  75 114 149 179 217 264 324
#     4  11  23  36  53  77 112 152 187 224 263 314
#     4  12  21  33  52  82 115 141 176 221 276 335
#     4   9  18  34  54  76 107 141 175 221 274 330
#     4  10  21  34  53  77 104 145 187 227 269 314
#
# _framework density 17.791848999999999
#
# number of rings (size 3 to 8) (size 9 to 14) (size 15 to 20)
#    0.000    1.625    2.500    4.125    1.750    4.250 
#    0.000    2.500    0.000    0.000    0.000    2.625 
#    0.000    5.500    0.000    0.000    0.000    0.000 
#
# Total GULP energy -178454.229988 kJ/mol
# GULP energy per Si atom -5576.694687 kJ/mol
# Density = 1.775135 g / cm^3
# Si number density = 17.791849 Si / 1000 Ang^3
#
#
#
# Elastic Constant Matrix: (Units=GPa)
#
#
# Indices 1 2 3 4 5 6 
#
# 1 63.3208 23.3777 41.4243 0.0000 -12.7438 0.0000
# 2 23.3777 86.5942 26.3380 0.0000 0.1031 0.0000
# 3 41.4243 26.3380 120.3781 0.0000 -19.5473 0.0000
# 4 0.0000 0.0000 0.0000 32.4831 0.0000 5.4856
# 5 -12.7438 0.1031 -19.5473 0.0000 22.3519 0.0000
# 6 0.0000 0.0000 0.0000 5.4856 0.0000 2.5165
#
#
#
# Elastic Compliance Matrix: (Units=1/GPa)
#
#
# Indices 1 2 3 4 5 6 
#
# 1 0.022678 -0.004457 -0.005508 0.000000 0.008133 0.000000
# 2 -0.004457 0.013402 -0.002123 0.000000 -0.004459 0.000000
# 3 -0.005508 -0.002123 0.011840 0.000000 0.007224 0.000000
# 4 0.000000 0.000000 0.000000 0.048719 0.000000 -0.106199
# 5 0.008133 -0.004459 0.007224 0.000000 0.055714 0.000000
# 6 0.000000 0.000000 0.000000 -0.106199 0.000000 0.628866
#
#
# Mechanical properties :
#
#
# Convention : Reuss Voigt Hill
#
# Bulk Modulus (GPa) = 42.11370 50.28589 46.19980
# Shear Modulus (GPa) = 6.14771 23.41385 14.78078
#
# Velocity S-wave (km/s) = 1.86087 3.63159 2.88542
# Velocity P-wave (km/s) = 5.32341 6.77565 6.09295
#
# Compressibility (1/GPa) = 0.02374524
#
# Stress axis : x y z
#
# Youngs Moduli (GPa) = 44.09482 74.61417 84.45870
#
# Poissons Ratio (x) = 0.33254 0.46521
# Poissons Ratio (y) = 0.19652 0.17929
# Poissons Ratio (z) = 0.24288 0.15839
#
# Static dielectric constant tensor:
#      x y z
#    x 1.633600 0.000000 0.019430 
#    y 0.000000 1.621970 0.000000 
#    z 0.019430 0.000000 1.624450 
# 
# From -- ./inp_files/77007.got.cif
#   From: 2010.05.17/outbox.cif.g08.bks.cpg/sg10_39_cif.got.tgz:77007.got - 2010.06.03 11:33:40.
