data_PCOD9151422
_publ_section_title
;
Structure prediction by ZEFSAII (Michael W. Deem and Ramdas Pophale) SiO2 
 PCOD9151422
Probable space group: P 2/M
;
_chemical_formula_sum "Si O2"
_cell_formula_units_Z 28
_cell_length_a 12.969555
_cell_length_b 8.332895
_cell_length_c 20.823991
_cell_angle_alpha 90.000000
_cell_angle_beta 149.056838
_cell_angle_gamma 90.000000
_cell_volume 1157.194789
_symmetry_space_group_name_H-M "P 2/M"
_symmetry_group_IT_number 10
_symmetry_cell_setting 'monoclinic'
loop_
_space_group_symop_operation_xyz
x,y,z
-x,y,-z
-x,-y,-z
x,-y,z
loop_
_atom_site_type_symbol
_atom_site_label
_atom_site_fract_x
_atom_site_fract_y
_atom_site_fract_z
Si Si1 0.639544 0.809378 0.010447
Si Si2 0.644379 0.682152 0.336583
Si Si3 0.733264 0.810901 0.256987
Si Si4 0.627729 0.000000 0.636478
Si Si5 0.004845 0.803117 0.283410
Si Si6 0.603387 0.683651 0.459071
Si Si7 0.968125 0.000000 0.063318
Si Si8 0.808616 0.676767 0.945656
O O1 0.854459 0.746466 0.147689
O O2 0.667722 0.000000 0.016143
O O3 0.500000 0.797370 0.000000
O O4 0.486864 0.737895 0.876610
O O5 0.686262 0.500000 0.339913
O O6 0.759946 0.786319 0.346414
O O7 0.699185 0.702725 0.439455
O O8 0.402335 0.704350 0.203505
O O9 0.895096 0.756345 0.291624
O O10 0.717876 0.000000 0.236587
O O11 0.500000 0.000000 0.500000
O O12 0.553246 0.172857 0.621899
O O13 0.851919 0.000000 0.788592
O O14 0.220773 0.722231 0.396606
O O15 0.029801 0.000000 0.295171
O O16 0.530635 0.500000 0.426232
O O17 0.848985 0.165774 0.009101
O O18 0.000000 0.000000 0.000000
O O19 0.799927 0.500000 0.971913
O O20 0.000000 0.669717 0.000000
#
# Coordination Sequence:
#
# PCOD9151422 Si02
#       8
#     4   4   4   2   4   4   2   4
#     4   7  12  27  51  78 112 158 205 254 309 357
#     4  10  22  37  56  88 129 167 206 263 322 374
#     4   9  18  31  56  91 124 167 213 262 313 367
#     4  12  28  50  72  98 129 166 209 268 323 387
#     4   9  17  35  59  86 126 171 218 258 305 375
#     4  11  24  43  67  91 125 171 209 254 318 385
#     4  10  20  38  70  97 116 155 205 249 309 382
#     4   9  18  35  58  87 120 154 200 259 314 366
#
# _framework density 24.196446000000002
#
# number of rings (size 3 to 8) (size 9 to 14) (size 15 to 20)
#    0.000    2.571    0.714    3.429    2.000    3.143 
#    2.571    3.571    0.000    2.571    0.000    0.000 
#    0.000    0.000    0.000    0.000    0.000    0.000 
#
# Total GULP energy -156118.932414 kJ/mol
# GULP energy per Si atom -5575.676158 kJ/mol
# Density = 2.414137 g / cm^3
# Si number density = 24.196446 Si / 1000 Ang^3
#
#
#
# Elastic Constant Matrix: (Units=GPa)
#
#
# Indices 1 2 3 4 5 6 
#
# 1 55.4580 19.7128 7.3702 0.0000 -8.9833 0.0000
# 2 19.7128 110.0702 50.8542 0.0000 0.0870 0.0000
# 3 7.3702 50.8542 128.1264 0.0000 10.9688 0.0000
# 4 0.0000 0.0000 0.0000 -52.9463 0.0000 -107.9470
# 5 -8.9833 0.0870 10.9688 0.0000 30.3606 0.0000
# 6 0.0000 0.0000 0.0000 -107.9470 0.0000 -151.9802
#
#
#
# Elastic Compliance Matrix: (Units=1/GPa)
#
#
# Indices 1 2 3 4 5 6 
#
# 1 0.020310 -0.003502 -0.000303 0.000000 0.006129 0.000000
# 2 -0.003502 0.011806 -0.004533 0.000000 0.000568 0.000000
# 3 -0.000303 -0.004533 0.009935 0.000000 -0.003666 0.000000
# 4 0.000000 0.000000 0.000000 0.042149 0.000000 -0.029937
# 5 0.006129 0.000568 -0.003666 0.000000 0.036074 0.000000
# 6 0.000000 0.000000 0.000000 -0.029937 0.000000 0.014684
#
#
# Mechanical properties :
#
#
# Convention : Reuss Voigt Hill
#
# Bulk Modulus (GPa) = 39.40938 49.94766 44.67852
# Shear Modulus (GPa) = 31.23190 -20.53202 5.34994
#
# Velocity S-wave (km/s) = 3.59662 -2.91616 1.48857
# Velocity P-wave (km/s) = 5.79398 3.05757 4.63243
#
# Compressibility (1/GPa) = 0.02537467
#
# Stress axis : x y z
#
# Youngs Moduli (GPa) = 49.23793 84.70085 100.65125
#
# Poissons Ratio (x) = 0.29664 0.03049
# Poissons Ratio (y) = 0.17244 0.45626
# Poissons Ratio (z) = 0.01491 0.38396
#
# Static dielectric constant tensor:
#      x y z
#    x 2.070350 0.000000 -0.042000 
#    y 0.000000 1.909720 0.000000 
#    z -0.042000 0.000000 1.970040 
# 
# From -- ./inp_files/85025.got.cif
#   From: 2010.05.17/outbox.cif.g08.bks.cpg/sg10_43_cif.got.tgz:85025.got - 2010.06.03 11:33:40.
