data_PCOD9151453
_publ_section_title
;
Structure prediction by ZEFSAII (Michael W. Deem and Ramdas Pophale) SiO2 
 PCOD9151453
Probable space group: P 2/M
;
_chemical_formula_sum "Si O2"
_cell_formula_units_Z 24
_cell_length_a 8.996418
_cell_length_b 20.691833
_cell_length_c 8.378346
_cell_angle_alpha 90.000000
_cell_angle_beta 49.297365
_cell_angle_gamma 90.000000
_cell_volume 1182.376714
_symmetry_space_group_name_H-M "P 2/M"
_symmetry_group_IT_number 10
_symmetry_cell_setting 'monoclinic'
loop_
_space_group_symop_operation_xyz
x,y,z
-x,y,-z
-x,-y,-z
x,-y,z
loop_
_atom_site_type_symbol
_atom_site_label
_atom_site_fract_x
_atom_site_fract_y
_atom_site_fract_z
Si Si1 0.639998 0.161738 0.031407
Si Si2 0.000000 0.651411 0.500000
Si Si3 0.639790 0.726280 0.635997
Si Si4 0.500000 0.377433 0.500000
Si Si5 0.282054 0.926411 0.722576
Si Si6 0.929211 0.425221 0.221533
Si Si7 0.946616 0.192917 0.220955
O O1 0.504982 0.219632 0.194007
O O2 0.698645 0.109750 0.122655
O O3 0.500000 0.129788 0.000000
O O4 0.848258 0.190334 0.828826
O O5 0.799007 0.692755 0.639413
O O6 0.993571 0.611253 0.338304
O O7 0.511315 0.670675 0.643374
O O8 0.781666 0.760176 0.405420
O O9 0.694943 0.419078 0.374510
O O10 0.500000 0.926302 0.500000
O O11 0.144963 0.878961 0.717000
O O12 0.213283 0.000000 0.779808
O O13 0.991538 0.500000 0.188526
O O14 0.000000 0.398302 0.000000
O O15 0.000000 0.210474 0.000000
#
# Coordination Sequence:
#
# PCOD9151453 Si02
#       7
#     4   2   4   2   4   4   4
#     4  11  23  36  57  85 118 156 189 243 303 354
#     4  10  23  38  64  90 123 164 194 248 298 358
#     4  11  21  38  55  88 127 151 196 247 294 356
#     4  10  21  34  62  90 119 156 200 248 292 354
#     4  10  20  39  62  81 109 152 200 247 293 353
#     4  10  22  42  64  89 122 160 203 247 294 348
#     4  10  21  36  61  86 114 158 195 240 301 357
#
# _framework density 20.298099000000001
#
# number of rings (size 3 to 8) (size 9 to 14) (size 15 to 20)
#    0.000    1.667    1.667    3.500    0.000   10.000 
#    0.000    2.500    0.000   11.000    0.000    0.000 
#    0.000    0.000    0.000    0.000    0.000    0.000 
#
# Total GULP energy -133966.460603 kJ/mol
# GULP energy per Si atom -5581.935858 kJ/mol
# Density = 2.025190 g / cm^3
# Si number density = 20.298099 Si / 1000 Ang^3
#
#
#
# Elastic Constant Matrix: (Units=GPa)
#
#
# Indices 1 2 3 4 5 6 
#
# 1 117.8467 32.4884 23.2803 0.0000 -6.1593 0.0000
# 2 32.4884 85.4096 26.3183 0.0000 9.8348 0.0000
# 3 23.2803 26.3183 75.2049 0.0000 -6.4517 0.0000
# 4 0.0000 0.0000 0.0000 -49.4268 0.0000 18.1428
# 5 -6.1593 9.8348 -6.4517 0.0000 29.7992 0.0000
# 6 0.0000 0.0000 0.0000 18.1428 0.0000 18.0414
#
#
#
# Elastic Compliance Matrix: (Units=1/GPa)
#
#
# Indices 1 2 3 4 5 6 
#
# 1 0.009949 -0.003642 -0.001555 0.000000 0.002922 0.000000
# 2 -0.003642 0.015378 -0.004844 0.000000 -0.006877 0.000000
# 3 -0.001555 -0.004844 0.015878 0.000000 0.004715 0.000000
# 4 0.000000 0.000000 0.000000 -0.014777 0.000000 0.014860
# 5 0.002922 -0.006877 0.004715 0.000000 0.037452 0.000000
# 6 0.000000 0.000000 0.000000 0.014860 0.000000 0.040484
#
#
# Mechanical properties :
#
#
# Convention : Reuss Voigt Hill
#
# Bulk Modulus (GPa) = 47.33993 49.18169 48.26081
# Shear Modulus (GPa) = 38.02620 12.77437 25.40028
#
# Velocity S-wave (km/s) = 4.33296 2.51138 3.54130
# Velocity P-wave (km/s) = 6.95742 5.71766 6.36779
#
# Compressibility (1/GPa) = 0.02112382
#
# Stress axis : x y z
#
# Youngs Moduli (GPa) = 100.50764 65.02705 62.98001
#
# Poissons Ratio (x) = 0.23683 0.09792
# Poissons Ratio (y) = 0.36605 0.30509
# Poissons Ratio (z) = 0.15627 0.31501
#
# Static dielectric constant tensor:
#      x y z
#    x 1.745470 0.000000 0.014930 
#    y 0.000000 1.722040 0.000000 
#    z 0.014930 0.000000 1.760600 
# 
# From -- ./inp_files/20154.got.cif
#   From: 2010.05.17/outbox.cif.g08.bks.cpg/sg10_11_cif.got.tgz:20154.got - 2010.06.03 11:33:40.
