data_PCOD9151000
_publ_section_title
;
Structure prediction by ZEFSAII (Michael W. Deem and Ramdas Pophale) SiO2 
 PCOD9151000
Probable space group: P 2/M
;
_chemical_formula_sum "Si O2"
_cell_formula_units_Z 32
_cell_length_a 30.252074
_cell_length_b 9.360838
_cell_length_c 12.648273
_cell_angle_alpha 90.000000
_cell_angle_beta 152.409692
_cell_angle_gamma 90.000000
_cell_volume 1658.895943
_symmetry_space_group_name_H-M "P 2/M"
_symmetry_group_IT_number 10
_symmetry_cell_setting 'monoclinic'
loop_
_space_group_symop_operation_xyz
x,y,z
-x,y,-z
-x,-y,-z
x,-y,z
loop_
_atom_site_type_symbol
_atom_site_label
_atom_site_fract_x
_atom_site_fract_y
_atom_site_fract_z
Si Si1 0.563646 0.831940 0.736315
Si Si2 0.902447 0.332439 0.638160
Si Si3 0.609819 0.331471 0.263291
Si Si4 0.201755 0.167976 0.988847
Si Si5 0.786607 0.833055 0.568566
Si Si6 0.088579 0.167195 0.959505
Si Si7 0.239212 0.667146 0.860325
Si Si8 0.391043 0.165174 0.524586
O O1 0.500000 0.790134 0.500000
O O2 0.659698 0.742725 0.946264
O O3 0.493792 0.817040 0.688152
O O4 0.587761 0.000000 0.774633
O O5 0.912596 0.500000 0.685552
O O6 0.859713 0.245540 0.645831
O O7 0.001897 0.265098 0.811946
O O8 0.828452 0.317850 0.384449
O O9 0.629553 0.500000 0.297851
O O10 0.684767 0.244938 0.351052
O O11 0.621777 0.273249 0.407183
O O12 0.500000 0.305991 0.000000
O O13 0.192757 0.259452 0.864551
O O14 0.308655 0.185183 0.262537
O O15 0.188962 0.000000 0.937712
O O16 0.130875 0.205634 0.934598
O O17 0.778252 0.000000 0.523644
O O18 0.828931 0.822804 0.776999
O O19 0.058981 0.000000 0.893769
O O20 0.254160 0.500000 0.912622
O O21 0.381805 0.000000 0.542841
#
# Coordination Sequence:
#
# PCOD9151000 Si02
#       8
#     4   4   4   4   4   4   4   4
#     4  10  20  37  61  87 117 156 201 246 294 354
#     4  11  26  44  61  89 129 165 202 253 313 372
#     4  11  25  41  59  90 131 167 200 244 304 368
#     4  10  20  40  66  91 123 158 204 259 304 359
#     4  11  23  43  69  94 122 158 209 260 304 364
#     4  10  22  42  68  95 119 152 204 263 313 365
#     4  11  25  41  58  88 129 166 204 251 304 367
#     4  10  20  38  62  89 120 158 206 254 301 359
#
# _framework density 19.289936999999998
#
# number of rings (size 3 to 8) (size 9 to 14) (size 15 to 20)
#    0.000    1.500    2.500    1.875    1.750    7.750 
#    0.000    2.500    0.000    0.000    0.000    0.000 
#    0.000    0.000    0.000    0.000    0.000    0.000 
#
# Total GULP energy -178906.099786 kJ/mol
# GULP energy per Si atom -5590.815618 kJ/mol
# Density = 1.924603 g / cm^3
# Si number density = 19.289937 Si / 1000 Ang^3
#
#
#
# Elastic Constant Matrix: (Units=GPa)
#
#
# Indices 1 2 3 4 5 6 
#
# 1 76.2741 35.1856 7.1062 0.0000 20.1259 0.0000
# 2 35.1856 77.7363 36.5035 0.0000 19.1458 0.0000
# 3 7.1062 36.5035 37.9640 0.0000 19.2151 0.0000
# 4 0.0000 0.0000 0.0000 33.7250 0.0000 5.3399
# 5 20.1259 19.1458 19.2151 0.0000 29.2156 0.0000
# 6 0.0000 0.0000 0.0000 5.3399 0.0000 12.2298
#
#
#
# Elastic Compliance Matrix: (Units=1/GPa)
#
#
# Indices 1 2 3 4 5 6 
#
# 1 0.023359 -0.015230 0.020034 0.000000 -0.019287 0.000000
# 2 -0.015230 0.033397 -0.035218 0.000000 0.011769 0.000000
# 3 0.020034 -0.035218 0.077585 0.000000 -0.041749 0.000000
# 4 0.000000 0.000000 0.000000 0.031854 0.000000 -0.013908
# 5 -0.019287 0.011769 -0.041749 0.000000 0.067261 0.000000
# 6 0.000000 0.000000 0.000000 -0.013908 0.000000 0.087840
#
#
# Mechanical properties :
#
#
# Convention : Reuss Voigt Hill
#
# Bulk Modulus (GPa) = 13.60317 38.84055 26.22186
# Shear Modulus (GPa) = 12.29625 22.57936 17.43780
#
# Velocity S-wave (km/s) = 2.52750 3.42501 3.00990
# Velocity P-wave (km/s) = 3.94778 5.98496 5.06975
#
# Compressibility (1/GPa) = 0.07351227
#
# Stress axis : x y z
#
# Youngs Moduli (GPa) = 42.80997 29.94305 12.88912
#
# Poissons Ratio (x) = 0.45604 -0.25822
# Poissons Ratio (y) = 0.65201 0.45393
# Poissons Ratio (z) = -0.85765 1.05453
#
# Static dielectric constant tensor:
#      x y z
#    x 1.668150 0.000000 -0.001480 
#    y 0.000000 1.644110 0.000000 
#    z -0.001480 0.000000 1.656290 
# 
# From -- ./inp_files/58269.got.cif
#   From: 2010.05.17/outbox.cif.g08.bks.cpg/sg10_30_cif.got.tgz:58269.got - 2010.06.03 11:33:40.
