data_PCOD9151280
_publ_section_title
;
Structure prediction by ZEFSAII (Michael W. Deem and Ramdas Pophale) SiO2 
 PCOD9151280
Probable space group: P 2/M
;
_chemical_formula_sum "Si O2"
_cell_formula_units_Z 28
_cell_length_a 8.938478
_cell_length_b 15.589375
_cell_length_c 12.099691
_cell_angle_alpha 90.000000
_cell_angle_beta 121.192845
_cell_angle_gamma 90.000000
_cell_volume 1442.283051
_symmetry_space_group_name_H-M "P 2/M"
_symmetry_group_IT_number 10
_symmetry_cell_setting 'monoclinic'
loop_
_space_group_symop_operation_xyz
x,y,z
-x,y,-z
-x,-y,-z
x,-y,z
loop_
_atom_site_type_symbol
_atom_site_label
_atom_site_fract_x
_atom_site_fract_y
_atom_site_fract_z
Si Si1 0.554569 0.099404 0.296941
Si Si2 0.804029 0.101659 0.933751
Si Si3 0.554354 0.405626 0.649895
Si Si4 0.718972 0.732799 0.417017
Si Si5 0.813929 0.903729 0.189520
Si Si6 0.026309 0.729462 0.694679
Si Si7 0.033677 0.599526 0.141665
O O1 0.356019 0.131484 0.202709
O O2 0.658381 0.168908 0.407298
O O3 0.658372 0.100858 0.219196
O O4 0.556744 0.000000 0.335291
O O5 0.818398 0.000000 0.913834
O O6 0.747604 0.108478 0.039677
O O7 0.000000 0.138792 0.000000
O O8 0.500000 0.404992 0.500000
O O9 0.501116 0.500000 0.672813
O O10 0.446007 0.328208 0.658531
O O11 0.759436 0.396504 0.752157
O O12 0.840226 0.710233 0.567337
O O13 0.834389 0.720865 0.351153
O O14 0.953118 0.828936 0.263909
O O15 0.890003 0.000000 0.225982
O O16 0.055523 0.666296 0.808509
O O17 0.978474 0.500000 0.139041
O O18 0.000000 0.619759 0.000000
#
# Coordination Sequence:
#
# PCOD9151280 Si02
#       7
#     4   4   4   4   4   4   4
#     4   9  18  33  52  74 108 150 186 226 277 331
#     4   9  17  30  48  72 102 138 187 238 278 324
#     4  10  20  38  62  85 111 147 186 227 283 347
#     4  10  21  36  56  85 114 145 192 238 277 333
#     4   9  18  32  50  74 107 149 189 225 274 335
#     4  10  21  36  56  84 115 147 188 238 284 327
#     4  10  22  41  63  87 116 149 186 230 286 349
#
# _framework density 19.413665000000002
#
# number of rings (size 3 to 8) (size 9 to 14) (size 15 to 20)
#    0.000    2.429    1.429    0.429    0.000    5.714 
#    0.000    6.429    0.000    3.000    0.000    0.000 
#    0.000    0.000    0.000    0.000    0.000    0.000 
#
# Total GULP energy -156046.910685 kJ/mol
# GULP energy per Si atom -5573.103953 kJ/mol
# Density = 1.936948 g / cm^3
# Si number density = 19.413665 Si / 1000 Ang^3
#
#
#
# Elastic Constant Matrix: (Units=GPa)
#
#
# Indices 1 2 3 4 5 6 
#
# 1 24.0515 31.2645 17.7361 0.0000 9.5306 0.0000
# 2 31.2645 102.3058 33.4283 0.0000 -5.4181 0.0000
# 3 17.7361 33.4283 81.2400 0.0000 -2.8438 0.0000
# 4 0.0000 0.0000 0.0000 12.6233 0.0000 22.0910
# 5 9.5306 -5.4181 -2.8438 0.0000 17.2452 0.0000
# 6 0.0000 0.0000 0.0000 22.0910 0.0000 -4.8229
#
#
#
# Elastic Compliance Matrix: (Units=1/GPa)
#
#
# Indices 1 2 3 4 5 6 
#
# 1 0.162489 -0.049178 -0.019033 0.000000 -0.108389 0.000000
# 2 -0.049178 0.026313 0.001157 0.000000 0.035636 0.000000
# 3 -0.019033 0.001157 0.016464 0.000000 0.013597 0.000000
# 4 0.000000 0.000000 0.000000 0.008787 0.000000 0.040246
# 5 -0.108389 0.035636 0.013597 0.000000 0.131327 0.000000
# 6 0.000000 0.000000 0.000000 0.040246 0.000000 -0.022998
#
#
# Mechanical properties :
#
#
# Convention : Reuss Voigt Hill
#
# Bulk Modulus (GPa) = 14.05318 41.38389 27.71853
# Shear Modulus (GPa) = 10.41215 13.35368 11.88292
#
# Velocity S-wave (km/s) = 2.31839 2.62553 2.47673
# Velocity P-wave (km/s) = 3.79752 5.52760 4.74213
#
# Compressibility (1/GPa) = 0.07115827
#
# Stress axis : x y z
#
# Youngs Moduli (GPa) = 6.15428 38.00472 60.73718
#
# Poissons Ratio (x) = 1.86898 1.15600
# Poissons Ratio (y) = 0.30265 -0.07026
# Poissons Ratio (z) = 0.11713 -0.04396
#
# Static dielectric constant tensor:
#      x y z
#    x 1.688710 0.000000 -0.002120 
#    y 0.000000 1.702430 0.000000 
#    z -0.002120 0.000000 1.680240 
# 
# From -- ./inp_files/43033.got.cif
#   From: 2010.05.17/outbox.cif.g08.bks.cpg/sg10_22_cif.got.tgz:43033.got - 2010.06.03 11:33:40.
