data_PCOD9151180
_publ_section_title
;
Structure prediction by ZEFSAII (Michael W. Deem and Ramdas Pophale) SiO2 
 PCOD9151180
Probable space group: P 2/M
;
_chemical_formula_sum "Si O2"
_cell_formula_units_Z 32
_cell_length_a 16.455946
_cell_length_b 13.823794
_cell_length_c 9.403729
_cell_angle_alpha 90.000000
_cell_angle_beta 56.976712
_cell_angle_gamma 90.000000
_cell_volume 1793.605512
_symmetry_space_group_name_H-M "P 2/M"
_symmetry_group_IT_number 10
_symmetry_cell_setting 'monoclinic'
loop_
_space_group_symop_operation_xyz
x,y,z
-x,y,-z
-x,-y,-z
x,-y,z
loop_
_atom_site_type_symbol
_atom_site_label
_atom_site_fract_x
_atom_site_fract_y
_atom_site_fract_z
Si Si1 0.648352 0.889619 0.336164
Si Si2 0.084473 0.303434 0.032434
Si Si3 0.169950 0.109674 0.048462
Si Si4 0.906283 0.387916 0.678672
Si Si5 0.271594 0.241107 0.171571
Si Si6 0.352570 0.257111 0.405255
Si Si7 0.575328 0.723015 0.220607
Si Si8 0.281648 0.614723 0.710091
O O1 0.655020 0.832367 0.477428
O O2 0.581153 0.826398 0.295883
O O3 0.617883 0.000000 0.382792
O O4 0.750948 0.889328 0.154377
O O5 0.187851 0.334723 0.868718
O O6 0.094146 0.193482 0.080923
O O7 0.067199 0.372932 0.182051
O O8 0.000000 0.311288 0.000000
O O9 0.224247 0.147816 0.138933
O O10 0.133903 0.000000 0.098478
O O11 0.885636 0.500000 0.667377
O O12 0.812600 0.321752 0.742569
O O13 0.000000 0.356859 0.500000
O O14 0.312787 0.228592 0.289615
O O15 0.356778 0.273994 0.982762
O O16 0.463863 0.292443 0.290726
O O17 0.294702 0.342788 0.539804
O O18 0.625727 0.649668 0.284302
O O19 0.272366 0.500000 0.722036
#
# Coordination Sequence:
#
# PCOD9151180 Si02
#       8
#     4   4   4   4   4   4   4   4
#     4   9  17  33  57  82 112 149 192 238 286 334
#     4  11  22  38  62  89 114 146 185 237 292 341
#     4   9  18  38  62  84 116 156 188 224 287 350
#     4  10  22  39  60  83 110 149 189 232 289 343
#     4  10  21  38  56  83 119 154 188 240 283 336
#     4  11  22  34  56  86 118 151 197 240 283 335
#     4  10  20  38  57  80 111 162 194 235 286 341
#     4  11  22  39  58  83 116 151 192 242 292 339
#
# _framework density 17.841158
#
# number of rings (size 3 to 8) (size 9 to 14) (size 15 to 20)
#    0.000    1.875    5.000    2.250    1.750    4.250 
#    0.000    0.000    0.000   12.000    0.000    0.000 
#    0.000    0.000    0.000    0.000    0.000    0.000 
#
# Total GULP energy -178501.661470 kJ/mol
# GULP energy per Si atom -5578.176921 kJ/mol
# Density = 1.780055 g / cm^3
# Si number density = 17.841158 Si / 1000 Ang^3
#
#
#
# Elastic Constant Matrix: (Units=GPa)
#
#
# Indices 1 2 3 4 5 6 
#
# 1 93.7440 19.1587 46.0322 0.0000 12.9583 0.0000
# 2 19.1587 110.4950 32.2678 0.0000 -6.0715 0.0000
# 3 46.0322 32.2678 110.2706 0.0000 9.6071 0.0000
# 4 0.0000 0.0000 0.0000 2.8958 0.0000 3.4231
# 5 12.9583 -6.0715 9.6071 0.0000 26.8152 0.0000
# 6 0.0000 0.0000 0.0000 3.4231 0.0000 2.7455
#
#
#
# Elastic Compliance Matrix: (Units=1/GPa)
#
#
# Indices 1 2 3 4 5 6 
#
# 1 0.014151 -0.001263 -0.005076 0.000000 -0.005306 0.000000
# 2 -0.001263 0.010315 -0.002836 0.000000 0.003962 0.000000
# 3 -0.005076 -0.002836 0.012242 0.000000 -0.002575 0.000000
# 4 0.000000 0.000000 0.000000 -0.728871 0.000000 0.908749
# 5 -0.005306 0.003962 -0.002575 0.000000 0.041676 0.000000
# 6 0.000000 0.000000 0.000000 0.908749 0.000000 -0.768785
#
#
# Mechanical properties :
#
#
# Convention : Reuss Voigt Hill
#
# Bulk Modulus (GPa) = 54.47146 56.60299 55.53722
# Shear Modulus (GPa) = -3.58474 20.96137 8.68831
#
# Velocity S-wave (km/s) = -1.41902 3.43138 2.20916
# Velocity P-wave (km/s) = 5.28326 6.89160 6.14032
#
# Compressibility (1/GPa) = 0.01835824
#
# Stress axis : x y z
#
# Youngs Moduli (GPa) = 70.66528 96.94415 81.68778
#
# Poissons Ratio (x) = 0.12244 0.41461
# Poissons Ratio (y) = 0.08925 0.23170
# Poissons Ratio (z) = 0.35866 0.27497
#
# Static dielectric constant tensor:
#      x y z
#    x 1.596600 0.000000 -0.009430 
#    y 0.000000 1.607980 0.000000 
#    z -0.009430 0.000000 1.614830 
# 
# From -- ./inp_files/29502.got.cif
#   From: 2010.05.17/outbox.cif.g08.bks.cpg/sg10_15_cif.got.tgz:29502.got - 2010.06.03 11:33:40.
