data_PCOD9151140
_publ_section_title
;
Structure prediction by ZEFSAII (Michael W. Deem and Ramdas Pophale) SiO2 
 PCOD9151140
Probable space group: P 2/M
;
_chemical_formula_sum "Si O2"
_cell_formula_units_Z 28
_cell_length_a 11.357410
_cell_length_b 9.829923
_cell_length_c 14.499995
_cell_angle_alpha 90.000000
_cell_angle_beta 55.209267
_cell_angle_gamma 90.000000
_cell_volume 1329.438228
_symmetry_space_group_name_H-M "P 2/M"
_symmetry_group_IT_number 10
_symmetry_cell_setting 'monoclinic'
loop_
_space_group_symop_operation_xyz
x,y,z
-x,y,-z
-x,-y,-z
x,-y,z
loop_
_atom_site_type_symbol
_atom_site_label
_atom_site_fract_x
_atom_site_fract_y
_atom_site_fract_z
Si Si1 0.768676 0.152044 0.428602
Si Si2 0.086682 0.848797 0.829799
Si Si3 0.273994 0.337330 0.860544
Si Si4 0.727542 0.846198 0.759517
Si Si5 0.483300 0.155744 0.322142
Si Si6 0.748462 0.845219 0.955348
Si Si7 0.009703 0.350988 0.386807
O O1 0.801694 0.153420 0.305319
O O2 0.612827 0.171771 0.542957
O O3 0.871263 0.267826 0.419815
O O4 0.812862 0.000000 0.441449
O O5 0.132933 0.731141 0.878565
O O6 0.922986 0.835133 0.867115
O O7 0.097062 0.000000 0.868074
O O8 0.270659 0.500000 0.864094
O O9 0.402063 0.274075 0.742165
O O10 0.293263 0.267785 0.952031
O O11 0.617738 0.835258 0.724003
O O12 0.674844 0.830943 0.888407
O O13 0.849908 0.735394 0.695303
O O14 0.788630 0.000000 0.727621
O O15 0.541799 0.000000 0.297162
O O16 0.717984 0.000000 0.002431
O O17 0.015033 0.500000 0.340218
O O18 0.000000 0.364971 0.500000
#
# Coordination Sequence:
#
# PCOD9151140 Si02
#       7
#     4   4   4   4   4   4   4
#     4  10  20  37  64  93 119 153 201 252 298 350
#     4  10  21  40  67  94 118 149 198 258 307 349
#     4  12  27  43  59  82 122 167 205 247 298 365
#     4  10  20  37  64  93 119 153 201 252 298 350
#     4  10  22  40  64  90 121 160 202 247 292 354
#     4  10  21  40  67  94 118 149 198 258 307 349
#     4  11  21  31  51  88 131 166 191 233 298 362
#
# _framework density 21.061527000000002
#
# number of rings (size 3 to 8) (size 9 to 14) (size 15 to 20)
#    0.000    1.571    2.857    2.143    0.000    6.286 
#    0.000    5.714    0.000    0.000    0.000    0.000 
#    0.000    0.000    0.000    0.000    0.000    0.000 
#
# Total GULP energy -156361.129877 kJ/mol
# GULP energy per Si atom -5584.326067 kJ/mol
# Density = 2.101359 g / cm^3
# Si number density = 21.061527 Si / 1000 Ang^3
#
#
#
# Elastic Constant Matrix: (Units=GPa)
#
#
# Indices 1 2 3 4 5 6 
#
# 1 35.9652 35.1725 15.5060 0.0000 -1.4598 0.0000
# 2 35.1725 170.5614 46.8396 0.0000 -6.2729 0.0000
# 3 15.5060 46.8396 101.4269 0.0000 -6.0822 0.0000
# 4 0.0000 0.0000 0.0000 24.1262 0.0000 -11.6416
# 5 -1.4598 -6.2729 -6.0822 0.0000 26.8128 0.0000
# 6 0.0000 0.0000 0.0000 -11.6416 0.0000 21.3812
#
#
#
# Elastic Compliance Matrix: (Units=1/GPa)
#
#
# Indices 1 2 3 4 5 6 
#
# 1 0.035304 -0.006644 -0.002339 0.000000 -0.000163 0.000000
# 2 -0.006644 0.007985 -0.002617 0.000000 0.000913 0.000000
# 3 -0.002339 -0.002617 0.011538 0.000000 0.001878 0.000000
# 4 0.000000 0.000000 0.000000 0.056219 0.000000 0.030610
# 5 -0.000163 0.000913 0.001878 0.000000 0.037926 0.000000
# 6 0.000000 0.000000 0.000000 0.030610 0.000000 0.063436
#
#
# Mechanical properties :
#
#
# Convention : Reuss Voigt Hill
#
# Bulk Modulus (GPa) = 31.61808 55.88774 43.75291
# Shear Modulus (GPa) = 20.31271 28.49305 24.40288
#
# Velocity S-wave (km/s) = 3.10892 3.68210 3.40758
# Velocity P-wave (km/s) = 5.28508 6.68358 6.02504
#
# Compressibility (1/GPa) = 0.03162748
#
# Stress axis : x y z
#
# Youngs Moduli (GPa) = 28.32553 125.22856 86.66915
#
# Poissons Ratio (x) = 0.83201 0.20270
# Poissons Ratio (y) = 0.18819 0.22684
# Poissons Ratio (z) = 0.06625 0.32776
#
# Static dielectric constant tensor:
#      x y z
#    x 1.792900 0.000000 0.009770 
#    y 0.000000 1.731770 0.000000 
#    z 0.009770 0.000000 1.806780 
# 
# From -- ./inp_files/63634.got.cif
#   From: 2010.05.17/outbox.cif.g08.bks.cpg/sg10_32_cif.got.tgz:63634.got - 2010.06.03 11:33:40.
