data_PCOD9151581
_publ_section_title
;
Structure prediction by ZEFSAII (Michael W. Deem and Ramdas Pophale) SiO2 
 PCOD9151581
Probable space group: P 2/M
;
_chemical_formula_sum "Si O2"
_cell_formula_units_Z 20
_cell_length_a 17.735344
_cell_length_b 12.647560
_cell_length_c 8.809139
_cell_angle_alpha 90.000000
_cell_angle_beta 32.421671
_cell_angle_gamma 90.000000
_cell_volume 1059.407357
_symmetry_space_group_name_H-M "P 2/M"
_symmetry_group_IT_number 10
_symmetry_cell_setting 'monoclinic'
loop_
_space_group_symop_operation_xyz
x,y,z
-x,y,-z
-x,-y,-z
x,-y,z
loop_
_atom_site_type_symbol
_atom_site_label
_atom_site_fract_x
_atom_site_fract_y
_atom_site_fract_z
Si Si1 0.557200 0.193553 0.733658
Si Si2 0.580354 0.000000 0.207480
Si Si3 0.579444 0.381384 0.204926
Si Si4 0.113323 0.000000 0.173212
Si Si5 0.879074 0.805402 0.076604
Si Si6 0.124225 0.373644 0.167611
O O1 0.473148 0.103027 0.787840
O O2 0.506758 0.305645 0.755836
O O3 0.724523 0.183697 0.417599
O O4 0.500000 0.184542 0.000000
O O5 0.500000 0.000000 0.500000
O O6 0.741648 0.000000 0.979926
O O7 0.500000 0.385517 0.500000
O O8 0.591292 0.500000 0.122611
O O9 0.734083 0.341223 0.984593
O O10 0.000000 0.000000 0.500000
O O11 0.104879 0.898981 0.075099
O O12 0.888743 0.697199 0.961170
O O13 0.000000 0.810217 0.000000
O O14 0.134231 0.500000 0.115452
O O15 0.000000 0.358339 0.500000
#
# Coordination Sequence:
#
# PCOD9151581 Si02
#       6
#     4   2   4   2   4   4
#     4  12  26  41  64  95 128 164 205 255 315 369
#     4  12  23  46  70  88 119 164 214 260 302 362
#     4  10  20  40  67  90 121 165 215 262 300 355
#     4  12  27  44  70  94 119 164 212 255 306 370
#     4  12  26  43  62  93 133 164 200 256 317 371
#     4  10  22  41  66  93 123 166 214 256 304 365
#
# _framework density 18.878481000000001
#
# number of rings (size 3 to 8) (size 9 to 14) (size 15 to 20)
#    0.000    0.800    4.000    3.000    5.600    0.800 
#    0.000    0.000    0.000    0.000    0.000    0.000 
#    0.000    0.000    0.000    0.000    0.000    0.000 
#
# Total GULP energy -111712.096809 kJ/mol
# GULP energy per Si atom -5585.604840 kJ/mol
# Density = 1.883551 g / cm^3
# Si number density = 18.878481 Si / 1000 Ang^3
#
#
#
# Elastic Constant Matrix: (Units=GPa)
#
#
# Indices 1 2 3 4 5 6 
#
# 1 158.0286 72.7188 91.7297 0.0000 -9.2447 0.0000
# 2 72.7188 88.0435 38.2414 0.0000 5.3777 0.0000
# 3 91.7297 38.2414 179.6818 0.0000 -9.2414 0.0000
# 4 0.0000 0.0000 0.0000 38.4629 0.0000 20.1651
# 5 -9.2447 5.3777 -9.2414 0.0000 48.5971 0.0000
# 6 0.0000 0.0000 0.0000 20.1651 0.0000 63.7140
#
#
#
# Elastic Compliance Matrix: (Units=1/GPa)
#
#
# Indices 1 2 3 4 5 6 
#
# 1 0.013529 -0.009254 -0.004799 0.000000 0.002685 0.000000
# 2 -0.009254 0.019022 0.000481 0.000000 -0.003774 0.000000
# 3 -0.004799 0.000481 0.007941 0.000000 0.000544 0.000000
# 4 0.000000 0.000000 0.000000 0.031171 0.000000 -0.009865
# 5 0.002685 -0.003774 0.000544 0.000000 0.021609 0.000000
# 6 0.000000 0.000000 0.000000 -0.009865 0.000000 0.018818
#
#
# Mechanical properties :
#
#
# Convention : Reuss Voigt Hill
#
# Bulk Modulus (GPa) = 74.90844 92.34820 83.62832
# Shear Modulus (GPa) = 34.79895 45.02575 39.91235
#
# Velocity S-wave (km/s) = 4.29804 4.88898 4.60300
# Velocity P-wave (km/s) = 8.02473 8.99404 8.52318
#
# Compressibility (1/GPa) = 0.01334963
#
# Stress axis : x y z
#
# Youngs Moduli (GPa) = 73.91567 52.56981 125.93006
#
# Poissons Ratio (x) = 0.48646 0.60436
# Poissons Ratio (y) = 0.68399 -0.06063
# Poissons Ratio (z) = 0.35473 -0.02531
#
# Static dielectric constant tensor:
#      x y z
#    x 1.603770 0.000000 0.018180 
#    y 0.000000 1.666890 0.000000 
#    z 0.018180 0.000000 1.712000 
# 
# From -- ./inp_files/17798.got.cif
#   From: 2010.05.17/outbox.cif.g08.bks.cpg/sg10_9_cif.got.tgz:17798.got - 2010.06.03 11:33:40.
