data_PCOD9151403
_publ_section_title
;
Structure prediction by ZEFSAII (Michael W. Deem and Ramdas Pophale) SiO2 
 PCOD9151403
Probable space group: P 2/M
;
_chemical_formula_sum "Si O2"
_cell_formula_units_Z 30
_cell_length_a 9.218200
_cell_length_b 14.556285
_cell_length_c 23.272374
_cell_angle_alpha 90.000000
_cell_angle_beta 30.818959
_cell_angle_gamma 90.000000
_cell_volume 1599.869881
_symmetry_space_group_name_H-M "P 2/M"
_symmetry_group_IT_number 10
_symmetry_cell_setting 'monoclinic'
loop_
_space_group_symop_operation_xyz
x,y,z
-x,y,-z
-x,-y,-z
x,-y,z
loop_
_atom_site_type_symbol
_atom_site_label
_atom_site_fract_x
_atom_site_fract_y
_atom_site_fract_z
Si Si1 0.296722 0.608381 0.364974
Si Si2 0.842962 0.394409 0.719093
Si Si3 0.682228 0.890475 0.612898
Si Si4 0.708737 0.109984 0.156519
Si Si5 0.687821 0.723770 0.883296
Si Si6 0.320335 0.889354 0.967804
Si Si7 0.648698 0.260981 0.327609
Si Si8 0.500000 0.344802 0.500000
O O1 0.376587 0.500000 0.340644
O O2 0.254288 0.633176 0.312260
O O3 0.516319 0.671966 0.324340
O O4 0.000000 0.617300 0.500000
O O5 0.757152 0.500000 0.757406
O O6 0.709498 0.333540 0.815947
O O7 0.189483 0.392558 0.601767
O O8 0.566918 0.865913 0.714763
O O9 0.471897 0.840182 0.641951
O O10 0.000000 0.856503 0.500000
O O11 0.677172 0.000000 0.607044
O O12 0.677086 0.132968 0.101104
O O13 0.736991 0.000000 0.146769
O O14 0.995144 0.139314 0.091719
O O15 0.547473 0.823525 0.919268
O O16 0.014582 0.733632 0.789254
O O17 0.500000 0.683280 0.000000
O O18 0.361936 0.000000 0.962580
O O19 0.535312 0.290525 0.428560
#
# Coordination Sequence:
#
# PCOD9151403 Si02
#       8
#     4   4   4   4   4   4   4   2
#     4  10  20  38  66  96 113 140 193 253 305 344
#     4  10  22  40  63  88 119 151 193 243 294 353
#     4  10  21  34  53  82 118 159 194 228 287 352
#     4   8  16  33  58  86 108 143 202 254 294 330
#     4  11  25  40  55  88 123 164 200 230 295 356
#     4   9  18  35  60  86 113 149 200 256 291 328
#     4  11  23  37  59  85 123 154 194 247 291 346
#     4  10  21  36  59  94 116 150 189 240 307 348
#
# _framework density 18.751524
#
# number of rings (size 3 to 8) (size 9 to 14) (size 15 to 20)
#    0.000    2.133    1.333    2.200    1.867    4.267 
#    0.000    0.333    0.000    1.600    0.000    0.000 
#    0.000    0.000    0.000    0.000    0.000    0.000 
#
# Total GULP energy -167152.872111 kJ/mol
# GULP energy per Si atom -5571.762404 kJ/mol
# Density = 1.870884 g / cm^3
# Si number density = 18.751524 Si / 1000 Ang^3
#
#
#
# Elastic Constant Matrix: (Units=GPa)
#
#
# Indices 1 2 3 4 5 6 
#
# 1 116.2107 45.8306 59.9221 0.0000 8.2536 0.0000
# 2 45.8306 63.5526 41.0926 0.0000 4.3487 0.0000
# 3 59.9221 41.0926 142.8601 0.0000 4.9551 0.0000
# 4 0.0000 0.0000 0.0000 3.8587 0.0000 14.4923
# 5 8.2536 4.3487 4.9551 0.0000 34.2133 0.0000
# 6 0.0000 0.0000 0.0000 14.4923 0.0000 -0.3069
#
#
#
# Elastic Compliance Matrix: (Units=1/GPa)
#
#
# Indices 1 2 3 4 5 6 
#
# 1 0.013394 -0.007302 -0.003455 0.000000 -0.001803 0.000000
# 2 -0.007302 0.023405 -0.003646 0.000000 -0.000685 0.000000
# 3 -0.003455 -0.003646 0.009501 0.000000 -0.000079 0.000000
# 4 0.000000 0.000000 0.000000 0.001453 0.000000 0.068615
# 5 -0.001803 -0.000685 -0.000079 0.000000 0.029762 0.000000
# 6 0.000000 0.000000 0.000000 0.068615 0.000000 -0.018270
#
#
# Mechanical properties :
#
#
# Convention : Reuss Voigt Hill
#
# Bulk Modulus (GPa) = 57.16224 68.47933 62.82079
# Shear Modulus (GPa) = 53.25824 19.27157 36.26491
#
# Velocity S-wave (km/s) = 5.33514 3.20931 4.40246
# Velocity P-wave (km/s) = 8.27659 7.09447 7.70822
#
# Compressibility (1/GPa) = 0.01749407
#
# Stress axis : x y z
#
# Youngs Moduli (GPa) = 74.65783 42.72623 105.25607
#
# Poissons Ratio (x) = 0.31197 0.36371
# Poissons Ratio (y) = 0.54513 0.38374
# Poissons Ratio (z) = 0.25798 0.15577
#
# Static dielectric constant tensor:
#      x y z
#    x 1.589160 0.000000 -0.001760 
#    y 0.000000 1.658860 0.000000 
#    z -0.001760 0.000000 1.666010 
# 
# From -- ./inp_files/88202.got.cif
#   From: 2010.05.17/outbox.cif.g08.bks.cpg/sg10_45_cif.got.tgz:88202.got - 2010.06.03 11:33:40.
