data_PCOD9151997
_publ_section_title
;
Structure prediction by ZEFSAII (Michael W. Deem and Ramdas Pophale) SiO2 
 PCOD9151997
Probable space group: P 2/M
;
_chemical_formula_sum "Si O2"
_cell_formula_units_Z 32
_cell_length_a 23.125720
_cell_length_b 8.146214
_cell_length_c 15.154302
_cell_angle_alpha 90.000000
_cell_angle_beta 149.403574
_cell_angle_gamma 90.000000
_cell_volume 1453.096052
_symmetry_space_group_name_H-M "P 2/M"
_symmetry_group_IT_number 10
_symmetry_cell_setting 'monoclinic'
loop_
_space_group_symop_operation_xyz
x,y,z
-x,y,-z
-x,-y,-z
x,-y,z
loop_
_atom_site_type_symbol
_atom_site_label
_atom_site_fract_x
_atom_site_fract_y
_atom_site_fract_z
Si Si1 0.718680 0.306121 0.932574
Si Si2 0.915132 0.801185 0.966825
Si Si3 0.099098 0.306337 0.568742
Si Si4 0.964843 0.807462 0.232308
Si Si5 0.511830 0.193075 0.310097
Si Si6 0.666526 0.307096 0.666301
Si Si7 0.346016 0.692759 0.864032
Si Si8 0.591914 0.809465 0.236424
O O1 0.741873 0.500000 0.958896
O O2 0.611811 0.275408 0.854779
O O3 0.677057 0.247565 0.780960
O O4 0.838741 0.220955 0.107050
O O5 0.957705 0.752463 0.120771
O O6 0.903472 0.000000 0.952202
O O7 0.791147 0.725217 0.790728
O O8 0.000000 0.755856 0.000000
O O9 0.107801 0.500000 0.600922
O O10 0.227113 0.242697 0.745670
O O11 0.000000 0.233658 0.500000
O O12 0.054648 0.284458 0.410992
O O13 0.991639 0.000000 0.268769
O O14 0.572603 0.224403 0.482622
O O15 0.595516 0.251063 0.341801
O O16 0.495320 0.000000 0.275556
O O17 0.640578 0.500000 0.634860
O O18 0.361888 0.500000 0.906464
O O19 0.343739 0.710396 0.754498
O O20 0.457278 0.791813 0.038444
O O21 0.626509 0.000000 0.276276
#
# Coordination Sequence:
#
# PCOD9151997 Si02
#       8
#     4   4   4   4   4   4   4   4
#     4  10  21  37  57  80 114 152 187 232 284 339
#     4   9  19  37  59  82 113 152 190 231 283 341
#     4  10  23  41  60  86 118 154 194 239 295 347
#     4  10  21  37  58  86 115 149 193 236 285 345
#     4  11  23  36  55  84 113 147 190 233 281 339
#     4  10  21  36  54  81 113 148 188 231 282 334
#     4  10  21  39  62  85 113 149 192 236 286 346
#     4  10  22  39  59  84 115 150 189 236 291 343
#
# _framework density 22.021943
#
# number of rings (size 3 to 8) (size 9 to 14) (size 15 to 20)
#    0.000    2.000    0.000    3.375    1.750    8.000 
#    0.000    3.750    0.000    0.000    0.000    0.000 
#    0.000    0.000    0.000    0.000    0.000    0.000 
#
# Total GULP energy -178810.232220 kJ/mol
# GULP energy per Si atom -5587.819757 kJ/mol
# Density = 2.197182 g / cm^3
# Si number density = 22.021943 Si / 1000 Ang^3
#
#
#
# Elastic Constant Matrix: (Units=GPa)
#
#
# Indices 1 2 3 4 5 6 
#
# 1 74.8943 -0.0701 10.4417 0.0000 17.5858 0.0000
# 2 -0.0701 17.1215 -7.8631 0.0000 0.9606 0.0000
# 3 10.4417 -7.8631 54.6130 0.0000 7.0424 0.0000
# 4 0.0000 0.0000 0.0000 22.1843 0.0000 -1.7057
# 5 17.5858 0.9606 7.0424 0.0000 25.5220 0.0000
# 6 0.0000 0.0000 0.0000 -1.7057 0.0000 21.7706
#
#
#
# Elastic Compliance Matrix: (Units=1/GPa)
#
#
# Indices 1 2 3 4 5 6 
#
# 1 0.016082 -0.000133 -0.001727 0.000000 -0.010599 0.000000
# 2 -0.000133 0.063169 0.009762 0.000000 -0.004980 0.000000
# 3 -0.001727 0.009762 0.020676 0.000000 -0.004883 0.000000
# 4 0.000000 0.000000 0.000000 0.045350 0.000000 0.003553
# 5 -0.010599 -0.004980 -0.004883 0.000000 0.048020 0.000000
# 6 0.000000 0.000000 0.000000 0.003553 0.000000 0.046212
#
#
# Mechanical properties :
#
#
# Convention : Reuss Voigt Hill
#
# Bulk Modulus (GPa) = 8.64067 16.84954 12.74510
# Shear Modulus (GPa) = 19.06359 23.50339 21.28349
#
# Velocity S-wave (km/s) = 2.94541 3.27046 3.11218
# Velocity P-wave (km/s) = 3.93693 4.68284 4.32599
#
# Compressibility (1/GPa) = 0.11573181
#
# Stress axis : x y z
#
# Youngs Moduli (GPa) = 62.18275 15.83067 48.36507
#
# Poissons Ratio (x) = 0.00210 0.08353
# Poissons Ratio (y) = 0.00825 -0.47216
# Poissons Ratio (z) = 0.10739 -0.15455
#
# Static dielectric constant tensor:
#      x y z
#    x 1.868680 0.000000 -0.030530 
#    y 0.000000 1.751410 0.000000 
#    z -0.030530 0.000000 1.792900 
# 
# From -- ./inp_files/71667.got.cif
#   From: 2010.05.17/outbox.cif.g08.bks.cpg/sg10_36_cif.got.tgz:71667.got - 2010.06.03 11:33:40.
