data_PCOD9151023
_publ_section_title
;
Structure prediction by ZEFSAII (Michael W. Deem and Ramdas Pophale) SiO2 
 PCOD9151023
Probable space group: P 2/M
;
_chemical_formula_sum "Si O2"
_cell_formula_units_Z 28
_cell_length_a 7.453368
_cell_length_b 13.892178
_cell_length_c 17.888888
_cell_angle_alpha 90.000000
_cell_angle_beta 125.679294
_cell_angle_gamma 90.000000
_cell_volume 1504.595248
_symmetry_space_group_name_H-M "P 2/M"
_symmetry_group_IT_number 10
_symmetry_cell_setting 'monoclinic'
loop_
_space_group_symop_operation_xyz
x,y,z
-x,y,-z
-x,-y,-z
x,-y,z
loop_
_atom_site_type_symbol
_atom_site_label
_atom_site_fract_x
_atom_site_fract_y
_atom_site_fract_z
Si Si1 0.765540 0.320700 0.901174
Si Si2 0.614057 0.610492 0.099572
Si Si3 0.452927 0.107970 0.300239
Si Si4 0.891271 0.383858 0.766311
Si Si5 0.244813 0.895946 0.094098
Si Si6 0.045889 0.112898 0.600116
Si Si7 0.299815 0.244950 0.395374
O O1 0.568446 0.387358 0.881047
O O2 0.802010 0.337958 0.822093
O O3 0.684010 0.213335 0.905285
O O4 0.000000 0.339622 0.000000
O O5 0.663170 0.500000 0.090556
O O6 0.853010 0.649642 0.176847
O O7 0.500000 0.657991 0.000000
O O8 0.271578 0.105196 0.190476
O O9 0.693238 0.132800 0.324407
O O10 0.387579 0.177366 0.350207
O O11 0.478561 0.000000 0.337198
O O12 0.871222 0.500000 0.765002
O O13 0.777837 0.340870 0.665492
O O14 0.350979 0.000000 0.097114
O O15 0.000000 0.899195 0.000000
O O16 0.000000 0.122848 0.500000
O O17 0.892193 0.185900 0.608365
O O18 0.002882 0.000000 0.609395
O O19 0.500000 0.263446 0.500000
#
# Coordination Sequence:
#
# PCOD9151023 Si02
#       7
#     4   4   4   4   4   4   4
#     4  11  20  36  65  89 117 159 197 237 292 345
#     4  10  21  37  60  91 121 147 189 250 300 343
#     4  10  20  37  61  90 121 152 192 240 288 343
#     4  11  25  41  58  87 120 155 199 246 298 353
#     4   9  19  35  57  87 125 161 191 225 274 347
#     4  10  21  37  61  92 119 147 189 246 303 349
#     4  12  24  39  62  85 114 156 200 245 297 353
#
# _framework density 18.609655
#
# number of rings (size 3 to 8) (size 9 to 14) (size 15 to 20)
#    0.000    1.571    4.286    0.857    2.000    1.429 
#    0.000    0.000    0.000    1.714    0.000    0.000 
#    0.000    0.000    0.000    0.000    0.000    0.000 
#
# Total GULP energy -155913.064446 kJ/mol
# GULP energy per Si atom -5568.323730 kJ/mol
# Density = 1.856730 g / cm^3
# Si number density = 18.609655 Si / 1000 Ang^3
#
#
#
# Elastic Constant Matrix: (Units=GPa)
#
#
# Indices 1 2 3 4 5 6 
#
# 1 86.4368 29.5102 41.9197 0.0000 -0.1101 0.0000
# 2 29.5102 91.0968 30.5576 0.0000 2.1830 0.0000
# 3 41.9197 30.5576 135.3884 0.0000 0.8268 0.0000
# 4 0.0000 0.0000 0.0000 13.8498 0.0000 16.9661
# 5 -0.1101 2.1830 0.8268 0.0000 15.5877 0.0000
# 6 0.0000 0.0000 0.0000 16.9661 0.0000 -26.2493
#
#
#
# Elastic Compliance Matrix: (Units=1/GPa)
#
#
# Indices 1 2 3 4 5 6 
#
# 1 0.014569 -0.003488 -0.003729 0.000000 0.000789 0.000000
# 2 -0.003488 0.012748 -0.001787 0.000000 -0.001715 0.000000
# 3 -0.003729 -0.001787 0.008945 0.000000 -0.000251 0.000000
# 4 0.000000 0.000000 0.000000 0.040297 0.000000 0.026046
# 5 0.000789 -0.001715 -0.000251 0.000000 0.064412 0.000000
# 6 0.000000 0.000000 0.000000 0.026046 0.000000 -0.021262
#
#
# Mechanical properties :
#
#
# Convention : Reuss Voigt Hill
#
# Bulk Modulus (GPa) = 54.77681 57.43301 56.10491
# Shear Modulus (GPa) = 34.77015 14.69994 24.73505
#
# Velocity S-wave (km/s) = 4.32718 2.81358 3.64971
# Velocity P-wave (km/s) = 7.38001 6.44080 6.92634
#
# Compressibility (1/GPa) = 0.01825590
#
# Stress axis : x y z
#
# Youngs Moduli (GPa) = 68.63798 78.44582 111.78871
#
# Poissons Ratio (x) = 0.27360 0.41682
# Poissons Ratio (y) = 0.23939 0.19975
# Poissons Ratio (z) = 0.25592 0.14017
#
# Static dielectric constant tensor:
#      x y z
#    x 1.595610 0.000000 0.000940 
#    y 0.000000 1.704800 0.000000 
#    z 0.000940 0.000000 1.648990 
# 
# From -- ./inp_files/73572.got.cif
#   From: 2010.05.17/outbox.cif.g08.bks.cpg/sg10_37_cif.got.tgz:73572.got - 2010.06.03 11:33:40.
