data_PCOD9151538
_publ_section_title
;
Structure prediction by ZEFSAII (Michael W. Deem and Ramdas Pophale) SiO2 
 PCOD9151538
Probable space group: P 2/M
;
_chemical_formula_sum "Si O2"
_cell_formula_units_Z 32
_cell_length_a 11.864206
_cell_length_b 7.525526
_cell_length_c 15.646401
_cell_angle_alpha 90.000000
_cell_angle_beta 86.503522
_cell_angle_gamma 90.000000
_cell_volume 1394.378972
_symmetry_space_group_name_H-M "P 2/M"
_symmetry_group_IT_number 10
_symmetry_cell_setting 'monoclinic'
loop_
_space_group_symop_operation_xyz
x,y,z
-x,y,-z
-x,-y,-z
x,-y,z
loop_
_atom_site_type_symbol
_atom_site_label
_atom_site_fract_x
_atom_site_fract_y
_atom_site_fract_z
Si Si1 0.580667 0.714194 0.420325
Si Si2 0.587343 0.785622 0.919643
Si Si3 0.172854 0.297643 0.021189
Si Si4 0.069156 0.282671 0.370174
Si Si5 0.440305 0.210692 0.770457
Si Si6 0.194685 0.202423 0.827225
Si Si7 0.051854 0.296715 0.187585
Si Si8 0.170880 0.283534 0.542164
O O1 0.500000 0.777933 0.500000
O O2 0.584181 0.500000 0.424945
O O3 0.534025 0.761865 0.329534
O O4 0.709765 0.778164 0.426400
O O5 0.707151 0.704776 0.936981
O O6 0.531907 0.722393 0.833749
O O7 0.602590 0.000000 0.916507
O O8 0.500000 0.746656 0.000000
O O9 0.138646 0.500000 0.000879
O O10 0.087099 0.217185 0.094805
O O11 0.188223 0.203389 0.930282
O O12 0.068700 0.500000 0.367335
O O13 0.098191 0.218483 0.273786
O O14 0.150754 0.231354 0.444155
O O15 0.941918 0.227568 0.402302
O O16 0.314469 0.283240 0.794573
O O17 0.432070 0.000000 0.788532
O O18 0.083078 0.296482 0.798826
O O19 0.188781 0.000000 0.796242
O O20 0.092461 0.500000 0.180449
O O21 0.171073 0.500000 0.544375
#
# Coordination Sequence:
#
# PCOD9151538 Si02
#       8
#     4   4   4   4   4   4   4   4
#     4  10  21  35  54  83 115 144 180 229 281 337
#     4  10  20  40  62  79 108 148 194 240 281 336
#     4  11  23  36  54  83 115 146 184 234 290 341
#     4   8  14  27  49  73 100 137 176 215 263 322
#     4  10  22  39  60  83 108 147 193 237 286 335
#     4  11  22  38  58  79 108 149 194 233 277 338
#     4  10  21  35  52  81 117 146 178 229 286 336
#     4   8  14  27  49  75 101 135 177 215 261 320
#
# _framework density 22.949283000000001
#
# number of rings (size 3 to 8) (size 9 to 14) (size 15 to 20)
#    0.000    2.250    1.250    2.625    0.000    6.500 
#    0.000    2.500    0.000    0.750    0.000    3.500 
#    0.000    0.000    0.000    0.000    0.000    0.000 
#
# Total GULP energy -178824.910945 kJ/mol
# GULP energy per Si atom -5588.278467 kJ/mol
# Density = 2.289705 g / cm^3
# Si number density = 22.949283 Si / 1000 Ang^3
#
#
#
# Elastic Constant Matrix: (Units=GPa)
#
#
# Indices 1 2 3 4 5 6 
#
# 1 60.0125 0.5081 5.6826 0.0000 19.8822 0.0000
# 2 0.5081 61.5501 -7.4886 0.0000 -2.3007 0.0000
# 3 5.6826 -7.4886 132.4462 0.0000 13.9054 0.0000
# 4 0.0000 0.0000 0.0000 32.4135 0.0000 12.5989
# 5 19.8822 -2.3007 13.9054 0.0000 29.3000 0.0000
# 6 0.0000 0.0000 0.0000 12.5989 0.0000 12.7913
#
#
#
# Elastic Compliance Matrix: (Units=1/GPa)
#
#
# Indices 1 2 3 4 5 6 
#
# 1 0.021574 -0.000664 0.000610 0.000000 -0.014981 0.000000
# 2 -0.000664 0.016402 0.000814 0.000000 0.001352 0.000000
# 3 0.000610 0.000814 0.008006 0.000000 -0.004149 0.000000
# 4 0.000000 0.000000 0.000000 0.049990 0.000000 -0.049238
# 5 -0.014981 0.001352 -0.004149 0.000000 0.046371 0.000000
# 6 0.000000 0.000000 0.000000 -0.049238 0.000000 0.126676
#
#
# Mechanical properties :
#
#
# Convention : Reuss Voigt Hill
#
# Bulk Modulus (GPa) = 21.05200 27.93479 24.49339
# Shear Modulus (GPa) = 17.64708 31.92141 24.78425
#
# Velocity S-wave (km/s) = 2.77602 3.73360 3.28984
# Velocity P-wave (km/s) = 4.41228 5.54844 5.01265
#
# Compressibility (1/GPa) = 0.04750144
#
# Stress axis : x y z
#
# Youngs Moduli (GPa) = 46.35126 60.96831 124.91072
#
# Poissons Ratio (x) = 0.04048 -0.07616
# Poissons Ratio (y) = 0.03077 -0.10166
# Poissons Ratio (z) = -0.02826 -0.04962
#
# Static dielectric constant tensor:
#      x y z
#    x 1.828930 0.000000 -0.002910 
#    y 0.000000 1.877730 0.000000 
#    z -0.002910 0.000000 1.864160 
# 
# From -- ./inp_files/63817.got.cif
#   From: 2010.05.17/outbox.cif.g08.bks.cpg/sg10_32_cif.got.tgz:63817.got - 2010.06.03 11:33:40.
