data_PCOD9151321
_publ_section_title
;
Structure prediction by ZEFSAII (Michael W. Deem and Ramdas Pophale) SiO2 
 PCOD9151321
Probable space group: P 2/M
;
_chemical_formula_sum "Si O2"
_cell_formula_units_Z 24
_cell_length_a 11.094903
_cell_length_b 8.305261
_cell_length_c 21.745394
_cell_angle_alpha 90.000000
_cell_angle_beta 33.357589
_cell_angle_gamma 90.000000
_cell_volume 1101.788606
_symmetry_space_group_name_H-M "P 2/M"
_symmetry_group_IT_number 10
_symmetry_cell_setting 'monoclinic'
loop_
_space_group_symop_operation_xyz
x,y,z
-x,y,-z
-x,-y,-z
x,-y,z
loop_
_atom_site_type_symbol
_atom_site_label
_atom_site_fract_x
_atom_site_fract_y
_atom_site_fract_z
Si Si1 0.412174 0.305656 0.665333
Si Si2 0.349509 0.812386 0.239996
Si Si3 0.837140 0.184536 0.342974
Si Si4 0.777019 0.694720 0.128138
Si Si5 0.110938 0.686701 0.544730
Si Si6 0.705804 0.688574 0.871614
O O1 0.415353 0.500000 0.657109
O O2 0.343126 0.230545 0.630151
O O3 0.242784 0.263276 0.791443
O O4 0.657533 0.255253 0.580820
O O5 0.562012 0.764523 0.187479
O O6 0.349208 0.712345 0.176693
O O7 0.116228 0.775329 0.371757
O O8 0.353820 0.000000 0.222316
O O9 0.846661 0.293603 0.399782
O O10 0.073479 0.212656 0.210784
O O11 0.813742 0.000000 0.372629
O O12 0.766445 0.500000 0.128352
O O13 0.000000 0.748069 0.000000
O O14 0.080515 0.500000 0.542160
O O15 0.749097 0.500000 0.865783
O O16 0.500000 0.740121 0.000000
#
# Coordination Sequence:
#
# PCOD9151321 Si02
#       6
#     4   4   4   4   4   4
#     4  10  22  39  61  88 117 157 204 247 290 344
#     4  11  23  39  60  87 122 153 190 245 300 352
#     4  11  22  35  56  89 126 156 188 240 301 356
#     4  10  23  43  64  85 114 156 204 246 289 348
#     4  10  20  38  63  88 118 155 200 246 291 349
#     4  10  21  37  60  85 113 155 202 242 286 346
#
# _framework density 21.782762999999999
#
# number of rings (size 3 to 8) (size 9 to 14) (size 15 to 20)
#    0.000    1.667    0.000    6.500    2.333    6.333 
#    0.000    3.333    0.000    0.000    0.000    0.000 
#    0.000    0.000    0.000    0.000    0.000    0.000 
#
# Total GULP energy -134183.400109 kJ/mol
# GULP energy per Si atom -5590.975005 kJ/mol
# Density = 2.173318 g / cm^3
# Si number density = 21.782763 Si / 1000 Ang^3
#
#
#
# Elastic Constant Matrix: (Units=GPa)
#
#
# Indices 1 2 3 4 5 6 
#
# 1 78.4432 4.4630 18.3722 0.0000 -19.1193 0.0000
# 2 4.4630 27.7675 11.6405 0.0000 -4.0250 0.0000
# 3 18.3722 11.6405 121.7169 0.0000 -7.5402 0.0000
# 4 0.0000 0.0000 0.0000 13.6943 0.0000 -35.6539
# 5 -19.1193 -4.0250 -7.5402 0.0000 28.4746 0.0000
# 6 0.0000 0.0000 0.0000 -35.6539 0.0000 33.4021
#
#
#
# Elastic Compliance Matrix: (Units=1/GPa)
#
#
# Indices 1 2 3 4 5 6 
#
# 1 0.015598 -0.000347 -0.001703 0.000000 0.009973 0.000000
# 2 -0.000347 0.038082 -0.003325 0.000000 0.004269 0.000000
# 3 -0.001703 -0.003325 0.008836 0.000000 0.000726 0.000000
# 4 0.000000 0.000000 0.000000 -0.041046 0.000000 -0.043813
# 5 0.009973 0.004269 0.000726 0.000000 0.042611 0.000000
# 6 0.000000 0.000000 0.000000 -0.043813 0.000000 -0.016828
#
#
# Mechanical properties :
#
#
# Convention : Reuss Voigt Hill
#
# Bulk Modulus (GPa) = 19.31850 32.98657 26.15253
# Shear Modulus (GPa) = 66.43757 28.01099 47.22428
#
# Velocity S-wave (km/s) = 5.52868 3.58987 4.66119
# Velocity P-wave (km/s) = 7.04578 5.68851 6.40321
#
# Compressibility (1/GPa) = 0.05176385
#
# Stress axis : x y z
#
# Youngs Moduli (GPa) = 64.11280 26.25921 113.17520
#
# Poissons Ratio (x) = 0.00912 0.19277
# Poissons Ratio (y) = 0.02227 0.37632
# Poissons Ratio (z) = 0.10920 0.08731
#
# Static dielectric constant tensor:
#      x y z
#    x 1.776110 0.000000 0.007130 
#    y 0.000000 1.738480 0.000000 
#    z 0.007130 0.000000 1.834200 
# 
# From -- ./inp_files/56680.got.cif
#   From: 2010.05.17/outbox.cif.g08.bks.cpg/sg10_29_cif.got.tgz:56680.got - 2010.06.03 11:33:40.
