data_PCOD9151138
_publ_section_title
;
Structure prediction by ZEFSAII (Michael W. Deem and Ramdas Pophale) SiO2 
 PCOD9151138
Probable space group: P 2/M
;
_chemical_formula_sum "Si O2"
_cell_formula_units_Z 28
_cell_length_a 18.253881
_cell_length_b 7.282950
_cell_length_c 22.129405
_cell_angle_alpha 90.000000
_cell_angle_beta 151.838856
_cell_angle_gamma 90.000000
_cell_volume 1388.452477
_symmetry_space_group_name_H-M "P 2/M"
_symmetry_group_IT_number 10
_symmetry_cell_setting 'monoclinic'
loop_
_space_group_symop_operation_xyz
x,y,z
-x,y,-z
-x,-y,-z
x,-y,z
loop_
_atom_site_type_symbol
_atom_site_label
_atom_site_fract_x
_atom_site_fract_y
_atom_site_fract_z
Si Si1 0.542120 0.000000 0.101659
Si Si2 0.088566 0.000000 0.627606
Si Si3 0.729135 0.723420 0.550354
Si Si4 0.621352 0.723988 0.721900
Si Si5 0.978775 0.719618 0.318115
Si Si6 0.179616 0.723840 0.248455
Si Si7 0.305006 0.280720 0.979333
Si Si8 0.823878 0.723329 0.983352
O O1 0.725583 0.000000 0.244506
O O2 0.500000 0.000000 0.000000
O O3 0.457979 0.825217 0.070400
O O4 0.042015 0.825716 0.634785
O O5 0.000000 0.000000 0.500000
O O6 0.730459 0.500000 0.552017
O O7 0.557317 0.782131 0.406744
O O8 0.767142 0.781944 0.646309
O O9 0.865491 0.777326 0.603965
O O10 0.621646 0.500000 0.722201
O O11 0.706182 0.781534 0.721945
O O12 0.719796 0.783145 0.851477
O O13 0.983205 0.500000 0.329945
O O14 0.832527 0.761074 0.168188
O O15 0.180467 0.500000 0.249195
O O16 0.002594 0.781584 0.108194
O O17 0.328324 0.500000 0.996255
O O18 0.247440 0.224274 0.003987
O O19 0.825972 0.500000 0.984266
#
# Coordination Sequence:
#
# PCOD9151138 Si02
#       8
#     2   2   4   4   4   4   4   4
#     4  12  24  42  66  94 117 147 193 237 291 362
#     4  12  28  46  64  94 125 147 185 239 297 364
#     4   9  16  27  46  73 107 149 196 235 277 341
#     4   9  16  23  38  71 113 149 190 244 289 327
#     4  10  20  39  65  89 119 159 196 237 290 350
#     4   9  14  23  40  67 106 151 194 239 286 328
#     4  10  20  37  64  92 119 154 199 245 286 341
#     4   9  16  27  44  72 108 148 193 237 284 337
#
# _framework density 20.166336000000001
#
# number of rings (size 3 to 8) (size 9 to 14) (size 15 to 20)
#    0.000    2.286    2.857    0.857    0.000    5.714 
#    0.000    1.429    0.000    0.000    0.000    6.000 
#    0.000    0.000    0.000    0.000    0.000    0.000 
#
# Total GULP energy -156522.610203 kJ/mol
# GULP energy per Si atom -5590.093222 kJ/mol
# Density = 2.012044 g / cm^3
# Si number density = 20.166336 Si / 1000 Ang^3
#
#
#
# Elastic Constant Matrix: (Units=GPa)
#
#
# Indices 1 2 3 4 5 6 
#
# 1 148.8420 35.3182 91.2303 0.0000 15.4148 0.0000
# 2 35.3182 88.1068 26.7868 0.0000 4.2218 0.0000
# 3 91.2303 26.7868 173.0466 0.0000 3.9112 0.0000
# 4 0.0000 0.0000 0.0000 7.5417 0.0000 49.1317
# 5 15.4148 4.2218 3.9112 0.0000 29.2358 0.0000
# 6 0.0000 0.0000 0.0000 49.1317 0.0000 235.8961
#
#
#
# Elastic Compliance Matrix: (Units=1/GPa)
#
#
# Indices 1 2 3 4 5 6 
#
# 1 0.011104 -0.002598 -0.005344 0.000000 -0.004765 0.000000
# 2 -0.002598 0.012582 -0.000570 0.000000 -0.000371 0.000000
# 3 -0.005344 -0.000570 0.008645 0.000000 0.001744 0.000000
# 4 0.000000 0.000000 0.000000 -0.371576 0.000000 0.077391
# 5 -0.004765 -0.000371 0.001744 0.000000 0.036537 0.000000
# 6 0.000000 0.000000 0.000000 0.077391 0.000000 -0.011880
#
#
# Mechanical properties :
#
#
# Convention : Reuss Voigt Hill
#
# Bulk Modulus (GPa) = 65.32690 79.62956 72.47823
# Shear Modulus (GPa) = -17.09634 71.64540 27.27453
#
# Velocity S-wave (km/s) = -2.91480 5.96694 3.68160
# Velocity P-wave (km/s) = 4.59742 9.32977 7.35462
#
# Compressibility (1/GPa) = 0.01530763
#
# Stress axis : x y z
#
# Youngs Moduli (GPa) = 90.05648 79.47696 115.67320
#
# Poissons Ratio (x) = 0.20649 0.61819
# Poissons Ratio (y) = 0.23397 0.06589
# Poissons Ratio (z) = 0.48128 0.04527
#
# Static dielectric constant tensor:
#      x y z
#    x 1.660860 0.000000 0.002000 
#    y 0.000000 1.786240 0.000000 
#    z 0.002000 0.000000 1.668030 
# 
# From -- ./inp_files/85048.got.cif
#   From: 2010.05.17/outbox.cif.g08.bks.cpg/sg10_43_cif.got.tgz:85048.got - 2010.06.03 11:33:40.
