data_PCOD9151626
_publ_section_title
;
Structure prediction by ZEFSAII (Michael W. Deem and Ramdas Pophale) SiO2 
 PCOD9151626
Probable space group: P 2/M
;
_chemical_formula_sum "Si O2"
_cell_formula_units_Z 20
_cell_length_a 8.558758
_cell_length_b 12.429287
_cell_length_c 11.377257
_cell_angle_alpha 90.000000
_cell_angle_beta 45.262854
_cell_angle_gamma 90.000000
_cell_volume 859.731461
_symmetry_space_group_name_H-M "P 2/M"
_symmetry_group_IT_number 10
_symmetry_cell_setting 'monoclinic'
loop_
_space_group_symop_operation_xyz
x,y,z
-x,y,-z
-x,-y,-z
x,-y,z
loop_
_atom_site_type_symbol
_atom_site_label
_atom_site_fract_x
_atom_site_fract_y
_atom_site_fract_z
Si Si1 0.623191 0.877450 0.155353
Si Si2 0.258529 0.714415 0.354639
Si Si3 0.760883 0.123388 0.338649
Si Si4 0.962319 0.500000 0.878964
Si Si5 0.801471 0.500000 0.503634
Si Si6 0.161198 0.273833 0.146459
O O1 0.400235 0.817333 0.309065
O O2 0.777309 0.873037 0.188057
O O3 0.580220 0.000000 0.148406
O O4 0.720413 0.815340 0.993797
O O5 0.321230 0.609974 0.397888
O O6 0.282185 0.696006 0.202775
O O7 0.000000 0.733641 0.500000
O O8 0.500000 0.137513 0.500000
O O9 0.921860 0.217772 0.297425
O O10 0.818897 0.000000 0.345936
O O11 0.851875 0.384494 0.917334
O O12 0.122886 0.500000 0.673421
O O13 0.000000 0.500000 0.000000
O O14 0.000000 0.500000 0.500000
#
# Coordination Sequence:
#
# PCOD9151626 Si02
#       6
#     4   4   4   2   2   4
#     4  11  25  42  63  99 138 177 228 283 341 400
#     4  11  22  42  71  94 132 181 224 277 336 403
#     4  10  22  41  65  93 132 181 228 278 341 405
#     4  12  24  41  72 106 134 174 228 280 342 409
#     4  10  20  45  69  97 135 179 227 276 339 409
#     4  12  23  42  67  97 138 175 222 280 342 403
#
# _framework density 23.263076999999999
#
# number of rings (size 3 to 8) (size 9 to 14) (size 15 to 20)
#    0.000    1.000    4.000    4.200    0.000    5.200 
#    0.000    3.500    0.000    0.000    0.000    0.000 
#    0.000    0.000    0.000    0.000    0.000    0.000 
#
# Total GULP energy -111677.066668 kJ/mol
# GULP energy per Si atom -5583.853333 kJ/mol
# Density = 2.321013 g / cm^3
# Si number density = 23.263077 Si / 1000 Ang^3
#
#
#
# Elastic Constant Matrix: (Units=GPa)
#
#
# Indices 1 2 3 4 5 6 
#
# 1 68.3338 53.7641 29.0161 0.0000 27.9733 0.0000
# 2 53.7641 207.0880 53.4330 0.0000 5.4672 0.0000
# 3 29.0161 53.4330 113.5567 0.0000 21.7809 0.0000
# 4 0.0000 0.0000 0.0000 43.9300 0.0000 3.8200
# 5 27.9733 5.4672 21.7809 0.0000 52.2342 0.0000
# 6 0.0000 0.0000 0.0000 3.8200 0.0000 18.6911
#
#
#
# Elastic Compliance Matrix: (Units=1/GPa)
#
#
# Indices 1 2 3 4 5 6 
#
# 1 0.024635 -0.005748 -0.001277 0.000000 -0.012059 0.000000
# 2 -0.005748 0.006852 -0.002400 0.000000 0.003362 0.000000
# 3 -0.001277 -0.002400 0.010959 0.000000 -0.003635 0.000000
# 4 0.000000 0.000000 0.000000 0.023175 0.000000 -0.004736
# 5 -0.012059 0.003362 -0.003635 0.000000 0.026766 0.000000
# 6 0.000000 0.000000 0.000000 -0.004736 0.000000 0.054469
#
#
# Mechanical properties :
#
#
# Convention : Reuss Voigt Hill
#
# Bulk Modulus (GPa) = 42.38117 73.48945 57.93531
# Shear Modulus (GPa) = 28.80647 39.82209 34.31428
#
# Velocity S-wave (km/s) = 3.52275 4.14190 3.84481
# Velocity P-wave (km/s) = 5.89950 7.38464 6.68345
#
# Compressibility (1/GPa) = 0.02359539
#
# Stress axis : x y z
#
# Youngs Moduli (GPa) = 40.59243 145.95034 91.24915
#
# Poissons Ratio (x) = 0.83890 0.11655
# Poissons Ratio (y) = 0.23332 0.21901
# Poissons Ratio (z) = 0.05185 0.35030
#
# Static dielectric constant tensor:
#      x y z
#    x 1.920740 0.000000 0.005450 
#    y 0.000000 1.837910 0.000000 
#    z 0.005450 0.000000 2.043530 
# 
# From -- ./inp_files/41904.got.cif
#   From: 2010.05.17/outbox.cif.g08.bks.cpg/sg10_21_cif.got.tgz:41904.got - 2010.06.03 11:33:40.
