data_PCOD9151445
_publ_section_title
;
Structure prediction by ZEFSAII (Michael W. Deem and Ramdas Pophale) SiO2 
 PCOD9151445
Probable space group: P 2/M
;
_chemical_formula_sum "Si O2"
_cell_formula_units_Z 28
_cell_length_a 26.739167
_cell_length_b 7.704875
_cell_length_c 10.344297
_cell_angle_alpha 90.000000
_cell_angle_beta 141.568171
_cell_angle_gamma 90.000000
_cell_volume 1324.688024
_symmetry_space_group_name_H-M "P 2/M"
_symmetry_group_IT_number 10
_symmetry_cell_setting 'monoclinic'
loop_
_space_group_symop_operation_xyz
x,y,z
-x,y,-z
-x,-y,-z
x,-y,z
loop_
_atom_site_type_symbol
_atom_site_label
_atom_site_fract_x
_atom_site_fract_y
_atom_site_fract_z
Si Si1 0.644420 0.708378 0.021244
Si Si2 0.519106 0.710557 0.187188
Si Si3 0.948093 0.199069 0.780703
Si Si4 0.773174 0.701043 0.491773
Si Si5 0.753930 0.208501 0.003296
Si Si6 0.701049 0.796520 0.615572
Si Si7 0.929407 0.212813 0.454910
O O1 0.641171 0.500000 0.025405
O O2 0.704863 0.770117 0.256327
O O3 0.554600 0.769979 0.871570
O O4 0.684286 0.751355 0.965474
O O5 0.522956 0.500000 0.196329
O O6 0.605244 0.776091 0.407716
O O7 0.500000 0.761341 0.000000
O O8 0.855915 0.200414 0.638489
O O9 0.949584 0.275254 0.640107
O O10 0.977478 0.000000 0.826334
O O11 0.000000 0.282679 0.000000
O O12 0.788398 0.500000 0.488979
O O13 0.741562 0.710845 0.573250
O O14 0.731838 0.272965 0.815553
O O15 0.759233 0.000000 0.006176
O O16 0.840673 0.271335 0.230457
O O17 0.721277 0.000000 0.649655
O O18 0.000000 0.262537 0.500000
O O19 0.926660 0.000000 0.452716
#
# Coordination Sequence:
#
# PCOD9151445 Si02
#       7
#     4   4   4   4   4   4   4
#     4  10  21  38  62  85 112 155 199 239 286 351
#     4  10  20  39  61  84 117 155 197 241 291 348
#     4  10  21  36  60  91 118 150 196 245 291 345
#     4  11  22  39  61  85 119 159 197 240 291 348
#     4  10  22  39  59  85 119 154 192 240 292 350
#     4  11  24  38  58  90 121 152 196 245 293 347
#     4   9  18  34  57  83 114 152 188 231 288 344
#
# _framework density 21.137053999999999
#
# number of rings (size 3 to 8) (size 9 to 14) (size 15 to 20)
#    0.000    1.857    2.857    0.857    2.000    3.429 
#    0.000    2.857    0.000    0.857    0.000    0.000 
#    0.000    0.000    0.000    0.000    0.000    0.000 
#
# Total GULP energy -156439.015823 kJ/mol
# GULP energy per Si atom -5587.107708 kJ/mol
# Density = 2.108894 g / cm^3
# Si number density = 21.137054 Si / 1000 Ang^3
#
#
#
# Elastic Constant Matrix: (Units=GPa)
#
#
# Indices 1 2 3 4 5 6 
#
# 1 138.9591 -12.9448 56.0723 0.0000 -10.8715 0.0000
# 2 -12.9448 37.7637 -3.1021 0.0000 -0.0147 0.0000
# 3 56.0723 -3.1021 126.0910 0.0000 -24.5237 0.0000
# 4 0.0000 0.0000 0.0000 12.4674 0.0000 5.8126
# 5 -10.8715 -0.0147 -24.5237 0.0000 34.5816 0.0000
# 6 0.0000 0.0000 0.0000 5.8126 0.0000 35.6309
#
#
#
# Elastic Compliance Matrix: (Units=1/GPa)
#
#
# Indices 1 2 3 4 5 6 
#
# 1 0.009052 0.002779 -0.003948 0.000000 0.000047 0.000000
# 2 0.002779 0.027396 -0.000452 0.000000 0.000565 0.000000
# 3 -0.003948 -0.000452 0.010943 0.000000 0.006519 0.000000
# 4 0.000000 0.000000 0.000000 0.086812 0.000000 -0.014162
# 5 0.000047 0.000565 0.006519 0.000000 0.033555 0.000000
# 6 0.000000 0.000000 0.000000 -0.014162 0.000000 0.030376
#
#
# Mechanical properties :
#
#
# Convention : Reuss Voigt Hill
#
# Bulk Modulus (GPa) = 22.65054 42.54051 32.59552
# Shear Modulus (GPa) = 23.13828 34.05521 28.59675
#
# Velocity S-wave (km/s) = 3.31218 4.01828 3.68220
# Velocity P-wave (km/s) = 5.03654 6.45744 5.79073
#
# Compressibility (1/GPa) = 0.04414907
#
# Stress axis : x y z
#
# Youngs Moduli (GPa) = 110.47402 36.50162 91.38134
#
# Poissons Ratio (x) = -0.10142 0.36076
# Poissons Ratio (y) = -0.30696 0.04128
# Poissons Ratio (z) = 0.43613 0.01649
#
# Static dielectric constant tensor:
#      x y z
#    x 1.720530 0.000000 -0.010730 
#    y 0.000000 1.892680 0.000000 
#    z -0.010730 0.000000 1.749430 
# 
# From -- ./inp_files/37345.got.cif
#   From: 2010.05.17/outbox.cif.g08.bks.cpg/sg10_19_cif.got.tgz:37345.got - 2010.06.03 11:33:40.
