data_PCOD9151635
_publ_section_title
;
Structure prediction by ZEFSAII (Michael W. Deem and Ramdas Pophale) SiO2 
 PCOD9151635
Probable space group: P 2/M
;
_chemical_formula_sum "Si O2"
_cell_formula_units_Z 24
_cell_length_a 12.325829
_cell_length_b 7.471307
_cell_length_c 12.325656
_cell_angle_alpha 90.000000
_cell_angle_beta 89.996345
_cell_angle_gamma 90.000000
_cell_volume 1135.070306
_symmetry_space_group_name_H-M "P 2/M"
_symmetry_group_IT_number 10
_symmetry_cell_setting 'monoclinic'
loop_
_space_group_symop_operation_xyz
x,y,z
-x,y,-z
-x,-y,-z
x,-y,z
loop_
_atom_site_type_symbol
_atom_site_label
_atom_site_fract_x
_atom_site_fract_y
_atom_site_fract_z
Si Si1 0.327855 0.783978 0.472716
Si Si2 0.411274 0.289552 0.917202
Si Si3 0.830298 0.281583 0.041930
Si Si4 0.041913 0.281583 0.169705
Si Si5 0.082813 0.289543 0.411273
Si Si6 0.472699 0.783976 0.672152
O O1 0.206084 0.725908 0.450889
O O2 0.379382 0.725292 0.587460
O O3 0.412567 0.725291 0.379408
O O4 0.328516 0.000000 0.472966
O O5 0.401805 0.500000 0.943457
O O6 0.289844 0.216080 0.931337
O O7 0.450894 0.274118 0.793926
O O8 0.500000 0.212704 0.000000
O O9 0.830135 0.500000 0.044090
O O10 0.922867 0.226977 0.127610
O O11 0.872418 0.226982 0.922885
O O12 0.044070 0.500000 0.169868
O O13 0.068666 0.216080 0.289841
O O14 0.056576 0.500000 0.401811
O O15 0.000000 0.212703 0.500000
O O16 0.472947 0.000000 0.671507
#
# Coordination Sequence:
#
# PCOD9151635 Si02
#       6
#     4   4   4   4   4   4
#     4   9  20  39  58  75 101 142 185 220 263 319
#     4  10  21  32  51  84 112 133 170 221 266 314
#     4   8  15  29  48  69 100 141 172 200 250 312
#     4   8  15  29  48  69 100 141 172 200 250 312
#     4  10  21  32  51  84 112 133 170 221 266 314
#     4   9  20  39  58  75 101 142 185 220 263 319
#
# _framework density 21.144065999999999
#
# number of rings (size 3 to 8) (size 9 to 14) (size 15 to 20)
#    0.000    3.000    0.000    2.000    4.667    2.000 
#    0.000    1.667    0.000    0.000    0.000    2.333 
#    0.000    0.000    0.000    0.000    0.000    0.000 
#
# Total GULP energy -133963.214796 kJ/mol
# GULP energy per Si atom -5581.800617 kJ/mol
# Density = 2.109594 g / cm^3
# Si number density = 21.144066 Si / 1000 Ang^3
#
#
#
# Elastic Constant Matrix: (Units=GPa)
#
#
# Indices 1 2 3 4 5 6 
#
# 1 167.1870 -11.6043 108.3123 0.0000 -3.5290 0.0000
# 2 -11.6043 54.8709 -11.6115 0.0000 0.0005 0.0000
# 3 108.3123 -11.6115 167.1715 0.0000 3.6084 0.0000
# 4 0.0000 0.0000 0.0000 14.8660 0.0000 -0.0015
# 5 -3.5290 0.0005 3.6084 0.0000 15.3937 0.0000
# 6 0.0000 0.0000 0.0000 -0.0015 0.0000 14.8692
#
#
#
# Elastic Compliance Matrix: (Units=1/GPa)
#
#
# Indices 1 2 3 4 5 6 
#
# 1 0.010585 0.000780 -0.006891 0.000000 0.004042 0.000000
# 2 0.000780 0.018555 0.000783 0.000000 -0.000005 0.000000
# 3 -0.006891 0.000783 0.010589 0.000000 -0.004062 0.000000
# 4 0.000000 0.000000 0.000000 0.067267 0.000000 0.000007
# 5 0.004042 -0.000005 -0.004062 0.000000 0.066840 0.000000
# 6 0.000000 0.000000 0.000000 0.000007 0.000000 0.067253
#
#
# Mechanical properties :
#
#
# Convention : Reuss Voigt Hill
#
# Bulk Modulus (GPa) = 34.39468 62.15803 48.27636
# Shear Modulus (GPa) = 19.12500 29.30132 24.21316
#
# Velocity S-wave (km/s) = 3.01077 3.72666 3.38768
# Velocity P-wave (km/s) = 5.32808 6.92666 6.17928
#
# Compressibility (1/GPa) = 0.02907426
#
# Stress axis : x y z
#
# Youngs Moduli (GPa) = 94.46923 53.89271 94.43724
#
# Poissons Ratio (x) = -0.04205 0.65081
# Poissons Ratio (y) = -0.07371 -0.07398
# Poissons Ratio (z) = 0.65103 -0.04222
#
# Static dielectric constant tensor:
#      x y z
#    x 1.730090 0.000000 0.000010 
#    y 0.000000 1.819400 0.000000 
#    z 0.000010 0.000000 1.730070 
# 
# From -- ./inp_files/45174.got.cif
#   From: 2010.05.17/outbox.cif.g08.bks.cpg/sg10_23_cif.got.tgz:45174.got - 2010.06.03 11:33:40.
