data_PCOD9151742
_publ_section_title
;
Structure prediction by ZEFSAII (Michael W. Deem and Ramdas Pophale) SiO2 
 PCOD9151742
Probable space group: P 2/M
;
_chemical_formula_sum "Si O2"
_cell_formula_units_Z 24
_cell_length_a 10.301961
_cell_length_b 7.615234
_cell_length_c 22.668470
_cell_angle_alpha 90.000000
_cell_angle_beta 134.657921
_cell_angle_gamma 90.000000
_cell_volume 1264.992234
_symmetry_space_group_name_H-M "P 2/M"
_symmetry_group_IT_number 10
_symmetry_cell_setting 'monoclinic'
loop_
_space_group_symop_operation_xyz
x,y,z
-x,y,-z
-x,-y,-z
x,-y,z
loop_
_atom_site_type_symbol
_atom_site_label
_atom_site_fract_x
_atom_site_fract_y
_atom_site_fract_z
Si Si1 0.941207 0.297699 0.770296
Si Si2 0.550405 0.788224 0.695521
Si Si3 0.825888 0.794800 0.479000
Si Si4 0.194941 0.000000 0.898706
Si Si5 0.999371 0.289239 0.345349
Si Si6 0.522453 0.000000 0.908365
Si Si7 0.576023 0.293709 0.214768
O O1 0.004590 0.500000 0.792601
O O2 0.735388 0.286034 0.727607
O O3 0.950773 0.236666 0.705125
O O4 0.069466 0.170221 0.848833
O O5 0.369458 0.723455 0.603252
O O6 0.522931 0.736307 0.754735
O O7 0.562162 0.000000 0.695329
O O8 0.870025 0.781227 0.562010
O O9 0.000000 0.715890 0.500000
O O10 0.818818 0.000000 0.460027
O O11 0.349649 0.000000 0.897340
O O12 0.298829 0.000000 0.993958
O O13 0.010239 0.500000 0.351918
O O14 0.788974 0.239489 0.290378
O O15 0.507739 0.170374 0.862090
O O16 0.572024 0.500000 0.197844
#
# Coordination Sequence:
#
# PCOD9151742 Si02
#       7
#     4   4   4   2   4   2   4
#     4  11  24  43  64  91 128 168 207 252 314 377
#     4  11  22  39  63  92 127 171 213 255 308 366
#     4  10  21  34  57  90 124 163 211 260 302 350
#     4  11  24  43  69  98 125 160 198 259 321 371
#     4  10  22  37  59  87 123 168 208 254 303 361
#     4  11  24  41  71 100 124 155 202 261 314 376
#     4  11  22  39  64  95 127 165 207 253 309 370
#
# _framework density 18.972449000000001
#
# number of rings (size 3 to 8) (size 9 to 14) (size 15 to 20)
#    0.000    1.333    5.000    0.500    2.333    3.000 
#    0.000    6.667    0.000    2.000    0.000    0.000 
#    0.000    0.000    0.000    0.000    0.000    0.000 
#
# Total GULP energy -134115.496897 kJ/mol
# GULP energy per Si atom -5588.145704 kJ/mol
# Density = 1.892927 g / cm^3
# Si number density = 18.972449 Si / 1000 Ang^3
#
#
#
# Elastic Constant Matrix: (Units=GPa)
#
#
# Indices 1 2 3 4 5 6 
#
# 1 97.9869 3.4716 35.4658 0.0000 6.6741 0.0000
# 2 3.4716 85.9870 37.6208 0.0000 3.1431 0.0000
# 3 35.4658 37.6208 138.1715 0.0000 3.0406 0.0000
# 4 0.0000 0.0000 0.0000 -19.7233 0.0000 5.4382
# 5 6.6741 3.1431 3.0406 0.0000 25.8991 0.0000
# 6 0.0000 0.0000 0.0000 5.4382 0.0000 1.3435
#
#
#
# Elastic Compliance Matrix: (Units=1/GPa)
#
#
# Indices 1 2 3 4 5 6 
#
# 1 0.011502 0.001022 -0.003171 0.000000 -0.002716 0.000000
# 2 0.001022 0.013330 -0.003860 0.000000 -0.001428 0.000000
# 3 -0.003171 -0.003860 0.009098 0.000000 0.000218 0.000000
# 4 0.000000 0.000000 0.000000 -0.023960 0.000000 0.096987
# 5 -0.002716 -0.001428 0.000218 0.000000 0.039459 0.000000
# 6 0.000000 0.000000 0.000000 0.096987 0.000000 0.351753
#
#
# Mechanical properties :
#
#
# Convention : Reuss Voigt Hill
#
# Bulk Modulus (GPa) = 45.63895 52.80687 49.22291
# Shear Modulus (GPa) = 11.89053 17.87634 14.88343
#
# Velocity S-wave (km/s) = 2.50617 3.07290 2.80389
# Velocity P-wave (km/s) = 5.69931 6.36272 6.04013
#
# Compressibility (1/GPa) = 0.02191111
#
# Stress axis : x y z
#
# Youngs Moduli (GPa) = 86.94229 75.02142 109.91969
#
# Poissons Ratio (x) = -0.07669 0.34854
# Poissons Ratio (y) = -0.08887 0.42432
# Poissons Ratio (z) = 0.27568 0.28960
#
# Static dielectric constant tensor:
#      x y z
#    x 1.645350 0.000000 0.005450 
#    y 0.000000 1.680780 0.000000 
#    z 0.005450 0.000000 1.630090 
# 
# From -- ./inp_files/33822.got.cif
#   From: 2010.05.17/outbox.cif.g08.bks.cpg/sg10_17_cif.got.tgz:33822.got - 2010.06.03 11:33:40.
