data_PCOD9151274
_publ_section_title
;
Structure prediction by ZEFSAII (Michael W. Deem and Ramdas Pophale) SiO2 
 PCOD9151274
Probable space group: P 2/M
;
_chemical_formula_sum "Si O2"
_cell_formula_units_Z 32
_cell_length_a 26.023386
_cell_length_b 7.568561
_cell_length_c 19.739522
_cell_angle_alpha 90.000000
_cell_angle_beta 19.349005
_cell_angle_gamma 90.000000
_cell_volume 1288.140913
_symmetry_space_group_name_H-M "P 2/M"
_symmetry_group_IT_number 10
_symmetry_cell_setting 'monoclinic'
loop_
_space_group_symop_operation_xyz
x,y,z
-x,y,-z
-x,-y,-z
x,-y,z
loop_
_atom_site_type_symbol
_atom_site_label
_atom_site_fract_x
_atom_site_fract_y
_atom_site_fract_z
Si Si1 0.990994 0.704711 0.855961
Si Si2 0.159645 0.798782 0.827887
Si Si3 0.508363 0.784012 0.567900
Si Si4 0.649843 0.708478 0.773336
Si Si5 0.802573 0.213625 0.966840
Si Si6 0.156642 0.786621 0.343396
Si Si7 0.661582 0.211427 0.008055
Si Si8 0.319381 0.711347 0.417781
O O1 0.983653 0.500000 0.884309
O O2 0.164966 0.777438 0.646865
O O3 0.867968 0.801492 0.056591
O O4 0.943095 0.719547 0.837210
O O5 0.327810 0.719203 0.605679
O O6 0.162501 0.000000 0.798957
O O7 0.000000 0.714874 0.000000
O O8 0.500000 0.728935 0.500000
O O9 0.355940 0.731457 0.797994
O O10 0.513804 0.000000 0.562166
O O11 0.621799 0.500000 0.799572
O O12 0.798368 0.729535 0.637363
O O13 0.671567 0.781782 0.670765
O O14 0.500000 0.783376 0.000000
O O15 0.780840 0.274534 0.916898
O O16 0.811126 0.000000 0.956373
O O17 0.000000 0.729412 0.500000
O O18 0.151649 0.000000 0.351959
O O19 0.293069 0.724180 0.122828
O O20 0.484523 0.251792 0.245680
O O21 0.675795 0.000000 0.988757
O O22 0.298862 0.500000 0.440206
#
# Coordination Sequence:
#
# PCOD9151274 Si02
#       8
#     4   4   4   4   4   4   4   4
#     4  11  24  40  57  83 120 155 188 232 288 342
#     4  10  21  37  61  87 112 147 193 238 282 334
#     4   9  16  32  57  83 108 139 182 236 279 316
#     4  10  20  38  62  83 106 149 201 237 274 334
#     4  10  21  38  60  84 115 150 192 238 281 338
#     4  10  22  38  56  86 123 149 182 238 296 341
#     4  10  22  38  59  87 115 150 193 235 284 344
#     4  10  23  41  58  81 117 154 191 237 284 338
#
# _framework density 24.842002000000001
#
# number of rings (size 3 to 8) (size 9 to 14) (size 15 to 20)
#    0.000    2.000    2.500    0.375    3.500    2.750 
#    0.000    1.250    0.000    0.000    0.000    0.000 
#    0.000    0.000    0.000    0.000    0.000    0.000 
#
# Total GULP energy -178945.174043 kJ/mol
# GULP energy per Si atom -5592.036689 kJ/mol
# Density = 2.478546 g / cm^3
# Si number density = 24.842002 Si / 1000 Ang^3
#
#
#
# Elastic Constant Matrix: (Units=GPa)
#
#
# Indices 1 2 3 4 5 6 
#
# 1 87.6938 1.0368 -11.5941 0.0000 -14.9279 0.0000
# 2 1.0368 66.5730 0.9391 0.0000 6.9758 0.0000
# 3 -11.5941 0.9391 67.4430 0.0000 -20.6105 0.0000
# 4 0.0000 0.0000 0.0000 8.0247 0.0000 -3.9505
# 5 -14.9279 6.9758 -20.6105 0.0000 43.4395 0.0000
# 6 0.0000 0.0000 0.0000 -3.9505 0.0000 20.1234
#
#
#
# Elastic Compliance Matrix: (Units=1/GPa)
#
#
# Indices 1 2 3 4 5 6 
#
# 1 0.013130 -0.000970 0.004324 0.000000 0.006720 0.000000
# 2 -0.000970 0.015423 -0.001450 0.000000 -0.003498 0.000000
# 3 0.004324 -0.001450 0.018849 0.000000 0.010662 0.000000
# 4 0.000000 0.000000 0.000000 0.137947 0.000000 0.027081
# 5 0.006720 -0.003498 0.010662 0.000000 0.030950 0.000000
# 6 0.000000 0.000000 0.000000 0.027081 0.000000 0.055010
#
#
# Mechanical properties :
#
#
# Convention : Reuss Voigt Hill
#
# Bulk Modulus (GPa) = 19.52696 22.49703 21.01200
# Shear Modulus (GPa) = 17.57024 29.73939 23.65481
#
# Velocity S-wave (km/s) = 2.66236 3.46373 3.08914
# Velocity P-wave (km/s) = 4.16274 5.00722 4.60438
#
# Compressibility (1/GPa) = 0.05121124
#
# Stress axis : x y z
#
# Youngs Moduli (GPa) = 76.15930 64.83725 53.05235
#
# Poissons Ratio (x) = 0.06287 -0.22941
# Poissons Ratio (y) = 0.07384 0.07695
# Poissons Ratio (z) = -0.32933 0.09405
#
# Static dielectric constant tensor:
#      x y z
#    x 1.992460 0.000000 0.009310 
#    y 0.000000 1.927360 0.000000 
#    z 0.009310 0.000000 1.987680 
# 
# From -- ./inp_files/86787.got.cif
#   From: 2010.05.17/outbox.cif.g08.bks.cpg/sg10_44_cif.got.tgz:86787.got - 2010.06.03 11:33:40.
