data_PCOD9151949
_publ_section_title
;
Structure prediction by ZEFSAII (Michael W. Deem and Ramdas Pophale) SiO2 
 PCOD9151949
Probable space group: P 2/M
;
_chemical_formula_sum "Si O2"
_cell_formula_units_Z 28
_cell_length_a 9.534003
_cell_length_b 18.435081
_cell_length_c 17.114217
_cell_angle_alpha 90.000000
_cell_angle_beta 33.319461
_cell_angle_gamma 90.000000
_cell_volume 1652.312717
_symmetry_space_group_name_H-M "P 2/M"
_symmetry_group_IT_number 10
_symmetry_cell_setting 'monoclinic'
loop_
_space_group_symop_operation_xyz
x,y,z
-x,y,-z
-x,-y,-z
x,-y,z
loop_
_atom_site_type_symbol
_atom_site_label
_atom_site_fract_x
_atom_site_fract_y
_atom_site_fract_z
Si Si1 0.579215 0.362064 0.173072
Si Si2 0.921815 0.500000 0.826073
Si Si3 0.578974 0.802331 0.170817
Si Si4 0.805452 0.083971 0.352528
Si Si5 0.091423 0.197668 0.829184
Si Si6 0.136966 0.083971 0.352527
Si Si7 0.400034 0.500000 0.173927
Si Si8 0.901569 0.637936 0.173072
O O1 0.475169 0.280292 0.216010
O O2 0.408164 0.427189 0.221331
O O3 0.677019 0.375436 0.215321
O O4 0.836788 0.362168 0.000000
O O5 0.827421 0.500000 0.781719
O O6 0.072156 0.572811 0.778669
O O7 0.664079 0.500000 1.000000
O O8 0.691372 0.814686 0.205752
O O9 0.370774 0.860641 0.243490
O O10 0.823033 0.806151 0.000000
O O11 0.500000 0.091334 0.500000
O O12 0.898756 0.139359 0.243489
O O13 0.941798 0.097917 0.372135
O O14 0.860710 0.000000 0.305411
O O15 0.123199 0.280292 0.783990
O O16 0.000000 0.091332 0.500000
O O17 0.223062 0.000000 0.305408
#
# Coordination Sequence:
#
# PCOD9151949 Si02
#       8
#     4   2   4   4   4   4   2   4
#     4   8  14  25  40  59  87 123 158 190 228 276
#     4   9  15  21  33  57  88 121 156 193 232 271
#     4   9  18  32  50  73 100 129 161 198 241 287
#     4  10  21  36  53  72  95 125 161 200 241 287
#     4   9  18  32  50  73 100 129 161 198 241 287
#     4  10  21  36  53  72  95 125 161 200 241 287
#     4   9  15  21  33  57  88 121 156 193 232 271
#     4   8  14  25  40  59  87 123 158 190 228 276
#
# _framework density 16.945944000000001
#
# number of rings (size 3 to 8) (size 9 to 14) (size 15 to 20)
#    0.000    3.000    0.000    3.000    0.000    5.714 
#    0.000    5.714    0.000    0.000    0.000    1.000 
#    0.000    0.000    0.000    0.000    0.000    0.000 
#
# Total GULP energy -155985.538808 kJ/mol
# GULP energy per Si atom -5570.912100 kJ/mol
# Density = 1.690737 g / cm^3
# Si number density = 16.945944 Si / 1000 Ang^3
#
#
#
# Elastic Constant Matrix: (Units=GPa)
#
#
# Indices 1 2 3 4 5 6 
#
# 1 137.8952 123.1709 36.7166 0.0000 -0.7960 0.0000
# 2 123.1709 154.0342 42.6560 0.0000 -1.1385 0.0000
# 3 36.7166 42.6560 15.5971 0.0000 -0.9323 0.0000
# 4 0.0000 0.0000 0.0000 -13.5505 0.0000 -0.6573
# 5 -0.7960 -1.1385 -0.9323 0.0000 22.4325 0.0000
# 6 0.0000 0.0000 0.0000 -0.6573 0.0000 32.9509
#
#
#
# Elastic Compliance Matrix: (Units=1/GPa)
#
#
# Indices 1 2 3 4 5 6 
#
# 1 0.026600 -0.016171 -0.018432 0.000000 -0.000643 0.000000
# 2 -0.016171 0.036650 -0.062244 0.000000 -0.001301 0.000000
# 3 -0.018432 -0.062244 0.278196 0.000000 0.007749 0.000000
# 4 0.000000 0.000000 0.000000 -0.073727 0.000000 -0.001471
# 5 -0.000643 -0.001301 0.007749 0.000000 0.044811 0.000000
# 6 0.000000 0.000000 0.000000 -0.001471 0.000000 0.030319
#
#
# Mechanical properties :
#
#
# Convention : Reuss Voigt Hill
#
# Bulk Modulus (GPa) = 6.76801 79.17928 42.97365
# Shear Modulus (GPa) = 8.53544 15.36545 11.95044
#
# Velocity S-wave (km/s) = 2.24673 3.01447 2.65846
# Velocity P-wave (km/s) = 3.27612 7.67737 5.90233
#
# Compressibility (1/GPa) = 0.14775382
#
# Stress axis : x y z
#
# Youngs Moduli (GPa) = 37.59422 27.28513 3.59458
#
# Poissons Ratio (x) = 0.44122 0.06625
# Poissons Ratio (y) = 0.60792 0.22374
# Poissons Ratio (z) = 0.69292 1.69833
#
# Static dielectric constant tensor:
#      x y z
#    x 1.560240 0.000000 -0.000110 
#    y 0.000000 1.576370 0.000000 
#    z -0.000110 0.000000 1.552430 
# 
# From -- ./inp_files/75299.got.cif
#   From: 2010.05.17/outbox.cif.g08.bks.cpg/sg10_38_cif.got.tgz:75299.got - 2010.06.03 11:33:40.
