data_PCOD9151993
_publ_section_title
;
Structure prediction by ZEFSAII (Michael W. Deem and Ramdas Pophale) SiO2 
 PCOD9151993
Probable space group: P 2/M
;
_chemical_formula_sum "Si O2"
_cell_formula_units_Z 21
_cell_length_a 6.485215
_cell_length_b 28.957531
_cell_length_c 5.255134
_cell_angle_alpha 90.000000
_cell_angle_beta 85.532871
_cell_angle_gamma 90.000000
_cell_volume 983.894171
_symmetry_space_group_name_H-M "P 2/M"
_symmetry_group_IT_number 10
_symmetry_cell_setting 'monoclinic'
loop_
_space_group_symop_operation_xyz
x,y,z
-x,y,-z
-x,-y,-z
x,-y,z
loop_
_atom_site_type_symbol
_atom_site_label
_atom_site_fract_x
_atom_site_fract_y
_atom_site_fract_z
Si Si1 0.361261 0.646969 0.262256
Si Si2 0.365039 0.065390 0.259594
Si Si3 0.140091 0.450691 0.237340
Si Si4 0.134150 0.156568 0.240408
Si Si5 0.000000 0.000000 0.500000
Si Si6 0.355711 0.746970 0.263594
O O1 0.500000 0.644868 0.500000
O O2 0.250886 0.598153 0.246256
O O3 0.245642 0.696528 0.285386
O O4 0.500000 0.650559 0.000000
O O5 0.500000 0.057731 0.500000
O O6 0.317234 0.119386 0.223833
O O7 0.500000 0.050284 0.000000
O O8 0.147227 0.039640 0.339025
O O9 0.261295 0.500000 0.217907
O O10 0.000000 0.452727 0.500000
O O11 0.000000 0.449666 0.000000
O O12 0.209854 0.209060 0.257989
O O13 0.000000 0.146057 0.500000
O O14 0.000000 0.150749 0.000000
O O15 0.500000 0.750856 0.500000
O O16 0.500000 0.748297 0.000000
#
# Coordination Sequence:
#
# PCOD9151993 Si02
#       6
#     4   4   4   4   1   4
#     4  10  21  36  57  84 116 153 200 255 306 370
#     4  12  27  48  74 103 141 184 219 279 341 378
#     4  10  21  36  54  78 112 152 196 248 307 372
#     4  12  24  42  67  98 132 168 219 269 311 390
#     4  12  28  50  76 108 142 172 246 270 316 422
#     4  10  21  39  60  88 123 161 204 253 319 381
#
# _framework density 21.343758000000001
#
# number of rings (size 3 to 8) (size 9 to 14) (size 15 to 20)
#    0.000    1.143    0.952    5.143    0.000    3.048 
#    0.000    0.000    0.000    0.000    0.000    0.000 
#    0.000    0.000    0.000    0.000    0.000    0.000 
#
# Total GULP energy -116972.296284 kJ/mol
# GULP energy per Si atom -5570.109347 kJ/mol
# Density = 2.129518 g / cm^3
# Si number density = 21.343758 Si / 1000 Ang^3
#
#
#
# Elastic Constant Matrix: (Units=GPa)
#
#
# Indices 1 2 3 4 5 6 
#
# 1 48.1661 41.8896 48.9739 0.0000 -21.8271 0.0000
# 2 41.8896 206.4796 31.2693 0.0000 -7.3203 0.0000
# 3 48.9739 31.2693 198.5536 0.0000 -4.7324 0.0000
# 4 0.0000 0.0000 0.0000 91.0470 0.0000 48.9039
# 5 -21.8271 -7.3203 -4.7324 0.0000 36.9423 0.0000
# 6 0.0000 0.0000 0.0000 48.9039 0.0000 99.9495
#
#
#
# Elastic Compliance Matrix: (Units=1/GPa)
#
#
# Indices 1 2 3 4 5 6 
#
# 1 0.050357 -0.007662 -0.010573 0.000000 0.026880 0.000000
# 2 -0.007662 0.006156 0.000844 0.000000 -0.003199 0.000000
# 3 -0.010573 0.000844 0.007389 0.000000 -0.005133 0.000000
# 4 0.000000 0.000000 0.000000 0.014899 0.000000 -0.007290
# 5 0.026880 -0.003199 -0.005133 0.000000 0.041660 0.000000
# 6 0.000000 0.000000 0.000000 -0.007290 0.000000 0.013572
#
#
# Mechanical properties :
#
#
# Convention : Reuss Voigt Hill
#
# Bulk Modulus (GPa) = 34.34089 77.49608 55.91849
# Shear Modulus (GPa) = 28.00773 67.65885 47.83329
#
# Velocity S-wave (km/s) = 3.62639 5.63635 4.73915
# Velocity P-wave (km/s) = 5.80161 8.87385 7.49680
#
# Compressibility (1/GPa) = 0.02911980
#
# Stress axis : x y z
#
# Youngs Moduli (GPa) = 19.85823 162.43586 135.33451
#
# Poissons Ratio (x) = 1.24458 1.43094
# Poissons Ratio (y) = 0.15215 -0.11423
# Poissons Ratio (z) = 0.20997 -0.13711
#
# Static dielectric constant tensor:
#      x y z
#    x 1.767840 0.000000 -0.002390 
#    y 0.000000 1.872640 0.000000 
#    z -0.002390 0.000000 1.711800 
# 
# From -- ./inp_files/2305.got.cif
#   From: 2010.05.17/outbox.cif.g08.bks.cpg/sg10_2_cif.got.tgz:2305.got - 2010.06.03 11:33:40.
