data_PCOD9151557
_publ_section_title
;
Structure prediction by ZEFSAII (Michael W. Deem and Ramdas Pophale) SiO2 
 PCOD9151557
Probable space group: P 2/M
;
_chemical_formula_sum "Si O2"
_cell_formula_units_Z 32
_cell_length_a 15.747856
_cell_length_b 7.976409
_cell_length_c 12.506854
_cell_angle_alpha 90.000000
_cell_angle_beta 89.653809
_cell_angle_gamma 90.000000
_cell_volume 1570.974017
_symmetry_space_group_name_H-M "P 2/M"
_symmetry_group_IT_number 10
_symmetry_cell_setting 'monoclinic'
loop_
_space_group_symop_operation_xyz
x,y,z
-x,y,-z
-x,-y,-z
x,-y,z
loop_
_atom_site_type_symbol
_atom_site_label
_atom_site_fract_x
_atom_site_fract_y
_atom_site_fract_z
Si Si1 0.657245 0.203441 0.766411
Si Si2 0.992905 0.698460 0.120621
Si Si3 0.100660 0.307274 0.486597
Si Si4 0.402626 0.204382 0.000513
Si Si5 0.662269 0.199941 0.227957
Si Si6 0.496673 0.699710 0.622996
Si Si7 0.848931 0.193651 0.741819
Si Si8 0.149989 0.698759 0.715109
O O1 0.637020 0.258019 0.887499
O O2 0.583587 0.260497 0.686062
O O3 0.752945 0.261462 0.743546
O O4 0.655686 0.000000 0.762501
O O5 0.975911 0.500000 0.109183
O O6 0.915859 0.766971 0.195340
O O7 0.081072 0.720259 0.183715
O O8 0.000000 0.768896 0.000000
O O9 0.131994 0.500000 0.472104
O O10 0.121693 0.207812 0.380300
O O11 0.135328 0.231776 0.596377
O O12 0.000000 0.315016 0.500000
O O13 0.400600 0.000000 0.999234
O O14 0.500000 0.256888 0.000000
O O15 0.360886 0.261597 0.890906
O O16 0.584239 0.234839 0.309095
O O17 0.752057 0.277688 0.258292
O O18 0.673337 0.000000 0.223962
O O19 0.500000 0.763405 0.500000
O O20 0.487281 0.500000 0.618343
O O21 0.845810 0.000000 0.776344
O O22 0.130575 0.500000 0.706019
#
# Coordination Sequence:
#
# PCOD9151557 Si02
#       8
#     4   4   4   4   4   4   4   4
#     4  10  22  41  62  88 121 157 197 242 297 357
#     4  10  22  42  64  86 121 166 207 246 296 360
#     4  10  20  40  65  83 113 160 203 246 300 358
#     4   9  17  36  63  85 113 153 193 235 290 352
#     4  11  23  39  64  91 119 157 195 242 300 359
#     4  11  25  43  61  86 121 159 200 246 295 351
#     4  11  24  38  60  93 125 155 198 255 302 353
#     4  10  22  40  61  88 121 158 200 248 297 352
#
# _framework density 20.369529
#
# number of rings (size 3 to 8) (size 9 to 14) (size 15 to 20)
#    0.000    1.750    2.500    1.125    3.500    3.500 
#    0.000    1.875    0.000    0.000    0.000    0.000 
#    0.000    0.000    0.000    0.000    0.000    0.000 
#
# Total GULP energy -178651.660467 kJ/mol
# GULP energy per Si atom -5582.864390 kJ/mol
# Density = 2.032317 g / cm^3
# Si number density = 20.369529 Si / 1000 Ang^3
#
#
#
# Elastic Constant Matrix: (Units=GPa)
#
#
# Indices 1 2 3 4 5 6 
#
# 1 118.6217 -20.8066 64.0864 0.0000 2.9117 0.0000
# 2 -20.8066 12.6234 -9.1600 0.0000 -4.6453 0.0000
# 3 64.0864 -9.1600 174.6973 0.0000 11.4255 0.0000
# 4 0.0000 0.0000 0.0000 2.0385 0.0000 -2.2699
# 5 2.9117 -4.6453 11.4255 0.0000 36.6486 0.0000
# 6 0.0000 0.0000 0.0000 -2.2699 0.0000 31.5056
#
#
#
# Elastic Compliance Matrix: (Units=1/GPa)
#
#
# Indices 1 2 3 4 5 6 
#
# 1 0.014579 0.021944 -0.004393 0.000000 0.002993 0.000000
# 2 0.021944 0.118593 -0.002757 0.000000 0.014148 0.000000
# 3 -0.004393 -0.002757 0.007341 0.000000 -0.002289 0.000000
# 4 0.000000 0.000000 0.000000 0.533349 0.000000 0.038426
# 5 0.002993 0.014148 -0.002289 0.000000 0.029555 0.000000
# 6 0.000000 0.000000 0.000000 0.038426 0.000000 0.034509
#
#
# Mechanical properties :
#
#
# Convention : Reuss Voigt Hill
#
# Bulk Modulus (GPa) = 5.87889 41.57577 23.72733
# Shear Modulus (GPa) = 6.53561 32.16004 19.34782
#
# Velocity S-wave (km/s) = 1.79318 3.97776 3.08529
# Velocity P-wave (km/s) = 2.67950 6.44607 4.93617
#
# Compressibility (1/GPa) = 0.17010020
#
# Stress axis : x y z
#
# Youngs Moduli (GPa) = 68.59039 8.43219 136.22045
#
# Poissons Ratio (x) = -0.18503 0.59848
# Poissons Ratio (y) = -1.50513 0.37556
# Poissons Ratio (z) = 0.30135 0.02325
#
# Static dielectric constant tensor:
#      x y z
#    x 1.706640 0.000000 -0.004190 
#    y 0.000000 1.711040 0.000000 
#    z -0.004190 0.000000 1.721900 
# 
# From -- ./inp_files/49931.got.cif
#   From: 2010.05.17/outbox.cif.g08.bks.cpg/sg10_25_cif.got.tgz:49931.got - 2010.06.03 11:33:40.
