data_PCOD9151125
_publ_section_title
;
Structure prediction by ZEFSAII (Michael W. Deem and Ramdas Pophale) SiO2 
 PCOD9151125
Probable space group: P 2/M
;
_chemical_formula_sum "Si O2"
_cell_formula_units_Z 28
_cell_length_a 12.880034
_cell_length_b 13.973298
_cell_length_c 7.920611
_cell_angle_alpha 90.000000
_cell_angle_beta 69.692530
_cell_angle_gamma 90.000000
_cell_volume 1336.918946
_symmetry_space_group_name_H-M "P 2/M"
_symmetry_group_IT_number 10
_symmetry_cell_setting 'monoclinic'
loop_
_space_group_symop_operation_xyz
x,y,z
-x,y,-z
-x,-y,-z
x,-y,z
loop_
_atom_site_type_symbol
_atom_site_label
_atom_site_fract_x
_atom_site_fract_y
_atom_site_fract_z
Si Si1 0.885132 0.606532 0.661347
Si Si2 0.391055 0.391545 0.942813
Si Si3 0.149120 0.113970 0.562385
Si Si4 0.477705 0.229035 0.704052
Si Si5 0.058251 0.787665 0.146700
Si Si6 0.283031 0.738430 0.279101
Si Si7 0.263992 0.112667 0.859946
O O1 0.855907 0.500000 0.736740
O O2 0.910377 0.687898 0.785108
O O3 0.788134 0.651108 0.597957
O O4 0.000000 0.599922 0.500000
O O5 0.352953 0.500000 0.936262
O O6 0.310929 0.319191 0.089053
O O7 0.500000 0.397022 0.000000
O O8 0.426662 0.335176 0.755279
O O9 0.204452 0.172238 0.376670
O O10 0.225776 0.130459 0.686687
O O11 0.029024 0.154929 0.686163
O O12 0.142963 0.000000 0.534975
O O13 0.500000 0.203820 0.500000
O O14 0.595789 0.230764 0.728650
O O15 0.383814 0.158077 0.825647
O O16 0.168669 0.845364 0.033688
O O17 0.000000 0.770541 0.000000
O O18 0.268669 0.000000 0.881110
#
# Coordination Sequence:
#
# PCOD9151125 Si02
#       7
#     4   4   4   4   4   4   4
#     4  11  23  40  64  91 125 168 203 248 322 385
#     4   9  20  38  59  82 118 163 202 250 313 370
#     4  10  20  37  63  94 127 166 209 260 317 374
#     4  11  22  38  64  93 124 164 216 267 309 364
#     4  10  21  41  68  95 127 161 212 267 311 373
#     4  11  21  39  61  90 130 168 203 256 313 381
#     4  10  21  38  63  93 126 169 214 259 321 377
#
# _framework density 20.943677999999998
#
# number of rings (size 3 to 8) (size 9 to 14) (size 15 to 20)
#    0.000    1.714    2.857    1.714    0.000    3.714 
#    0.000    4.286    0.000    6.000    0.000    0.000 
#    0.000    0.000    0.000    0.000    0.000    0.000 
#
# Total GULP energy -156022.177782 kJ/mol
# GULP energy per Si atom -5572.220635 kJ/mol
# Density = 2.089601 g / cm^3
# Si number density = 20.943678 Si / 1000 Ang^3
#
#
#
# Elastic Constant Matrix: (Units=GPa)
#
#
# Indices 1 2 3 4 5 6 
#
# 1 119.5949 63.6305 42.5410 0.0000 -40.4112 0.0000
# 2 63.6305 176.6194 67.1100 0.0000 -18.0207 0.0000
# 3 42.5410 67.1100 88.6596 0.0000 -23.9178 0.0000
# 4 0.0000 0.0000 0.0000 41.2938 0.0000 20.9627
# 5 -40.4112 -18.0207 -23.9178 0.0000 33.9168 0.0000
# 6 0.0000 0.0000 0.0000 20.9627 0.0000 61.8780
#
#
#
# Elastic Compliance Matrix: (Units=1/GPa)
#
#
# Indices 1 2 3 4 5 6 
#
# 1 0.016446 -0.004120 -0.000095 0.000000 0.017339 0.000000
# 2 -0.004120 0.008980 -0.005999 0.000000 -0.004368 0.000000
# 3 -0.000095 -0.005999 0.018493 0.000000 0.009740 0.000000
# 4 0.000000 0.000000 0.000000 0.029246 0.000000 -0.009908
# 5 0.017339 -0.004368 0.009740 0.000000 0.054692 0.000000
# 6 0.000000 0.000000 0.000000 -0.009908 0.000000 0.019517
#
#
# Mechanical properties :
#
#
# Convention : Reuss Voigt Hill
#
# Bulk Modulus (GPa) = 42.56789 81.27078 61.91934
# Shear Modulus (GPa) = 28.46845 41.52387 34.99616
#
# Velocity S-wave (km/s) = 3.69085 4.45752 4.09218
# Velocity P-wave (km/s) = 6.20743 8.08587 7.20811
#
# Compressibility (1/GPa) = 0.02349188
#
# Stress axis : x y z
#
# Youngs Moduli (GPa) = 60.80365 111.36117 54.07413
#
# Poissons Ratio (x) = 0.45878 0.00515
# Poissons Ratio (y) = 0.25050 0.32437
# Poissons Ratio (z) = 0.00579 0.66802
#
# Static dielectric constant tensor:
#      x y z
#    x 1.868550 0.000000 0.011960 
#    y 0.000000 1.728000 0.000000 
#    z 0.011960 0.000000 1.843320 
# 
# From -- ./inp_files/28509.got.cif
#   From: 2010.05.17/outbox.cif.g08.bks.cpg/sg10_15_cif.got.tgz:28509.got - 2010.06.03 11:33:40.
