data_PCOD9151221
_publ_section_title
;
Structure prediction by ZEFSAII (Michael W. Deem and Ramdas Pophale) SiO2 
 PCOD9151221
Probable space group: P 2/M
;
_chemical_formula_sum "Si O2"
_cell_formula_units_Z 28
_cell_length_a 12.930509
_cell_length_b 7.559250
_cell_length_c 14.825909
_cell_angle_alpha 90.000000
_cell_angle_beta 125.162258
_cell_angle_gamma 90.000000
_cell_volume 1184.721852
_symmetry_space_group_name_H-M "P 2/M"
_symmetry_group_IT_number 10
_symmetry_cell_setting 'monoclinic'
loop_
_space_group_symop_operation_xyz
x,y,z
-x,y,-z
-x,-y,-z
x,-y,z
loop_
_atom_site_type_symbol
_atom_site_label
_atom_site_fract_x
_atom_site_fract_y
_atom_site_fract_z
Si Si1 0.533831 0.702821 0.420713
Si Si2 0.559353 0.283934 0.935439
Si Si3 0.739075 0.211653 0.768091
Si Si4 0.166607 0.289129 0.987599
Si Si5 0.053057 0.204411 0.256377
Si Si6 0.651426 0.712493 0.307436
Si Si7 0.926640 0.212533 0.375140
O O1 0.500000 0.787980 0.500000
O O2 0.572167 0.500000 0.458748
O O3 0.399837 0.705274 0.300743
O O4 0.636572 0.780406 0.402768
O O5 0.560705 0.500000 0.934303
O O6 0.702688 0.226665 0.992478
O O7 0.466260 0.221523 0.810293
O O8 0.500000 0.228998 0.000000
O O9 0.816246 0.250172 0.898161
O O10 0.818877 0.280248 0.722269
O O11 0.724416 0.000000 0.754389
O O12 0.155671 0.500000 0.971881
O O13 0.049270 0.209391 0.875568
O O14 0.988392 0.282062 0.313528
O O15 0.082010 0.000000 0.291307
O O16 0.640502 0.500000 0.308168
O O17 0.779855 0.749456 0.318975
O O18 0.000000 0.279536 0.500000
O O19 0.937866 0.000000 0.378439
#
# Coordination Sequence:
#
# PCOD9151221 Si02
#       7
#     4   4   4   4   4   4   4
#     4  10  22  40  62  89 121 155 195 249 301 348
#     4   9  17  31  54  82 114 148 183 230 286 343
#     4  11  23  39  61  88 122 161 199 243 297 357
#     4  11  21  37  61  89 120 156 198 243 298 359
#     4  10  23  41  58  84 122 160 200 249 298 348
#     4  10  20  38  60  86 119 150 190 244 298 348
#     4  10  23  42  62  84 117 159 202 247 294 348
#
# _framework density 23.634238
#
# number of rings (size 3 to 8) (size 9 to 14) (size 15 to 20)
#    0.000    1.857    1.429    2.143    2.000    5.714 
#    0.000    0.000    0.000    3.000    0.000    0.000 
#    0.000    0.000    0.000    0.000    0.000    0.000 
#
# Total GULP energy -156522.484861 kJ/mol
# GULP energy per Si atom -5590.088745 kJ/mol
# Density = 2.358045 g / cm^3
# Si number density = 23.634238 Si / 1000 Ang^3
#
#
#
# Elastic Constant Matrix: (Units=GPa)
#
#
# Indices 1 2 3 4 5 6 
#
# 1 162.1499 -1.5704 11.1802 0.0000 -33.9393 0.0000
# 2 -1.5704 67.9097 -10.9622 0.0000 -6.0975 0.0000
# 3 11.1802 -10.9622 51.1547 0.0000 -24.8667 0.0000
# 4 0.0000 0.0000 0.0000 8.1207 0.0000 -0.4728
# 5 -33.9393 -6.0975 -24.8667 0.0000 50.2008 0.0000
# 6 0.0000 0.0000 0.0000 -0.4728 0.0000 15.5050
#
#
#
# Elastic Compliance Matrix: (Units=1/GPa)
#
#
# Indices 1 2 3 4 5 6 
#
# 1 0.007276 0.000904 0.001381 0.000000 0.005713 0.000000
# 2 0.000904 0.016206 0.005966 0.000000 0.005535 0.000000
# 3 0.001381 0.005966 0.028097 0.000000 0.015575 0.000000
# 4 0.000000 0.000000 0.000000 0.123361 0.000000 0.003762
# 5 0.005713 0.005535 0.015575 0.000000 0.032170 0.000000
# 6 0.000000 0.000000 0.000000 0.003762 0.000000 0.064610
#
#
# Mechanical properties :
#
#
# Convention : Reuss Voigt Hill
#
# Bulk Modulus (GPa) = 14.68848 30.94551 22.81699
# Shear Modulus (GPa) = 17.99124 33.60309 25.79716
#
# Velocity S-wave (km/s) = 2.76204 3.77476 3.30739
# Velocity P-wave (km/s) = 4.04972 5.66748 4.92548
#
# Compressibility (1/GPa) = 0.06808056
#
# Stress axis : x y z
#
# Youngs Moduli (GPa) = 137.42878 61.70423 35.59150
#
# Poissons Ratio (x) = -0.05579 -0.04914
# Poissons Ratio (y) = -0.12425 -0.21233
# Poissons Ratio (z) = -0.18973 -0.36812
#
# Static dielectric constant tensor:
#      x y z
#    x 1.909290 0.000000 -0.027400 
#    y 0.000000 1.891070 0.000000 
#    z -0.027400 0.000000 1.886800 
# 
# From -- ./inp_files/63629.got.cif
#   From: 2010.05.17/outbox.cif.g08.bks.cpg/sg10_32_cif.got.tgz:63629.got - 2010.06.03 11:33:40.
