data_PCOD9151402
_publ_section_title
;
Structure prediction by ZEFSAII (Michael W. Deem and Ramdas Pophale) SiO2 
 PCOD9151402
Probable space group: P 2/M
;
_chemical_formula_sum "Si O2"
_cell_formula_units_Z 20
_cell_length_a 13.678594
_cell_length_b 12.387523
_cell_length_c 10.025419
_cell_angle_alpha 90.000000
_cell_angle_beta 31.927584
_cell_angle_gamma 90.000000
_cell_volume 898.376756
_symmetry_space_group_name_H-M "P 2/M"
_symmetry_group_IT_number 10
_symmetry_cell_setting 'monoclinic'
loop_
_space_group_symop_operation_xyz
x,y,z
-x,y,-z
-x,-y,-z
x,-y,z
loop_
_atom_site_type_symbol
_atom_site_label
_atom_site_fract_x
_atom_site_fract_y
_atom_site_fract_z
Si Si1 0.464564 0.000000 0.703852
Si Si2 0.061635 0.770591 0.714718
Si Si3 0.041421 0.000000 0.290484
Si Si4 0.278838 0.380844 0.266539
Si Si5 0.592142 0.771327 0.538376
Si Si6 0.731086 0.376777 0.027520
O O1 0.500000 0.000000 0.500000
O O2 0.548407 0.887056 0.655919
O O3 0.256891 0.000000 0.998729
O O4 0.188094 0.710407 0.459020
O O5 0.188886 0.762406 0.698700
O O6 0.870330 0.704529 0.939406
O O7 0.032373 0.891594 0.695454
O O8 0.000000 0.000000 0.500000
O O9 0.235946 0.500000 0.372748
O O10 0.208310 0.376979 0.196717
O O11 0.500000 0.371107 0.000000
O O12 0.500000 0.777792 0.500000
O O13 0.475775 0.671732 0.731713
O O14 0.734331 0.500000 0.073865
#
# Coordination Sequence:
#
# PCOD9151402 Si02
#       6
#     2   4   2   4   4   4
#     4  10  23  50  71  92 139 192 231 277 342 426
#     4  12  24  41  67 101 136 177 222 290 349 413
#     4  12  25  42  74 114 144 174 229 298 361 408
#     4  10  20  38  66  95 132 183 222 267 347 434
#     4  11  25  46  67  93 131 181 234 285 336 410
#     4  11  23  41  66  97 134 174 225 281 346 418
#
# _framework density 22.262374000000001
#
# number of rings (size 3 to 8) (size 9 to 14) (size 15 to 20)
#    0.000    1.000    4.000    3.000    0.000    3.600 
#    0.000    4.500    0.000    0.000    0.000    0.000 
#    0.000    0.000    0.000    0.000    0.000    0.000 
#
# Total GULP energy -111686.998331 kJ/mol
# GULP energy per Si atom -5584.349917 kJ/mol
# Density = 2.221170 g / cm^3
# Si number density = 22.262374 Si / 1000 Ang^3
#
#
#
# Elastic Constant Matrix: (Units=GPa)
#
#
# Indices 1 2 3 4 5 6 
#
# 1 116.6227 42.0431 35.7307 0.0000 -27.7190 0.0000
# 2 42.0431 178.2320 47.6798 0.0000 -16.3011 0.0000
# 3 35.7307 47.6798 100.2692 0.0000 -24.8684 0.0000
# 4 0.0000 0.0000 0.0000 47.8014 0.0000 -23.8499
# 5 -27.7190 -16.3011 -24.8684 0.0000 42.5506 0.0000
# 6 0.0000 0.0000 0.0000 -23.8499 0.0000 24.6561
#
#
#
# Elastic Compliance Matrix: (Units=1/GPa)
#
#
# Indices 1 2 3 4 5 6 
#
# 1 0.011015 -0.001615 -0.001790 0.000000 0.005510 0.000000
# 2 -0.001615 0.006688 -0.002608 0.000000 -0.000015 0.000000
# 3 -0.001790 -0.002608 0.013232 0.000000 0.005568 0.000000
# 4 0.000000 0.000000 0.000000 0.040435 0.000000 0.039113
# 5 0.005510 -0.000015 0.005568 0.000000 0.030340 0.000000
# 6 0.000000 0.000000 0.000000 0.039113 0.000000 0.078392
#
#
# Mechanical properties :
#
#
# Convention : Reuss Voigt Hill
#
# Bulk Modulus (GPa) = 52.88883 71.78124 62.33503
# Shear Modulus (GPa) = 25.19745 40.97961 33.08853
#
# Velocity S-wave (km/s) = 3.36793 4.29506 3.85944
# Velocity P-wave (km/s) = 6.23960 7.54387 6.92252
#
# Compressibility (1/GPa) = 0.01890758
#
# Stress axis : x y z
#
# Youngs Moduli (GPa) = 90.78263 149.51794 75.57209
#
# Poissons Ratio (x) = 0.24154 0.13531
# Poissons Ratio (y) = 0.14665 0.19711
# Poissons Ratio (z) = 0.16254 0.38998
#
# Static dielectric constant tensor:
#      x y z
#    x 1.941420 0.000000 0.064740 
#    y 0.000000 1.844180 0.000000 
#    z 0.064740 0.000000 1.936010 
# 
# From -- ./inp_files/50994.got.cif
#   From: 2010.05.17/outbox.cif.g08.bks.cpg/sg10_26_cif.got.tgz:50994.got - 2010.06.03 11:33:40.
