data_PCOD9151019
_publ_section_title
;
Structure prediction by ZEFSAII (Michael W. Deem and Ramdas Pophale) SiO2 
 PCOD9151019
Probable space group: P 2/M
;
_chemical_formula_sum "Si O2"
_cell_formula_units_Z 32
_cell_length_a 28.754976
_cell_length_b 8.730717
_cell_length_c 22.185700
_cell_angle_alpha 90.000000
_cell_angle_beta 162.081335
_cell_angle_gamma 90.000000
_cell_volume 1713.627435
_symmetry_space_group_name_H-M "P 2/M"
_symmetry_group_IT_number 10
_symmetry_cell_setting 'monoclinic'
loop_
_space_group_symop_operation_xyz
x,y,z
-x,y,-z
-x,-y,-z
x,-y,z
loop_
_atom_site_type_symbol
_atom_site_label
_atom_site_fract_x
_atom_site_fract_y
_atom_site_fract_z
Si Si1 0.671608 0.816615 0.223564
Si Si2 0.038641 0.316864 0.479468
Si Si3 0.905835 0.681380 0.096243
Si Si4 0.232657 0.817822 0.520942
Si Si5 0.451539 0.816799 0.681118
Si Si6 0.788707 0.317649 0.702793
Si Si7 0.202684 0.183418 0.912231
Si Si8 0.102828 0.817091 0.042124
O O1 0.715510 0.787793 0.347107
O O2 0.794232 0.736125 0.332880
O O3 0.680341 0.000000 0.224265
O O4 0.500000 0.767674 0.000000
O O5 0.027818 0.500000 0.462192
O O6 0.921336 0.245006 0.287381
O O7 0.000000 0.269155 0.500000
O O8 0.886980 0.500000 0.069076
O O9 0.826700 0.746519 0.058245
O O10 0.082791 0.723922 0.321301
O O11 0.851783 0.759910 0.967872
O O12 0.364774 0.783157 0.636401
O O13 0.196779 0.000000 0.471553
O O14 0.361339 0.731436 0.517203
O O15 0.439392 0.000000 0.655815
O O16 0.627899 0.777538 0.900039
O O17 0.807611 0.500000 0.726199
O O18 0.796974 0.253737 0.780820
O O19 0.932519 0.242350 0.846025
O O20 0.188027 0.000000 0.897832
O O21 0.103857 0.000000 0.046726
#
# Coordination Sequence:
#
# PCOD9151019 Si02
#       8
#     4   4   4   4   4   4   4   4
#     4  10  22  39  64  94 122 155 202 254 302 358
#     4  11  25  43  61  87 124 164 202 248 306 366
#     4  12  23  38  61  91 123 160 202 251 306 360
#     4  10  20  37  61  89 121 156 201 254 301 358
#     4  10  22  39  61  89 123 160 203 251 304 361
#     4  11  21  35  57  90 126 157 199 251 308 363
#     4  11  24  42  65  90 119 162 208 251 299 363
#     4  11  21  36  60  87 121 162 205 250 299 357
#
# _framework density 18.673836999999999
#
# number of rings (size 3 to 8) (size 9 to 14) (size 15 to 20)
#    0.000    1.250    2.500    4.875    1.750    2.250 
#    0.000    0.625    0.000    3.750    0.000    0.000 
#    0.000    0.000    0.000    0.000    0.000    0.000 
#
# Total GULP energy -178922.831920 kJ/mol
# GULP energy per Si atom -5591.338497 kJ/mol
# Density = 1.863133 g / cm^3
# Si number density = 18.673837 Si / 1000 Ang^3
#
#
#
# Elastic Constant Matrix: (Units=GPa)
#
#
# Indices 1 2 3 4 5 6 
#
# 1 124.8457 50.6129 37.9085 0.0000 5.9383 0.0000
# 2 50.6129 82.1677 34.8507 0.0000 2.7515 0.0000
# 3 37.9085 34.8507 74.3320 0.0000 10.7596 0.0000
# 4 0.0000 0.0000 0.0000 192.4715 0.0000 47.6760
# 5 5.9383 2.7515 10.7596 0.0000 29.3201 0.0000
# 6 0.0000 0.0000 0.0000 47.6760 0.0000 40.1333
#
#
#
# Elastic Compliance Matrix: (Units=1/GPa)
#
#
# Indices 1 2 3 4 5 6 
#
# 1 0.011231 -0.005625 -0.002997 0.000000 -0.000647 0.000000
# 2 -0.005625 0.018053 -0.005824 0.000000 0.001582 0.000000
# 3 -0.002997 -0.005824 0.018529 0.000000 -0.005646 0.000000
# 4 0.000000 0.000000 0.000000 0.007362 0.000000 -0.008745
# 5 -0.000647 0.001582 -0.005646 0.000000 0.036161 0.000000
# 6 0.000000 0.000000 0.000000 -0.008745 0.000000 0.035306
#
#
# Mechanical properties :
#
#
# Convention : Reuss Voigt Hill
#
# Bulk Modulus (GPa) = 52.85206 58.67660 55.76433
# Shear Modulus (GPa) = 30.89452 62.91653 46.90553
#
# Velocity S-wave (km/s) = 4.07188 5.81081 5.01725
# Velocity P-wave (km/s) = 7.10430 8.74704 7.96812
#
# Compressibility (1/GPa) = 0.01892074
#
# Stress axis : x y z
#
# Youngs Moduli (GPa) = 89.03837 55.39376 53.96850
#
# Poissons Ratio (x) = 0.31161 0.16172
# Poissons Ratio (y) = 0.50088 0.31432
# Poissons Ratio (z) = 0.26681 0.32262
#
# Static dielectric constant tensor:
#      x y z
#    x 1.636740 0.000000 -0.002430 
#    y 0.000000 1.628570 0.000000 
#    z -0.002430 0.000000 1.623420 
# 
# From -- ./inp_files/86955.got.cif
#   From: 2010.05.17/outbox.cif.g08.bks.cpg/sg10_44_cif.got.tgz:86955.got - 2010.06.03 11:33:40.
