data_PCOD9151208
_publ_section_title
;
Structure prediction by ZEFSAII (Michael W. Deem and Ramdas Pophale) SiO2 
 PCOD9151208
Probable space group: P 2/M
;
_chemical_formula_sum "Si O2"
_cell_formula_units_Z 20
_cell_length_a 9.578958
_cell_length_b 15.723000
_cell_length_c 7.368749
_cell_angle_alpha 90.000000
_cell_angle_beta 102.439191
_cell_angle_gamma 90.000000
_cell_volume 1083.754436
_symmetry_space_group_name_H-M "P 2/M"
_symmetry_group_IT_number 10
_symmetry_cell_setting 'monoclinic'
loop_
_space_group_symop_operation_xyz
x,y,z
-x,y,-z
-x,-y,-z
x,-y,z
loop_
_atom_site_type_symbol
_atom_site_label
_atom_site_fract_x
_atom_site_fract_y
_atom_site_fract_z
Si Si1 0.340261 0.311681 0.910644
Si Si2 0.159530 0.266142 0.213026
Si Si3 0.352233 0.203977 0.563243
Si Si4 0.059726 0.596608 0.722317
Si Si5 0.113197 0.903663 0.370530
O O1 0.361240 0.236106 0.770249
O O2 0.225549 0.377062 0.792340
O O3 0.500000 0.344895 0.000000
O O4 0.261589 0.278909 0.070319
O O5 0.256248 0.271051 0.422086
O O6 0.098021 0.170250 0.216148
O O7 0.035966 0.335025 0.197712
O O8 0.500000 0.198746 0.500000
O O9 0.265276 0.117102 0.507642
O O10 0.039706 0.500000 0.781098
O O11 0.000000 0.600624 0.500000
O O12 0.000000 0.889827 0.500000
O O13 0.103349 0.000000 0.301848
#
# Coordination Sequence:
#
# PCOD9151208 Si02
#       5
#     4   4   4   4   4
#     4  12  22  37  64  90 119 160 204 248 303 355
#     4  10  21  38  62  88 119 159 200 249 296 355
#     4  10  20  38  59  87 123 160 199 241 304 358
#     4  11  23  41  64  88 120 162 204 247 302 363
#     4   9  18  35  61  89 121 161 202 247 298 353
#
# _framework density 18.454367000000001
#
# number of rings (size 3 to 8) (size 9 to 14) (size 15 to 20)
#    1.200    0.400    4.000    2.400    0.000    2.400 
#    0.000    1.000    0.000   10.800    0.000    0.000 
#    0.000    0.000    0.000    0.000    0.000    0.000 
#
# Total GULP energy -111350.471907 kJ/mol
# GULP energy per Si atom -5567.523595 kJ/mol
# Density = 1.841236 g / cm^3
# Si number density = 18.454367 Si / 1000 Ang^3
#
#
#
# Elastic Constant Matrix: (Units=GPa)
#
#
# Indices 1 2 3 4 5 6 
#
# 1 145.1533 67.6058 35.1944 0.0000 0.5787 0.0000
# 2 67.6058 121.1374 33.3535 0.0000 -9.9399 0.0000
# 3 35.1944 33.3535 86.4230 0.0000 0.0624 0.0000
# 4 0.0000 0.0000 0.0000 -41.9305 0.0000 19.7019
# 5 0.5787 -9.9399 0.0624 0.0000 27.9794 0.0000
# 6 0.0000 0.0000 0.0000 19.7019 0.0000 7.6939
#
#
#
# Elastic Compliance Matrix: (Units=1/GPa)
#
#
# Indices 1 2 3 4 5 6 
#
# 1 0.009734 -0.005040 -0.002017 0.000000 -0.001987 0.000000
# 2 -0.005040 0.012159 -0.002643 0.000000 0.004430 0.000000
# 3 -0.002017 -0.002643 0.013413 0.000000 -0.000927 0.000000
# 4 0.000000 0.000000 0.000000 -0.010825 0.000000 0.027719
# 5 -0.001987 0.004430 -0.000927 0.000000 0.037357 0.000000
# 6 0.000000 0.000000 0.000000 0.027719 0.000000 0.058993
#
#
# Mechanical properties :
#
#
# Convention : Reuss Voigt Hill
#
# Bulk Modulus (GPa) = 62.87393 69.44680 66.16036
# Shear Modulus (GPa) = 34.35602 13.18589 23.77095
#
# Velocity S-wave (km/s) = 4.31939 2.67594 3.59290
# Velocity P-wave (km/s) = 7.68246 6.87465 7.28975
#
# Compressibility (1/GPa) = 0.01590484
#
# Stress axis : x y z
#
# Youngs Moduli (GPa) = 102.73595 82.24277 74.55237
#
# Poissons Ratio (x) = 0.41450 0.15040
# Poissons Ratio (y) = 0.51778 0.19707
# Poissons Ratio (z) = 0.20726 0.21740
#
# Static dielectric constant tensor:
#      x y z
#    x 1.656130 0.000000 0.040760 
#    y 0.000000 1.622990 0.000000 
#    z 0.040760 0.000000 1.659050 
# 
# From -- ./inp_files/18624.got.cif
#   From: 2010.05.17/outbox.cif.g08.bks.cpg/sg10_10_cif.got.tgz:18624.got - 2010.06.03 11:33:40.
