data_PCOD9151148
_publ_section_title
;
Structure prediction by ZEFSAII (Michael W. Deem and Ramdas Pophale) SiO2 
 PCOD9151148
Probable space group: P 2/M
;
_chemical_formula_sum "Si O2"
_cell_formula_units_Z 26
_cell_length_a 11.526979
_cell_length_b 20.875274
_cell_length_c 5.335860
_cell_angle_alpha 90.000000
_cell_angle_beta 69.768686
_cell_angle_gamma 90.000000
_cell_volume 1204.746733
_symmetry_space_group_name_H-M "P 2/M"
_symmetry_group_IT_number 10
_symmetry_cell_setting 'monoclinic'
loop_
_space_group_symop_operation_xyz
x,y,z
-x,y,-z
-x,-y,-z
x,-y,z
loop_
_atom_site_type_symbol
_atom_site_label
_atom_site_fract_x
_atom_site_fract_y
_atom_site_fract_z
Si Si1 0.870970 0.072994 0.255859
Si Si2 0.954392 0.574195 0.281579
Si Si3 0.662810 0.571536 0.453468
Si Si4 0.624088 0.644579 0.972541
Si Si5 0.752536 0.232669 0.804709
Si Si6 0.351483 0.835093 0.627654
Si Si7 0.000000 0.825734 0.500000
O O1 0.739510 0.102610 0.262325
O O2 0.911093 0.125261 0.425163
O O3 0.850963 0.000000 0.356793
O O4 0.000000 0.071103 0.000000
O O5 0.005666 0.500000 0.243284
O O6 0.809397 0.571238 0.372104
O O7 0.000000 0.604840 0.500000
O O8 0.000000 0.607945 0.000000
O O9 0.626900 0.500000 0.406320
O O10 0.618041 0.589816 0.764315
O O11 0.629278 0.619072 0.251457
O O12 0.735462 0.691131 0.821200
O O13 0.500000 0.683719 0.000000
O O14 0.693529 0.202304 0.592956
O O15 0.898154 0.215613 0.721908
O O16 0.680423 0.207005 0.103444
O O17 0.500000 0.847770 0.500000
#
# Coordination Sequence:
#
# PCOD9151148 Si02
#       7
#     4   4   4   4   4   4   2
#     4  10  20  37  64  97 137 181 223 270 329 392
#     4   9  17  33  57  81 111 148 185 229 290 370
#     4  11  24  42  64  93 124 161 206 258 329 403
#     4  12  25  42  63  92 126 165 215 267 321 393
#     4  11  24  43  68  95 126 174 224 278 331 386
#     4  11  22  40  66  96 134 179 224 275 331 390
#     4  10  21  42  68  94 135 170 226 278 324 386
#
# _framework density 21.581298
#
# number of rings (size 3 to 8) (size 9 to 14) (size 15 to 20)
#    0.000    1.385    1.538    4.385    0.000    4.615 
#    4.154    0.000    0.000    2.769    0.000    0.000 
#    0.000    0.000    0.000    0.000    0.000    0.000 
#
# Total GULP energy -144860.426347 kJ/mol
# GULP energy per Si atom -5571.554860 kJ/mol
# Density = 2.153218 g / cm^3
# Si number density = 21.581298 Si / 1000 Ang^3
#
#
#
# Elastic Constant Matrix: (Units=GPa)
#
#
# Indices 1 2 3 4 5 6 
#
# 1 125.5988 30.5646 46.3988 0.0000 -4.0936 0.0000
# 2 30.5646 85.9429 23.8551 0.0000 -0.6239 0.0000
# 3 46.3988 23.8551 137.4713 0.0000 9.0747 0.0000
# 4 0.0000 0.0000 0.0000 16.6523 0.0000 9.0762
# 5 -4.0936 -0.6239 9.0747 0.0000 38.5159 0.0000
# 6 0.0000 0.0000 0.0000 9.0762 0.0000 1.2156
#
#
#
# Elastic Compliance Matrix: (Units=1/GPa)
#
#
# Indices 1 2 3 4 5 6 
#
# 1 0.009746 -0.002637 -0.002943 0.000000 0.001687 0.000000
# 2 -0.002637 0.012957 -0.001375 0.000000 0.000254 0.000000
# 3 -0.002943 -0.001375 0.008663 0.000000 -0.002376 0.000000
# 4 0.000000 0.000000 0.000000 -0.019563 0.000000 0.146071
# 5 0.001687 0.000254 -0.002376 0.000000 0.026707 0.000000
# 6 0.000000 0.000000 0.000000 0.146071 0.000000 -0.268000
#
#
# Mechanical properties :
#
#
# Convention : Reuss Voigt Hill
#
# Bulk Modulus (GPa) = 57.28828 61.18334 59.23581
# Shear Modulus (GPa) = -23.83649 27.82306 1.99329
#
# Velocity S-wave (km/s) = -3.32700 3.59447 0.96209
# Velocity P-wave (km/s) = 3.44156 6.75564 5.36111
#
# Compressibility (1/GPa) = 0.01745558
#
# Stress axis : x y z
#
# Youngs Moduli (GPa) = 102.60886 77.17885 115.43242
#
# Poissons Ratio (x) = 0.20351 0.33973
# Poissons Ratio (y) = 0.27056 0.15874
# Poissons Ratio (z) = 0.30199 0.10613
#
# Static dielectric constant tensor:
#      x y z
#    x 1.877570 0.000000 -0.067280 
#    y 0.000000 1.833080 0.000000 
#    z -0.067280 0.000000 1.838840 
# 
# From -- ./inp_files/7531.got.cif
#   From: 2010.05.17/outbox.cif.g08.bks.cpg/sg10_4_cif.got.tgz:7531.got - 2010.06.03 11:33:40.
