data_PCOD9151661
_publ_section_title
;
Structure prediction by ZEFSAII (Michael W. Deem and Ramdas Pophale) SiO2 
 PCOD9151661
Probable space group: P 2/M
;
_chemical_formula_sum "Si O2"
_cell_formula_units_Z 24
_cell_length_a 9.955129
_cell_length_b 11.479030
_cell_length_c 8.796605
_cell_angle_alpha 90.000000
_cell_angle_beta 96.284440
_cell_angle_gamma 90.000000
_cell_volume 999.193278
_symmetry_space_group_name_H-M "P 2/M"
_symmetry_group_IT_number 10
_symmetry_cell_setting 'monoclinic'
loop_
_space_group_symop_operation_xyz
x,y,z
-x,y,-z
-x,-y,-z
x,-y,z
loop_
_atom_site_type_symbol
_atom_site_label
_atom_site_fract_x
_atom_site_fract_y
_atom_site_fract_z
Si Si1 0.643974 0.730289 0.105438
Si Si2 0.595790 0.500000 0.280926
Si Si3 0.730602 0.126403 0.859078
Si Si4 0.976854 0.371671 0.677571
Si Si5 0.548468 0.130433 0.354454
Si Si6 0.989266 0.128957 0.183393
Si Si7 0.290580 0.500000 0.361346
O O1 0.642293 0.608027 0.186426
O O2 0.652901 0.816477 0.250259
O O3 0.500000 0.740070 0.000000
O O4 0.741611 0.772436 0.984549
O O5 0.430994 0.500000 0.284547
O O6 0.663195 0.500000 0.456361
O O7 0.589584 0.128620 0.757108
O O8 0.850962 0.127079 0.754755
O O9 0.732716 0.000000 0.940914
O O10 0.032711 0.500000 0.734273
O O11 0.044942 0.258223 0.760372
O O12 0.813680 0.392010 0.681407
O O13 0.000000 0.363355 0.500000
O O14 0.500000 0.197106 0.500000
O O15 0.592311 0.000000 0.401554
O O16 0.934753 0.000000 0.223764
O O17 0.000000 0.127713 0.000000
#
# Coordination Sequence:
#
# PCOD9151661 Si02
#       7
#     4   2   4   4   4   4   2
#     4  10  21  33  52  78 116 154 198 236 287 358
#     4  11  23  36  56  87 121 163 199 252 305 354
#     4   9  19  37  56  81 119 160 195 246 303 357
#     4   9  21  42  67  91 122 159 210 258 312 372
#     4   9  18  31  52  79 107 147 196 236 278 345
#     4  10  22  40  64  95 125 157 203 261 319 369
#     4   9  23  40  61  83 122 160 202 257 305 370
#
# _framework density 24.019379000000001
#
# number of rings (size 3 to 8) (size 9 to 14) (size 15 to 20)
#    0.500    2.000    0.000    0.750    7.000    4.000 
#    1.500    0.000    0.000    7.000    0.000    0.000 
#    0.000    0.000    0.000    0.000    0.000    0.000 
#
# Total GULP energy -133665.811266 kJ/mol
# GULP energy per Si atom -5569.408803 kJ/mol
# Density = 2.396471 g / cm^3
# Si number density = 24.019379 Si / 1000 Ang^3
#
#
#
# Elastic Constant Matrix: (Units=GPa)
#
#
# Indices 1 2 3 4 5 6 
#
# 1 76.4258 17.5204 0.1838 0.0000 8.2052 0.0000
# 2 17.5204 162.1032 63.8685 0.0000 -2.1886 0.0000
# 3 0.1838 63.8685 75.3651 0.0000 -4.3148 0.0000
# 4 0.0000 0.0000 0.0000 38.2982 0.0000 -4.7418
# 5 8.2052 -2.1886 -4.3148 0.0000 18.6197 0.0000
# 6 0.0000 0.0000 0.0000 -4.7418 0.0000 15.3740
#
#
#
# Elastic Compliance Matrix: (Units=1/GPa)
#
#
# Indices 1 2 3 4 5 6 
#
# 1 0.014252 -0.002208 0.001481 0.000000 -0.006197 0.000000
# 2 -0.002208 0.009613 -0.008129 0.000000 0.000219 0.000000
# 3 0.001481 -0.008129 0.020332 0.000000 0.003103 0.000000
# 4 0.000000 0.000000 0.000000 0.027148 0.000000 0.008373
# 5 -0.006197 0.000219 0.003103 0.000000 0.057182 0.000000
# 6 0.000000 0.000000 0.000000 0.008373 0.000000 0.067627
#
#
# Mechanical properties :
#
#
# Convention : Reuss Voigt Hill
#
# Bulk Modulus (GPa) = 37.75442 53.00438 45.37940
# Shear Modulus (GPa) = 22.45238 29.94650 26.19944
#
# Velocity S-wave (km/s) = 3.06070 3.53479 3.30625
# Velocity P-wave (km/s) = 5.31441 6.22695 5.78869
#
# Compressibility (1/GPa) = 0.02648696
#
# Stress axis : x y z
#
# Youngs Moduli (GPa) = 70.16337 104.02305 49.18443
#
# Poissons Ratio (x) = 0.22966 -0.07286
# Poissons Ratio (y) = 0.15491 0.39981
# Poissons Ratio (z) = -0.10394 0.84559
#
# Static dielectric constant tensor:
#      x y z
#    x 2.065330 0.000000 0.024200 
#    y 0.000000 2.038450 0.000000 
#    z 0.024200 0.000000 1.894090 
# 
# From -- ./inp_files/24112.got.cif
#   From: 2010.05.17/outbox.cif.g08.bks.cpg/sg10_13_cif.got.tgz:24112.got - 2010.06.03 11:33:40.
