data_PCOD9151969
_publ_section_title
;
Structure prediction by ZEFSAII (Michael W. Deem and Ramdas Pophale) SiO2 
 PCOD9151969
Probable space group: P 2/M
;
_chemical_formula_sum "Si O2"
_cell_formula_units_Z 28
_cell_length_a 8.313567
_cell_length_b 21.989073
_cell_length_c 14.501251
_cell_angle_alpha 90.000000
_cell_angle_beta 151.527128
_cell_angle_gamma 90.000000
_cell_volume 1263.815747
_symmetry_space_group_name_H-M "P 2/M"
_symmetry_group_IT_number 10
_symmetry_cell_setting 'monoclinic'
loop_
_space_group_symop_operation_xyz
x,y,z
-x,y,-z
-x,-y,-z
x,-y,z
loop_
_atom_site_type_symbol
_atom_site_label
_atom_site_fract_x
_atom_site_fract_y
_atom_site_fract_z
Si Si1 0.672148 0.370324 0.402779
Si Si2 0.090177 0.834938 0.293987
Si Si3 0.310338 0.500000 0.034506
Si Si4 0.986982 0.304728 0.270472
Si Si5 0.901502 0.933315 0.844468
Si Si6 0.448309 0.500000 0.323599
Si Si7 0.089709 0.932712 0.438842
Si Si8 0.632151 0.364351 0.938621
O O1 0.639409 0.436740 0.432951
O O2 0.380286 0.359822 0.178830
O O3 0.000000 0.371469 0.500000
O O4 0.718847 0.322387 0.508891
O O5 0.500000 0.833218 0.500000
O O6 0.975658 0.875222 0.149603
O O7 0.970729 0.875656 0.319915
O O8 0.978946 0.765789 0.241949
O O9 0.362270 0.500000 0.171038
O O10 0.450772 0.434535 0.078179
O O11 0.913981 0.500000 0.810386
O O12 0.659909 0.322576 0.166350
O O13 0.957802 0.344077 0.161639
O O14 0.495255 0.933976 0.632765
O O15 0.019611 0.000000 0.870001
O O16 0.000000 0.928591 0.000000
O O17 0.000000 0.925277 0.500000
O O18 0.965001 0.000000 0.346978
#
# Coordination Sequence:
#
# PCOD9151969 Si02
#       8
#     4   4   2   4   4   2   4   4
#     4   9  18  34  56  78 109 145 186 239 298 350
#     4  10  21  38  56  83 118 155 195 241 288 353
#     4   9  18  34  57  79 110 140 192 243 301 347
#     4  10  21  36  53  79 111 148 195 227 281 360
#     4   9  18  37  62  88 118 154 197 245 300 353
#     4   9  17  31  55  86 105 138 188 243 297 356
#     4   9  18  35  60  88 117 153 196 242 293 347
#     4   9  20  38  55  78 109 150 186 243 294 346
#
# _framework density 22.155128000000001
#
# number of rings (size 3 to 8) (size 9 to 14) (size 15 to 20)
#    0.000    2.714    0.000    0.643    0.000    8.000 
#   10.286    0.714    0.000    3.429    0.000    0.000 
#    0.000    0.000    0.000    0.000    0.000    0.000 
#
# Total GULP energy -156209.942990 kJ/mol
# GULP energy per Si atom -5578.926535 kJ/mol
# Density = 2.210470 g / cm^3
# Si number density = 22.155128 Si / 1000 Ang^3
#
#
#
# Elastic Constant Matrix: (Units=GPa)
#
#
# Indices 1 2 3 4 5 6 
#
# 1 59.5299 54.1913 26.6920 0.0000 -21.6460 0.0000
# 2 54.1913 216.0014 38.8577 0.0000 -32.0324 0.0000
# 3 26.6920 38.8577 70.3886 0.0000 -22.6286 0.0000
# 4 0.0000 0.0000 0.0000 22.5429 0.0000 3.4355
# 5 -21.6460 -32.0324 -22.6286 0.0000 43.0625 0.0000
# 6 0.0000 0.0000 0.0000 3.4355 0.0000 22.4270
#
#
#
# Elastic Compliance Matrix: (Units=1/GPa)
#
#
# Indices 1 2 3 4 5 6 
#
# 1 0.025669 -0.004512 -0.005023 0.000000 0.006907 0.000000
# 2 -0.004512 0.006231 -0.001165 0.000000 0.001755 0.000000
# 3 -0.005023 -0.001165 0.018848 0.000000 0.006513 0.000000
# 4 0.000000 0.000000 0.000000 0.045420 0.000000 -0.006958
# 5 0.006907 0.001755 0.006513 0.000000 0.031422 0.000000
# 6 0.000000 0.000000 0.000000 -0.006958 0.000000 0.045655
#
#
# Mechanical properties :
#
#
# Convention : Reuss Voigt Hill
#
# Bulk Modulus (GPa) = 34.07115 65.04466 49.55791
# Shear Modulus (GPa) = 24.45832 32.68507 28.57170
#
# Velocity S-wave (km/s) = 3.32619 3.84511 3.59502
# Velocity P-wave (km/s) = 5.49211 7.00968 6.29678
#
# Compressibility (1/GPa) = 0.02935034
#
# Stress axis : x y z
#
# Youngs Moduli (GPa) = 38.95677 160.47641 53.05495
#
# Poissons Ratio (x) = 0.72410 0.26647
# Poissons Ratio (y) = 0.17578 0.06180
# Poissons Ratio (z) = 0.19566 0.18691
#
# Static dielectric constant tensor:
#      x y z
#    x 1.835650 0.000000 0.034620 
#    y 0.000000 1.773930 0.000000 
#    z 0.034620 0.000000 1.918690 
# 
# From -- ./inp_files/62640.got.cif
#   From: 2010.05.17/outbox.cif.g08.bks.cpg/sg10_32_cif.got.tgz:62640.got - 2010.06.03 11:33:40.
