data_PCOD9151931
_publ_section_title
;
Structure prediction by ZEFSAII (Michael W. Deem and Ramdas Pophale) SiO2 
 PCOD9151931
Probable space group: P 2/M
;
_chemical_formula_sum "Si O2"
_cell_formula_units_Z 24
_cell_length_a 20.652514
_cell_length_b 7.360973
_cell_length_c 7.930830
_cell_angle_alpha 90.000000
_cell_angle_beta 44.891342
_cell_angle_gamma 90.000000
_cell_volume 850.915854
_symmetry_space_group_name_H-M "P 2/M"
_symmetry_group_IT_number 10
_symmetry_cell_setting 'monoclinic'
loop_
_space_group_symop_operation_xyz
x,y,z
-x,y,-z
-x,-y,-z
x,-y,z
loop_
_atom_site_type_symbol
_atom_site_label
_atom_site_fract_x
_atom_site_fract_y
_atom_site_fract_z
Si Si1 0.060957 0.279358 0.721937
Si Si2 0.897274 0.721248 0.809055
Si Si3 0.731168 0.291449 0.908118
Si Si4 0.612009 0.208439 0.447796
Si Si5 0.776843 0.282117 0.363593
Si Si6 0.559931 0.288759 0.038423
O O1 0.062616 0.500000 0.709643
O O2 0.163601 0.219967 0.584738
O O3 0.000016 0.220531 0.673638
O O4 0.000000 0.234789 0.000000
O O5 0.900727 0.500000 0.785218
O O6 0.828676 0.786652 0.788507
O O7 0.839259 0.763301 0.085638
O O8 0.748743 0.500000 0.824212
O O9 0.670644 0.299341 0.192176
O O10 0.657545 0.210533 0.913976
O O11 0.676206 0.219031 0.496867
O O12 0.512581 0.284942 0.674188
O O13 0.601686 0.000000 0.418229
O O14 0.772329 0.500000 0.380334
O O15 0.577377 0.500000 0.962107
O O16 0.500000 0.203964 0.000000
#
# Coordination Sequence:
#
# PCOD9151931 Si02
#       6
#     4   4   4   4   4   4
#     4   7   9  15  32  59  87 113 142 177 217 259
#     4   7  10  18  36  63  89 112 142 179 220 263
#     4   9  17  31  51  71  92 120 152 187 227 271
#     4  11  21  31  46  69  96 124 153 187 225 267
#     4   8  13  23  40  61  87 119 151 182 218 261
#     4  10  21  36  52  69  89 116 152 192 233 276
#
# _framework density 28.204903000000002
#
# number of rings (size 3 to 8) (size 9 to 14) (size 15 to 20)
#    0.000    3.333    0.000    5.000    0.000    3.000 
#    0.000    0.000    0.000   12.500    0.000    1.167 
#    0.000    9.333    0.000    0.000    0.000    0.000 
#
# Total GULP energy -134226.617631 kJ/mol
# GULP energy per Si atom -5592.775735 kJ/mol
# Density = 2.814071 g / cm^3
# Si number density = 28.204903 Si / 1000 Ang^3
#
#
#
# Elastic Constant Matrix: (Units=GPa)
#
#
# Indices 1 2 3 4 5 6 
#
# 1 330.3969 14.6838 83.3890 0.0000 -36.0271 0.0000
# 2 14.6838 108.6178 -9.5783 0.0000 -2.9516 0.0000
# 3 83.3890 -9.5783 131.2375 0.0000 -37.2469 0.0000
# 4 0.0000 0.0000 0.0000 -24.0491 0.0000 -24.3599
# 5 -36.0271 -2.9516 -37.2469 0.0000 78.2924 0.0000
# 6 0.0000 0.0000 0.0000 -24.3599 0.0000 -54.6213
#
#
#
# Elastic Compliance Matrix: (Units=1/GPa)
#
#
# Indices 1 2 3 4 5 6 
#
# 1 0.003683 -0.000676 -0.002215 0.000000 0.000616 0.000000
# 2 -0.000676 0.009431 0.001307 0.000000 0.000666 0.000000
# 3 -0.002215 0.001307 0.010228 0.000000 0.003896 0.000000
# 4 0.000000 0.000000 0.000000 -0.075843 0.000000 0.033824
# 5 0.000616 0.000666 0.003896 0.000000 0.014935 0.000000
# 6 0.000000 0.000000 0.000000 0.033824 0.000000 -0.033393
#
#
# Mechanical properties :
#
#
# Convention : Reuss Voigt Hill
#
# Bulk Modulus (GPa) = 49.56745 83.02682 66.29714
# Shear Modulus (GPa) = -81.87852 32.04157 -24.91848
#
# Velocity S-wave (km/s) = -5.39378 3.37416 -2.97556
# Velocity P-wave (km/s) = 4.60199 6.68437 3.42801
#
# Compressibility (1/GPa) = 0.02017453
#
# Stress axis : x y z
#
# Youngs Moduli (GPa) = 271.53023 106.02851 97.76867
#
# Poissons Ratio (x) = 0.07172 0.21653
# Poissons Ratio (y) = 0.18368 -0.12781
# Poissons Ratio (z) = 0.60138 -0.13860
#
# Static dielectric constant tensor:
#      x y z
#    x 2.220260 0.000000 0.066270 
#    y 0.000000 2.022860 0.000000 
#    z 0.066270 0.000000 2.242590 
# 
# From -- ./inp_files/33729.got.cif
#   From: 2010.05.17/outbox.cif.g08.bks.cpg/sg10_17_cif.got.tgz:33729.got - 2010.06.03 11:33:40.
