data_PCOD9151509
_publ_section_title
;
Structure prediction by ZEFSAII (Michael W. Deem and Ramdas Pophale) SiO2 
 PCOD9151509
Probable space group: P 2/M
;
_chemical_formula_sum "Si O2"
_cell_formula_units_Z 28
_cell_length_a 15.883998
_cell_length_b 20.392827
_cell_length_c 9.171526
_cell_angle_alpha 90.000000
_cell_angle_beta 151.133436
_cell_angle_gamma 90.000000
_cell_volume 1434.235280
_symmetry_space_group_name_H-M "P 2/M"
_symmetry_group_IT_number 10
_symmetry_cell_setting 'monoclinic'
loop_
_space_group_symop_operation_xyz
x,y,z
-x,y,-z
-x,-y,-z
x,-y,z
loop_
_atom_site_type_symbol
_atom_site_label
_atom_site_fract_x
_atom_site_fract_y
_atom_site_fract_z
Si Si1 0.294321 0.073029 0.655503
Si Si2 0.803404 0.500000 0.648431
Si Si3 0.807575 0.846456 0.753341
Si Si4 0.499092 0.250394 0.673650
Si Si5 0.803933 0.161571 0.251200
Si Si6 0.703138 0.073626 0.851483
Si Si7 0.338489 0.500000 0.870146
Si Si8 0.518051 0.594507 0.351708
O O1 0.257081 0.089007 0.431203
O O2 0.208413 0.135526 0.603870
O O3 0.228908 0.000000 0.593135
O O4 0.500000 0.074749 0.000000
O O5 0.808344 0.500000 0.477429
O O6 0.692538 0.561000 0.548933
O O7 0.000000 0.500000 0.000000
O O8 0.666506 0.789624 0.518529
O O9 0.802665 0.871589 0.910873
O O10 0.000000 0.826967 0.000000
O O11 0.500000 0.239366 0.500000
O O12 0.484051 0.327807 0.674176
O O13 0.671029 0.219198 0.007260
O O14 0.000000 0.175993 0.500000
O O15 0.730657 0.096856 0.057182
O O16 0.500000 0.076498 0.500000
O O17 0.766609 0.000000 0.925609
O O18 0.500000 0.500000 0.000000
O O19 0.365761 0.560899 0.022132
O O20 0.500000 0.581675 0.500000
#
# Coordination Sequence:
#
# PCOD9151509 Si02
#       8
#     4   2   4   4   4   4   2   4
#     4  11  23  39  56  82 114 146 194 263 329 373
#     4  10  20  39  66 105 136 159 196 248 288 342
#     4  12  23  38  58  83 114 152 197 251 312 373
#     4  11  22  43  61  85 121 164 206 245 287 364
#     4  12  23  39  59  82 113 153 201 255 310 365
#     4  11  21  39  64  79 105 153 202 252 316 382
#     4   8  16  37  62  95 126 157 195 236 278 350
#     4   9  19  38  67  88 123 173 208 239 295 347
#
# _framework density 19.522600000000001
#
# number of rings (size 3 to 8) (size 9 to 14) (size 15 to 20)
#    0.000    1.429    4.286    2.571    0.000    6.286 
#    7.714    4.286    0.000    0.000    0.000    0.000 
#    0.000    0.000    0.000    0.000    0.000    0.000 
#
# Total GULP energy -156183.898839 kJ/mol
# GULP energy per Si atom -5577.996387 kJ/mol
# Density = 1.947817 g / cm^3
# Si number density = 19.522600 Si / 1000 Ang^3
#
#
#
# Elastic Constant Matrix: (Units=GPa)
#
#
# Indices 1 2 3 4 5 6 
#
# 1 71.1988 38.7473 34.2025 0.0000 2.1145 0.0000
# 2 38.7473 151.2062 46.8437 0.0000 9.7814 0.0000
# 3 34.2025 46.8437 124.9281 0.0000 8.6359 0.0000
# 4 0.0000 0.0000 0.0000 2.3952 0.0000 -10.9115
# 5 2.1145 9.7814 8.6359 0.0000 41.0688 0.0000
# 6 0.0000 0.0000 0.0000 -10.9115 0.0000 18.9181
#
#
#
# Elastic Compliance Matrix: (Units=1/GPa)
#
#
# Indices 1 2 3 4 5 6 
#
# 1 0.017621 -0.003451 -0.003577 0.000000 0.000667 0.000000
# 2 -0.003451 0.008218 -0.002043 0.000000 -0.001350 0.000000
# 3 -0.003577 -0.002043 0.009847 0.000000 -0.001400 0.000000
# 4 0.000000 0.000000 0.000000 -0.256526 0.000000 -0.147958
# 5 0.000667 -0.001350 -0.001400 0.000000 0.024931 0.000000
# 6 0.000000 0.000000 0.000000 -0.147958 0.000000 -0.032479
#
#
# Mechanical properties :
#
#
# Convention : Reuss Voigt Hill
#
# Bulk Modulus (GPa) = 56.99660 65.21335 61.10498
# Shear Modulus (GPa) = -24.46203 27.64575 1.59186
#
# Velocity S-wave (km/s) = -3.54363 3.76718 0.90397
# Velocity P-wave (km/s) = 3.53772 7.23870 5.69711
#
# Compressibility (1/GPa) = 0.01754490
#
# Stress axis : x y z
#
# Youngs Moduli (GPa) = 56.74923 121.68210 101.55612
#
# Poissons Ratio (x) = 0.41989 0.36322
# Poissons Ratio (y) = 0.19582 0.20753
# Poissons Ratio (z) = 0.20297 0.24866
#
# Static dielectric constant tensor:
#      x y z
#    x 1.699530 0.000000 -0.000390 
#    y 0.000000 1.643950 0.000000 
#    z -0.000390 0.000000 1.697950 
# 
# From -- ./inp_files/30529.got.cif
#   From: 2010.05.17/outbox.cif.g08.bks.cpg/sg10_16_cif.got.tgz:30529.got - 2010.06.03 11:33:40.
