data_PCOD9151945
_publ_section_title
;
Structure prediction by ZEFSAII (Michael W. Deem and Ramdas Pophale) SiO2 
 PCOD9151945
Probable space group: P 2/M
;
_chemical_formula_sum "Si O2"
_cell_formula_units_Z 20
_cell_length_a 16.292496
_cell_length_b 7.416179
_cell_length_c 7.956370
_cell_angle_alpha 90.000000
_cell_angle_beta 48.164440
_cell_angle_gamma 90.000000
_cell_volume 716.267617
_symmetry_space_group_name_H-M "P 2/M"
_symmetry_group_IT_number 10
_symmetry_cell_setting 'monoclinic'
loop_
_space_group_symop_operation_xyz
x,y,z
-x,y,-z
-x,-y,-z
x,-y,z
loop_
_atom_site_type_symbol
_atom_site_label
_atom_site_fract_x
_atom_site_fract_y
_atom_site_fract_z
Si Si1 0.331290 0.283133 0.672442
Si Si2 0.474590 0.719879 0.806302
Si Si3 0.134886 0.207791 0.161240
Si Si4 0.722364 0.707633 0.713643
Si Si5 0.928632 0.289646 0.247324
O O1 0.327931 0.500000 0.671376
O O2 0.401316 0.223656 0.413536
O O3 0.405057 0.232736 0.733897
O O4 0.210274 0.221723 0.889699
O O5 0.475181 0.500000 0.817442
O O6 0.395757 0.783427 0.065538
O O7 0.205535 0.297857 0.211938
O O8 0.015240 0.283601 0.282771
O O9 0.123558 0.000000 0.223139
O O10 0.702457 0.500000 0.690410
O O11 0.811286 0.788006 0.463166
O O12 0.908173 0.500000 0.232887
O O13 0.000000 0.206272 0.000000
#
# Coordination Sequence:
#
# PCOD9151945 Si02
#       5
#     4   4   4   4   4
#     4   8  13  25  45  68  95 124 155 191 233 277
#     4   7  11  22  44  71  94 119 151 191 236 276
#     4  11  21  31  47  73 102 129 159 193 233 283
#     4   9  17  32  53  74  97 124 157 198 240 280
#     4  10  21  36  53  71  92 123 163 203 242 284
#
# _framework density 27.922522000000001
#
# number of rings (size 3 to 8) (size 9 to 14) (size 15 to 20)
#    0.000    3.000    0.000    4.800    0.000    3.600 
#    0.000    8.000    0.000    1.200    0.000    8.400 
#    0.000    0.000    0.000    0.000    0.000    0.000 
#
# Total GULP energy -111872.337195 kJ/mol
# GULP energy per Si atom -5593.616860 kJ/mol
# Density = 2.785897 g / cm^3
# Si number density = 27.922522 Si / 1000 Ang^3
#
#
#
# Elastic Constant Matrix: (Units=GPa)
#
#
# Indices 1 2 3 4 5 6 
#
# 1 135.7289 -10.1169 75.1081 0.0000 -38.0074 0.0000
# 2 -10.1169 104.2289 8.4976 0.0000 -2.4512 0.0000
# 3 75.1081 8.4976 294.6578 0.0000 -37.4633 0.0000
# 4 0.0000 0.0000 0.0000 -2.6217 0.0000 -40.9630
# 5 -38.0074 -2.4512 -37.4633 0.0000 75.1563 0.0000
# 6 0.0000 0.0000 0.0000 -40.9630 0.0000 -7.8703
#
#
#
# Elastic Compliance Matrix: (Units=1/GPa)
#
#
# Indices 1 2 3 4 5 6 
#
# 1 0.009662 0.001193 -0.001998 0.000000 0.003929 0.000000
# 2 0.001193 0.009767 -0.000500 0.000000 0.000673 0.000000
# 3 -0.001998 -0.000500 0.004043 0.000000 0.000989 0.000000
# 4 0.000000 0.000000 0.000000 0.004749 0.000000 -0.024716
# 5 0.003929 0.000673 0.000989 0.000000 0.015808 0.000000
# 6 0.000000 0.000000 0.000000 -0.024716 0.000000 0.001582
#
#
# Mechanical properties :
#
#
# Convention : Reuss Voigt Hill
#
# Bulk Modulus (GPa) = 47.93293 75.73258 61.83275
# Shear Modulus (GPa) = 90.62164 43.67462 67.14813
#
# Velocity S-wave (km/s) = 5.70308 3.95921 4.90920
# Velocity P-wave (km/s) = 7.78271 6.93410 7.37062
#
# Compressibility (1/GPa) = 0.02086249
#
# Stress axis : x y z
#
# Youngs Moduli (GPa) = 103.49384 102.38884 247.33274
#
# Poissons Ratio (x) = -0.12217 0.49411
# Poissons Ratio (y) = -0.12349 0.12374
# Poissons Ratio (z) = 0.20675 0.05122
#
# Static dielectric constant tensor:
#      x y z
#    x 2.210750 0.000000 0.066880 
#    y 0.000000 2.003580 0.000000 
#    z 0.066880 0.000000 2.222210 
# 
# From -- ./inp_files/26776.got.cif
#   From: 2010.05.17/outbox.cif.g08.bks.cpg/sg10_14_cif.got.tgz:26776.got - 2010.06.03 11:33:40.
