data_PCOD9151799
_publ_section_title
;
Structure prediction by ZEFSAII (Michael W. Deem and Ramdas Pophale) SiO2 
 PCOD9151799
Probable space group: P 2/M
;
_chemical_formula_sum "Si O2"
_cell_formula_units_Z 28
_cell_length_a 9.883461
_cell_length_b 9.099730
_cell_length_c 30.552888
_cell_angle_alpha 90.000000
_cell_angle_beta 142.985361
_cell_angle_gamma 90.000000
_cell_volume 1654.245890
_symmetry_space_group_name_H-M "P 2/M"
_symmetry_group_IT_number 10
_symmetry_cell_setting 'monoclinic'
loop_
_space_group_symop_operation_xyz
x,y,z
-x,y,-z
-x,-y,-z
x,-y,z
loop_
_atom_site_type_symbol
_atom_site_label
_atom_site_fract_x
_atom_site_fract_y
_atom_site_fract_z
Si Si1 0.240815 0.824161 0.439425
Si Si2 0.354488 0.831815 0.007435
Si Si3 0.030329 0.177380 0.152994
Si Si4 0.554198 0.824294 0.283043
Si Si5 0.844854 0.174576 0.272491
Si Si6 0.940948 0.675787 0.435031
Si Si7 0.739224 0.325273 0.154037
O O1 0.500000 0.784661 0.500000
O O2 0.086675 0.794197 0.357103
O O3 0.126895 0.741220 0.450316
O O4 0.226003 0.000000 0.443458
O O5 0.491485 0.731095 0.075919
O O6 0.347188 0.000000 0.021857
O O7 0.500000 0.832668 0.000000
O O8 0.109399 0.784880 0.927140
O O9 0.292233 0.213821 0.217403
O O10 0.910688 0.255430 0.162902
O O11 0.007265 0.000000 0.152351
O O12 0.664189 0.792681 0.264085
O O13 0.704824 0.742247 0.357763
O O14 0.576562 0.000000 0.295523
O O15 0.800039 0.265050 0.217448
O O16 0.833405 0.000000 0.259804
O O17 0.935083 0.500000 0.429883
O O18 0.000000 0.715757 0.500000
O O19 0.750025 0.500000 0.154903
#
# Coordination Sequence:
#
# PCOD9151799 Si02
#       7
#     4   4   4   4   4   4   4
#     4   9  19  36  57  78  98 127 171 216 252 289
#     4   8  15  30  51  72  97 129 164 206 253 293
#     4   9  18  34  55  77  99 126 165 212 256 295
#     4   9  19  36  57  77  97 128 170 211 251 294
#     4   9  18  34  53  73 100 131 164 205 251 296
#     4  10  21  35  51  75 107 138 165 198 247 304
#     4  11  21  31  48  75 104 135 169 202 242 296
#
# _framework density 16.926141999999999
#
# number of rings (size 3 to 8) (size 9 to 14) (size 15 to 20)
#    0.000    2.714    0.000    3.429    0.000    8.000 
#    0.000    5.000    0.000    4.286    0.000    0.000 
#    0.000    0.000    0.000    0.000    0.000    0.000 
#
# Total GULP energy -156114.701473 kJ/mol
# GULP energy per Si atom -5575.525053 kJ/mol
# Density = 1.688762 g / cm^3
# Si number density = 16.926142 Si / 1000 Ang^3
#
#
#
# Elastic Constant Matrix: (Units=GPa)
#
#
# Indices 1 2 3 4 5 6 
#
# 1 68.9443 50.3639 97.5319 0.0000 2.6503 0.0000
# 2 50.3639 60.8992 78.3285 0.0000 -5.9404 0.0000
# 3 97.5319 78.3285 181.9159 0.0000 9.2930 0.0000
# 4 0.0000 0.0000 0.0000 -12.2904 0.0000 10.0480
# 5 2.6503 -5.9404 9.2930 0.0000 30.1840 0.0000
# 6 0.0000 0.0000 0.0000 10.0480 0.0000 8.1934
#
#
#
# Elastic Compliance Matrix: (Units=1/GPa)
#
#
# Indices 1 2 3 4 5 6 
#
# 1 0.071146 -0.022641 -0.028293 0.000000 -0.001992 0.000000
# 2 -0.022641 0.049141 -0.009769 0.000000 0.014667 0.000000
# 3 -0.028293 -0.009769 0.025241 0.000000 -0.007209 0.000000
# 4 0.000000 0.000000 0.000000 -0.040629 0.000000 0.049826
# 5 -0.001992 0.014667 -0.007209 0.000000 0.038411 0.000000
# 6 0.000000 0.000000 0.000000 0.049826 0.000000 0.060946
#
#
# Mechanical properties :
#
#
# Convention : Reuss Voigt Hill
#
# Bulk Modulus (GPa) = 41.45993 84.91200 63.18596
# Shear Modulus (GPa) = 14.98340 10.91973 12.95157
#
# Velocity S-wave (km/s) = 2.97850 2.54272 2.76919
# Velocity P-wave (km/s) = 6.03128 7.67435 6.90188
#
# Compressibility (1/GPa) = 0.02411967
#
# Stress axis : x y z
#
# Youngs Moduli (GPa) = 14.05566 20.34963 39.61837
#
# Poissons Ratio (x) = 0.46074 1.12093
# Poissons Ratio (y) = 0.31824 0.38704
# Poissons Ratio (z) = 0.39768 0.19880
#
# Static dielectric constant tensor:
#      x y z
#    x 1.546180 0.000000 0.013670 
#    y 0.000000 1.559830 0.000000 
#    z 0.013670 0.000000 1.582870 
# 
# From -- ./inp_files/94540.got.cif
#   From: 2010.05.17/outbox.cif.g08.bks.cpg/sg10_48_cif.got.tgz:94540.got - 2010.06.03 11:33:40.
