data_PCOD9151946
_publ_section_title
;
Structure prediction by ZEFSAII (Michael W. Deem and Ramdas Pophale) SiO2 
 PCOD9151946
Probable space group: P 2/M
;
_chemical_formula_sum "Si O2"
_cell_formula_units_Z 32
_cell_length_a 21.720048
_cell_length_b 7.411481
_cell_length_c 21.719772
_cell_angle_alpha 90.000000
_cell_angle_beta 26.165713
_cell_angle_gamma 90.000000
_cell_volume 1541.803190
_symmetry_space_group_name_H-M "P 2/M"
_symmetry_group_IT_number 10
_symmetry_cell_setting 'monoclinic'
loop_
_space_group_symop_operation_xyz
x,y,z
-x,y,-z
-x,-y,-z
x,-y,z
loop_
_atom_site_type_symbol
_atom_site_label
_atom_site_fract_x
_atom_site_fract_y
_atom_site_fract_z
Si Si1 0.307601 0.219948 0.622182
Si Si2 0.568404 0.286990 0.876301
Si Si3 0.318683 0.782664 0.008664
Si Si4 0.936257 0.219859 0.248414
Si Si5 0.622235 0.780051 0.307564
Si Si6 0.008610 0.782653 0.318756
Si Si7 0.123730 0.712987 0.431541
Si Si8 0.248345 0.219860 0.936312
O O1 0.188649 0.282993 0.682609
O O2 0.295609 0.275499 0.704381
O O3 0.461377 0.272934 0.461329
O O4 0.304346 0.000000 0.624854
O O5 0.587738 0.500000 0.869649
O O6 0.454616 0.269036 0.924615
O O7 0.721477 0.213386 0.721511
O O8 0.500000 0.210020 0.000000
O O9 0.318803 0.722596 0.937309
O O10 0.313734 0.000000 0.012642
O O11 0.171153 0.721306 0.171206
O O12 0.937267 0.277389 0.318863
O O13 0.931502 0.000000 0.253223
O O14 0.086315 0.271208 0.086382
O O15 0.682695 0.717008 0.188586
O O16 0.624907 0.000000 0.304310
O O17 0.924580 0.730854 0.454669
O O18 0.012544 0.000000 0.313877
O O19 0.130406 0.500000 0.412140
O O20 0.000000 0.789993 0.500000
O O21 0.253159 0.000000 0.931549
#
# Coordination Sequence:
#
# PCOD9151946 Si02
#       8
#     4   4   4   4   4   4   4   4
#     4   8  13  20  30  47  74 109 147 183 218 258
#     4  10  21  36  53  72  93 119 152 188 227 272
#     4   9  18  32  49  70  96 124 154 189 229 273
#     4   8  14  24  37  55  81 112 145 181 220 261
#     4   8  13  20  30  47  74 109 147 183 218 258
#     4   9  18  32  49  70  96 124 154 189 229 273
#     4  10  21  36  53  72  93 119 152 188 227 272
#     4   8  14  24  37  55  81 112 145 181 220 261
#
# _framework density 20.754919999999998
#
# number of rings (size 3 to 8) (size 9 to 14) (size 15 to 20)
#    0.000    3.250    0.000    3.000    0.000    4.000 
#    0.000    5.000    0.000    0.000    0.000    0.000 
#    0.000    1.000    0.000   11.000    0.000   18.000 
#
# Total GULP energy -178510.945527 kJ/mol
# GULP energy per Si atom -5578.467048 kJ/mol
# Density = 2.070768 g / cm^3
# Si number density = 20.754920 Si / 1000 Ang^3
#
#
#
# Elastic Constant Matrix: (Units=GPa)
#
#
# Indices 1 2 3 4 5 6 
#
# 1 200.0701 0.1131 147.3582 0.0000 -3.8421 0.0000
# 2 0.1131 66.9891 6.1927 0.0000 -1.1332 0.0000
# 3 147.3582 6.1927 171.1704 0.0000 8.9377 0.0000
# 4 0.0000 0.0000 0.0000 6.1224 0.0000 3.7890
# 5 -3.8421 -1.1332 8.9377 0.0000 34.3573 0.0000
# 6 0.0000 0.0000 0.0000 3.7890 0.0000 26.9750
#
#
#
# Elastic Compliance Matrix: (Units=1/GPa)
#
#
# Indices 1 2 3 4 5 6 
#
# 1 0.014536 0.001245 -0.012820 0.000000 0.005002 0.000000
# 2 0.001245 0.015099 -0.001674 0.000000 0.001073 0.000000
# 3 -0.012820 -0.001674 0.017251 0.000000 -0.005977 0.000000
# 4 0.000000 0.000000 0.000000 0.178884 0.000000 -0.025127
# 5 0.005002 0.001073 -0.005977 0.000000 0.031255 0.000000
# 6 0.000000 0.000000 0.000000 -0.025127 0.000000 0.040601
#
#
# Mechanical properties :
#
#
# Convention : Reuss Voigt Hill
#
# Bulk Modulus (GPa) = 49.04891 82.83973 65.94432
# Shear Modulus (GPa) = 15.10937 32.46199 23.78568
#
# Velocity S-wave (km/s) = 2.70106 3.95911 3.38897
# Velocity P-wave (km/s) = 5.78025 7.80381 6.86698
#
# Compressibility (1/GPa) = 0.02038781
#
# Stress axis : x y z
#
# Youngs Moduli (GPa) = 68.79493 66.23125 57.96649
#
# Poissons Ratio (x) = -0.08247 0.74313
# Poissons Ratio (y) = -0.08566 0.09705
# Poissons Ratio (z) = 0.88195 0.11089
#
# Static dielectric constant tensor:
#      x y z
#    x 1.722670 0.000000 0.002160 
#    y 0.000000 1.811100 0.000000 
#    z 0.002160 0.000000 1.710620 
# 
# From -- ./inp_files/34426.got.cif
#   From: 2010.05.17/outbox.cif.g08.bks.cpg/sg10_18_cif.got.tgz:34426.got - 2010.06.03 11:33:40.
