data_PCOD9151005
_publ_section_title
;
Structure prediction by ZEFSAII (Michael W. Deem and Ramdas Pophale) SiO2 
 PCOD9151005
Probable space group: P 2/M
;
_chemical_formula_sum "Si O2"
_cell_formula_units_Z 28
_cell_length_a 9.862650
_cell_length_b 12.203973
_cell_length_c 18.546010
_cell_angle_alpha 90.000000
_cell_angle_beta 144.336463
_cell_angle_gamma 90.000000
_cell_volume 1301.463502
_symmetry_space_group_name_H-M "P 2/M"
_symmetry_group_IT_number 10
_symmetry_cell_setting 'monoclinic'
loop_
_space_group_symop_operation_xyz
x,y,z
-x,y,-z
-x,-y,-z
x,-y,z
loop_
_atom_site_type_symbol
_atom_site_label
_atom_site_fract_x
_atom_site_fract_y
_atom_site_fract_z
Si Si1 0.749549 0.878564 0.822399
Si Si2 0.849797 0.500000 0.207821
Si Si3 0.254463 0.628245 0.637854
Si Si4 0.692971 0.500000 0.981073
Si Si5 0.104251 0.724226 0.323613
Si Si6 0.607061 0.269576 0.889789
Si Si7 0.471613 0.259691 0.602215
Si Si8 0.190002 0.872388 0.906127
O O1 0.733693 0.795913 0.881263
O O2 0.544132 0.847160 0.678645
O O3 0.979888 0.872623 0.873817
O O4 0.725041 0.000000 0.841647
O O5 0.580552 0.500000 0.114751
O O6 0.983093 0.609038 0.288259
O O7 0.842082 0.500000 0.117718
O O8 0.253245 0.500000 0.657190
O O9 0.356802 0.700417 0.747160
O O10 0.417299 0.648987 0.638718
O O11 0.000000 0.659536 0.500000
O O12 0.729081 0.386392 0.955843
O O13 0.306648 0.708357 0.350603
O O14 0.250263 0.761279 0.456146
O O15 0.918690 0.808600 0.209200
O O16 0.616416 0.199653 0.967829
O O17 0.248529 0.000000 0.917617
#
# Coordination Sequence:
#
# PCOD9151005 Si02
#       8
#     4   2   4   2   4   4   4   4
#     4   9  19  37  60  87 119 155 193 239 297 353
#     4  11  24  39  60  82 121 161 192 242 298 358
#     4  10  22  36  55  83 117 158 192 230 289 363
#     4  11  24  40  56  88 116 157 199 233 295 366
#     4  10  21  37  58  90 117 155 197 251 294 339
#     4  11  20  37  57  87 113 148 194 239 287 350
#     4   9  21  35  56  89 120 152 197 243 294 343
#     4  10  20  37  61  88 117 151 197 245 297 349
#
# _framework density 21.514241999999999
#
# number of rings (size 3 to 8) (size 9 to 14) (size 15 to 20)
#    0.000    2.000    2.143    0.857    4.000    2.286 
#    0.000    4.286    0.000   13.286    0.000    0.000 
#    0.000    0.000    0.000    0.000    0.000    0.000 
#
# Total GULP energy -156447.019387 kJ/mol
# GULP energy per Si atom -5587.393550 kJ/mol
# Density = 2.146527 g / cm^3
# Si number density = 21.514242 Si / 1000 Ang^3
#
#
#
# Elastic Constant Matrix: (Units=GPa)
#
#
# Indices 1 2 3 4 5 6 
#
# 1 58.7048 33.6333 26.6234 0.0000 -5.5635 0.0000
# 2 33.6333 142.5556 60.6921 0.0000 -5.6714 0.0000
# 3 26.6234 60.6921 178.9855 0.0000 -15.6839 0.0000
# 4 0.0000 0.0000 0.0000 20.8021 0.0000 2.4104
# 5 -5.5635 -5.6714 -15.6839 0.0000 28.0296 0.0000
# 6 0.0000 0.0000 0.0000 2.4104 0.0000 -37.4566
#
#
#
# Elastic Compliance Matrix: (Units=1/GPa)
#
#
# Indices 1 2 3 4 5 6 
#
# 1 0.020240 -0.004076 -0.001418 0.000000 0.002399 0.000000
# 2 -0.004076 0.009020 -0.002485 0.000000 -0.000375 0.000000
# 3 -0.001418 -0.002485 0.006911 0.000000 0.003083 0.000000
# 4 0.000000 0.000000 0.000000 0.047716 0.000000 0.003071
# 5 0.002399 -0.000375 0.003083 0.000000 0.037802 0.000000
# 6 0.000000 0.000000 0.000000 0.003071 0.000000 -0.026500
#
#
# Mechanical properties :
#
#
# Convention : Reuss Voigt Hill
#
# Bulk Modulus (GPa) = 49.47567 69.12704 59.30136
# Shear Modulus (GPa) = 42.41444 19.56150 30.98797
#
# Velocity S-wave (km/s) = 4.44493 3.01862 3.79931
# Velocity P-wave (km/s) = 7.02779 6.65958 6.84616
#
# Compressibility (1/GPa) = 0.02021195
#
# Stress axis : x y z
#
# Youngs Moduli (GPa) = 49.40663 110.87067 144.70215
#
# Poissons Ratio (x) = 0.45191 0.20523
# Poissons Ratio (y) = 0.20138 0.35958
# Poissons Ratio (z) = 0.07007 0.27551
#
# Static dielectric constant tensor:
#      x y z
#    x 1.800830 0.000000 0.003550 
#    y 0.000000 1.754760 0.000000 
#    z 0.003550 0.000000 1.803720 
# 
# From -- ./inp_files/84003.got.cif
#   From: 2010.05.17/outbox.cif.g08.bks.cpg/sg10_43_cif.got.tgz:84003.got - 2010.06.03 11:33:40.
