data_PCOD9151426
_publ_section_title
;
Structure prediction by ZEFSAII (Michael W. Deem and Ramdas Pophale) SiO2 
 PCOD9151426
Probable space group: P 2/M
;
_chemical_formula_sum "Si O2"
_cell_formula_units_Z 32
_cell_length_a 11.980770
_cell_length_b 12.782687
_cell_length_c 10.324934
_cell_angle_alpha 90.000000
_cell_angle_beta 117.820525
_cell_angle_gamma 90.000000
_cell_volume 1398.458885
_symmetry_space_group_name_H-M "P 2/M"
_symmetry_group_IT_number 10
_symmetry_cell_setting 'monoclinic'
loop_
_space_group_symop_operation_xyz
x,y,z
-x,y,-z
-x,-y,-z
x,-y,z
loop_
_atom_site_type_symbol
_atom_site_label
_atom_site_fract_x
_atom_site_fract_y
_atom_site_fract_z
Si Si1 0.219413 0.881551 0.711048
Si Si2 0.581354 0.621535 0.672287
Si Si3 0.513463 0.236088 0.145340
Si Si4 0.846088 0.669209 0.689203
Si Si5 0.894492 0.884536 0.832323
Si Si6 0.749084 0.164621 0.988622
Si Si7 0.140478 0.614651 0.876960
Si Si8 0.859514 0.666890 0.411303
O O1 0.356173 0.825208 0.768486
O O2 0.188977 0.882779 0.848754
O O3 0.134770 0.792359 0.601399
O O4 0.214761 0.000000 0.659441
O O5 0.500000 0.645688 0.500000
O O6 0.565079 0.500000 0.694788
O O7 0.524827 0.691215 0.756552
O O8 0.729223 0.640614 0.717681
O O9 0.500000 0.295217 0.000000
O O10 0.399157 0.154902 0.071169
O O11 0.875218 0.792810 0.720718
O O12 0.801310 0.642083 0.519004
O O13 0.986281 0.622748 0.794252
O O14 0.916673 0.000000 0.791138
O O15 0.776232 0.883262 0.864825
O O16 0.000000 0.860140 0.000000
O O17 0.798422 0.285306 0.019958
O O18 0.175348 0.500000 0.946440
O O19 0.187494 0.625319 0.752409
O O20 0.000000 0.624446 0.500000
#
# Coordination Sequence:
#
# PCOD9151426 Si02
#       8
#     4   4   4   4   4   4   4   4
#     4  10  21  38  62  87 116 155 201 248 297 352
#     4  11  24  41  62  87 119 163 205 248 305 359
#     4  10  22  40  61  86 119 154 200 253 299 357
#     4  11  21  40  61  87 121 157 201 249 288 360
#     4  11  22  37  59  86 121 158 194 241 301 355
#     4  10  20  39  58  89 120 150 194 249 293 352
#     4  10  21  38  63  92 121 156 195 243 301 358
#     4   9  21  38  60  89 125 154 192 247 299 355
#
# _framework density 22.882332000000002
#
# number of rings (size 3 to 8) (size 9 to 14) (size 15 to 20)
#    0.000    1.750    2.500    1.500    0.000    7.000 
#    0.000    8.125    0.000    1.500    0.000    0.000 
#    0.000    0.000    0.000    0.000    0.000    0.000 
#
# Total GULP energy -178572.211874 kJ/mol
# GULP energy per Si atom -5580.381621 kJ/mol
# Density = 2.283025 g / cm^3
# Si number density = 22.882332 Si / 1000 Ang^3
#
#
#
# Elastic Constant Matrix: (Units=GPa)
#
#
# Indices 1 2 3 4 5 6 
#
# 1 80.1891 17.7936 14.9190 0.0000 -2.5175 0.0000
# 2 17.7936 128.1393 11.3219 0.0000 -9.0342 0.0000
# 3 14.9190 11.3219 49.8189 0.0000 -8.3661 0.0000
# 4 0.0000 0.0000 0.0000 -13.2427 0.0000 -0.3354
# 5 -2.5175 -9.0342 -8.3661 0.0000 38.4913 0.0000
# 6 0.0000 0.0000 0.0000 -0.3354 0.0000 8.2179
#
#
#
# Elastic Compliance Matrix: (Units=1/GPa)
#
#
# Indices 1 2 3 4 5 6 
#
# 1 0.013504 -0.001566 -0.003738 0.000000 -0.000297 0.000000
# 2 -0.001566 0.008233 -0.001136 0.000000 0.001583 0.000000
# 3 -0.003738 -0.001136 0.022174 0.000000 0.004308 0.000000
# 4 0.000000 0.000000 0.000000 -0.075435 0.000000 -0.003078
# 5 -0.000297 0.001583 0.004308 0.000000 0.027268 0.000000
# 6 0.000000 0.000000 0.000000 -0.003078 0.000000 0.121561
#
#
# Mechanical properties :
#
#
# Convention : Reuss Voigt Hill
#
# Bulk Modulus (GPa) = 32.22584 38.46848 35.34716
# Shear Modulus (GPa) = 35.57972 20.96746 28.27359
#
# Velocity S-wave (km/s) = 3.94750 3.03036 3.51894
# Velocity P-wave (km/s) = 5.90685 5.39370 5.65610
#
# Compressibility (1/GPa) = 0.03103100
#
# Stress axis : x y z
#
# Youngs Moduli (GPa) = 74.05158 121.45559 45.09814
#
# Poissons Ratio (x) = 0.19018 0.16858
# Poissons Ratio (y) = 0.11595 0.05125
# Poissons Ratio (z) = 0.27680 0.13802
#
# Static dielectric constant tensor:
#      x y z
#    x 1.983440 0.000000 -0.026310 
#    y 0.000000 1.862120 0.000000 
#    z -0.026310 0.000000 1.866740 
# 
# From -- ./inp_files/47023.got.cif
#   From: 2010.05.17/outbox.cif.g08.bks.cpg/sg10_24_cif.got.tgz:47023.got - 2010.06.03 11:33:40.
