data_PCOD9151922
_publ_section_title
;
Structure prediction by ZEFSAII (Michael W. Deem and Ramdas Pophale) SiO2 
 PCOD9151922
Probable space group: P 2/M
;
_chemical_formula_sum "Si O2"
_cell_formula_units_Z 24
_cell_length_a 16.537481
_cell_length_b 13.787385
_cell_length_c 5.828300
_cell_angle_alpha 90.000000
_cell_angle_beta 74.680375
_cell_angle_gamma 90.000000
_cell_volume 1281.682701
_symmetry_space_group_name_H-M "P 2/M"
_symmetry_group_IT_number 10
_symmetry_cell_setting 'monoclinic'
loop_
_space_group_symop_operation_xyz
x,y,z
-x,y,-z
-x,-y,-z
x,-y,z
loop_
_atom_site_type_symbol
_atom_site_label
_atom_site_fract_x
_atom_site_fract_y
_atom_site_fract_z
Si Si1 0.654930 0.766567 0.620462
Si Si2 0.705880 0.105723 0.207092
Si Si3 0.620693 0.390929 0.263192
Si Si4 0.043529 0.616825 0.217354
Si Si5 0.228204 0.702421 0.084837
Si Si6 0.500000 0.290285 0.000000
Si Si7 0.546634 0.000000 0.211306
O O1 0.686031 0.864896 0.482622
O O2 0.625400 0.689831 0.453479
O O3 0.733068 0.720788 0.694574
O O4 0.572509 0.773995 0.834390
O O5 0.747315 0.000000 0.155450
O O6 0.612953 0.089603 0.172338
O O7 0.754165 0.195449 0.058944
O O8 0.609035 0.500000 0.355080
O O9 0.710248 0.377871 0.070744
O O10 0.547974 0.358946 0.144190
O O11 0.053387 0.500000 0.210306
O O12 0.133492 0.668799 0.150429
O O13 0.000000 0.640511 0.500000
O O14 0.000000 0.640427 0.000000
O O15 0.500000 0.000000 0.500000
O O16 0.500000 0.000000 0.000000
#
# Coordination Sequence:
#
# PCOD9151922 Si02
#       7
#     4   4   4   4   4   2   2
#     4  10  22  37  56  83 115 160 209 264 312 380
#     4   9  23  41  58  86 116 165 209 264 323 374
#     4  10  21  36  54  77 113 158 206 254 306 371
#     4  10  23  42  69 105 137 166 204 256 322 397
#     4  10  22  40  63  87 122 161 206 256 321 384
#     4  10  21  36  49  76 116 158 209 256 311 360
#     4  10  24  40  60  90 122 165 220 279 330 374
#
# _framework density 18.725383000000001
#
# number of rings (size 3 to 8) (size 9 to 14) (size 15 to 20)
#    0.500    1.667    0.000    1.250    7.000    9.333 
#    6.000    0.417    0.000    1.000    0.000    0.000 
#    0.000    0.000    0.000    0.000    0.000    0.000 
#
# Total GULP energy -133713.716338 kJ/mol
# GULP energy per Si atom -5571.404847 kJ/mol
# Density = 1.868276 g / cm^3
# Si number density = 18.725383 Si / 1000 Ang^3
#
#
#
# Elastic Constant Matrix: (Units=GPa)
#
#
# Indices 1 2 3 4 5 6 
#
# 1 149.3315 28.9980 61.2984 0.0000 -0.5126 0.0000
# 2 28.9980 70.6240 29.6210 0.0000 -5.4103 0.0000
# 3 61.2984 29.6210 66.3228 0.0000 17.3820 0.0000
# 4 0.0000 0.0000 0.0000 16.1468 0.0000 -4.1638
# 5 -0.5126 -5.4103 17.3820 0.0000 18.8208 0.0000
# 6 0.0000 0.0000 0.0000 -4.1638 0.0000 -16.1640
#
#
#
# Elastic Compliance Matrix: (Units=1/GPa)
#
#
# Indices 1 2 3 4 5 6 
#
# 1 0.014436 0.004369 -0.020748 0.000000 0.020811 0.000000
# 2 0.004369 0.023432 -0.021505 0.000000 0.026715 0.000000
# 3 -0.020748 -0.021505 0.060197 0.000000 -0.062343 0.000000
# 4 0.000000 0.000000 0.000000 0.058074 0.000000 -0.014960
# 5 0.020811 0.026715 -0.062343 0.000000 0.118956 0.000000
# 6 0.000000 0.000000 0.000000 -0.014960 0.000000 -0.058012
#
#
# Mechanical properties :
#
#
# Convention : Reuss Voigt Hill
#
# Bulk Modulus (GPa) = 44.84788 58.45701 51.65244
# Shear Modulus (GPa) = 16.65091 14.85145 15.75118
#
# Velocity S-wave (km/s) = 2.98521 2.81929 2.90343
# Velocity P-wave (km/s) = 5.99035 6.47176 6.23570
#
# Compressibility (1/GPa) = 0.02229760
#
# Stress axis : x y z
#
# Youngs Moduli (GPa) = 69.26914 42.67729 16.61199
#
# Poissons Ratio (x) = -0.18646 0.34467
# Poissons Ratio (y) = -0.30263 0.35724
# Poissons Ratio (z) = 1.43722 0.91776
#
# Static dielectric constant tensor:
#      x y z
#    x 1.605390 0.000000 -0.000810 
#    y 0.000000 1.652410 0.000000 
#    z -0.000810 0.000000 1.748380 
# 
# From -- ./inp_files/9232.got.cif
#   From: 2010.05.17/outbox.cif.g08.bks.cpg/sg10_5_cif.got.tgz:9232.got - 2010.06.03 11:33:40.
