data_PCOD9151779
_publ_section_title
;
Structure prediction by ZEFSAII (Michael W. Deem and Ramdas Pophale) SiO2 
 PCOD9151779
Probable space group: P 2/M
;
_chemical_formula_sum "Si O2"
_cell_formula_units_Z 28
_cell_length_a 10.018385
_cell_length_b 8.729205
_cell_length_c 31.247851
_cell_angle_alpha 90.000000
_cell_angle_beta 143.410300
_cell_angle_gamma 90.000000
_cell_volume 1628.911584
_symmetry_space_group_name_H-M "P 2/M"
_symmetry_group_IT_number 10
_symmetry_cell_setting 'monoclinic'
loop_
_space_group_symop_operation_xyz
x,y,z
-x,y,-z
-x,-y,-z
x,-y,z
loop_
_atom_site_type_symbol
_atom_site_label
_atom_site_fract_x
_atom_site_fract_y
_atom_site_fract_z
Si Si1 0.556450 0.316333 0.562907
Si Si2 0.836024 0.322684 0.999200
Si Si3 0.781671 0.184963 0.849592
Si Si4 0.531523 0.184674 0.151875
Si Si5 0.743654 0.814541 0.439226
Si Si6 0.657434 0.814070 0.722990
Si Si7 0.046675 0.814618 0.281806
O O1 0.500000 0.269745 0.500000
O O2 0.558444 0.500000 0.565744
O O3 0.372212 0.251530 0.548307
O O4 0.794109 0.252696 0.640553
O O5 0.799853 0.500000 0.999832
O O6 0.607720 0.245724 0.924484
O O7 0.000000 0.312156 0.000000
O O8 0.975791 0.242593 0.072678
O O9 0.600635 0.233044 0.839053
O O10 0.713217 0.240585 0.784889
O O11 0.785087 0.000000 0.850352
O O12 0.789229 0.234216 0.218570
O O13 0.526754 0.000000 0.149319
O O14 0.583508 0.768590 0.358339
O O15 0.000000 0.766114 0.500000
O O16 0.737996 0.000000 0.440441
O O17 0.840815 0.769655 0.734550
O O18 0.658134 0.000000 0.724864
O O19 0.055206 0.000000 0.286682
#
# Coordination Sequence:
#
# PCOD9151779 Si02
#       7
#     4   4   4   4   4   4   4
#     4  10  21  35  50  71 101 135 167 199 240 291
#     4   9  17  29  45  66  93 122 152 189 232 276
#     4   9  16  28  47  68  91 119 153 193 233 278
#     4   9  17  29  48  72  92 116 154 195 234 277
#     4   9  18  33  54  77  99 126 163 206 249 292
#     4   8  15  29  47  68  94 121 149 187 237 285
#     4   9  18  33  51  70  94 124 158 196 239 286
#
# _framework density 17.189392000000002
#
# number of rings (size 3 to 8) (size 9 to 14) (size 15 to 20)
#    0.000    3.000    0.000    1.714    0.000    4.857 
#    0.000    6.429    0.000    4.286    0.000    0.000 
#    0.000    0.000    0.000    0.000    0.000    0.000 
#
# Total GULP energy -156004.335798 kJ/mol
# GULP energy per Si atom -5571.583421 kJ/mol
# Density = 1.715027 g / cm^3
# Si number density = 17.189392 Si / 1000 Ang^3
#
#
#
# Elastic Constant Matrix: (Units=GPa)
#
#
# Indices 1 2 3 4 5 6 
#
# 1 77.0513 20.9730 109.5324 0.0000 -2.2350 0.0000
# 2 20.9730 11.6058 34.8196 0.0000 0.7155 0.0000
# 3 109.5324 34.8196 204.9622 0.0000 -0.8554 0.0000
# 4 0.0000 0.0000 0.0000 8.6117 0.0000 -3.0782
# 5 -2.2350 0.7155 -0.8554 0.0000 36.2260 0.0000
# 6 0.0000 0.0000 0.0000 -3.0782 0.0000 12.9892
#
#
#
# Elastic Compliance Matrix: (Units=1/GPa)
#
#
# Indices 1 2 3 4 5 6 
#
# 1 0.057447 -0.024392 -0.026542 0.000000 0.003399 0.000000
# 2 -0.024392 0.186723 -0.018709 0.000000 -0.005634 0.000000
# 3 -0.026542 -0.018709 0.022238 0.000000 -0.000743 0.000000
# 4 0.000000 0.000000 0.000000 0.126868 0.000000 0.030065
# 5 0.003399 -0.005634 -0.000743 0.000000 0.027908 0.000000
# 6 0.000000 0.000000 0.000000 0.030065 0.000000 0.084112
#
#
# Mechanical properties :
#
#
# Convention : Reuss Voigt Hill
#
# Bulk Modulus (GPa) = 7.86650 69.36325 38.61487
# Shear Modulus (GPa) = 7.27848 20.11831 13.69840
#
# Velocity S-wave (km/s) = 2.05997 3.42481 2.82602
# Velocity P-wave (km/s) = 3.20067 7.48859 5.75862
#
# Compressibility (1/GPa) = 0.12712132
#
# Stress axis : x y z
#
# Youngs Moduli (GPa) = 17.40729 5.35554 44.96740
#
# Poissons Ratio (x) = 0.13063 1.19352
# Poissons Ratio (y) = 0.42460 0.84130
# Poissons Ratio (z) = 0.46202 0.10020
#
# Static dielectric constant tensor:
#      x y z
#    x 1.571190 0.000000 -0.000830 
#    y 0.000000 1.575090 0.000000 
#    z -0.000830 0.000000 1.577800 
# 
# From -- ./inp_files/38055.got.cif
#   From: 2010.05.17/outbox.cif.g08.bks.cpg/sg10_20_cif.got.tgz:38055.got - 2010.06.03 11:33:40.
