data_PCOD9151201
_publ_section_title
;
Structure prediction by ZEFSAII (Michael W. Deem and Ramdas Pophale) SiO2 
 PCOD9151201
Probable space group: P 2/M
;
_chemical_formula_sum "Si O2"
_cell_formula_units_Z 32
_cell_length_a 14.769879
_cell_length_b 7.767595
_cell_length_c 24.682100
_cell_angle_alpha 90.000000
_cell_angle_beta 147.045436
_cell_angle_gamma 90.000000
_cell_volume 1540.364831
_symmetry_space_group_name_H-M "P 2/M"
_symmetry_group_IT_number 10
_symmetry_cell_setting 'monoclinic'
loop_
_space_group_symop_operation_xyz
x,y,z
-x,y,-z
-x,-y,-z
x,-y,z
loop_
_atom_site_type_symbol
_atom_site_label
_atom_site_fract_x
_atom_site_fract_y
_atom_site_fract_z
Si Si1 0.483752 0.798211 0.277576
Si Si2 0.146559 0.205603 0.820034
Si Si3 0.178731 0.789516 0.611130
Si Si4 0.684880 0.788974 0.205683
Si Si5 0.840338 0.699861 0.950846
Si Si6 0.238607 0.292588 0.373269
Si Si7 0.307716 0.796416 0.011111
Si Si8 0.514010 0.291272 0.596131
O O1 0.661113 0.733982 0.343690
O O2 0.324759 0.715324 0.168709
O O3 0.477219 0.775896 0.338770
O O4 0.473681 0.000000 0.258485
O O5 0.235577 0.271496 0.810569
O O6 0.950357 0.236255 0.719465
O O7 0.172621 0.000000 0.833033
O O8 0.224294 0.275752 0.914815
O O9 0.212807 0.736482 0.690005
O O10 0.000000 0.729806 0.500000
O O11 0.176250 0.000000 0.608025
O O12 0.494096 0.729181 0.114438
O O13 0.685764 0.000000 0.206333
O O14 0.876789 0.500000 0.978829
O O15 0.801322 0.775061 0.990049
O O16 0.000000 0.776319 0.000000
O O17 0.243635 0.500000 0.375753
O O18 0.348643 0.236492 0.480158
O O19 0.333252 0.236677 0.365947
O O20 0.327441 0.000000 0.012317
O O21 0.514946 0.500000 0.599278
#
# Coordination Sequence:
#
# PCOD9151201 Si02
#       8
#     4   4   4   4   4   4   4   4
#     4  11  22  37  62  92 117 148 189 243 293 336
#     4  10  21  33  57  89 113 142 188 242 289 336
#     4   9  18  32  54  85 117 150 186 228 287 350
#     4   9  17  34  56  79 114 152 184 228 289 348
#     4  11  25  42  60  83 114 157 198 234 285 351
#     4   9  20  39  58  78 112 156 194 229 278 340
#     4  10  20  38  59  84 114 146 189 240 290 338
#     4   9  20  39  59  78 111 158 194 226 278 343
#
# _framework density 20.774301999999999
#
# number of rings (size 3 to 8) (size 9 to 14) (size 15 to 20)
#    0.000    2.250    1.250    1.875    3.500    4.000 
#    0.000    1.875    0.000    3.000    0.000    0.000 
#    0.000    0.000    0.000    0.000    0.000    0.000 
#
# Total GULP energy -178716.422252 kJ/mol
# GULP energy per Si atom -5584.888195 kJ/mol
# Density = 2.072702 g / cm^3
# Si number density = 20.774302 Si / 1000 Ang^3
#
#
#
# Elastic Constant Matrix: (Units=GPa)
#
#
# Indices 1 2 3 4 5 6 
#
# 1 163.8422 -5.8227 92.7429 0.0000 -3.8360 0.0000
# 2 -5.8227 23.6241 -1.2592 0.0000 1.3634 0.0000
# 3 92.7429 -1.2592 85.7508 0.0000 11.8585 0.0000
# 4 0.0000 0.0000 0.0000 15.6502 0.0000 5.5665
# 5 -3.8360 1.3634 11.8585 0.0000 37.5521 0.0000
# 6 0.0000 0.0000 0.0000 5.5665 0.0000 35.8118
#
#
#
# Elastic Compliance Matrix: (Units=1/GPa)
#
#
# Indices 1 2 3 4 5 6 
#
# 1 0.018113 0.002884 -0.020692 0.000000 0.008280 0.000000
# 2 0.002884 0.042940 -0.002419 0.000000 -0.000501 0.000000
# 3 -0.020692 -0.002419 0.035851 0.000000 -0.013347 0.000000
# 4 0.000000 0.000000 0.000000 0.067637 0.000000 -0.010513
# 5 0.008280 -0.000501 -0.013347 0.000000 0.031709 0.000000
# 6 0.000000 0.000000 0.000000 -0.010513 0.000000 0.029558
#
#
# Mechanical properties :
#
#
# Convention : Reuss Voigt Hill
#
# Bulk Modulus (GPa) = 17.71504 49.39323 33.55413
# Shear Modulus (GPa) = 17.53903 30.30655 23.92279
#
# Velocity S-wave (km/s) = 2.90878 3.82363 3.39714
# Velocity P-wave (km/s) = 4.45278 6.58189 5.61910
#
# Compressibility (1/GPa) = 0.05644920
#
# Stress axis : x y z
#
# Youngs Moduli (GPa) = 55.21036 23.28818 27.89294
#
# Poissons Ratio (x) = -0.06715 0.57716
# Poissons Ratio (y) = -0.15920 0.06747
# Poissons Ratio (z) = 1.14242 0.05633
#
# Static dielectric constant tensor:
#      x y z
#    x 1.722280 0.000000 0.006380 
#    y 0.000000 1.775240 0.000000 
#    z 0.006380 0.000000 1.713620 
# 
# From -- ./inp_files/71647.got.cif
#   From: 2010.05.17/outbox.cif.g08.bks.cpg/sg10_36_cif.got.tgz:71647.got - 2010.06.03 11:33:40.
