data_PCOD9151956
_publ_section_title
;
Structure prediction by ZEFSAII (Michael W. Deem and Ramdas Pophale) SiO2 
 PCOD9151956
Probable space group: P 2/M
;
_chemical_formula_sum "Si O2"
_cell_formula_units_Z 32
_cell_length_a 20.409926
_cell_length_b 7.556799
_cell_length_c 23.751773
_cell_angle_alpha 90.000000
_cell_angle_beta 160.460752
_cell_angle_gamma 90.000000
_cell_volume 1225.207868
_symmetry_space_group_name_H-M "P 2/M"
_symmetry_group_IT_number 10
_symmetry_cell_setting 'monoclinic'
loop_
_space_group_symop_operation_xyz
x,y,z
-x,y,-z
-x,-y,-z
x,-y,z
loop_
_atom_site_type_symbol
_atom_site_label
_atom_site_fract_x
_atom_site_fract_y
_atom_site_fract_z
Si Si1 0.194395 0.203648 0.980386
Si Si2 0.229839 0.212542 0.189450
Si Si3 0.203020 0.286254 0.866574
Si Si4 0.812429 0.792347 0.724118
Si Si5 0.387198 0.297154 0.552576
Si Si6 0.360181 0.707220 0.653484
Si Si7 0.601159 0.293107 0.144370
Si Si8 0.007289 0.286125 0.587776
O O1 0.408331 0.285775 0.150111
O O2 0.224763 0.000000 0.021081
O O3 0.113094 0.213571 0.850787
O O4 0.027622 0.283608 0.884943
O O5 0.283794 0.274819 0.296539
O O6 0.377298 0.291371 0.263452
O O7 0.251851 0.000000 0.201166
O O8 0.000000 0.253688 0.000000
O O9 0.208344 0.500000 0.875219
O O10 0.089533 0.247933 0.717210
O O11 0.426294 0.217287 0.040241
O O12 0.691483 0.782931 0.568879
O O13 0.843542 0.000000 0.761029
O O14 0.320168 0.500000 0.497917
O O15 0.328662 0.216372 0.565198
O O16 0.308498 0.500000 0.607817
O O17 0.217120 0.775802 0.586990
O O18 0.621807 0.500000 0.177843
O O19 0.820688 0.219206 0.314430
O O20 0.500000 0.293298 0.000000
O O21 0.010422 0.500000 0.581272
#
# Coordination Sequence:
#
# PCOD9151956 Si02
#       8
#     4   4   4   4   4   4   4   4
#     4  11  23  37  53  75 104 139 179 219 259 309
#     4  10  21  39  61  82 109 147 184 214 249 301
#     4   9  16  30  54  80 105 133 168 216 269 314
#     4  10  22  39  58  79 104 140 183 219 253 303
#     4  11  23  37  57  86 113 136 169 219 272 314
#     4  10  21  36  53  75 105 139 173 213 264 316
#     4   7  11  22  46  78 103 127 167 215 257 303
#     4   8  14  28  52  79 103 131 173 218 257 307
#
# _framework density 26.118015
#
# number of rings (size 3 to 8) (size 9 to 14) (size 15 to 20)
#    0.000    2.500    0.000    4.125    0.000    6.250 
#    0.000    1.250    0.000    7.875    0.000    0.000 
#    0.000    0.000    0.000    0.000    0.000    0.000 
#
# Total GULP energy -178822.002323 kJ/mol
# GULP energy per Si atom -5588.187573 kJ/mol
# Density = 2.605857 g / cm^3
# Si number density = 26.118015 Si / 1000 Ang^3
#
#
#
# Elastic Constant Matrix: (Units=GPa)
#
#
# Indices 1 2 3 4 5 6 
#
# 1 125.4346 -3.0468 19.0614 0.0000 23.4928 0.0000
# 2 -3.0468 58.9184 -7.1471 0.0000 5.0945 0.0000
# 3 19.0614 -7.1471 116.6969 0.0000 21.4095 0.0000
# 4 0.0000 0.0000 0.0000 16.4294 0.0000 3.1308
# 5 23.4928 5.0945 21.4095 0.0000 53.7957 0.0000
# 6 0.0000 0.0000 0.0000 3.1308 0.0000 17.1184
#
#
#
# Elastic Compliance Matrix: (Units=1/GPa)
#
#
# Indices 1 2 3 4 5 6 
#
# 1 0.008775 0.000677 -0.000730 0.000000 -0.003605 0.000000
# 2 0.000677 0.017396 0.001415 0.000000 -0.002506 0.000000
# 3 -0.000730 0.001415 0.009430 0.000000 -0.003568 0.000000
# 4 0.000000 0.000000 0.000000 0.063064 0.000000 -0.011534
# 5 -0.003605 -0.002506 -0.003568 0.000000 0.021821 0.000000
# 6 0.000000 0.000000 0.000000 -0.011534 0.000000 0.060526
#
#
# Mechanical properties :
#
#
# Convention : Reuss Voigt Hill
#
# Bulk Modulus (GPa) = 26.09407 35.42057 30.75732
# Shear Modulus (GPa) = 26.16931 36.94754 31.55842
#
# Velocity S-wave (km/s) = 3.16882 3.76525 3.47983
# Velocity P-wave (km/s) = 4.83746 5.70035 5.28654
#
# Compressibility (1/GPa) = 0.03832288
#
# Stress axis : x y z
#
# Youngs Moduli (GPa) = 113.96023 57.48476 106.04783
#
# Poissons Ratio (x) = -0.03891 0.07746
# Poissons Ratio (y) = -0.07714 -0.15002
# Poissons Ratio (z) = 0.08324 -0.08132
#
# Static dielectric constant tensor:
#      x y z
#    x 2.060970 0.000000 -0.030370 
#    y 0.000000 1.993420 0.000000 
#    z -0.030370 0.000000 2.126730 
# 
# From -- ./inp_files/93696.got.cif
#   From: 2010.05.17/outbox.cif.g08.bks.cpg/sg10_47_cif.got.tgz:93696.got - 2010.06.03 11:33:40.
