data_PCOD9151498
_publ_section_title
;
Structure prediction by ZEFSAII (Michael W. Deem and Ramdas Pophale) SiO2 
 PCOD9151498
Probable space group: P 2/M
;
_chemical_formula_sum "Si O2"
_cell_formula_units_Z 20
_cell_length_a 11.803146
_cell_length_b 9.662963
_cell_length_c 13.575086
_cell_angle_alpha 90.000000
_cell_angle_beta 147.622484
_cell_angle_gamma 90.000000
_cell_volume 829.099109
_symmetry_space_group_name_H-M "P 2/M"
_symmetry_group_IT_number 10
_symmetry_cell_setting 'monoclinic'
loop_
_space_group_symop_operation_xyz
x,y,z
-x,y,-z
-x,-y,-z
x,-y,z
loop_
_atom_site_type_symbol
_atom_site_label
_atom_site_fract_x
_atom_site_fract_y
_atom_site_fract_z
Si Si1 0.857531 0.844634 0.796997
Si Si2 0.725933 0.214944 0.192049
Si Si3 0.525651 0.341077 0.662059
Si Si4 0.212980 0.157725 0.543074
Si Si5 0.829521 0.350459 0.075231
O O1 0.675098 0.737890 0.694270
O O2 0.016886 0.775265 0.837479
O O3 0.786928 0.000000 0.717051
O O4 0.000000 0.857431 0.000000
O O5 0.729952 0.235298 0.312390
O O6 0.736236 0.333927 0.116261
O O7 0.958914 0.148631 0.349908
O O8 0.500000 0.146304 0.000000
O O9 0.477325 0.500000 0.600404
O O10 0.326471 0.245332 0.541921
O O11 0.657647 0.346661 0.861862
O O12 0.296272 0.000000 0.608576
O O13 0.939042 0.500000 0.148225
#
# Coordination Sequence:
#
# PCOD9151498 Si02
#       5
#     4   4   4   4   4
#     4   9  18  34  60  96 131 168 213 265 322 381
#     4  11  23  43  65  95 128 170 214 270 320 380
#     4  10  20  39  64  93 131 173 212 264 323 382
#     4  11  25  42  64  98 130 167 218 268 323 384
#     4  10  21  38  63  95 129 172 220 262 318 389
#
# _framework density 24.122565999999999
#
# number of rings (size 3 to 8) (size 9 to 14) (size 15 to 20)
#    0.000    1.800    2.000    2.400    0.000    8.400 
#    0.000    3.000    0.000    4.800    0.000    0.000 
#    0.000    0.000    0.000    0.000    0.000    0.000 
#
# Total GULP energy -111642.986508 kJ/mol
# GULP energy per Si atom -5582.149325 kJ/mol
# Density = 2.406766 g / cm^3
# Si number density = 24.122566 Si / 1000 Ang^3
#
#
#
# Elastic Constant Matrix: (Units=GPa)
#
#
# Indices 1 2 3 4 5 6 
#
# 1 123.4654 50.9907 19.5520 0.0000 13.4197 0.0000
# 2 50.9907 149.1276 18.7959 0.0000 23.6675 0.0000
# 3 19.5520 18.7959 133.6676 0.0000 0.8579 0.0000
# 4 0.0000 0.0000 0.0000 26.3391 0.0000 -27.2110
# 5 13.4197 23.6675 0.8579 0.0000 49.0898 0.0000
# 6 0.0000 0.0000 0.0000 -27.2110 0.0000 87.0206
#
#
#
# Elastic Compliance Matrix: (Units=1/GPa)
#
#
# Indices 1 2 3 4 5 6 
#
# 1 0.009612 -0.002976 -0.000980 0.000000 -0.001175 0.000000
# 2 -0.002976 0.008319 -0.000714 0.000000 -0.003185 0.000000
# 3 -0.000980 -0.000714 0.007722 0.000000 0.000477 0.000000
# 4 0.000000 0.000000 0.000000 0.056084 0.000000 0.017537
# 5 -0.001175 -0.003185 0.000477 0.000000 0.022219 0.000000
# 6 0.000000 0.000000 0.000000 0.017537 0.000000 0.016975
#
#
# Mechanical properties :
#
#
# Convention : Reuss Voigt Hill
#
# Bulk Modulus (GPa) = 61.30508 64.99307 63.14908
# Shear Modulus (GPa) = 36.84354 53.61802 45.23078
#
# Velocity S-wave (km/s) = 3.91237 4.71970 4.33487
# Velocity P-wave (km/s) = 6.77333 7.53008 7.16171
#
# Compressibility (1/GPa) = 0.01631186
#
# Stress axis : x y z
#
# Youngs Moduli (GPa) = 104.04083 120.20987 129.50180
#
# Poissons Ratio (x) = 0.35780 0.12689
# Poissons Ratio (y) = 0.30967 0.09246
# Poissons Ratio (z) = 0.10194 0.08582
#
# Static dielectric constant tensor:
#      x y z
#    x 1.890820 0.000000 -0.025550 
#    y 0.000000 1.858500 0.000000 
#    z -0.025550 0.000000 1.963360 
# 
# From -- ./inp_files/64706.got.cif
#   From: 2010.05.17/outbox.cif.g08.bks.cpg/sg10_33_cif.got.tgz:64706.got - 2010.06.03 11:33:40.
