data_PCOD9151638
_publ_section_title
;
Structure prediction by ZEFSAII (Michael W. Deem and Ramdas Pophale) SiO2 
 PCOD9151638
Probable space group: P 2/M
;
_chemical_formula_sum "Si O2"
_cell_formula_units_Z 24
_cell_length_a 16.306558
_cell_length_b 16.078276
_cell_length_c 20.623633
_cell_angle_alpha 90.000000
_cell_angle_beta 18.430295
_cell_angle_gamma 90.000000
_cell_volume 1709.468531
_symmetry_space_group_name_H-M "P 2/M"
_symmetry_group_IT_number 10
_symmetry_cell_setting 'monoclinic'
loop_
_space_group_symop_operation_xyz
x,y,z
-x,y,-z
-x,-y,-z
x,-y,z
loop_
_atom_site_type_symbol
_atom_site_label
_atom_site_fract_x
_atom_site_fract_y
_atom_site_fract_z
Si Si1 0.791757 0.398890 0.208257
Si Si2 0.014747 0.000000 0.596743
Si Si3 0.722091 0.136797 0.888939
Si Si4 0.216837 0.399850 0.283155
Si Si5 0.568744 0.000000 0.819773
Si Si6 0.197980 0.600348 0.651023
Si Si7 0.790634 0.670283 0.854669
O O1 0.794576 0.500000 0.205440
O O2 0.856190 0.374652 0.233776
O O3 0.496328 0.374658 0.413738
O O4 0.000000 0.369035 0.000000
O O5 0.952749 0.081588 0.685507
O O6 0.794188 0.000000 0.705814
O O7 0.288435 0.000000 0.355763
O O8 0.792936 0.230028 0.853515
O O9 0.500000 0.142377 0.000000
O O10 0.600343 0.081588 0.037912
O O11 0.237317 0.500000 0.262675
O O12 0.148908 0.362676 0.263443
O O13 0.000000 0.380297 0.500000
O O14 0.499508 0.362669 0.088112
O O15 0.186027 0.500000 0.656999
O O16 0.995364 0.635965 0.752313
#
# Coordination Sequence:
#
# PCOD9151638 Si02
#       7
#     4   2   4   4   2   4   4
#     4   8  15  29  46  63  83 106 139 182 225 271
#     4   8  15  27  44  59  79 108 139 176 219 263
#     4   9  16  28  41  62  84 110 146 177 215 257
#     4  10  21  33  42  55  83 127 164 185 209 241
#     4   8  15  27  44  59  79 108 139 176 219 263
#     4   9  17  28  45  65  84 114 147 178 223 260
#     4  11  19  31  45  63  90 115 149 193 217 251
#
# _framework density 14.03945
#
# number of rings (size 3 to 8) (size 9 to 14) (size 15 to 20)
#    0.000    2.833    1.667    4.000    0.000    2.667 
#    0.000    3.333    0.000    0.000    0.000    0.000 
#    0.000   10.667    0.000   12.000    0.000    0.000 
#
# Total GULP energy -133620.552715 kJ/mol
# GULP energy per Si atom -5567.523030 kJ/mol
# Density = 1.400750 g / cm^3
# Si number density = 14.039450 Si / 1000 Ang^3
#
#
#
# Elastic Constant Matrix: (Units=GPa)
#
#
# Indices 1 2 3 4 5 6 
#
# 1 103.5720 39.3729 75.8323 0.0000 -8.8721 0.0000
# 2 39.3729 91.6562 54.3543 0.0000 6.3128 0.0000
# 3 75.8323 54.3543 137.4262 0.0000 23.1932 0.0000
# 4 0.0000 0.0000 0.0000 3.8025 0.0000 1.6377
# 5 -8.8721 6.3128 23.1932 0.0000 16.7370 0.0000
# 6 0.0000 0.0000 0.0000 1.6377 0.0000 -0.0956
#
#
#
# Elastic Compliance Matrix: (Units=1/GPa)
#
#
# Indices 1 2 3 4 5 6 
#
# 1 0.040310 -0.002636 -0.032598 0.000000 0.067534 0.000000
# 2 -0.002636 0.014557 -0.004099 0.000000 -0.001207 0.000000
# 3 -0.032598 -0.004099 0.038559 0.000000 -0.069166 0.000000
# 4 0.000000 0.000000 0.000000 0.031393 0.000000 0.537722
# 5 0.067534 -0.001207 -0.069166 0.000000 0.191849 0.000000
# 6 0.000000 0.000000 0.000000 0.537722 0.000000 -1.248526
#
#
# Mechanical properties :
#
#
# Convention : Reuss Voigt Hill
#
# Bulk Modulus (GPa) = 67.75651 74.64146 71.19898
# Shear Modulus (GPa) = -5.89433 14.96178 4.53372
#
# Velocity S-wave (km/s) = -2.05122 3.26804 1.79897
# Velocity P-wave (km/s) = 6.53883 8.21712 7.42554
#
# Compressibility (1/GPa) = 0.01475873
#
# Stress axis : x y z
#
# Youngs Moduli (GPa) = 24.80803 68.69695 25.93443
#
# Poissons Ratio (x) = 0.18107 0.84541
# Poissons Ratio (y) = 0.06539 0.10631
# Poissons Ratio (z) = 0.80869 0.28161
#
# Static dielectric constant tensor:
#      x y z
#    x 1.438770 0.000000 0.015980 
#    y 0.000000 1.446050 0.000000 
#    z 0.015980 0.000000 1.476750 
# 
# From -- ./inp_files/65031.got.cif
#   From: 2010.05.17/outbox.cif.g08.bks.cpg/sg10_33_cif.got.tgz:65031.got - 2010.06.03 11:33:40.
