data_PCOD9151416
_publ_section_title
;
Structure prediction by ZEFSAII (Michael W. Deem and Ramdas Pophale) SiO2 
 PCOD9151416
Probable space group: P 2/M
;
_chemical_formula_sum "Si O2"
_cell_formula_units_Z 15
_cell_length_a 7.579699
_cell_length_b 16.388107
_cell_length_c 6.787563
_cell_angle_alpha 90.000000
_cell_angle_beta 40.600542
_cell_angle_gamma 90.000000
_cell_volume 548.693424
_symmetry_space_group_name_H-M "P 2/M"
_symmetry_group_IT_number 10
_symmetry_cell_setting 'monoclinic'
loop_
_space_group_symop_operation_xyz
x,y,z
-x,y,-z
-x,-y,-z
x,-y,z
loop_
_atom_site_type_symbol
_atom_site_label
_atom_site_fract_x
_atom_site_fract_y
_atom_site_fract_z
Si Si1 0.213653 0.500000 0.143944
Si Si2 0.087073 0.677963 0.146206
Si Si3 0.399274 0.764864 0.356816
Si Si4 0.500000 0.000000 0.000000
Si Si5 0.012339 0.913495 0.752098
O O1 0.182317 0.585176 0.058566
O O2 0.000000 0.500000 0.500000
O O3 0.500000 0.500000 0.000000
O O4 0.807171 0.689033 0.500291
O O5 0.324259 0.742880 0.990561
O O6 0.000000 0.699906 0.000000
O O7 0.500000 0.769394 0.500000
O O8 0.196796 0.841470 0.515161
O O9 0.711380 0.070017 0.923797
O O10 0.166655 0.000000 0.567134
O O11 0.000000 0.907842 0.000000
#
# Coordination Sequence:
#
# PCOD9151416 Si02
#       5
#     2   4   4   1   4
#     4  12  25  44  69 102 148 182 222 287 370 424
#     4  10  22  42  71 101 130 181 241 286 340 433
#     4  10  20  38  68 100 132 175 238 295 348 410
#     4   8  18  36  62 104 136 190 252 290 362 434
#     4   9  18  36  66  98 141 186 241 306 356 420
#
# _framework density 27.337671
#
# number of rings (size 3 to 8) (size 9 to 14) (size 15 to 20)
#    0.800    1.333    0.000    4.400    0.000    0.533 
#    2.400    6.667   11.733    7.200    0.000    0.000 
#    0.000    3.200    0.000    0.000    0.000    0.000 
#
# Total GULP energy -83746.555128 kJ/mol
# GULP energy per Si atom -5583.103675 kJ/mol
# Density = 2.727545 g / cm^3
# Si number density = 27.337671 Si / 1000 Ang^3
#
#
#
# Elastic Constant Matrix: (Units=GPa)
#
#
# Indices 1 2 3 4 5 6 
#
# 1 202.3748 44.3303 61.6009 0.0000 -38.3514 0.0000
# 2 44.3303 202.9191 62.4286 0.0000 -52.9565 0.0000
# 3 61.6009 62.4286 171.4620 0.0000 -47.4476 0.0000
# 4 0.0000 0.0000 0.0000 48.8927 0.0000 -13.3269
# 5 -38.3514 -52.9565 -47.4476 0.0000 66.3262 0.0000
# 6 0.0000 0.0000 0.0000 -13.3269 0.0000 40.6849
#
#
#
# Elastic Compliance Matrix: (Units=1/GPa)
#
#
# Indices 1 2 3 4 5 6 
#
# 1 0.005836 -0.000284 -0.001399 0.000000 0.002147 0.000000
# 2 -0.000284 0.006414 -0.001074 0.000000 0.004188 0.000000
# 3 -0.001399 -0.001074 0.007811 0.000000 0.003921 0.000000
# 4 0.000000 0.000000 0.000000 0.022458 0.000000 0.007356
# 5 0.002147 0.004188 0.003921 0.000000 0.022467 0.000000
# 6 0.000000 0.000000 0.000000 0.007356 0.000000 0.026989
#
#
# Mechanical properties :
#
#
# Convention : Reuss Voigt Hill
#
# Bulk Modulus (GPa) = 68.74901 101.49730 85.12315
# Shear Modulus (GPa) = 48.85726 58.40717 53.63221
#
# Velocity S-wave (km/s) = 4.23209 4.62725 4.43407
# Velocity P-wave (km/s) = 7.00596 8.10904 7.57760
#
# Compressibility (1/GPa) = 0.01454566
#
# Stress axis : x y z
#
# Youngs Moduli (GPa) = 171.34021 155.91898 128.02394
#
# Poissons Ratio (x) = 0.04433 0.17914
# Poissons Ratio (y) = 0.04871 0.13751
# Poissons Ratio (z) = 0.23975 0.16747
#
# Static dielectric constant tensor:
#      x y z
#    x 2.133340 0.000000 -0.081200 
#    y 0.000000 2.213150 0.000000 
#    z -0.081200 0.000000 0.965330 
# 
# From -- ./inp_files/19456.got.cif
#   From: 2010.05.17/outbox.cif.g08.bks.cpg/sg10_10_cif.got.tgz:19456.got - 2010.06.03 11:33:40.
