data_PCOD9151512
_publ_section_title
;
Structure prediction by ZEFSAII (Michael W. Deem and Ramdas Pophale) SiO2 
 PCOD9151512
Probable space group: P 2/M
;
_chemical_formula_sum "Si O2"
_cell_formula_units_Z 32
_cell_length_a 11.538973
_cell_length_b 18.601525
_cell_length_c 14.485447
_cell_angle_alpha 90.000000
_cell_angle_beta 30.122625
_cell_angle_gamma 90.000000
_cell_volume 1560.355490
_symmetry_space_group_name_H-M "P 2/M"
_symmetry_group_IT_number 10
_symmetry_cell_setting 'monoclinic'
loop_
_space_group_symop_operation_xyz
x,y,z
-x,y,-z
-x,-y,-z
x,-y,z
loop_
_atom_site_type_symbol
_atom_site_label
_atom_site_fract_x
_atom_site_fract_y
_atom_site_fract_z
Si Si1 0.722023 0.581517 0.695512
Si Si2 0.434771 0.810388 0.270257
Si Si3 0.541019 0.414661 0.621523
Si Si4 0.911783 0.273499 0.957868
Si Si5 0.333989 0.917014 0.024840
Si Si6 0.279728 0.273993 0.207965
Si Si7 0.880036 0.415009 0.217316
Si Si8 0.070319 0.198622 0.674030
O O1 0.637962 0.500000 0.772603
O O2 0.621974 0.608457 0.666244
O O3 0.675901 0.643209 0.800430
O O4 0.000000 0.577701 0.500000
O O5 0.527577 0.882341 0.156654
O O6 0.271670 0.770917 0.307840
O O7 0.301680 0.819075 0.458406
O O8 0.659071 0.759988 0.124082
O O9 0.510258 0.500000 0.650950
O O10 0.744171 0.405083 0.406804
O O11 0.304545 0.391410 0.734654
O O12 0.078989 0.232266 0.770143
O O13 0.916440 0.357963 0.928454
O O14 0.000000 0.262862 0.000000
O O15 0.273952 0.000000 0.048988
O O16 0.500000 0.914719 0.000000
O O17 0.106516 0.868677 0.199749
O O18 0.060270 0.259299 0.296473
O O19 0.500000 0.245882 0.000000
O O20 0.937830 0.500000 0.166866
#
# Coordination Sequence:
#
# PCOD9151512 Si02
#       8
#     4   4   4   4   4   4   4   4
#     4  10  22  35  54  84 119 162 219 270 320 388
#     4  11  23  41  65  94 132 171 210 250 312 385
#     4   8  17  34  56  83 113 155 211 278 340 392
#     4  11  26  41  60  92 125 165 221 280 323 372
#     4  10  20  39  67 106 145 167 199 248 297 371
#     4  12  22  39  61  86 126 169 213 259 322 380
#     4   9  19  36  58  82 116 160 219 283 341 384
#     4  11  23  43  66  94 131 176 206 250 318 384
#
# _framework density 20.508147000000001
#
# number of rings (size 3 to 8) (size 9 to 14) (size 15 to 20)
#    0.000    1.750    3.750    1.875    5.250    2.500 
#    0.000    1.875    0.000    7.500    0.000    7.000 
#    0.000    0.000    0.000    0.000    0.000    0.000 
#
# Total GULP energy -178795.702815 kJ/mol
# GULP energy per Si atom -5587.365713 kJ/mol
# Density = 2.046147 g / cm^3
# Si number density = 20.508147 Si / 1000 Ang^3
#
#
#
# Elastic Constant Matrix: (Units=GPa)
#
#
# Indices 1 2 3 4 5 6 
#
# 1 79.4752 46.7635 26.4110 0.0000 12.6900 0.0000
# 2 46.7635 136.1422 49.0832 0.0000 15.8800 0.0000
# 3 26.4110 49.0832 125.8680 0.0000 24.4888 0.0000
# 4 0.0000 0.0000 0.0000 5.0403 0.0000 11.2996
# 5 12.6900 15.8800 24.4888 0.0000 26.7961 0.0000
# 6 0.0000 0.0000 0.0000 11.2996 0.0000 8.2910
#
#
#
# Elastic Compliance Matrix: (Units=1/GPa)
#
#
# Indices 1 2 3 4 5 6 
#
# 1 0.016357 -0.004870 -0.000715 0.000000 -0.004207 0.000000
# 2 -0.004870 0.010132 -0.002687 0.000000 -0.001242 0.000000
# 3 -0.000715 -0.002687 0.010663 0.000000 -0.007814 0.000000
# 4 0.000000 0.000000 0.000000 -0.096530 0.000000 0.131557
# 5 -0.004207 -0.001242 -0.007814 0.000000 0.047188 0.000000
# 6 0.000000 0.000000 0.000000 0.131557 0.000000 -0.058682
#
#
# Mechanical properties :
#
#
# Convention : Reuss Voigt Hill
#
# Bulk Modulus (GPa) = 48.52520 65.11120 56.81820
# Shear Modulus (GPa) = -105.35714 22.64067 -41.35824
#
# Velocity S-wave (km/s) = -7.17529 3.32623 -4.49561
# Velocity P-wave (km/s) = 6.70326 6.82419 0.90442
#
# Compressibility (1/GPa) = 0.02060785
#
# Stress axis : x y z
#
# Youngs Moduli (GPa) = 61.13415 98.69799 93.78203
#
# Poissons Ratio (x) = 0.48069 0.06701
# Poissons Ratio (y) = 0.29774 0.25204
# Poissons Ratio (z) = 0.04368 0.26525
#
# Static dielectric constant tensor:
#      x y z
#    x 1.766420 0.000000 -0.005460 
#    y 0.000000 1.742010 0.000000 
#    z -0.005460 0.000000 1.780630 
# 
# From -- ./inp_files/51998.got.cif
#   From: 2010.05.17/outbox.cif.g08.bks.cpg/sg10_26_cif.got.tgz:51998.got - 2010.06.03 11:33:40.
