data_PCOD9151360
_publ_section_title
;
Structure prediction by ZEFSAII (Michael W. Deem and Ramdas Pophale) SiO2 
 PCOD9151360
Probable space group: P 2/M
;
_chemical_formula_sum "Si O2"
_cell_formula_units_Z 20
_cell_length_a 11.650741
_cell_length_b 9.830500
_cell_length_c 10.183130
_cell_angle_alpha 90.000000
_cell_angle_beta 52.761875
_cell_angle_gamma 90.000000
_cell_volume 928.523789
_symmetry_space_group_name_H-M "P 2/M"
_symmetry_group_IT_number 10
_symmetry_cell_setting 'monoclinic'
loop_
_space_group_symop_operation_xyz
x,y,z
-x,y,-z
-x,-y,-z
x,-y,z
loop_
_atom_site_type_symbol
_atom_site_label
_atom_site_fract_x
_atom_site_fract_y
_atom_site_fract_z
Si Si1 0.903845 0.163517 0.777435
Si Si2 0.627096 0.155090 0.826765
Si Si3 0.466795 0.248105 0.379921
Si Si4 0.781970 0.653932 0.092921
Si Si5 0.155586 0.649830 0.647944
O O1 0.786575 0.206990 0.748611
O O2 0.058172 0.233652 0.652871
O O3 0.919825 0.000000 0.773770
O O4 0.837677 0.230352 0.956032
O O5 0.578565 0.155971 0.710606
O O6 0.636832 0.000000 0.868124
O O7 0.500000 0.224041 0.000000
O O8 0.500000 0.184010 0.500000
O O9 0.611238 0.325538 0.236492
O O10 0.324539 0.338533 0.498739
O O11 0.807695 0.500000 0.025564
O O12 0.852898 0.664795 0.187885
O O13 0.103640 0.500000 0.646694
#
# Coordination Sequence:
#
# PCOD9151360 Si02
#       5
#     4   4   4   4   4
#     4  11  23  39  61  89 125 166 208 254 306 368
#     4  10  21  40  62  87 126 167 203 254 314 363
#     4  10  21  39  65  93 120 159 211 256 302 368
#     4  10  20  38  64  91 123 165 208 253 308 365
#     4  10  22  40  61  90 130 165 199 255 316 364
#
# _framework density 21.539567000000002
#
# number of rings (size 3 to 8) (size 9 to 14) (size 15 to 20)
#    0.000    1.800    2.000    1.800    0.000    7.600 
#    0.000   12.000    0.000    0.000    0.000    0.000 
#    0.000    0.000    0.000    0.000    0.000    0.000 
#
# Total GULP energy -111564.851421 kJ/mol
# GULP energy per Si atom -5578.242571 kJ/mol
# Density = 2.149054 g / cm^3
# Si number density = 21.539567 Si / 1000 Ang^3
#
#
#
# Elastic Constant Matrix: (Units=GPa)
#
#
# Indices 1 2 3 4 5 6 
#
# 1 134.2482 51.3944 28.4663 0.0000 -17.7373 0.0000
# 2 51.3944 98.1505 23.6165 0.0000 -11.1234 0.0000
# 3 28.4663 23.6165 88.1953 0.0000 -13.6099 0.0000
# 4 0.0000 0.0000 0.0000 -0.4748 0.0000 1.1072
# 5 -17.7373 -11.1234 -13.6099 0.0000 37.1827 0.0000
# 6 0.0000 0.0000 0.0000 1.1072 0.0000 17.3831
#
#
#
# Elastic Compliance Matrix: (Units=1/GPa)
#
#
# Indices 1 2 3 4 5 6 
#
# 1 0.009860 -0.004472 -0.001553 0.000000 0.002797 0.000000
# 2 -0.004472 0.013111 -0.001899 0.000000 0.001094 0.000000
# 3 -0.001553 -0.001899 0.012873 0.000000 0.003403 0.000000
# 4 0.000000 0.000000 0.000000 -1.833773 0.000000 0.116799
# 5 0.002797 0.001094 0.003403 0.000000 0.029801 0.000000
# 6 0.000000 0.000000 0.000000 0.116799 0.000000 0.050088
#
#
# Mechanical properties :
#
#
# Convention : Reuss Voigt Hill
#
# Bulk Modulus (GPa) = 50.00931 58.61650 54.31291
# Shear Modulus (GPa) = -2.94894 25.29265 11.17186
#
# Velocity S-wave (km/s) = -1.17135 3.43044 2.27990
# Velocity P-wave (km/s) = 4.63016 6.55462 5.67457
#
# Compressibility (1/GPa) = 0.01999628
#
# Stress axis : x y z
#
# Youngs Moduli (GPa) = 101.42089 76.27188 77.67995
#
# Poissons Ratio (x) = 0.34110 0.12066
# Poissons Ratio (y) = 0.45357 0.14748
# Poissons Ratio (z) = 0.15753 0.14480
#
# Static dielectric constant tensor:
#      x y z
#    x 1.795370 0.000000 -0.031390 
#    y 0.000000 1.743350 0.000000 
#    z -0.031390 0.000000 1.830940 
# 
# From -- ./inp_files/41620.got.cif
#   From: 2010.05.17/outbox.cif.g08.bks.cpg/sg10_21_cif.got.tgz:41620.got - 2010.06.03 11:33:40.
