data_PCOD9151071
_publ_section_title
;
Structure prediction by ZEFSAII (Michael W. Deem and Ramdas Pophale) SiO2 
 PCOD9151071
Probable space group: P 2/M
;
_chemical_formula_sum "Si O2"
_cell_formula_units_Z 28
_cell_length_a 11.659482
_cell_length_b 12.598648
_cell_length_c 19.614115
_cell_angle_alpha 90.000000
_cell_angle_beta 31.382119
_cell_angle_gamma 90.000000
_cell_volume 1500.360241
_symmetry_space_group_name_H-M "P 2/M"
_symmetry_group_IT_number 10
_symmetry_cell_setting 'monoclinic'
loop_
_space_group_symop_operation_xyz
x,y,z
-x,y,-z
-x,-y,-z
x,-y,z
loop_
_atom_site_type_symbol
_atom_site_label
_atom_site_fract_x
_atom_site_fract_y
_atom_site_fract_z
Si Si1 0.049844 0.622415 0.215016
Si Si2 0.973111 0.000000 0.167764
Si Si3 0.809539 0.375514 0.477641
Si Si4 0.793509 0.164328 0.153522
Si Si5 0.000000 0.231782 0.500000
Si Si6 0.292206 0.620566 0.733454
Si Si7 0.670273 0.179146 0.972154
Si Si8 0.427179 0.876334 0.229090
O O1 0.129871 0.500000 0.174119
O O2 0.958991 0.648619 0.336164
O O3 0.844551 0.627109 0.266921
O O4 0.226262 0.708086 0.101322
O O5 0.824258 0.907469 0.204306
O O6 0.136914 0.906557 0.115293
O O7 0.839093 0.500000 0.478973
O O8 0.878114 0.304509 0.506390
O O9 0.552100 0.360411 0.590720
O O10 0.794021 0.287574 0.173399
O O11 0.576674 0.138695 0.220324
O O12 0.000000 0.137546 0.000000
O O13 0.816945 0.161984 0.630850
O O14 0.266048 0.500000 0.773434
O O15 0.541098 0.186091 0.109410
O O16 0.500000 0.145870 0.000000
O O17 0.433319 0.000000 0.206877
#
# Coordination Sequence:
#
# PCOD9151071 Si02
#       8
#     4   2   4   4   2   4   4   4
#     4  10  21  40  65  93 122 157 205 259 315 365
#     4  12  22  38  64  87 117 162 204 255 301 362
#     4  10  21  39  63  89 123 165 207 249 306 376
#     4  12  20  38  64  90 121 158 207 258 302 358
#     4  12  24  40  60  90 128 166 204 256 300 366
#     4  10  20  37  62  90 121 158 203 254 309 365
#     4  12  24  41  63  91 123 163 205 252 309 373
#     4  12  24  41  63  90 123 168 210 248 306 366
#
# _framework density 18.662184
#
# number of rings (size 3 to 8) (size 9 to 14) (size 15 to 20)
#    0.000    0.857    5.714    2.143    0.000    2.286 
#    0.000    2.143    0.000    0.857    0.000    0.000 
#    0.000    0.000    0.000    0.000    0.000    0.000 
#
# Total GULP energy -155888.994704 kJ/mol
# GULP energy per Si atom -5567.464097 kJ/mol
# Density = 1.861971 g / cm^3
# Si number density = 18.662184 Si / 1000 Ang^3
#
#
#
# Elastic Constant Matrix: (Units=GPa)
#
#
# Indices 1 2 3 4 5 6 
#
# 1 89.5073 18.9446 12.4393 0.0000 -13.1871 0.0000
# 2 18.9446 89.6015 32.5846 0.0000 5.7264 0.0000
# 3 12.4393 32.5846 38.2926 0.0000 -2.6401 0.0000
# 4 0.0000 0.0000 0.0000 -6.9291 0.0000 -18.2423
# 5 -13.1871 5.7264 -2.6401 0.0000 21.1775 0.0000
# 6 0.0000 0.0000 0.0000 -18.2423 0.0000 4.2867
#
#
#
# Elastic Compliance Matrix: (Units=1/GPa)
#
#
# Indices 1 2 3 4 5 6 
#
# 1 0.013274 -0.002942 -0.001194 0.000000 0.008912 0.000000
# 2 -0.002942 0.017645 -0.014641 0.000000 -0.008428 0.000000
# 3 -0.001194 -0.014641 0.039522 0.000000 0.008142 0.000000
# 4 0.000000 0.000000 0.000000 -0.011826 0.000000 -0.050326
# 5 0.008912 -0.008428 0.008142 0.000000 0.056063 0.000000
# 6 0.000000 0.000000 0.000000 -0.050326 0.000000 0.019116
#
#
# Mechanical properties :
#
#
# Convention : Reuss Voigt Hill
#
# Bulk Modulus (GPa) = 30.40598 38.37094 34.38846
# Shear Modulus (GPa) = 27.42571 13.93588 20.68080
#
# Velocity S-wave (km/s) = 3.83768 2.73563 3.33252
# Velocity P-wave (km/s) = 5.99710 5.53025 5.76840
#
# Compressibility (1/GPa) = 0.03288827
#
# Stress axis : x y z
#
# Youngs Moduli (GPa) = 75.33567 56.67218 25.30226
#
# Poissons Ratio (x) = 0.16672 0.03022
# Poissons Ratio (y) = 0.22162 0.37044
# Poissons Ratio (z) = 0.08997 0.82971
#
# Static dielectric constant tensor:
#      x y z
#    x 1.631780 0.000000 -0.002860 
#    y 0.000000 1.639310 0.000000 
#    z -0.002860 0.000000 1.635690 
# 
# From -- ./inp_files/83959.got.cif
#   From: 2010.05.17/outbox.cif.g08.bks.cpg/sg10_42_cif.got.tgz:83959.got - 2010.06.03 11:33:40.
