data_PCOD9151543
_publ_section_title
;
Structure prediction by ZEFSAII (Michael W. Deem and Ramdas Pophale) SiO2 
 PCOD9151543
Probable space group: P 2/M
;
_chemical_formula_sum "Si O2"
_cell_formula_units_Z 32
_cell_length_a 30.327850
_cell_length_b 7.720794
_cell_length_c 23.583888
_cell_angle_alpha 90.000000
_cell_angle_beta 164.521636
_cell_angle_gamma 90.000000
_cell_volume 1473.757487
_symmetry_space_group_name_H-M "P 2/M"
_symmetry_group_IT_number 10
_symmetry_cell_setting 'monoclinic'
loop_
_space_group_symop_operation_xyz
x,y,z
-x,y,-z
-x,-y,-z
x,-y,z
loop_
_atom_site_type_symbol
_atom_site_label
_atom_site_fract_x
_atom_site_fract_y
_atom_site_fract_z
Si Si1 0.756137 0.711364 0.660550
Si Si2 0.390577 0.704742 0.180483
Si Si3 0.823489 0.295858 0.300097
Si Si4 0.434978 0.201350 0.113701
Si Si5 0.896000 0.711525 0.955130
Si Si6 0.316897 0.790809 0.756468
Si Si7 0.144258 0.706782 0.971276
Si Si8 0.769441 0.209857 0.476986
O O1 0.755996 0.500000 0.658448
O O2 0.576569 0.774796 0.419439
O O3 0.797360 0.762116 0.776409
O O4 0.912954 0.766800 0.817085
O O5 0.400928 0.500000 0.204193
O O6 0.347781 0.724136 0.061291
O O7 0.259488 0.776657 0.063431
O O8 0.820296 0.500000 0.284272
O O9 0.799418 0.265679 0.336653
O O10 0.000000 0.223900 0.500000
O O11 0.674463 0.219233 0.078407
O O12 0.617730 0.275510 0.327691
O O13 0.454899 0.000000 0.150483
O O14 0.896085 0.500000 0.955876
O O15 0.824008 0.773202 0.925655
O O16 0.264678 0.730953 0.629692
O O17 0.319692 0.000000 0.758849
O O18 0.500000 0.729752 0.000000
O O19 0.169469 0.500000 0.004243
O O20 0.951307 0.736813 0.720359
O O21 0.762091 0.000000 0.468256
#
# Coordination Sequence:
#
# PCOD9151543 Si02
#       8
#     4   4   4   4   4   4   4   4
#     4   8  14  27  50  77 109 145 184 227 270 321
#     4  10  21  35  52  81 117 148 181 228 278 327
#     4  11  25  41  59  87 118 144 177 226 279 332
#     4  11  23  41  61  80 106 147 191 228 272 330
#     4   8  14  27  49  78 107 144 188 225 268 324
#     4  10  20  40  63  84 110 142 187 232 272 328
#     4  10  21  34  52  81 116 148 182 225 277 331
#     4  10  22  39  59  81 107 142 187 233 273 322
#
# _framework density 21.713206
#
# number of rings (size 3 to 8) (size 9 to 14) (size 15 to 20)
#    0.000    2.250    1.250    2.250    1.750    4.750 
#    0.000    2.500    0.000    0.750    0.000    5.250 
#    0.000    0.000    0.000    0.000    0.000    0.000 
#
# Total GULP energy -178711.813145 kJ/mol
# GULP energy per Si atom -5584.744161 kJ/mol
# Density = 2.166379 g / cm^3
# Si number density = 21.713206 Si / 1000 Ang^3
#
#
#
# Elastic Constant Matrix: (Units=GPa)
#
#
# Indices 1 2 3 4 5 6 
#
# 1 156.8443 3.0171 16.4339 0.0000 10.9902 0.0000
# 2 3.0171 33.6223 1.3305 0.0000 3.7533 0.0000
# 3 16.4339 1.3305 25.1685 0.0000 3.2203 0.0000
# 4 0.0000 0.0000 0.0000 -39.6193 0.0000 52.3872
# 5 10.9902 3.7533 3.2203 0.0000 31.0790 0.0000
# 6 0.0000 0.0000 0.0000 52.3872 0.0000 -48.7728
#
#
#
# Elastic Compliance Matrix: (Units=1/GPa)
#
#
# Indices 1 2 3 4 5 6 
#
# 1 0.006969 -0.000233 -0.004283 0.000000 -0.001992 0.000000
# 2 -0.000233 0.030189 -0.001001 0.000000 -0.003460 0.000000
# 3 -0.004283 -0.001001 0.042942 0.000000 -0.002814 0.000000
# 4 0.000000 0.000000 0.000000 0.060059 0.000000 0.064510
# 5 -0.001992 -0.003460 -0.002814 0.000000 0.033590 0.000000
# 6 0.000000 0.000000 0.000000 0.064510 0.000000 0.048788
#
#
# Mechanical properties :
#
#
# Convention : Reuss Voigt Hill
#
# Bulk Modulus (GPa) = 14.47916 28.57758 21.52837
# Shear Modulus (GPa) = 19.48618 1.52762 10.50690
#
# Velocity S-wave (km/s) = 2.99897 0.83969 2.20215
# Velocity P-wave (km/s) = 4.32141 3.75900 4.04998
#
# Compressibility (1/GPa) = 0.06906478
#
# Stress axis : x y z
#
# Youngs Moduli (GPa) = 143.50086 33.12470 23.28735
#
# Poissons Ratio (x) = 0.00773 0.09974
# Poissons Ratio (y) = 0.03350 0.02331
# Poissons Ratio (z) = 0.61461 0.03315
#
# Static dielectric constant tensor:
#      x y z
#    x 1.796880 0.000000 0.014270 
#    y 0.000000 1.813010 0.000000 
#    z 0.014270 0.000000 1.766900 
# 
# From -- ./inp_files/86988.got.cif
#   From: 2010.05.17/outbox.cif.g08.bks.cpg/sg10_44_cif.got.tgz:86988.got - 2010.06.03 11:33:40.
