data_PCOD9151158
_publ_section_title
;
Structure prediction by ZEFSAII (Michael W. Deem and Ramdas Pophale) SiO2 
 PCOD9151158
Probable space group: P 2/M
;
_chemical_formula_sum "Si O2"
_cell_formula_units_Z 24
_cell_length_a 9.424595
_cell_length_b 16.323321
_cell_length_c 9.468927
_cell_angle_alpha 90.000000
_cell_angle_beta 128.855268
_cell_angle_gamma 90.000000
_cell_volume 1134.385490
_symmetry_space_group_name_H-M "P 2/M"
_symmetry_group_IT_number 10
_symmetry_cell_setting 'monoclinic'
loop_
_space_group_symop_operation_xyz
x,y,z
-x,y,-z
-x,-y,-z
x,-y,z
loop_
_atom_site_type_symbol
_atom_site_label
_atom_site_fract_x
_atom_site_fract_y
_atom_site_fract_z
Si Si1 0.633251 0.593748 0.463636
Si Si2 0.991486 0.834887 0.831439
Si Si3 0.302892 0.406606 0.807506
Si Si4 0.994157 0.641106 0.833033
Si Si5 0.359297 0.907515 0.540806
Si Si6 0.622597 0.906405 0.940180
O O1 0.500000 0.631891 0.500000
O O2 0.565166 0.500000 0.396912
O O3 0.665781 0.631974 0.328666
O O4 0.829160 0.594635 0.657054
O O5 0.957518 0.738120 0.813535
O O6 0.829232 0.871393 0.635349
O O7 0.194360 0.857744 0.908972
O O8 0.000000 0.865097 0.000000
O O9 0.236397 0.500000 0.740764
O O10 0.168013 0.369963 0.840036
O O11 0.500000 0.409150 0.000000
O O12 0.000000 0.613532 0.000000
O O13 0.500000 0.911723 0.500000
O O14 0.486582 0.866709 0.739751
O O15 0.318098 0.000000 0.566377
O O16 0.673223 0.000000 0.925024
O O17 0.500000 0.912952 0.000000
#
# Coordination Sequence:
#
# PCOD9151158 Si02
#       6
#     4   4   4   4   4   4
#     4  10  21  40  65  91 118 154 202 253 301 354
#     4  11  23  40  60  89 125 162 203 249 304 365
#     4  10  21  40  65  90 118 156 203 252 299 356
#     4  11  24  39  56  87 126 164 199 244 305 365
#     4  10  20  37  66  93 114 157 211 254 302 360
#     4  10  22  41  63  90 123 156 201 260 309 356
#
# _framework density 21.156829999999999
#
# number of rings (size 3 to 8) (size 9 to 14) (size 15 to 20)
#    0.000    1.667    1.667    2.500    0.000    6.667 
#    9.000    2.500    0.000    0.000    0.000    0.000 
#    0.000    0.000    0.000    0.000    0.000    0.000 
#
# Total GULP energy -133779.916665 kJ/mol
# GULP energy per Si atom -5574.163194 kJ/mol
# Density = 2.110868 g / cm^3
# Si number density = 21.156830 Si / 1000 Ang^3
#
#
#
# Elastic Constant Matrix: (Units=GPa)
#
#
# Indices 1 2 3 4 5 6 
#
# 1 134.4831 0.9432 50.7639 0.0000 -5.5429 0.0000
# 2 0.9432 26.3761 13.9350 0.0000 6.1390 0.0000
# 3 50.7639 13.9350 142.3273 0.0000 3.7522 0.0000
# 4 0.0000 0.0000 0.0000 2702.3567 0.0000 1596.8263
# 5 -5.5429 6.1390 3.7522 0.0000 46.0520 0.0000
# 6 0.0000 0.0000 0.0000 1596.8263 0.0000 945.4926
#
#
#
# Elastic Compliance Matrix: (Units=1/GPa)
#
#
# Indices 1 2 3 4 5 6 
#
# 1 0.008701 0.001133 -0.003245 0.000000 0.001161 0.000000
# 2 0.001133 0.041322 -0.004318 0.000000 -0.005020 0.000000
# 3 -0.003245 -0.004318 0.008620 0.000000 -0.000517 0.000000
# 4 0.000000 0.000000 0.000000 0.181678 0.000000 -0.306832
# 5 0.001161 -0.005020 -0.000517 0.000000 0.022566 0.000000
# 6 0.000000 0.000000 0.000000 -0.306832 0.000000 0.519262
#
#
# Mechanical properties :
#
#
# Convention : Reuss Voigt Hill
#
# Bulk Modulus (GPa) = 21.84175 48.27452 35.05814
# Shear Modulus (GPa) = 6.17080 754.61655 380.39368
#
# Velocity S-wave (km/s) = 1.70969 18.90640 13.42339
# Velocity P-wave (km/s) = 3.77406 22.34881 16.02674
#
# Compressibility (1/GPa) = 0.04578388
#
# Stress axis : x y z
#
# Youngs Moduli (GPa) = 114.93491 24.20010 116.01288
#
# Poissons Ratio (x) = -0.02742 0.37643
# Poissons Ratio (y) = -0.13022 0.50089
# Poissons Ratio (z) = 0.37294 0.10449
#
# Static dielectric constant tensor:
#      x y z
#    x 1.803280 0.000000 -0.051490 
#    y 0.000000 1.803000 0.000000 
#    z -0.051490 0.000000 1.977670 
# 
# From -- ./inp_files/20273.got.cif
#   From: 2010.05.17/outbox.cif.g08.bks.cpg/sg10_11_cif.got.tgz:20273.got - 2010.06.03 11:33:40.
