data_PCOD9151522
_publ_section_title
;
Structure prediction by ZEFSAII (Michael W. Deem and Ramdas Pophale) SiO2 
 PCOD9151522
Probable space group: P 2/M
;
_chemical_formula_sum "Si O2"
_cell_formula_units_Z 17
_cell_length_a 10.557977
_cell_length_b 7.600873
_cell_length_c 11.830805
_cell_angle_alpha 90.000000
_cell_angle_beta 125.797142
_cell_angle_gamma 90.000000
_cell_volume 770.068104
_symmetry_space_group_name_H-M "P 2/M"
_symmetry_group_IT_number 10
_symmetry_cell_setting 'monoclinic'
loop_
_space_group_symop_operation_xyz
x,y,z
-x,y,-z
-x,-y,-z
x,-y,z
loop_
_atom_site_type_symbol
_atom_site_label
_atom_site_fract_x
_atom_site_fract_y
_atom_site_fract_z
Si Si1 0.048594 0.790809 0.148599
Si Si2 0.333621 0.296321 0.452583
Si Si3 0.724824 0.791481 0.108977
Si Si4 0.500000 0.500000 0.000000
Si Si5 0.173416 0.204659 0.600088
O O1 0.203055 0.715690 0.287063
O O2 0.898754 0.769079 0.150904
O O3 0.077702 0.000000 0.152907
O O4 0.000000 0.722666 0.000000
O O5 0.500000 0.221254 0.500000
O O6 0.359410 0.500000 0.495088
O O7 0.261847 0.213840 0.528279
O O8 0.604188 0.657522 0.991977
O O9 0.733863 0.724346 0.244041
O O10 0.684899 0.000000 0.077537
O O11 0.000000 0.283603 0.500000
O O12 0.151219 0.000000 0.620021
#
# Coordination Sequence:
#
# PCOD9151522 Si02
#       5
#     4   4   4   1   4
#     4  10  22  43  69  93 127 177 223 268 333 403
#     4  11  25  41  62  99 137 168 218 279 329 391
#     4  10  23  43  66  99 131 168 226 273 323 400
#     4  12  26  40  64  94 132 184 208 270 340 384
#     4  10  20  39  69  94 122 164 215 273 325 386
#
# _framework density 22.075969000000001
#
# number of rings (size 3 to 8) (size 9 to 14) (size 15 to 20)
#    0.000    1.647    2.353    1.059    3.294    4.706 
#    4.235    4.706    0.000    0.000    0.000    0.000 
#    0.000    0.000    0.000    0.000    0.000    0.000 
#
# Total GULP energy -94681.753870 kJ/mol
# GULP energy per Si atom -5569.514934 kJ/mol
# Density = 2.202572 g / cm^3
# Si number density = 22.075969 Si / 1000 Ang^3
#
#
#
# Elastic Constant Matrix: (Units=GPa)
#
#
# Indices 1 2 3 4 5 6 
#
# 1 133.0115 13.9966 57.9584 0.0000 16.9291 0.0000
# 2 13.9966 91.9800 1.4328 0.0000 14.0946 0.0000
# 3 57.9584 1.4328 103.6481 0.0000 -6.9968 0.0000
# 4 0.0000 0.0000 0.0000 232.1903 0.0000 0.4684
# 5 16.9291 14.0946 -6.9968 0.0000 39.9327 0.0000
# 6 0.0000 0.0000 0.0000 0.4684 0.0000 -3.2259
#
#
#
# Elastic Compliance Matrix: (Units=1/GPa)
#
#
# Indices 1 2 3 4 5 6 
#
# 1 0.011208 -0.000736 -0.006639 0.000000 -0.005655 0.000000
# 2 -0.000736 0.011562 -0.000003 0.000000 -0.003769 0.000000
# 3 -0.006639 -0.000003 0.013713 0.000000 0.005218 0.000000
# 4 0.000000 0.000000 0.000000 0.004306 0.000000 0.000625
# 5 -0.005655 -0.003769 0.005218 0.000000 0.029684 0.000000
# 6 0.000000 0.000000 0.000000 0.000625 0.000000 -0.309896
#
#
# Mechanical properties :
#
#
# Convention : Reuss Voigt Hill
#
# Bulk Modulus (GPa) = 46.02487 52.82389 49.42438
# Shear Modulus (GPa) = -22.99638 70.79620 23.89991
#
# Velocity S-wave (km/s) = -3.23103 5.66912 3.29389
# Velocity P-wave (km/s) = 2.64088 8.17509 6.07480
#
# Compressibility (1/GPa) = 0.02172738
#
# Stress axis : x y z
#
# Youngs Moduli (GPa) = 89.22014 86.49383 72.92459
#
# Poissons Ratio (x) = 0.06362 0.48415
# Poissons Ratio (y) = 0.06563 0.00022
# Poissons Ratio (z) = 0.59234 0.00026
#
# Static dielectric constant tensor:
#      x y z
#    x 1.810630 0.000000 0.036720 
#    y 0.000000 1.924670 0.000000 
#    z 0.036720 0.000000 1.908440 
# 
# From -- ./inp_files/22005.got.cif
#   From: 2010.05.17/outbox.cif.g08.bks.cpg/sg10_12_cif.got.tgz:22005.got - 2010.06.03 11:33:40.
