data_PCOD9151954
_publ_section_title
;
Structure prediction by ZEFSAII (Michael W. Deem and Ramdas Pophale) SiO2 
 PCOD9151954
Probable space group: P 2/M
;
_chemical_formula_sum "Si O2"
_cell_formula_units_Z 32
_cell_length_a 32.900738
_cell_length_b 8.945077
_cell_length_c 12.259662
_cell_angle_alpha 90.000000
_cell_angle_beta 149.652994
_cell_angle_gamma 90.000000
_cell_volume 1822.897835
_symmetry_space_group_name_H-M "P 2/M"
_symmetry_group_IT_number 10
_symmetry_cell_setting 'monoclinic'
loop_
_space_group_symop_operation_xyz
x,y,z
-x,y,-z
-x,-y,-z
x,-y,z
loop_
_atom_site_type_symbol
_atom_site_label
_atom_site_fract_x
_atom_site_fract_y
_atom_site_fract_z
Si Si1 0.320489 0.321533 0.455716
Si Si2 0.332636 0.177394 0.707564
Si Si3 0.017973 0.170893 0.671710
Si Si4 0.493182 0.326910 0.148941
Si Si5 0.189873 0.179955 0.000431
Si Si6 0.143820 0.322474 0.661586
Si Si7 0.725708 0.178288 0.184838
Si Si8 0.434972 0.325432 0.261878
O O1 0.311533 0.500000 0.427272
O O2 0.297375 0.262484 0.521942
O O3 0.414949 0.285446 0.659296
O O4 0.267580 0.242518 0.240983
O O5 0.291046 0.216067 0.726948
O O6 0.327019 0.000000 0.678593
O O7 0.425787 0.226487 0.936261
O O8 0.949204 0.272467 0.563873
O O9 0.000000 0.168834 0.500000
O O10 0.009804 0.000000 0.692197
O O11 0.110858 0.218664 0.890381
O O12 0.480775 0.500000 0.085745
O O13 0.475550 0.319522 0.236986
O O14 0.191764 0.000000 0.994472
O O15 0.177019 0.250534 0.851291
O O16 0.150137 0.500000 0.682622
O O17 0.197374 0.258261 0.687922
O O18 0.733401 0.000000 0.193530
O O19 0.647138 0.233557 0.936495
O O20 0.500000 0.271569 0.500000
O O21 0.416113 0.500000 0.242750
#
# Coordination Sequence:
#
# PCOD9151954 Si02
#       8
#     4   4   4   4   4   4   4   4
#     4  11  22  34  53  79 108 140 176 222 268 315
#     4  10  21  37  55  74 100 138 184 227 266 310
#     4   8  16  33  54  76 107 142 172 206 255 312
#     4   9  19  34  50  73 103 137 177 218 265 314
#     4  10  21  36  54  80 112 143 173 211 261 313
#     4  11  21  33  55  83 110 139 174 214 260 316
#     4  10  21  36  53  75 102 137 180 221 262 313
#     4   9  18  32  50  71 102 140 173 214 264 313
#
# _framework density 17.554466999999999
#
# number of rings (size 3 to 8) (size 9 to 14) (size 15 to 20)
#    0.000    2.250    0.000    3.750    1.750    7.000 
#    0.000    0.000    0.000    0.750    0.000    5.250 
#    0.000    0.000    0.000    0.000    0.000    0.000 
#
# Total GULP energy -178578.756631 kJ/mol
# GULP energy per Si atom -5580.586145 kJ/mol
# Density = 1.751451 g / cm^3
# Si number density = 17.554467 Si / 1000 Ang^3
#
#
#
# Elastic Constant Matrix: (Units=GPa)
#
#
# Indices 1 2 3 4 5 6 
#
# 1 68.6381 44.3821 31.1891 0.0000 24.5466 0.0000
# 2 44.3821 69.6902 28.1054 0.0000 15.8052 0.0000
# 3 31.1891 28.1054 32.5748 0.0000 11.6508 0.0000
# 4 0.0000 0.0000 0.0000 40.4697 0.0000 -9.8542
# 5 24.5466 15.8052 11.6508 0.0000 24.9335 0.0000
# 6 0.0000 0.0000 0.0000 -9.8542 0.0000 32.0821
#
#
#
# Elastic Compliance Matrix: (Units=1/GPa)
#
#
# Indices 1 2 3 4 5 6 
#
# 1 0.038729 -0.012156 -0.018865 0.000000 -0.021607 0.000000
# 2 -0.012156 0.026622 -0.011496 0.000000 0.000464 0.000000
# 3 -0.018865 -0.011496 0.059350 0.000000 -0.001873 0.000000
# 4 0.000000 0.000000 0.000000 0.026707 0.000000 0.008203
# 5 -0.021607 0.000464 -0.001873 0.000000 0.061960 0.000000
# 6 0.000000 0.000000 0.000000 0.008203 0.000000 0.033690
#
#
# Mechanical properties :
#
#
# Convention : Reuss Voigt Hill
#
# Bulk Modulus (GPa) = 25.21052 42.02847 33.61950
# Shear Modulus (GPa) = 14.47957 23.97883 19.22920
#
# Velocity S-wave (km/s) = 2.87511 3.69991 3.31328
# Velocity P-wave (km/s) = 5.04125 6.49970 5.81637
#
# Compressibility (1/GPa) = 0.03966597
#
# Stress axis : x y z
#
# Youngs Moduli (GPa) = 25.82052 37.56310 16.84922
#
# Poissons Ratio (x) = 0.45662 0.31786
# Poissons Ratio (y) = 0.31387 0.19370
# Poissons Ratio (z) = 0.48711 0.43183
#
# Static dielectric constant tensor:
#      x y z
#    x 1.604260 0.000000 0.011290 
#    y 0.000000 1.588230 0.000000 
#    z 0.011290 0.000000 1.585610 
# 
# From -- ./inp_files/58285.got.cif
#   From: 2010.05.17/outbox.cif.g08.bks.cpg/sg10_30_cif.got.tgz:58285.got - 2010.06.03 11:33:40.
