data_PCOD9151110
_publ_section_title
;
Structure prediction by ZEFSAII (Michael W. Deem and Ramdas Pophale) SiO2 
 PCOD9151110
Probable space group: P 2/M
;
_chemical_formula_sum "Si O2"
_cell_formula_units_Z 24
_cell_length_a 9.091258
_cell_length_b 8.351626
_cell_length_c 31.510856
_cell_angle_alpha 90.000000
_cell_angle_beta 149.910267
_cell_angle_gamma 90.000000
_cell_volume 1199.502558
_symmetry_space_group_name_H-M "P 2/M"
_symmetry_group_IT_number 10
_symmetry_cell_setting 'monoclinic'
loop_
_space_group_symop_operation_xyz
x,y,z
-x,y,-z
-x,-y,-z
x,-y,z
loop_
_atom_site_type_symbol
_atom_site_label
_atom_site_fract_x
_atom_site_fract_y
_atom_site_fract_z
Si Si1 0.841350 0.805925 0.087797
Si Si2 0.149431 0.189565 0.748997
Si Si3 0.174467 0.195312 0.085385
Si Si4 0.797150 0.312775 0.741234
Si Si5 0.143725 0.189093 0.580225
Si Si6 0.161062 0.310750 0.411824
O O1 0.012393 0.754451 0.087993
O O2 0.000412 0.738096 0.168813
O O3 0.852160 0.000000 0.092836
O O4 0.500000 0.759309 0.000000
O O5 0.487023 0.245465 0.831710
O O6 0.968757 0.275262 0.740798
O O7 0.000350 0.220896 0.666591
O O8 0.148865 0.000000 0.758162
O O9 0.172345 0.000000 0.084931
O O10 0.000000 0.248058 0.000000
O O11 0.729520 0.500000 0.727045
O O12 0.490875 0.218662 0.665877
O O13 0.000000 0.243222 0.500000
O O14 0.000609 0.277183 0.584367
O O15 0.084819 0.000000 0.570228
O O16 0.500000 0.259777 0.500000
O O17 0.155192 0.500000 0.400962
#
# Coordination Sequence:
#
# PCOD9151110 Si02
#       6
#     4   4   4   4   4   4
#     4  10  20  37  63  91 120 157 203 252 302 362
#     4  11  22  38  62  88 118 158 205 252 297 355
#     4   9  18  34  58  88 117 148 191 243 296 348
#     4  12  25  40  60  87 123 161 200 252 312 368
#     4  11  24  42  65  91 119 156 205 254 300 358
#     4  11  24  41  62  90 125 161 196 241 303 365
#
# _framework density 20.008292999999998
#
# number of rings (size 3 to 8) (size 9 to 14) (size 15 to 20)
#    0.000    1.333    0.000    6.000    0.000    9.667 
#    0.000    0.833    0.000    3.500    0.000    0.000 
#    0.000    0.000    0.000    0.000    0.000    0.000 
#
# Total GULP energy -134275.388339 kJ/mol
# GULP energy per Si atom -5594.807847 kJ/mol
# Density = 1.996275 g / cm^3
# Si number density = 20.008293 Si / 1000 Ang^3
#
#
#
# Elastic Constant Matrix: (Units=GPa)
#
#
# Indices 1 2 3 4 5 6 
#
# 1 123.0534 -13.6688 43.3291 0.0000 1.0918 0.0000
# 2 -13.6688 14.6709 -7.7239 0.0000 -2.3566 0.0000
# 3 43.3291 -7.7239 132.8246 0.0002 0.0357 0.0000
# 4 0.0000 0.0000 0.0002 21.6719 0.0000 -2.9885
# 5 1.0918 -2.3566 0.0357 0.0000 42.9454 0.0000
# 6 0.0000 0.0000 0.0000 -2.9885 0.0000 24.2787
#
#
#
# Elastic Compliance Matrix: (Units=1/GPa)
#
#
# Indices 1 2 3 4 5 6 
#
# 1 0.009984 0.007856 -0.002800 0.000000 0.000180 0.000000
# 2 0.007856 0.077141 0.001922 0.000000 0.004032 0.000000
# 3 -0.002800 0.001922 0.008554 0.000000 0.000170 0.000000
# 4 0.000000 0.000000 0.000000 0.046939 0.000000 0.005778
# 5 0.000180 0.004032 0.000170 0.000000 0.023502 0.000000
# 6 0.000000 0.000000 0.000000 0.005778 0.000000 0.041900
#
#
# Mechanical properties :
#
#
# Convention : Reuss Voigt Hill
#
# Bulk Modulus (GPa) = 9.12116 34.93575 22.02845
# Shear Modulus (GPa) = 21.68181 34.35335 28.01758
#
# Velocity S-wave (km/s) = 3.29544 4.14811 3.74612
# Velocity P-wave (km/s) = 4.36446 6.35932 5.45387
#
# Compressibility (1/GPa) = 0.10963523
#
# Stress axis : x y z
#
# Youngs Moduli (GPa) = 100.16475 12.96324 116.90672
#
# Poissons Ratio (x) = -0.10184 0.32733
# Poissons Ratio (y) = -0.78693 -0.22469
# Poissons Ratio (z) = 0.28046 -0.02491
#
# Static dielectric constant tensor:
#      x y z
#    x 1.659430 0.000000 0.005270 
#    y 0.000000 1.684500 0.000000 
#    z 0.005270 0.000000 1.667150 
# 
# From -- ./inp_files/94575.got.cif
#   From: 2010.05.17/outbox.cif.g08.bks.cpg/sg10_48_cif.got.tgz:94575.got - 2010.06.03 11:33:40.
