data_PCOD9151883
_publ_section_title
;
Structure prediction by ZEFSAII (Michael W. Deem and Ramdas Pophale) SiO2 
 PCOD9151883
Probable space group: P 2/M
;
_chemical_formula_sum "Si O2"
_cell_formula_units_Z 28
_cell_length_a 15.167605
_cell_length_b 9.342886
_cell_length_c 11.876350
_cell_angle_alpha 90.000000
_cell_angle_beta 117.527277
_cell_angle_gamma 90.000000
_cell_volume 1492.458551
_symmetry_space_group_name_H-M "P 2/M"
_symmetry_group_IT_number 10
_symmetry_cell_setting 'monoclinic'
loop_
_space_group_symop_operation_xyz
x,y,z
-x,y,-z
-x,-y,-z
x,-y,z
loop_
_atom_site_type_symbol
_atom_site_label
_atom_site_fract_x
_atom_site_fract_y
_atom_site_fract_z
Si Si1 0.000708 0.671031 0.868212
Si Si2 0.698817 0.834142 0.767036
Si Si3 0.616737 0.831712 0.071788
Si Si4 0.498230 0.337438 0.363984
Si Si5 0.224002 0.669837 0.986693
Si Si6 0.321049 0.168415 0.632948
Si Si7 0.831646 0.165783 0.632741
O O1 0.984390 0.500000 0.860408
O O2 0.918100 0.743202 0.741127
O O3 0.110754 0.699142 0.883214
O O4 0.000000 0.718552 0.000000
O O5 0.590015 0.769877 0.719099
O O6 0.768166 0.736633 0.884686
O O7 0.737527 0.823879 0.662425
O O8 0.703263 0.000000 0.803140
O O9 0.661782 0.818925 0.223797
O O10 0.618287 0.000000 0.040405
O O11 0.500000 0.787009 0.000000
O O12 0.689176 0.743175 0.033882
O O13 0.500000 0.342099 0.500000
O O14 0.480671 0.500000 0.312669
O O15 0.599023 0.272373 0.376133
O O16 0.238227 0.500000 0.998306
O O17 0.213319 0.203894 0.515964
O O18 0.339716 0.000000 0.614907
O O19 0.863472 0.000000 0.649610
#
# Coordination Sequence:
#
# PCOD9151883 Si02
#       7
#     4   4   4   4   4   4   4
#     4  10  21  38  59  85 120 157 192 242 301 354
#     4  11  21  34  55  83 117 154 193 238 293 352
#     4  10  22  41  64  88 116 156 202 245 294 352
#     4  11  22  33  51  83 119 154 192 235 291 356
#     4  11  23  39  61  88 118 153 197 246 300 353
#     4  10  21  39  59  83 119 157 198 248 298 348
#     4  10  21  35  56  86 116 152 194 240 293 350
#
# _framework density 18.76099
#
# number of rings (size 3 to 8) (size 9 to 14) (size 15 to 20)
#    0.000    1.571    2.857    2.143    0.000    5.143 
#    0.000    0.714    0.000    4.286    0.000    0.000 
#    0.000    0.000    0.000    0.000    0.000    0.000 
#
# Total GULP energy -156244.045038 kJ/mol
# GULP energy per Si atom -5580.144466 kJ/mol
# Density = 1.871829 g / cm^3
# Si number density = 18.760990 Si / 1000 Ang^3
#
#
#
# Elastic Constant Matrix: (Units=GPa)
#
#
# Indices 1 2 3 4 5 6 
#
# 1 74.2364 45.6025 34.2944 0.0000 16.0035 0.0000
# 2 45.6025 48.9867 26.2403 0.0000 7.7964 0.0000
# 3 34.2944 26.2403 108.1566 0.0000 18.9532 0.0000
# 4 0.0000 0.0000 0.0000 -75.7974 0.0000 23.2017
# 5 16.0035 7.7964 18.9532 0.0000 32.6807 0.0000
# 6 0.0000 0.0000 0.0000 23.2017 0.0000 22.9329
#
#
#
# Elastic Compliance Matrix: (Units=1/GPa)
#
#
# Indices 1 2 3 4 5 6 
#
# 1 0.034517 -0.029554 -0.002280 0.000000 -0.008530 0.000000
# 2 -0.029554 0.048960 -0.003336 0.000000 0.004727 0.000000
# 3 -0.002280 -0.003336 0.011624 0.000000 -0.004829 0.000000
# 4 0.000000 0.000000 0.000000 -0.010073 0.000000 0.010191
# 5 -0.008530 0.004727 -0.004829 0.000000 0.036449 0.000000
# 6 0.000000 0.000000 0.000000 0.010191 0.000000 0.033294
#
#
# Mechanical properties :
#
#
# Convention : Reuss Voigt Hill
#
# Bulk Modulus (GPa) = 40.38261 49.29489 44.83875
# Shear Modulus (GPa) = 21.42572 4.31276 12.86924
#
# Velocity S-wave (km/s) = 3.38307 1.51782 2.62192
# Velocity P-wave (km/s) = 6.06891 5.42254 5.75481
#
# Compressibility (1/GPa) = 0.02476313
#
# Stress axis : x y z
#
# Youngs Moduli (GPa) = 28.97130 20.42477 86.02651
#
# Poissons Ratio (x) = 0.60362 0.19612
# Poissons Ratio (y) = 0.85620 0.28697
# Poissons Ratio (z) = 0.06605 0.06813
#
# Static dielectric constant tensor:
#      x y z
#    x 1.639240 0.000000 0.009420 
#    y 0.000000 1.628460 0.000000 
#    z 0.009420 0.000000 1.685770 
# 
# From -- ./inp_files/49565.got.cif
#   From: 2010.05.17/outbox.cif.g08.bks.cpg/sg10_25_cif.got.tgz:49565.got - 2010.06.03 11:33:40.
