data_PCOD9151217
_publ_section_title
;
Structure prediction by ZEFSAII (Michael W. Deem and Ramdas Pophale) SiO2 
 PCOD9151217
Probable space group: P 2/M
;
_chemical_formula_sum "Si O2"
_cell_formula_units_Z 29
_cell_length_a 14.862503
_cell_length_b 14.651279
_cell_length_c 5.687222
_cell_angle_alpha 90.000000
_cell_angle_beta 77.320298
_cell_angle_gamma 90.000000
_cell_volume 1208.217083
_symmetry_space_group_name_H-M "P 2/M"
_symmetry_group_IT_number 10
_symmetry_cell_setting 'monoclinic'
loop_
_space_group_symop_operation_xyz
x,y,z
-x,y,-z
-x,-y,-z
x,-y,z
loop_
_atom_site_type_symbol
_atom_site_label
_atom_site_fract_x
_atom_site_fract_y
_atom_site_fract_z
Si Si1 0.399953 0.656836 0.643239
Si Si2 0.289322 0.730065 0.343668
Si Si3 0.140748 0.108855 0.063953
Si Si4 0.758443 0.596078 0.982369
Si Si5 0.111059 0.197649 0.586644
Si Si6 0.922641 0.398486 0.246096
Si Si7 0.362657 0.158428 0.928737
Si Si8 0.500000 0.000000 0.000000
O O1 0.500000 0.632062 0.500000
O O2 0.334791 0.648437 0.455706
O O3 0.347823 0.603177 0.876933
O O4 0.389583 0.763871 0.723815
O O5 0.222479 0.792195 0.529468
O O6 0.225352 0.683687 0.183722
O O7 0.367359 0.787649 0.173729
O O8 0.097998 0.150662 0.334871
O O9 0.128698 0.000000 0.080307
O O10 0.095910 0.146882 0.845960
O O11 0.253496 0.127643 0.989595
O O12 0.777566 0.500000 0.852433
O O13 0.825496 0.602719 0.164785
O O14 0.074167 0.301845 0.622633
O O15 0.929710 0.500000 0.355649
O O16 0.000000 0.395667 0.000000
O O17 0.435272 0.078358 0.906616
#
# Coordination Sequence:
#
# PCOD9151217 Si02
#       8
#     4   4   4   4   4   4   4   1
#     4  11  21  38  59  84 121 171 223 276 334 398
#     4  10  20  38  60  83 127 174 219 269 336 399
#     4  11  22  41  67  97 135 182 239 280 334 409
#     4  10  22  40  62  92 128 170 221 279 340 408
#     4  11  21  41  70  98 136 182 224 280 347 410
#     4  10  21  42  73 108 140 173 220 282 356 433
#     4  10  21  35  51  84 121 166 217 274 341 395
#     4  12  20  36  54  80 130 158 214 288 348 402
#
# _framework density 24.002310999999999
#
# number of rings (size 3 to 8) (size 9 to 14) (size 15 to 20)
#    0.000    1.517    3.448    2.897    0.000    3.034 
#    0.000    7.241    0.000    9.931    0.000    0.000 
#    0.000    0.000    0.000    0.000    0.000    0.000 
#
# Total GULP energy -161441.837499 kJ/mol
# GULP energy per Si atom -5566.959914 kJ/mol
# Density = 2.394768 g / cm^3
# Si number density = 24.002311 Si / 1000 Ang^3
#
#
#
# Elastic Constant Matrix: (Units=GPa)
#
#
# Indices 1 2 3 4 5 6 
#
# 1 79.6042 22.8854 47.1195 0.0000 -6.5242 0.0000
# 2 22.8854 176.1043 55.7689 0.0000 13.6322 0.0000
# 3 47.1195 55.7689 130.0256 0.0000 -5.6359 0.0000
# 4 0.0000 0.0000 0.0000 25.1327 0.0000 -3.9685
# 5 -6.5242 13.6322 -5.6359 0.0000 42.0351 0.0000
# 6 0.0000 0.0000 0.0000 -3.9685 0.0000 3.7767
#
#
#
# Elastic Compliance Matrix: (Units=1/GPa)
#
#
# Indices 1 2 3 4 5 6 
#
# 1 0.016151 -0.000486 -0.005561 0.000000 0.001919 0.000000
# 2 -0.000486 0.006863 -0.002884 0.000000 -0.002688 0.000000
# 3 -0.005561 -0.002884 0.011010 0.000000 0.001548 0.000000
# 4 0.000000 0.000000 0.000000 0.047704 0.000000 0.050127
# 5 0.001919 -0.002688 0.001548 0.000000 0.025167 0.000000
# 6 0.000000 0.000000 0.000000 0.050127 0.000000 0.317458
#
#
# Mechanical properties :
#
#
# Convention : Reuss Voigt Hill
#
# Bulk Modulus (GPa) = 61.87565 70.80908 66.34237
# Shear Modulus (GPa) = 11.17063 31.51959 21.34511
#
# Velocity S-wave (km/s) = 2.15965 3.62773 2.98534
# Velocity P-wave (km/s) = 5.66161 6.86383 6.29150
#
# Compressibility (1/GPa) = 0.01616145
#
# Stress axis : x y z
#
# Youngs Moduli (GPa) = 61.91572 145.70939 90.82578
#
# Poissons Ratio (x) = 0.07086 0.50510
# Poissons Ratio (y) = 0.03011 0.26193
# Poissons Ratio (z) = 0.34432 0.42020
#
# Static dielectric constant tensor:
#      x y z
#    x 1.960890 0.000000 0.039940 
#    y 0.000000 1.888800 0.000000 
#    z 0.039940 0.000000 2.015350 
# 
# From -- ./inp_files/11283.got.cif
#   From: 2010.05.17/outbox.cif.g08.bks.cpg/sg10_6_cif.got.tgz:11283.got - 2010.06.03 11:33:40.
