data_PCOD9151297
_publ_section_title
;
Structure prediction by ZEFSAII (Michael W. Deem and Ramdas Pophale) SiO2 
 PCOD9151297
Probable space group: P 2/M
;
_chemical_formula_sum "Si O2"
_cell_formula_units_Z 29
_cell_length_a 8.281839
_cell_length_b 9.108580
_cell_length_c 22.698865
_cell_angle_alpha 90.000000
_cell_angle_beta 131.284174
_cell_angle_gamma 90.000000
_cell_volume 1286.706856
_symmetry_space_group_name_H-M "P 2/M"
_symmetry_group_IT_number 10
_symmetry_cell_setting 'monoclinic'
loop_
_space_group_symop_operation_xyz
x,y,z
-x,y,-z
-x,-y,-z
x,-y,z
loop_
_atom_site_type_symbol
_atom_site_label
_atom_site_fract_x
_atom_site_fract_y
_atom_site_fract_z
Si Si1 0.131203 0.324773 0.120175
Si Si2 0.683854 0.674170 0.967173
Si Si3 0.673117 0.232547 0.402654
Si Si4 0.237849 0.323403 0.819822
Si Si5 0.726323 0.164419 0.544835
Si Si6 0.185562 0.168949 0.692598
Si Si7 0.215192 0.176106 0.257343
Si Si8 0.000000 0.500000 0.500000
O O1 0.136370 0.500000 0.135888
O O2 0.233943 0.309060 0.080404
O O3 0.243801 0.229727 0.197001
O O4 0.881882 0.273320 0.054497
O O5 0.673008 0.500000 0.976338
O O6 0.438586 0.726865 0.908803
O O7 0.747672 0.151979 0.479842
O O8 0.717072 0.165078 0.349199
O O9 0.413995 0.241245 0.342283
O O10 0.818205 0.375505 0.440715
O O11 0.217685 0.500000 0.819247
O O12 0.291727 0.274518 0.765865
O O13 0.013837 0.244481 0.779810
O O14 0.500000 0.244234 0.500000
O O15 0.941707 0.227464 0.624001
O O16 0.708761 0.000000 0.566488
O O17 0.182295 0.000000 0.713673
O O18 0.216260 0.000000 0.262759
#
# Coordination Sequence:
#
# PCOD9151297 Si02
#       8
#     4   4   4   4   4   4   4   1
#     4   9  18  38  68  97 128 169 217 268 318 377
#     4   8  17  37  64  95 129 170 217 264 319 379
#     4  12  25  44  65  91 127 161 210 264 318 377
#     4  11  24  40  62  94 131 173 219 268 319 378
#     4  10  20  38  62  88 119 162 202 245 305 377
#     4  11  22  39  63  90 123 163 208 257 317 381
#     4  12  26  43  63  93 131 170 214 262 327 389
#     4  12  28  44  68 100 124 160 216 272 316 382
#
# _framework density 22.538157999999999
#
# number of rings (size 3 to 8) (size 9 to 14) (size 15 to 20)
#    0.000    1.517    1.379    4.552    2.897    2.759 
#    0.000    6.552    0.000    0.000    0.000    0.000 
#    0.000    0.000    0.000    0.000    0.000    0.000 
#
# Total GULP energy -161636.311009 kJ/mol
# GULP energy per Si atom -5573.665897 kJ/mol
# Density = 2.248686 g / cm^3
# Si number density = 22.538158 Si / 1000 Ang^3
#
#
#
# Elastic Constant Matrix: (Units=GPa)
#
#
# Indices 1 2 3 4 5 6 
#
# 1 55.5530 17.8180 4.7319 0.0000 15.7675 0.0000
# 2 17.8180 93.5607 42.4578 0.0000 11.0463 0.0000
# 3 4.7319 42.4578 150.3008 0.0000 30.8775 0.0000
# 4 0.0000 0.0000 0.0000 11.5630 0.0000 2.9506
# 5 15.7675 11.0463 30.8775 0.0000 49.3275 0.0000
# 6 0.0000 0.0000 0.0000 2.9506 0.0000 43.7914
#
#
#
# Elastic Compliance Matrix: (Units=1/GPa)
#
#
# Indices 1 2 3 4 5 6 
#
# 1 0.021145 -0.004072 0.001934 0.000000 -0.007058 0.000000
# 2 -0.004072 0.013063 -0.003705 0.000000 0.000695 0.000000
# 3 0.001934 -0.003705 0.008716 0.000000 -0.005245 0.000000
# 4 0.000000 0.000000 0.000000 0.087995 0.000000 -0.005929
# 5 -0.007058 0.000695 -0.005245 0.000000 0.025656 0.000000
# 6 0.000000 0.000000 0.000000 -0.005929 0.000000 0.023235
#
#
# Mechanical properties :
#
#
# Convention : Reuss Voigt Hill
#
# Bulk Modulus (GPa) = 32.00922 47.71444 39.86183
# Shear Modulus (GPa) = 24.76370 36.56351 30.66360
#
# Velocity S-wave (km/s) = 3.31833 4.03214 3.69252
# Velocity P-wave (km/s) = 5.37725 6.54935 5.99203
#
# Compressibility (1/GPa) = 0.03124100
#
# Stress axis : x y z
#
# Youngs Moduli (GPa) = 47.29191 76.55358 114.72552
#
# Poissons Ratio (x) = 0.31169 -0.22193
# Poissons Ratio (y) = 0.19255 0.42502
# Poissons Ratio (z) = -0.09148 0.28361
#
# Static dielectric constant tensor:
#      x y z
#    x 1.976520 0.000000 0.018510 
#    y 0.000000 1.773860 0.000000 
#    z 0.018510 0.000000 1.833690 
# 
# From -- ./inp_files/92181.got.cif
#   From: 2010.05.17/outbox.cif.g08.bks.cpg/sg10_47_cif.got.tgz:92181.got - 2010.06.03 11:33:40.
