data_PCOD9151730
_publ_section_title
;
Structure prediction by ZEFSAII (Michael W. Deem and Ramdas Pophale) SiO2 
 PCOD9151730
Probable space group: P 2/M
;
_chemical_formula_sum "Si O2"
_cell_formula_units_Z 28
_cell_length_a 22.884695
_cell_length_b 14.114204
_cell_length_c 10.090499
_cell_angle_alpha 90.000000
_cell_angle_beta 152.006651
_cell_angle_gamma 90.000000
_cell_volume 1529.778757
_symmetry_space_group_name_H-M "P 2/M"
_symmetry_group_IT_number 10
_symmetry_cell_setting 'monoclinic'
loop_
_space_group_symop_operation_xyz
x,y,z
-x,y,-z
-x,-y,-z
x,-y,z
loop_
_atom_site_type_symbol
_atom_site_label
_atom_site_fract_x
_atom_site_fract_y
_atom_site_fract_z
Si Si1 0.799731 0.772192 0.339603
Si Si2 0.018640 0.389869 0.194160
Si Si3 0.382243 0.000000 0.362228
Si Si4 0.978612 0.110460 0.116377
Si Si5 0.209669 0.278881 0.194051
Si Si6 0.352398 0.798666 0.709693
Si Si7 0.350292 0.790420 0.228177
Si Si8 0.377045 0.000000 0.664112
O O1 0.692509 0.786863 0.232364
O O2 0.878390 0.679271 0.537507
O O3 0.895074 0.859404 0.554234
O O4 0.733919 0.766470 0.066854
O O5 0.050139 0.500000 0.269501
O O6 0.887693 0.364476 0.001492
O O7 0.000000 0.367379 0.000000
O O8 0.500000 0.000000 0.500000
O O9 0.320500 0.899911 0.206129
O O10 0.410258 0.000000 0.575522
O O11 0.947356 0.000000 0.074358
O O12 0.877960 0.185152 0.969319
O O13 0.000000 0.125502 0.000000
O O14 0.289487 0.277404 0.488152
O O15 0.302427 0.270124 0.256823
O O16 0.311677 0.902546 0.573754
O O17 0.500000 0.793250 0.000000
O O18 0.500000 0.782001 0.500000
O O19 0.500000 0.000000 0.000000
#
# Coordination Sequence:
#
# PCOD9151730 Si02
#       8
#     4   4   2   4   4   4   4   2
#     4  11  22  39  59  90 118 160 205 247 309 365
#     4  10  21  42  71  98 118 145 197 265 318 365
#     4  10  22  36  48  77 124 174 206 242 286 337
#     4  10  21  34  55  83 115 154 200 260 300 337
#     4  11  20  39  60  87 119 160 199 246 307 359
#     4  11  21  33  57  84 120 162 214 249 285 354
#     4  11  25  39  58  84 132 170 203 246 297 359
#     4  10  22  32  52  83 113 171 223 239 273 344
#
# _framework density 18.303301000000001
#
# number of rings (size 3 to 8) (size 9 to 14) (size 15 to 20)
#    0.000    1.429    4.286    1.714   10.000    2.286 
#    0.000    2.143    0.000    5.143    0.000    0.000 
#    0.000    0.000    0.000    0.000    0.000    0.000 
#
# Total GULP energy -156248.652706 kJ/mol
# GULP energy per Si atom -5580.309025 kJ/mol
# Density = 1.826164 g / cm^3
# Si number density = 18.303301 Si / 1000 Ang^3
#
#
#
# Elastic Constant Matrix: (Units=GPa)
#
#
# Indices 1 2 3 4 5 6 
#
# 1 82.5191 7.4408 3.5491 0.0000 -0.2397 0.0000
# 2 7.4408 70.4482 19.7980 0.0000 -6.2370 0.0000
# 3 3.5491 19.7980 72.0470 0.0000 -1.2124 0.0000
# 4 0.0000 0.0000 0.0000 11.6577 0.0000 4.2150
# 5 -0.2397 -6.2370 -1.2124 0.0000 35.3284 0.0000
# 6 0.0000 0.0000 0.0000 4.2150 0.0000 12.0592
#
#
#
# Elastic Compliance Matrix: (Units=1/GPa)
#
#
# Indices 1 2 3 4 5 6 
#
# 1 0.012240 -0.001230 -0.000267 0.000000 -0.000143 0.000000
# 2 -0.001230 0.015744 -0.004221 0.000000 0.002626 0.000000
# 3 -0.000267 -0.004221 0.015049 0.000000 -0.000231 0.000000
# 4 0.000000 0.000000 0.000000 0.098190 0.000000 -0.034320
# 5 -0.000143 0.002626 -0.000231 0.000000 0.028761 0.000000
# 6 0.000000 0.000000 0.000000 -0.034320 0.000000 0.094921
#
#
# Mechanical properties :
#
#
# Convention : Reuss Voigt Hill
#
# Bulk Modulus (GPa) = 31.65065 31.84336 31.74701
# Shear Modulus (GPa) = 17.42927 24.75747 21.09337
#
# Velocity S-wave (km/s) = 3.08920 3.68179 3.39844
# Velocity P-wave (km/s) = 5.48216 5.95898 5.72554
#
# Compressibility (1/GPa) = 0.03159492
#
# Stress axis : x y z
#
# Youngs Moduli (GPa) = 81.69640 63.51770 66.44902
#
# Poissons Ratio (x) = 0.07815 0.01776
# Poissons Ratio (y) = 0.10052 0.28051
# Poissons Ratio (z) = 0.02184 0.26814
#
# Static dielectric constant tensor:
#      x y z
#    x 1.667880 0.000000 0.063930 
#    y 0.000000 1.643300 0.000000 
#    z 0.063930 0.000000 1.687610 
# 
# From -- ./inp_files/29459.got.cif
#   From: 2010.05.17/outbox.cif.g08.bks.cpg/sg10_15_cif.got.tgz:29459.got - 2010.06.03 11:33:40.
