data_PCOD9151851
_publ_section_title
;
Structure prediction by ZEFSAII (Michael W. Deem and Ramdas Pophale) SiO2 
 PCOD9151851
Probable space group: P 2/M
;
_chemical_formula_sum "Si O2"
_cell_formula_units_Z 16
_cell_length_a 9.215237
_cell_length_b 14.697033
_cell_length_c 9.215234
_cell_angle_alpha 90.000000
_cell_angle_beta 46.596535
_cell_angle_gamma 90.000000
_cell_volume 906.771708
_symmetry_space_group_name_H-M "P 2/M"
_symmetry_group_IT_number 10
_symmetry_cell_setting 'monoclinic'
loop_
_space_group_symop_operation_xyz
x,y,z
-x,y,-z
-x,-y,-z
x,-y,z
loop_
_atom_site_type_symbol
_atom_site_label
_atom_site_fract_x
_atom_site_fract_y
_atom_site_fract_z
Si Si1 0.127410 0.500000 0.059693
Si Si2 0.905465 0.355962 0.405466
Si Si3 0.611491 0.000000 0.695673
Si Si4 0.195673 0.000000 0.111491
Si Si5 0.559692 0.500000 0.627411
Si Si6 0.096328 0.148458 0.596329
O O1 0.054965 0.412411 0.200105
O O2 0.360749 0.500000 0.860749
O O3 0.000000 0.500000 0.000000
O O4 0.700104 0.412411 0.554966
O O5 0.876075 0.252166 0.376075
O O6 0.000000 0.355135 0.500000
O O7 0.704775 0.000000 0.795225
O O8 0.702934 0.910949 0.556515
O O9 0.375060 0.000000 0.875060
O O10 0.056515 0.910949 0.202933
O O11 0.500000 0.500000 0.500000
O O12 0.000000 0.150367 0.500000
#
# Coordination Sequence:
#
# PCOD9151851 Si02
#       6
#     2   4   2   2   2   4
#     4  11  21  37  56  73 102 141 179 218 267 321
#     4  10  21  35  54  83 111 134 175 227 266 305
#     4   8  13  23  42  67 101 139 167 196 249 311
#     4   8  13  23  42  67 101 139 167 196 249 311
#     4  11  21  37  56  73 102 141 179 218 267 321
#     4   8  15  27  42  69 107 136 161 207 259 301
#
# _framework density 17.645015000000001
#
# number of rings (size 3 to 8) (size 9 to 14) (size 15 to 20)
#    0.000    2.750    2.500    3.000    0.000    4.000 
#    0.000    5.000    0.000    0.000    0.000    7.000 
#    0.000    0.000    0.000    0.000    0.000    0.000 
#
# Total GULP energy -89168.293087 kJ/mol
# GULP energy per Si atom -5573.018318 kJ/mol
# Density = 1.760485 g / cm^3
# Si number density = 17.645015 Si / 1000 Ang^3
#
#
#
# Elastic Constant Matrix: (Units=GPa)
#
#
# Indices 1 2 3 4 5 6 
#
# 1 47.0230 39.3720 35.7865 0.0000 -16.8629 0.0000
# 2 39.3720 207.0867 94.8412 0.0000 -33.0529 0.0000
# 3 35.7865 94.8412 158.5708 0.0000 -49.6058 0.0000
# 4 0.0000 0.0000 0.0000 0.6536 0.0000 -5.6784
# 5 -16.8629 -33.0529 -49.6058 0.0000 39.2788 0.0000
# 6 0.0000 0.0000 0.0000 -5.6784 0.0000 -8.8756
#
#
#
# Elastic Compliance Matrix: (Units=1/GPa)
#
#
# Indices 1 2 3 4 5 6 
#
# 1 0.028066 -0.003214 -0.002461 0.000000 0.006237 0.000000
# 2 -0.003214 0.007040 -0.003412 0.000000 0.000236 0.000000
# 3 -0.002461 -0.003412 0.012685 0.000000 0.012093 0.000000
# 4 0.000000 0.000000 0.000000 0.233290 0.000000 -0.149253
# 5 0.006237 0.000236 0.012093 0.000000 0.043608 0.000000
# 6 0.000000 0.000000 0.000000 -0.149253 0.000000 -0.017180
#
#
# Mechanical properties :
#
#
# Convention : Reuss Voigt Hill
#
# Bulk Modulus (GPa) = 33.76127 83.63110 58.69618
# Shear Modulus (GPa) = 14.90072 22.39010 18.64541
#
# Velocity S-wave (km/s) = 2.90913 3.56605 3.25421
# Velocity P-wave (km/s) = 5.51899 8.02839 6.88891
#
# Compressibility (1/GPa) = 0.02961974
#
# Stress axis : x y z
#
# Youngs Moduli (GPa) = 35.62982 142.04690 78.83174
#
# Poissons Ratio (x) = 0.45647 0.19399
# Poissons Ratio (y) = 0.11450 0.26894
# Poissons Ratio (z) = 0.08768 0.48460
#
# Static dielectric constant tensor:
#      x y z
#    x 1.593310 0.000000 0.003700 
#    y 0.000000 1.599030 0.000000 
#    z 0.003700 0.000000 1.587100 
# 
# From -- ./inp_files/18321.got.cif
#   From: 2010.05.17/outbox.cif.g08.bks.cpg/sg10_10_cif.got.tgz:18321.got - 2010.06.03 11:33:40.
