data_PCOD9151350
_publ_section_title
;
Structure prediction by ZEFSAII (Michael W. Deem and Ramdas Pophale) SiO2 
 PCOD9151350
Probable space group: P 2/M
;
_chemical_formula_sum "Si O2"
_cell_formula_units_Z 28
_cell_length_a 9.445377
_cell_length_b 8.120194
_cell_length_c 32.585128
_cell_angle_alpha 90.000000
_cell_angle_beta 35.796279
_cell_angle_gamma 90.000000
_cell_volume 1461.808448
_symmetry_space_group_name_H-M "P 2/M"
_symmetry_group_IT_number 10
_symmetry_cell_setting 'monoclinic'
loop_
_space_group_symop_operation_xyz
x,y,z
-x,y,-z
-x,-y,-z
x,-y,z
loop_
_atom_site_type_symbol
_atom_site_label
_atom_site_fract_x
_atom_site_fract_y
_atom_site_fract_z
Si Si1 0.747991 0.500000 0.536920
Si Si2 0.716761 0.199376 0.068305
Si Si3 0.833889 0.804579 0.209714
Si Si4 0.213229 0.500000 0.566515
Si Si5 0.292414 0.682758 0.671253
Si Si6 0.614809 0.696222 0.929808
Si Si7 0.980622 0.185031 0.339483
Si Si8 0.445942 0.195722 0.804652
O O1 0.833286 0.500000 0.470364
O O2 0.568247 0.652120 0.590967
O O3 0.000000 0.500000 0.500000
O O4 0.563353 0.264754 0.066064
O O5 0.621202 0.261912 0.134743
O O6 0.695173 0.000000 0.071995
O O7 0.000000 0.241124 0.000000
O O8 0.727353 0.731237 0.276799
O O9 0.702301 0.737774 0.199559
O O10 0.120347 0.771654 0.139785
O O11 0.792662 0.000000 0.221178
O O12 0.500000 0.500000 0.500000
O O13 0.120911 0.335038 0.610014
O O14 0.178568 0.500000 0.693419
O O15 0.145685 0.799744 0.675384
O O16 0.645824 0.500000 0.925322
O O17 0.500000 0.755090 0.000000
O O18 0.267951 0.209664 0.268772
O O19 0.935320 0.000000 0.366384
O O20 0.387651 0.000000 0.819997
#
# Coordination Sequence:
#
# PCOD9151350 Si02
#       8
#     2   4   4   2   4   4   4   4
#     4  10  24  42  66  92 131 166 203 256 312 384
#     4  10  20  38  64  89 117 158 206 256 309 363
#     4  11  22  39  62  89 123 161 210 260 309 371
#     4  12  22  46  64  98 127 162 215 254 314 384
#     4  10  21  40  61  91 125 163 206 250 311 378
#     4  11  24  40  58  86 125 164 206 254 313 377
#     4  11  22  40  67  94 127 167 210 261 315 374
#     4   9  21  38  58  91 124 157 206 258 308 371
#
# _framework density 19.154354000000001
#
# number of rings (size 3 to 8) (size 9 to 14) (size 15 to 20)
#    0.429    1.143    2.143    3.000    2.000    4.000 
#    2.571    0.000    0.000    2.143    0.000    0.000 
#    0.000    0.000    0.000    0.000    0.000    0.000 
#
# Total GULP energy -156229.949740 kJ/mol
# GULP energy per Si atom -5579.641062 kJ/mol
# Density = 1.911076 g / cm^3
# Si number density = 19.154354 Si / 1000 Ang^3
#
#
#
# Elastic Constant Matrix: (Units=GPa)
#
#
# Indices 1 2 3 4 5 6 
#
# 1 159.7143 17.2510 51.7955 0.0000 18.7034 0.0000
# 2 17.2510 71.4916 40.0455 0.0000 7.1420 0.0000
# 3 51.7955 40.0455 88.1625 0.0000 30.2759 0.0000
# 4 0.0000 0.0000 0.0000 26.8723 0.0000 6.9153
# 5 18.7034 7.1420 30.2759 0.0000 37.2762 0.0000
# 6 0.0000 0.0000 0.0000 6.9153 0.0000 38.3086
#
#
#
# Elastic Compliance Matrix: (Units=1/GPa)
#
#
# Indices 1 2 3 4 5 6 
#
# 1 0.007779 0.000911 -0.004970 0.000000 -0.000041 0.000000
# 2 0.000911 0.019458 -0.011006 0.000000 0.004754 0.000000
# 3 -0.004970 -0.011006 0.024520 0.000000 -0.015313 0.000000
# 4 0.000000 0.000000 0.000000 0.039026 0.000000 -0.007045
# 5 -0.000041 0.004754 -0.015313 0.000000 0.038374 0.000000
# 6 0.000000 0.000000 0.000000 -0.007045 0.000000 0.027376
#
#
# Mechanical properties :
#
#
# Convention : Reuss Voigt Hill
#
# Bulk Modulus (GPa) = 46.23727 59.72806 52.98266
# Shear Modulus (GPa) = 25.79020 34.50985 30.15002
#
# Velocity S-wave (km/s) = 3.67337 4.24921 3.97174
# Velocity P-wave (km/s) = 6.49486 7.43805 6.98240
#
# Compressibility (1/GPa) = 0.02162758
#
# Stress axis : x y z
#
# Youngs Moduli (GPa) = 128.54471 51.39333 40.78242
#
# Poissons Ratio (x) = -0.04681 0.20269
# Poissons Ratio (y) = -0.11708 0.44884
# Poissons Ratio (z) = 0.63886 0.56563
#
# Static dielectric constant tensor:
#      x y z
#    x 1.291840 0.000000 -0.074130 
#    y 0.000000 1.673660 0.000000 
#    z -0.074130 0.000000 1.615910 
# 
# From -- ./inp_files/94516.got.cif
#   From: 2010.05.17/outbox.cif.g08.bks.cpg/sg10_48_cif.got.tgz:94516.got - 2010.06.03 11:33:40.
