data_PCOD9151708
_publ_section_title
;
Structure prediction by ZEFSAII (Michael W. Deem and Ramdas Pophale) SiO2 
 PCOD9151708
Probable space group: P 2/M
;
_chemical_formula_sum "Si O2"
_cell_formula_units_Z 32
_cell_length_a 11.543404
_cell_length_b 7.563473
_cell_length_c 21.051442
_cell_angle_alpha 90.000000
_cell_angle_beta 126.454188
_cell_angle_gamma 90.000000
_cell_volume 1478.333658
_symmetry_space_group_name_H-M "P 2/M"
_symmetry_group_IT_number 10
_symmetry_cell_setting 'monoclinic'
loop_
_space_group_symop_operation_xyz
x,y,z
-x,y,-z
-x,-y,-z
x,-y,z
loop_
_atom_site_type_symbol
_atom_site_label
_atom_site_fract_x
_atom_site_fract_y
_atom_site_fract_z
Si Si1 0.842215 0.213740 0.759259
Si Si2 0.872750 0.214921 0.913741
Si Si3 0.069117 0.283568 0.620052
Si Si4 0.544226 0.784795 0.822176
Si Si5 0.876336 0.705862 0.223562
Si Si6 0.784931 0.711246 0.462612
Si Si7 0.418641 0.205124 0.912578
Si Si8 0.477791 0.210938 0.328085
O O1 0.886447 0.269394 0.844954
O O2 0.676865 0.274785 0.696758
O O3 0.962654 0.276020 0.750084
O O4 0.843353 0.000000 0.757497
O O5 0.712589 0.262229 0.884123
O O6 0.877358 0.000000 0.915468
O O7 0.000000 0.279822 0.000000
O O8 0.072207 0.500000 0.622896
O O9 0.126821 0.218995 0.706054
O O10 0.161419 0.225106 0.589301
O O11 0.904062 0.228289 0.552099
O O12 0.460359 0.719638 0.856873
O O13 0.498831 0.721484 0.736882
O O14 0.532689 0.000000 0.816529
O O15 0.840641 0.500000 0.214532
O O16 0.753907 0.788749 0.139443
O O17 0.797046 0.500000 0.465160
O O18 0.618039 0.753808 0.415520
O O19 0.464694 0.000000 0.924910
O O20 0.500000 0.283809 0.000000
O O21 0.463554 0.000000 0.318201
#
# Coordination Sequence:
#
# PCOD9151708 Si02
#       8
#     4   4   4   4   4   4   4   4
#     4   9  19  34  51  73 100 134 172 208 250 301
#     4   8  14  25  48  74  93 119 162 212 247 279
#     4   8  17  33  52  77 103 133 169 206 251 301
#     4   8  15  28  45  71 101 126 157 200 249 295
#     4  11  22  36  53  72 103 138 168 205 254 304
#     4   9  16  31  56  78  99 128 170 213 247 297
#     4  10  21  34  52  77 102 131 168 207 246 300
#     4   9  17  31  50  75 105 131 161 209 260 299
#
# _framework density 21.645992
#
# number of rings (size 3 to 8) (size 9 to 14) (size 15 to 20)
#    0.000    3.000    0.000    3.375    1.750    0.750 
#    0.000    3.750    0.000    4.875    0.000    0.000 
#    0.000    0.000    0.000    0.000    0.000    0.000 
#
# Total GULP energy -178511.032365 kJ/mol
# GULP energy per Si atom -5578.469761 kJ/mol
# Density = 2.159672 g / cm^3
# Si number density = 21.645992 Si / 1000 Ang^3
#
#
#
# Elastic Constant Matrix: (Units=GPa)
#
#
# Indices 1 2 3 4 5 6 
#
# 1 53.3833 -3.7771 22.9000 0.0000 3.9186 0.0000
# 2 -3.7771 49.1778 -0.2097 0.0000 -5.0120 0.0000
# 3 22.9000 -0.2097 107.8939 0.0000 26.3291 0.0000
# 4 0.0000 0.0000 0.0000 11.1131 0.0000 9.6585
# 5 3.9186 -5.0120 26.3291 0.0000 26.3419 0.0000
# 6 0.0000 0.0000 0.0000 9.6585 0.0000 15.2668
#
#
#
# Elastic Compliance Matrix: (Units=1/GPa)
#
#
# Indices 1 2 3 4 5 6 
#
# 1 0.020823 0.001802 -0.004952 0.000000 0.002194 0.000000
# 2 0.001802 0.021015 -0.001656 0.000000 0.005385 0.000000
# 3 -0.004952 -0.001656 0.013508 0.000000 -0.013080 0.000000
# 4 0.000000 0.000000 0.000000 0.199892 0.000000 -0.126460
# 5 0.002194 0.005385 -0.013080 0.000000 0.051734 0.000000
# 6 0.000000 0.000000 0.000000 -0.126460 0.000000 0.145506
#
#
# Mechanical properties :
#
#
# Convention : Reuss Voigt Hill
#
# Bulk Modulus (GPa) = 21.86534 27.58683 24.72609
# Shear Modulus (GPa) = 10.47487 23.31381 16.89434
#
# Velocity S-wave (km/s) = 2.20220 3.28540 2.79674
# Velocity P-wave (km/s) = 4.07302 5.21191 4.67726
#
# Compressibility (1/GPa) = 0.04573448
#
# Stress axis : x y z
#
# Youngs Moduli (GPa) = 48.02388 47.58606 74.03059
#
# Poissons Ratio (x) = -0.08574 0.36657
# Poissons Ratio (y) = -0.08653 0.12258
# Poissons Ratio (z) = 0.23779 0.07879
#
# Static dielectric constant tensor:
#      x y z
#    x 1.793460 0.000000 0.016190 
#    y 0.000000 1.839950 0.000000 
#    z 0.016190 0.000000 1.796020 
# 
# From -- ./inp_files/83603.got.cif
#   From: 2010.05.17/outbox.cif.g08.bks.cpg/sg10_42_cif.got.tgz:83603.got - 2010.06.03 11:33:40.
