data_PCOD9151754
_publ_section_title
;
Structure prediction by ZEFSAII (Michael W. Deem and Ramdas Pophale) SiO2 
 PCOD9151754
Probable space group: P 2/M
;
_chemical_formula_sum "Si O2"
_cell_formula_units_Z 32
_cell_length_a 9.574760
_cell_length_b 14.688763
_cell_length_c 24.082743
_cell_angle_alpha 90.000000
_cell_angle_beta 35.602479
_cell_angle_gamma 90.000000
_cell_volume 1971.787246
_symmetry_space_group_name_H-M "P 2/M"
_symmetry_group_IT_number 10
_symmetry_cell_setting 'monoclinic'
loop_
_space_group_symop_operation_xyz
x,y,z
-x,y,-z
-x,-y,-z
x,-y,z
loop_
_atom_site_type_symbol
_atom_site_label
_atom_site_fract_x
_atom_site_fract_y
_atom_site_fract_z
Si Si1 0.225244 0.610749 0.090193
Si Si2 0.888528 0.390621 0.096095
Si Si3 0.889511 0.711305 0.404320
Si Si4 0.810434 0.101446 0.477959
Si Si5 0.656361 0.605686 0.582821
Si Si6 0.361798 0.898487 0.344130
Si Si7 0.406040 0.709819 0.284128
Si Si8 0.863601 0.394348 0.300768
O O1 0.227504 0.500000 0.089538
O O2 0.070561 0.637698 0.086377
O O3 0.084713 0.637580 0.191424
O O4 0.500000 0.641999 0.000000
O O5 0.858029 0.500000 0.109782
O O6 0.631460 0.344656 0.188041
O O7 0.000000 0.369855 0.000000
O O8 0.789930 0.813417 0.444041
O O9 0.788223 0.652766 0.488605
O O10 0.822989 0.665139 0.368194
O O11 0.178323 0.712889 0.317025
O O12 0.653755 0.114478 0.584378
O O13 0.086036 0.102910 0.411239
O O14 0.764542 0.000000 0.470282
O O15 0.726832 0.500000 0.565767
O O16 0.688741 0.661014 0.629001
O O17 0.373220 0.607737 0.660493
O O18 0.481232 0.812145 0.276831
O O19 0.457296 0.000000 0.301854
O O20 0.903063 0.500000 0.304685
#
# Coordination Sequence:
#
# PCOD9151754 Si02
#       8
#     4   4   4   4   4   4   4   4
#     4   9  18  34  53  68  88 126 173 207 239 289
#     4  10  21  35  51  73 101 128 157 207 260 288
#     4  11  21  30  48  76 100 132 172 201 237 289
#     4   8  14  27  46  69  98 128 163 205 243 283
#     4  11  21  34  46  64 102 144 170 194 235 288
#     4   8  14  27  48  71  96 128 162 200 247 294
#     4  11  20  32  51  76 101 125 166 210 249 293
#     4  10  21  35  48  66  98 139 173 201 237 288
#
# _framework density 16.228930999999999
#
# number of rings (size 3 to 8) (size 9 to 14) (size 15 to 20)
#    0.000    2.250    2.500    2.250    1.750    3.500 
#    0.000    0.000    0.000    2.625    0.000    0.000 
#    0.000    1.000    0.000    0.000    0.000    0.000 
#
# Total GULP energy -178468.509585 kJ/mol
# GULP energy per Si atom -5577.140925 kJ/mol
# Density = 1.619199 g / cm^3
# Si number density = 16.228931 Si / 1000 Ang^3
#
#
#
# Elastic Constant Matrix: (Units=GPa)
#
#
# Indices 1 2 3 4 5 6 
#
# 1 26.5815 9.9268 1.0678 0.0000 1.5826 0.0000
# 2 9.9268 73.4229 13.4166 0.0000 9.8775 0.0000
# 3 1.0678 13.4166 63.1147 0.0000 -3.4943 0.0000
# 4 0.0000 0.0000 0.0000 13.1542 0.0000 6.9164
# 5 1.5826 9.8775 -3.4943 0.0000 25.4534 0.0000
# 6 0.0000 0.0000 0.0000 6.9164 0.0000 7.2153
#
#
#
# Elastic Compliance Matrix: (Units=1/GPa)
#
#
# Indices 1 2 3 4 5 6 
#
# 1 0.039637 -0.005402 0.000461 0.000000 -0.000305 0.000000
# 2 -0.005402 0.015864 -0.003631 0.000000 -0.006319 0.000000
# 3 0.000461 -0.003631 0.016812 0.000000 0.003688 0.000000
# 4 0.000000 0.000000 0.000000 0.153274 0.000000 -0.146925
# 5 -0.000305 -0.006319 0.003688 0.000000 0.042265 0.000000
# 6 0.000000 0.000000 0.000000 -0.146925 0.000000 0.279434
#
#
# Mechanical properties :
#
#
# Convention : Reuss Voigt Hill
#
# Bulk Modulus (GPa) = 18.12601 23.54904 20.83752
# Shear Modulus (GPa) = 8.57898 18.41177 13.49537
#
# Velocity S-wave (km/s) = 2.30167 3.37189 2.88681
# Velocity P-wave (km/s) = 4.27280 5.44992 4.89685
#
# Compressibility (1/GPa) = 0.05516935
#
# Stress axis : x y z
#
# Youngs Moduli (GPa) = 25.22879 63.03760 59.48014
#
# Poissons Ratio (x) = 0.34054 -0.02741
# Poissons Ratio (y) = 0.13629 0.21595
# Poissons Ratio (z) = -0.01163 0.22886
#
# Static dielectric constant tensor:
#      x y z
#    x 1.547810 0.000000 -0.009930 
#    y 0.000000 1.556410 0.000000 
#    z -0.009930 0.000000 1.526980 
# 
# From -- ./inp_files/29497.got.cif
#   From: 2010.05.17/outbox.cif.g08.bks.cpg/sg10_15_cif.got.tgz:29497.got - 2010.06.03 11:33:40.
