data_PCOD9151174
_publ_section_title
;
Structure prediction by ZEFSAII (Michael W. Deem and Ramdas Pophale) SiO2 
 PCOD9151174
Probable space group: P 2/M
;
_chemical_formula_sum "Si O2"
_cell_formula_units_Z 28
_cell_length_a 12.651801
_cell_length_b 7.785452
_cell_length_c 15.714270
_cell_angle_alpha 90.000000
_cell_angle_beta 105.350909
_cell_angle_gamma 90.000000
_cell_volume 1492.631938
_symmetry_space_group_name_H-M "P 2/M"
_symmetry_group_IT_number 10
_symmetry_cell_setting 'monoclinic'
loop_
_space_group_symop_operation_xyz
x,y,z
-x,y,-z
-x,-y,-z
x,-y,z
loop_
_atom_site_type_symbol
_atom_site_label
_atom_site_fract_x
_atom_site_fract_y
_atom_site_fract_z
Si Si1 0.406347 0.709940 0.096749
Si Si2 0.739272 0.798544 0.579110
Si Si3 0.380500 0.698615 0.278292
Si Si4 0.787395 0.297081 0.286371
Si Si5 0.346569 0.291109 0.901447
Si Si6 0.615314 0.199275 0.390056
Si Si7 0.018182 0.792175 0.405922
O O1 0.404778 0.500000 0.098883
O O2 0.367265 0.771750 0.180359
O O3 0.533459 0.758269 0.108613
O O4 0.341277 0.766009 0.998475
O O5 0.687759 0.782305 0.660710
O O6 0.658395 0.727155 0.489010
O O7 0.862621 0.729188 0.598524
O O8 0.748173 0.000000 0.559025
O O9 0.347593 0.500000 0.269506
O O10 0.509003 0.709846 0.329419
O O11 0.763519 0.500000 0.287204
O O12 0.743993 0.234835 0.185480
O O13 0.715962 0.210678 0.345585
O O14 0.915210 0.268942 0.329349
O O15 0.344692 0.500000 0.903527
O O16 0.582672 0.000000 0.394509
O O17 0.000000 0.739544 0.500000
O O18 0.016373 0.000000 0.402889
#
# Coordination Sequence:
#
# PCOD9151174 Si02
#       7
#     4   4   4   4   4   4   4
#     4   8  14  27  48  73 103 136 162 196 252 312
#     4  10  22  38  53  69  98 143 181 202 242 312
#     4  11  21  33  52  80 107 131 169 216 258 294
#     4  11  20  31  53  83 107 127 166 221 264 289
#     4   8  14  27  48  74 104 133 162 199 254 311
#     4  11  21  35  52  72 104 145 176 198 246 316
#     4  10  20  38  56  71  97 139 180 207 247 309
#
# _framework density 18.758811000000001
#
# number of rings (size 3 to 8) (size 9 to 14) (size 15 to 20)
#    0.000    2.143    2.857    2.571    0.000    3.714 
#    0.000    0.000    0.000    5.143    0.000    6.000 
#    0.000    0.000    0.000    0.000    0.000    0.000 
#
# Total GULP energy -156246.491654 kJ/mol
# GULP energy per Si atom -5580.231845 kJ/mol
# Density = 1.871612 g / cm^3
# Si number density = 18.758811 Si / 1000 Ang^3
#
#
#
# Elastic Constant Matrix: (Units=GPa)
#
#
# Indices 1 2 3 4 5 6 
#
# 1 62.5173 -6.0052 50.0462 0.0000 -8.9985 0.0000
# 2 -6.0052 26.8615 -0.8295 0.0000 1.3546 0.0000
# 3 50.0462 -0.8295 179.7899 0.0000 -5.0192 0.0000
# 4 0.0000 0.0000 0.0000 6.2763 0.0000 10.0821
# 5 -8.9985 1.3546 -5.0192 0.0000 26.0110 0.0000
# 6 0.0000 0.0000 0.0000 10.0821 0.0000 18.5788
#
#
#
# Elastic Compliance Matrix: (Units=1/GPa)
#
#
# Indices 1 2 3 4 5 6 
#
# 1 0.022089 0.004439 -0.005953 0.000000 0.006262 0.000000
# 2 0.004439 0.038220 -0.001078 0.000000 -0.000663 0.000000
# 3 -0.005953 -0.001078 0.007197 0.000000 -0.000615 0.000000
# 4 0.000000 0.000000 0.000000 1.242150 0.000000 -0.674076
# 5 0.006262 -0.000663 -0.000615 0.000000 0.040527 0.000000
# 6 0.000000 0.000000 0.000000 -0.674076 0.000000 0.419625
#
#
# Mechanical properties :
#
#
# Convention : Reuss Voigt Hill
#
# Bulk Modulus (GPa) = 16.04578 39.51020 27.77799
# Shear Modulus (GPa) = 2.78432 25.23704 14.01068
#
# Velocity S-wave (km/s) = 1.21963 3.67187 2.73589
# Velocity P-wave (km/s) = 3.24894 6.25178 4.98199
#
# Compressibility (1/GPa) = 0.06232166
#
# Stress axis : x y z
#
# Youngs Moduli (GPa) = 45.27138 26.16401 138.94480
#
# Poissons Ratio (x) = -0.11613 0.82719
# Poissons Ratio (y) = -0.20094 0.14974
# Poissons Ratio (z) = 0.26952 0.02820
#
# Static dielectric constant tensor:
#      x y z
#    x 1.607990 0.000000 0.000940 
#    y 0.000000 1.688140 0.000000 
#    z 0.000940 0.000000 1.673350 
# 
# From -- ./inp_files/49111.got.cif
#   From: 2010.05.17/outbox.cif.g08.bks.cpg/sg10_25_cif.got.tgz:49111.got - 2010.06.03 11:33:40.
