data_PCOD9151025
_publ_section_title
;
Structure prediction by ZEFSAII (Michael W. Deem and Ramdas Pophale) SiO2 
 PCOD9151025
Probable space group: P 2/M
;
_chemical_formula_sum "Si O2"
_cell_formula_units_Z 32
_cell_length_a 17.064895
_cell_length_b 15.944199
_cell_length_c 11.228923
_cell_angle_alpha 90.000000
_cell_angle_beta 31.964047
_cell_angle_gamma 90.000000
_cell_volume 1617.401017
_symmetry_space_group_name_H-M "P 2/M"
_symmetry_group_IT_number 10
_symmetry_cell_setting 'monoclinic'
loop_
_space_group_symop_operation_xyz
x,y,z
-x,y,-z
-x,-y,-z
x,-y,z
loop_
_atom_site_type_symbol
_atom_site_label
_atom_site_fract_x
_atom_site_fract_y
_atom_site_fract_z
Si Si1 0.664074 0.772519 0.983295
Si Si2 0.117843 0.845065 0.111474
Si Si3 0.967063 0.405282 0.408636
Si Si4 0.360017 0.407471 0.095491
Si Si5 0.043322 0.701440 0.809921
Si Si6 0.683446 0.190141 0.547716
Si Si7 0.343557 0.907054 0.650284
Si Si8 0.186570 0.098377 0.396027
O O1 0.766591 0.788686 0.964572
O O2 0.740680 0.833871 0.787043
O O3 0.660246 0.674145 0.958592
O O4 0.492064 0.797241 0.214390
O O5 0.036619 0.788964 0.117491
O O6 0.988740 0.883329 0.360226
O O7 0.221846 0.909790 0.909899
O O8 0.029976 0.500000 0.327983
O O9 0.006080 0.357207 0.237213
O O10 0.000000 0.368762 0.500000
O O11 0.789812 0.410476 0.635426
O O12 0.375070 0.500000 0.017776
O O13 0.500000 0.394909 0.000000
O O14 0.217199 0.725703 0.571433
O O15 0.000000 0.674046 0.000000
O O16 0.710816 0.152460 0.383087
O O17 0.738159 0.123836 0.575724
O O18 0.500000 0.876277 0.500000
O O19 0.370875 0.000000 0.566059
O O20 0.209903 0.000000 0.336090
#
# Coordination Sequence:
#
# PCOD9151025 Si02
#       8
#     4   4   4   4   4   4   4   4
#     4  12  23  39  63  90 127 159 202 257 316 380
#     4  11  23  40  60  86 120 163 207 252 311 368
#     4  10  21  38  61  91 125 162 206 255 313 381
#     4  10  20  37  61  91 121 157 201 249 305 373
#     4  11  22  38  62  88 124 162 209 261 317 372
#     4  11  23  40  60  88 120 161 207 254 315 368
#     4  11  22  39  61  85 113 158 214 258 296 356
#     4  11  25  40  59  90 127 164 204 258 322 379
#
# _framework density 19.784827
#
# number of rings (size 3 to 8) (size 9 to 14) (size 15 to 20)
#    0.000    1.125    2.500    5.250    0.000    3.250 
#    0.000    1.875    0.000    0.000    0.000    0.875 
#    0.000    0.500    0.000    0.000    0.000    0.000 
#
# Total GULP energy -178469.220964 kJ/mol
# GULP energy per Si atom -5577.163155 kJ/mol
# Density = 1.973980 g / cm^3
# Si number density = 19.784827 Si / 1000 Ang^3
#
#
#
# Elastic Constant Matrix: (Units=GPa)
#
#
# Indices 1 2 3 4 5 6 
#
# 1 97.6747 40.4195 38.0209 0.0000 0.5074 0.0000
# 2 40.4195 100.6994 20.4616 0.0000 12.6415 0.0000
# 3 38.0209 20.4616 109.5434 0.0000 -8.6597 0.0000
# 4 0.0000 0.0000 0.0000 262.2473 0.0000 39.6602
# 5 0.5074 12.6415 -8.6597 0.0000 37.8245 0.0000
# 6 0.0000 0.0000 0.0000 39.6602 0.0000 13.1492
#
#
#
# Elastic Compliance Matrix: (Units=1/GPa)
#
#
# Indices 1 2 3 4 5 6 
#
# 1 0.013705 -0.004794 -0.003819 0.000000 0.000544 0.000000
# 2 -0.004794 0.012617 -0.001040 0.000000 -0.004391 0.000000
# 3 -0.003819 -0.001040 0.010877 0.000000 0.002889 0.000000
# 4 0.000000 0.000000 0.000000 0.007011 0.000000 -0.021148
# 5 0.000544 -0.004391 0.002889 0.000000 0.028559 0.000000
# 6 0.000000 0.000000 0.000000 -0.021148 0.000000 0.139835
#
#
# Mechanical properties :
#
#
# Convention : Reuss Voigt Hill
#
# Bulk Modulus (GPa) = 55.88157 56.19128 56.03642
# Shear Modulus (GPa) = 21.01953 76.57856 48.79905
#
# Velocity S-wave (km/s) = 3.26299 6.22814 4.97176
# Velocity P-wave (km/s) = 6.51937 8.95447 7.83213
#
# Compressibility (1/GPa) = 0.01789499
#
# Stress axis : x y z
#
# Youngs Moduli (GPa) = 72.96463 79.25734 91.93867
#
# Poissons Ratio (x) = 0.37992 0.35107
# Poissons Ratio (y) = 0.34976 0.09562
# Poissons Ratio (z) = 0.27862 0.08243
#
# Static dielectric constant tensor:
#      x y z
#    x 1.718870 0.000000 -0.005450 
#    y 0.000000 1.726580 0.000000 
#    z -0.005450 0.000000 1.711770 
# 
# From -- ./inp_files/53993.got.cif
#   From: 2010.05.17/outbox.cif.g08.bks.cpg/sg10_27_cif.got.tgz:53993.got - 2010.06.03 11:33:40.
