data_PCOD9151382
_publ_section_title
;
Structure prediction by ZEFSAII (Michael W. Deem and Ramdas Pophale) SiO2 
 PCOD9151382
Probable space group: P 2/M
;
_chemical_formula_sum "Si O2"
_cell_formula_units_Z 26
_cell_length_a 5.507128
_cell_length_b 13.565431
_cell_length_c 18.645942
_cell_angle_alpha 90.000000
_cell_angle_beta 121.284694
_cell_angle_gamma 90.000000
_cell_volume 1190.432451
_symmetry_space_group_name_H-M "P 2/M"
_symmetry_group_IT_number 10
_symmetry_cell_setting 'monoclinic'
loop_
_space_group_symop_operation_xyz
x,y,z
-x,y,-z
-x,-y,-z
x,-y,z
loop_
_atom_site_type_symbol
_atom_site_label
_atom_site_fract_x
_atom_site_fract_y
_atom_site_fract_z
Si Si1 0.337689 0.789844 0.282059
Si Si2 0.795516 0.292468 0.587471
Si Si3 0.621628 0.680502 0.098197
Si Si4 0.287827 0.613267 0.182919
Si Si5 0.786496 0.111711 0.180089
Si Si6 0.151724 0.500000 0.447143
Si Si7 0.861044 0.106944 0.365480
O O1 0.224475 0.729412 0.331985
O O2 0.450629 0.701947 0.249507
O O3 0.552722 0.868590 0.348203
O O4 0.105242 0.856190 0.206514
O O5 0.500000 0.298015 0.500000
O O6 0.940248 0.398031 0.601987
O O7 0.954155 0.197943 0.581573
O O8 0.419034 0.622590 0.123063
O O9 0.613111 0.795529 0.123051
O O10 0.951852 0.642006 0.143804
O O11 0.500000 0.672717 0.000000
O O12 0.327094 0.500000 0.213540
O O13 0.805315 0.111399 0.270290
O O14 0.711780 0.000000 0.146549
O O15 0.500000 0.500000 0.500000
O O16 0.000000 0.500000 0.500000
O O17 0.972711 0.000000 0.400794
#
# Coordination Sequence:
#
# PCOD9151382 Si02
#       7
#     4   4   4   4   4   2   4
#     4  10  21  39  62  92 124 166 215 266 312 385
#     4  10  24  41  62  93 129 166 214 268 327 383
#     4  11  23  41  64  96 130 164 210 264 319 383
#     4  11  24  42  64  92 128 170 215 260 315 379
#     4   9  19  38  60  88 125 166 209 259 317 380
#     4  10  24  44  66  90 128 168 203 255 327 385
#     4  10  20  38  65  90 122 169 214 265 324 382
#
# _framework density 21.840802
#
# number of rings (size 3 to 8) (size 9 to 14) (size 15 to 20)
#    0.000    1.846    1.538    1.385    5.385    3.077 
#    1.385    0.769    0.000    2.769    0.000    0.000 
#    0.000    0.000    0.000    0.000    0.000    0.000 
#
# Total GULP energy -144877.447744 kJ/mol
# GULP energy per Si atom -5572.209529 kJ/mol
# Density = 2.179109 g / cm^3
# Si number density = 21.840802 Si / 1000 Ang^3
#
#
#
# Elastic Constant Matrix: (Units=GPa)
#
#
# Indices 1 2 3 4 5 6 
#
# 1 74.4061 29.2360 4.2672 0.0000 -12.7117 0.0000
# 2 29.2360 186.1323 4.7984 0.0000 0.8507 0.0000
# 3 4.2672 4.7984 23.0575 0.0000 -4.9644 0.0000
# 4 0.0000 0.0000 0.0000 26.5674 0.0000 -8.2909
# 5 -12.7117 0.8507 -4.9644 0.0000 29.9427 0.0000
# 6 0.0000 0.0000 0.0000 -8.2909 0.0000 0.7210
#
#
#
# Elastic Compliance Matrix: (Units=1/GPa)
#
#
# Indices 1 2 3 4 5 6 
#
# 1 0.015572 -0.002451 -0.000968 0.000000 0.006520 0.000000
# 2 -0.002451 0.005791 -0.001048 0.000000 -0.001379 0.000000
# 3 -0.000968 -0.001048 0.045302 0.000000 0.007130 0.000000
# 4 0.000000 0.000000 0.000000 -0.014540 0.000000 -0.167205
# 5 0.006520 -0.001379 0.007130 0.000000 0.037386 0.000000
# 6 0.000000 0.000000 0.000000 -0.167205 0.000000 -0.535792
#
#
# Mechanical properties :
#
#
# Convention : Reuss Voigt Hill
#
# Bulk Modulus (GPa) = 17.32180 40.02213 28.67197
# Shear Modulus (GPa) = -11.95880 27.79915 7.92018
#
# Velocity S-wave (km/s) = -2.34250 3.57151 1.90636
# Velocity P-wave (km/s) = 0.79481 5.94743 4.24285
#
# Compressibility (1/GPa) = 0.05773071
#
# Stress axis : x y z
#
# Youngs Moduli (GPa) = 64.21718 172.68783 22.07392
#
# Poissons Ratio (x) = 0.42322 0.02137
# Poissons Ratio (y) = 0.15738 0.02314
# Poissons Ratio (z) = 0.06217 0.18104
#
# Static dielectric constant tensor:
#      x y z
#    x 1.915070 0.000000 0.059650 
#    y 0.000000 1.912240 0.000000 
#    z 0.059650 0.000000 1.859890 
# 
# From -- ./inp_files/12509.got.cif
#   From: 2010.05.17/outbox.cif.g08.bks.cpg/sg10_7_cif.got.tgz:12509.got - 2010.06.03 11:33:40.
