data_PCOD9151760
_publ_section_title
;
Structure prediction by ZEFSAII (Michael W. Deem and Ramdas Pophale) SiO2 
 PCOD9151760
Probable space group: P 2/M
;
_chemical_formula_sum "Si O2"
_cell_formula_units_Z 32
_cell_length_a 26.140631
_cell_length_b 8.086217
_cell_length_c 16.236823
_cell_angle_alpha 90.000000
_cell_angle_beta 30.389991
_cell_angle_gamma 90.000000
_cell_volume 1736.251653
_symmetry_space_group_name_H-M "P 2/M"
_symmetry_group_IT_number 10
_symmetry_cell_setting 'monoclinic'
loop_
_space_group_symop_operation_xyz
x,y,z
-x,y,-z
-x,-y,-z
x,-y,z
loop_
_atom_site_type_symbol
_atom_site_label
_atom_site_fract_x
_atom_site_fract_y
_atom_site_fract_z
Si Si1 0.478883 0.300506 0.267443
Si Si2 0.695623 0.300602 0.906733
Si Si3 0.053594 0.301309 0.843193
Si Si4 0.265955 0.197160 0.488850
Si Si5 0.229357 0.702089 0.019780
Si Si6 0.191849 0.197182 0.414466
Si Si7 0.552295 0.298060 0.343737
Si Si8 0.020747 0.698780 0.230987
O O1 0.480006 0.500000 0.266092
O O2 0.374414 0.245357 0.373159
O O3 0.494425 0.246665 0.340734
O O4 0.579146 0.244540 0.078820
O O5 0.694604 0.500000 0.909355
O O6 0.754253 0.246177 0.908160
O O7 0.749035 0.246539 0.749336
O O8 0.042691 0.500000 0.857987
O O9 0.172368 0.262445 0.672804
O O10 0.003630 0.238096 0.827434
O O11 0.000000 0.237306 0.000000
O O12 0.246541 0.259060 0.422277
O O13 0.259082 0.000000 0.497235
O O14 0.227462 0.500000 0.022352
O O15 0.125458 0.761283 0.123731
O O16 0.330573 0.751242 0.829920
O O17 0.076974 0.260935 0.578309
O O18 0.188322 0.000000 0.423298
O O19 0.500000 0.239827 0.500000
O O20 0.551027 0.500000 0.346683
O O21 0.028445 0.500000 0.215226
#
# Coordination Sequence:
#
# PCOD9151760 Si02
#       8
#     4   4   4   4   4   4   4   4
#     4   9  18  32  51  75 100 126 160 201 239 281
#     4   9  18  33  51  71  96 125 158 197 242 289
#     4   9  18  32  51  76 101 125 160 203 240 278
#     4  10  21  35  50  69  97 132 164 197 240 289
#     4   8  15  28  46  70  97 125 158 192 233 287
#     4  10  21  35  49  68  95 126 162 201 241 287
#     4   8  14  26  47  75 103 127 153 192 239 282
#     4   9  17  31  51  72  97 128 159 195 238 284
#
# _framework density 18.430506999999999
#
# number of rings (size 3 to 8) (size 9 to 14) (size 15 to 20)
#    0.000    3.000    0.000    2.250    0.000    4.250 
#    0.000    9.375    0.000    1.125    0.000    0.000 
#    0.000    0.000    0.000    0.000    0.000    0.000 
#
# Total GULP energy -178385.728012 kJ/mol
# GULP energy per Si atom -5574.554000 kJ/mol
# Density = 1.838856 g / cm^3
# Si number density = 18.430507 Si / 1000 Ang^3
#
#
#
# Elastic Constant Matrix: (Units=GPa)
#
#
# Indices 1 2 3 4 5 6 
#
# 1 127.9332 8.5851 127.0843 0.0000 -16.3363 0.0000
# 2 8.5851 8.8927 7.3468 0.0000 1.2517 0.0000
# 3 127.0843 7.3468 181.4972 0.0000 6.8896 0.0000
# 4 0.0000 0.0000 0.0000 -25.9201 0.0000 7.9504
# 5 -16.3363 1.2517 6.8896 0.0000 37.2784 0.0000
# 6 0.0000 0.0000 0.0000 7.9504 0.0000 4.7767
#
#
#
# Elastic Compliance Matrix: (Units=1/GPa)
#
#
# Indices 1 2 3 4 5 6 
#
# 1 0.040018 -0.018665 -0.028152 0.000000 0.023367 0.000000
# 2 -0.018665 0.125395 0.008523 0.000000 -0.013965 0.000000
# 3 -0.028152 0.008523 0.025535 0.000000 -0.017343 0.000000
# 4 0.000000 0.000000 0.000000 -0.025541 0.000000 0.042511
# 5 0.023367 -0.013965 -0.017343 0.000000 0.040739 0.000000
# 6 0.000000 0.000000 0.000000 0.042511 0.000000 0.138594
#
#
# Mechanical properties :
#
#
# Convention : Reuss Voigt Hill
#
# Bulk Modulus (GPa) = 8.74421 67.15061 37.94741
# Shear Modulus (GPa) = 10.88259 14.91412 12.89836
#
# Velocity S-wave (km/s) = 2.43259 2.84775 2.64831
# Velocity P-wave (km/s) = 3.55594 6.87942 5.47591
#
# Compressibility (1/GPa) = 0.11436141
#
# Stress axis : x y z
#
# Youngs Moduli (GPa) = 24.98848 7.97478 39.16146
#
# Poissons Ratio (x) = 0.14885 1.10249
# Poissons Ratio (y) = 0.46640 -0.33378
# Poissons Ratio (z) = 0.70348 -0.06797
#
# Static dielectric constant tensor:
#      x y z
#    x 1.637530 0.000000 0.005610 
#    y 0.000000 1.648940 0.000000 
#    z 0.005610 0.000000 1.611690 
# 
# From -- ./inp_files/71503.got.cif
#   From: 2010.05.17/outbox.cif.g08.bks.cpg/sg10_36_cif.got.tgz:71503.got - 2010.06.03 11:33:40.
