data_PCOD9151615
_publ_section_title
;
Structure prediction by ZEFSAII (Michael W. Deem and Ramdas Pophale) SiO2 
 PCOD9151615
Probable space group: P 2/M
;
_chemical_formula_sum "Si O2"
_cell_formula_units_Z 16
_cell_length_a 9.281146
_cell_length_b 10.026373
_cell_length_c 10.063782
_cell_angle_alpha 90.000000
_cell_angle_beta 121.293235
_cell_angle_gamma 90.000000
_cell_volume 800.256108
_symmetry_space_group_name_H-M "P 2/M"
_symmetry_group_IT_number 10
_symmetry_cell_setting 'monoclinic'
loop_
_space_group_symop_operation_xyz
x,y,z
-x,y,-z
-x,-y,-z
x,-y,z
loop_
_atom_site_type_symbol
_atom_site_label
_atom_site_fract_x
_atom_site_fract_y
_atom_site_fract_z
Si Si1 0.305684 0.000000 0.182169
Si Si2 0.084732 0.775553 0.398601
Si Si3 0.943380 0.000000 0.159477
Si Si4 0.459825 0.747588 0.629655
Si Si5 0.591525 0.500000 0.187137
Si Si6 0.984454 0.500000 0.333579
O O1 0.121736 0.000000 0.164377
O O2 0.410010 0.865976 0.268070
O O3 0.235890 0.000000 0.998623
O O4 0.967362 0.871393 0.259829
O O5 0.276483 0.814701 0.517899
O O6 0.000000 0.765472 0.500000
O O7 0.076042 0.631176 0.326154
O O8 0.500000 0.693719 0.500000
O O9 0.443473 0.630259 0.733789
O O10 0.784531 0.500000 0.228172
O O11 0.500000 0.500000 0.000000
O O12 0.000000 0.500000 0.500000
#
# Coordination Sequence:
#
# PCOD9151615 Si02
#       6
#     2   4   2   4   2   2
#     4  11  26  42  64 100 141 170 222 286 335 389
#     4  11  21  41  70  94 130 180 224 271 328 404
#     4  11  24  43  62  97 138 174 220 279 337 392
#     4  12  23  45  72  99 134 180 228 271 332 404
#     4  12  27  44  68 104 143 168 218 293 340 384
#     4  10  20  42  63  95 127 172 219 269 328 402
#
# _framework density 19.993600000000001
#
# number of rings (size 3 to 8) (size 9 to 14) (size 15 to 20)
#    0.000    0.750    7.500    1.875    3.500    0.000 
#    0.000    1.875    0.000    4.500    0.000    0.000 
#    0.000    0.000    0.000    0.000    0.000    0.000 
#
# Total GULP energy -89095.557940 kJ/mol
# GULP energy per Si atom -5568.472371 kJ/mol
# Density = 1.994809 g / cm^3
# Si number density = 19.993600 Si / 1000 Ang^3
#
#
#
# Elastic Constant Matrix: (Units=GPa)
#
#
# Indices 1 2 3 4 5 6 
#
# 1 64.9977 -0.3558 30.9478 0.0000 21.3842 0.0000
# 2 -0.3558 130.1337 62.5192 0.0000 9.6224 0.0000
# 3 30.9478 62.5192 160.1718 0.0000 27.8730 0.0000
# 4 0.0000 0.0000 0.0000 12.2781 0.0000 17.0016
# 5 21.3842 9.6224 27.8730 0.0000 38.2545 0.0000
# 6 0.0000 0.0000 0.0000 17.0016 0.0000 -40.6399
#
#
#
# Elastic Compliance Matrix: (Units=1/GPa)
#
#
# Indices 1 2 3 4 5 6 
#
# 1 0.019988 0.002238 -0.003084 0.000000 -0.009489 0.000000
# 2 0.002238 0.009713 -0.004101 0.000000 -0.000706 0.000000
# 3 -0.003084 -0.004101 0.009116 0.000000 -0.003887 0.000000
# 4 0.000000 0.000000 0.000000 0.051571 0.000000 0.021575
# 5 -0.009489 -0.000706 -0.003887 0.000000 0.034455 0.000000
# 6 0.000000 0.000000 0.000000 0.021575 0.000000 -0.015581
#
#
# Mechanical properties :
#
#
# Convention : Reuss Voigt Hill
#
# Bulk Modulus (GPa) = 34.57466 60.16948 47.37207
# Shear Modulus (GPa) = 38.82090 19.45802 29.13946
#
# Velocity S-wave (km/s) = 4.41121 3.12302 3.82178
# Velocity P-wave (km/s) = 6.57841 6.56993 6.57417
#
# Compressibility (1/GPa) = 0.02892292
#
# Stress axis : x y z
#
# Youngs Moduli (GPa) = 50.03063 102.95687 109.69501
#
# Poissons Ratio (x) = -0.23042 0.33833
# Poissons Ratio (y) = -0.11197 0.44982
# Poissons Ratio (z) = 0.15431 0.42219
#
# Static dielectric constant tensor:
#      x y z
#    x 1.734410 0.000000 -0.030920 
#    y 0.000000 1.807200 0.000000 
#    z -0.030920 0.000000 1.795110 
# 
# From -- ./inp_files/17501.got.cif
#   From: 2010.05.17/outbox.cif.g08.bks.cpg/sg10_9_cif.got.tgz:17501.got - 2010.06.03 11:33:40.
