data_PCOD9151833
_publ_section_title
;
Structure prediction by ZEFSAII (Michael W. Deem and Ramdas Pophale) SiO2 
 PCOD9151833
Probable space group: P 2/M
;
_chemical_formula_sum "Si O2"
_cell_formula_units_Z 32
_cell_length_a 14.474312
_cell_length_b 9.368716
_cell_length_c 14.275985
_cell_angle_alpha 90.000000
_cell_angle_beta 64.196360
_cell_angle_gamma 90.000000
_cell_volume 1742.878261
_symmetry_space_group_name_H-M "P 2/M"
_symmetry_group_IT_number 10
_symmetry_cell_setting 'monoclinic'
loop_
_space_group_symop_operation_xyz
x,y,z
-x,y,-z
-x,-y,-z
x,-y,z
loop_
_atom_site_type_symbol
_atom_site_label
_atom_site_fract_x
_atom_site_fract_y
_atom_site_fract_z
Si Si1 0.631571 0.830625 0.765810
Si Si2 0.943195 0.159284 0.218965
Si Si3 0.126948 0.333789 0.054616
Si Si4 0.822573 0.655992 0.619945
Si Si5 0.028098 0.762229 0.585246
Si Si6 0.431735 0.331525 0.812331
Si Si7 0.339977 0.337681 0.060974
Si Si8 0.765370 0.168722 0.161139
O O1 0.739628 0.775959 0.676933
O O2 0.538651 0.750149 0.755286
O O3 0.630635 0.774725 0.873377
O O4 0.621471 0.000000 0.765354
O O5 0.947477 0.164148 0.329202
O O6 0.830286 0.184283 0.227495
O O7 0.022642 0.272640 0.142467
O O8 0.974980 0.000000 0.173369
O O9 0.118287 0.500000 0.030835
O O10 0.219673 0.324966 0.088818
O O11 0.163919 0.238179 0.951151
O O12 0.776158 0.500000 0.653350
O O13 0.875165 0.671979 0.494674
O O14 0.922836 0.672686 0.642089
O O15 0.000000 0.845012 0.500000
O O16 0.438138 0.500000 0.788529
O O17 0.341049 0.254179 0.795563
O O18 0.397953 0.318880 0.936841
O O19 0.360839 0.500000 0.085065
O O20 0.748750 0.000000 0.150456
#
# Coordination Sequence:
#
# PCOD9151833 Si02
#       8
#     4   4   4   4   4   4   4   4
#     4  12  23  32  51  82 110 142 181 222 274 330
#     4  11  22  35  55  83 113 148 183 224 280 330
#     4  10  21  35  53  80 114 151 191 229 265 318
#     4   9  19  37  57  79 109 141 176 219 269 321
#     4   8  20  37  59  85 110 142 179 223 269 327
#     4  10  21  38  56  74 103 144 187 230 272 319
#     4   9  19  34  51  74 106 144 183 225 271 320
#     4  10  21  37  55  78 112 148 185 230 277 324
#
# _framework density 18.360434000000001
#
# number of rings (size 3 to 8) (size 9 to 14) (size 15 to 20)
#    0.750    1.250    0.000    5.250    0.000   11.250 
#    0.000    0.000    0.000    0.750    0.000    4.375 
#    0.000    0.000    0.000    0.000    0.000    0.000 
#
# Total GULP energy -178369.370809 kJ/mol
# GULP energy per Si atom -5574.042838 kJ/mol
# Density = 1.831864 g / cm^3
# Si number density = 18.360434 Si / 1000 Ang^3
#
#
#
# Elastic Constant Matrix: (Units=GPa)
#
#
# Indices 1 2 3 4 5 6 
#
# 1 103.9430 67.1446 37.8198 0.0000 -2.3802 0.0000
# 2 67.1446 141.6043 26.2530 0.0000 -3.6675 0.0000
# 3 37.8198 26.2530 33.1251 0.0000 -1.0871 0.0000
# 4 0.0000 0.0000 0.0000 12.9908 0.0000 7.9409
# 5 -2.3802 -3.6675 -1.0871 0.0000 24.2433 0.0000
# 6 0.0000 0.0000 0.0000 7.9409 0.0000 17.3858
#
#
#
# Elastic Compliance Matrix: (Units=1/GPa)
#
#
# Indices 1 2 3 4 5 6 
#
# 1 0.020275 -0.006233 -0.018201 0.000000 0.000232 0.000000
# 2 -0.006233 0.010217 -0.000951 0.000000 0.000891 0.000000
# 3 -0.018201 -0.000951 0.051735 0.000000 0.000389 0.000000
# 4 0.000000 0.000000 0.000000 0.106793 0.000000 -0.048777
# 5 0.000232 0.000891 0.000389 0.000000 0.041424 0.000000
# 6 0.000000 0.000000 0.000000 -0.048777 0.000000 0.079797
#
#
# Mechanical properties :
#
#
# Convention : Reuss Voigt Hill
#
# Bulk Modulus (GPa) = 31.78968 60.12305 45.95636
# Shear Modulus (GPa) = 13.45902 20.75430 17.10666
#
# Velocity S-wave (km/s) = 2.71042 3.36576 3.05571
# Velocity P-wave (km/s) = 5.21028 6.92254 6.12652
#
# Compressibility (1/GPa) = 0.03145675
#
# Stress axis : x y z
#
# Youngs Moduli (GPa) = 49.32206 97.87513 19.32910
#
# Poissons Ratio (x) = 0.61010 0.35180
# Poissons Ratio (y) = 0.30745 0.01839
# Poissons Ratio (z) = 0.89769 0.09311
#
# Static dielectric constant tensor:
#      x y z
#    x 1.649480 0.000000 -0.003310 
#    y 0.000000 1.636050 0.000000 
#    z -0.003310 0.000000 1.636420 
# 
# From -- ./inp_files/66536.got.cif
#   From: 2010.05.17/outbox.cif.g08.bks.cpg/sg10_34_cif.got.tgz:66536.got - 2010.06.03 11:33:40.
