data_PCOD9151308
_publ_section_title
;
Structure prediction by ZEFSAII (Michael W. Deem and Ramdas Pophale) SiO2 
 PCOD9151308
Probable space group: P 2/M
;
_chemical_formula_sum "Si O2"
_cell_formula_units_Z 22
_cell_length_a 20.108748
_cell_length_b 13.823231
_cell_length_c 18.019567
_cell_angle_alpha 90.000000
_cell_angle_beta 13.999446
_cell_angle_gamma 90.000000
_cell_volume 1211.706067
_symmetry_space_group_name_H-M "P 2/M"
_symmetry_group_IT_number 10
_symmetry_cell_setting 'monoclinic'
loop_
_space_group_symop_operation_xyz
x,y,z
-x,y,-z
-x,-y,-z
x,-y,z
loop_
_atom_site_type_symbol
_atom_site_label
_atom_site_fract_x
_atom_site_fract_y
_atom_site_fract_z
Si Si1 0.929221 0.701748 0.347153
Si Si2 0.693270 0.500000 0.361585
Si Si3 0.200116 0.614183 0.353767
Si Si4 0.631991 0.888727 0.689407
Si Si5 0.507811 0.393223 0.284809
Si Si6 0.954085 0.887124 0.629691
O O1 0.888874 0.675687 0.478070
O O2 0.824640 0.809836 0.442221
O O3 0.725911 0.633747 0.520388
O O4 0.241155 0.680182 0.988068
O O5 0.500000 0.500000 0.500000
O O6 0.625514 0.410390 0.489960
O O7 0.000000 0.500000 0.000000
O O8 0.211565 0.500000 0.363094
O O9 0.000000 0.621198 0.500000
O O10 0.500000 0.643723 0.000000
O O11 0.768057 0.888728 0.624167
O O12 0.644705 0.000000 0.648093
O O13 0.318684 0.851123 0.032965
O O14 0.624208 0.500000 0.138545
O O15 0.000000 0.841346 0.500000
O O16 0.875555 0.000000 0.702426
#
# Coordination Sequence:
#
# PCOD9151308 Si02
#       6
#     4   2   4   4   4   4
#     4  12  21  36  53  76 109 146 193 223 274 329
#     4  10  20  38  62  92 122 138 156 200 258 328
#     4  10  21  34  48  66  94 137 188 240 273 304
#     4  10  21  33  48  70 100 137 180 237 277 316
#     4  10  22  35  59  85 111 145 166 208 262 336
#     4   9  17  31  47  63  87 125 175 235 301 339
#
# _framework density 18.156219
#
# number of rings (size 3 to 8) (size 9 to 14) (size 15 to 20)
#    0.545    1.273    0.000    5.455    0.000    5.818 
#    0.000    0.000    0.000    0.000    0.000    0.000 
#    0.000   14.545    0.000    0.000    0.000    0.000 
#
# Total GULP energy -122733.444094 kJ/mol
# GULP energy per Si atom -5578.792913 kJ/mol
# Density = 1.811490 g / cm^3
# Si number density = 18.156219 Si / 1000 Ang^3
#
#
#
# Elastic Constant Matrix: (Units=GPa)
#
#
# Indices 1 2 3 4 5 6 
#
# 1 69.1570 13.8624 33.2131 0.0000 -1.1728 0.0000
# 2 13.8624 74.7198 17.8567 0.0000 14.4348 0.0000
# 3 33.2131 17.8567 116.1094 0.0000 0.7302 0.0000
# 4 0.0000 0.0000 0.0000 23.3311 0.0000 -6.9708
# 5 -1.1728 14.4348 0.7302 0.0000 29.1489 0.0000
# 6 0.0000 0.0000 0.0000 -6.9708 0.0000 4.2103
#
#
#
# Elastic Compliance Matrix: (Units=1/GPa)
#
#
# Indices 1 2 3 4 5 6 
#
# 1 0.017176 -0.002495 -0.004542 0.000000 0.002041 0.000000
# 2 -0.002495 0.015762 -0.001661 0.000000 -0.007865 0.000000
# 3 -0.004542 -0.001661 0.010165 0.000000 0.000385 0.000000
# 4 0.000000 0.000000 0.000000 0.084817 0.000000 0.140425
# 5 0.002041 -0.007865 0.000385 0.000000 0.038274 0.000000
# 6 0.000000 0.000000 0.000000 0.140425 0.000000 0.470001
#
#
# Mechanical properties :
#
#
# Convention : Reuss Voigt Hill
#
# Bulk Modulus (GPa) = 38.90061 43.31672 41.10867
# Shear Modulus (GPa) = 7.55103 24.34167 15.94635
#
# Velocity S-wave (km/s) = 2.04156 3.66550 2.96680
# Velocity P-wave (km/s) = 5.19897 6.46716 5.86743
#
# Compressibility (1/GPa) = 0.02570654
#
# Stress axis : x y z
#
# Youngs Moduli (GPa) = 58.22043 63.44173 98.37762
#
# Poissons Ratio (x) = 0.15830 0.44686
# Poissons Ratio (y) = 0.14528 0.16340
# Poissons Ratio (z) = 0.26446 0.10537
#
# Static dielectric constant tensor:
#      x y z
#    x 1.607740 0.000000 -0.006850 
#    y 0.000000 1.720580 0.000000 
#    z -0.006850 0.000000 1.623210 
# 
# From -- ./inp_files/86605.got.cif
#   From: 2010.05.17/outbox.cif.g08.bks.cpg/sg10_44_cif.got.tgz:86605.got - 2010.06.03 11:33:40.
