data_PCOD9151934
_publ_section_title
;
Structure prediction by ZEFSAII (Michael W. Deem and Ramdas Pophale) SiO2 
 PCOD9151934
Probable space group: P 2/M
;
_chemical_formula_sum "Si O2"
_cell_formula_units_Z 24
_cell_length_a 24.054914
_cell_length_b 7.473139
_cell_length_c 10.514439
_cell_angle_alpha 90.000000
_cell_angle_beta 39.307604
_cell_angle_gamma 90.000000
_cell_volume 1197.369877
_symmetry_space_group_name_H-M "P 2/M"
_symmetry_group_IT_number 10
_symmetry_cell_setting 'monoclinic'
loop_
_space_group_symop_operation_xyz
x,y,z
-x,y,-z
-x,-y,-z
x,-y,z
loop_
_atom_site_type_symbol
_atom_site_label
_atom_site_fract_x
_atom_site_fract_y
_atom_site_fract_z
Si Si1 0.557223 0.781454 0.276831
Si Si2 0.730686 0.218212 0.366170
Si Si3 0.261150 0.216000 0.941310
Si Si4 0.453317 0.781106 0.210652
Si Si5 0.074296 0.209559 0.961544
Si Si6 0.939212 0.292856 0.719524
O O1 0.500000 0.726450 0.500000
O O2 0.658153 0.724191 0.114435
O O3 0.509306 0.724377 0.233763
O O4 0.557574 0.000000 0.276693
O O5 0.716366 0.266769 0.243878
O O6 0.647454 0.276587 0.594795
O O7 0.732449 0.000000 0.366287
O O8 0.827498 0.284310 0.231251
O O9 0.257602 0.000000 0.951933
O O10 0.162665 0.279547 0.141196
O O11 0.452652 0.000000 0.211887
O O12 0.500000 0.721884 0.000000
O O13 0.053693 0.218912 0.149168
O O14 0.081037 0.000000 0.917434
O O15 0.000000 0.286260 0.000000
O O16 0.963637 0.500000 0.689532
O O17 0.000000 0.214350 0.500000
#
# Coordination Sequence:
#
# PCOD9151934 Si02
#       6
#     4   4   4   4   4   4
#     4   9  14  23  41  65  91 122 157 190 230 288
#     4   8  13  24  41  61  91 126 152 184 233 284
#     4   9  16  28  49  72  93 123 163 202 242 287
#     4   9  15  22  34  59  95 125 148 182 231 283
#     4   9  18  33  53  77 101 126 162 208 253 296
#     4  10  21  36  52  71  99 133 168 207 252 300
#
# _framework density 20.043931000000001
#
# number of rings (size 3 to 8) (size 9 to 14) (size 15 to 20)
#    0.000    3.000    1.667    1.500    0.000    1.667 
#    3.000    0.000    0.000    0.500    0.000    0.000 
#    0.000   11.333    0.000    0.000    0.000    0.000 
#
# Total GULP energy -133817.108496 kJ/mol
# GULP energy per Si atom -5575.712854 kJ/mol
# Density = 1.999831 g / cm^3
# Si number density = 20.043931 Si / 1000 Ang^3
#
#
#
# Elastic Constant Matrix: (Units=GPa)
#
#
# Indices 1 2 3 4 5 6 
#
# 1 163.3153 0.6861 98.8072 0.0000 -19.1986 0.0000
# 2 0.6861 52.1099 -4.3746 0.0000 -1.6537 0.0000
# 3 98.8072 -4.3746 190.4342 0.0000 -5.6547 0.0000
# 4 0.0000 0.0000 0.0000 -344.6878 0.0000 710.6376
# 5 -19.1986 -1.6537 -5.6547 0.0000 27.3078 0.0000
# 6 0.0000 0.0000 0.0000 710.6376 0.0000-1361.2626
#
#
#
# Elastic Compliance Matrix: (Units=1/GPa)
#
#
# Indices 1 2 3 4 5 6 
#
# 1 0.009782 -0.000356 -0.004910 0.000000 0.005839 0.000000
# 2 -0.000356 0.019284 0.000659 0.000000 0.001054 0.000000
# 3 -0.004910 0.000659 0.007760 0.000000 -0.001805 0.000000
# 4 0.000000 0.000000 0.000000 0.038029 0.000000 0.019853
# 5 0.005839 0.001054 -0.001805 0.000000 0.040414 0.000000
# 6 0.000000 0.000000 0.000000 0.019853 0.000000 0.009629
#
#
# Mechanical properties :
#
#
# Convention : Reuss Voigt Hill
#
# Bulk Modulus (GPa) = 36.21643 66.23297 51.22470
# Shear Modulus (GPa) = 34.88790 -315.01247 -140.06228
#
# Velocity S-wave (km/s) = 4.17654 -12.54999 -8.36835
# Velocity P-wave (km/s) = 6.43162 13.29990 8.23169
#
# Compressibility (1/GPa) = 0.02761177
#
# Stress axis : x y z
#
# Youngs Moduli (GPa) = 102.23317 51.85740 128.86193
#
# Poissons Ratio (x) = 0.01845 0.63271
# Poissons Ratio (y) = 0.03636 -0.08490
# Poissons Ratio (z) = 0.50196 -0.03417
#
# Static dielectric constant tensor:
#      x y z
#    x 1.691240 0.000000 -0.023760 
#    y 0.000000 1.747470 0.000000 
#    z -0.023760 0.000000 1.697930 
# 
# From -- ./inp_files/57230.got.cif
#   From: 2010.05.17/outbox.cif.g08.bks.cpg/sg10_29_cif.got.tgz:57230.got - 2010.06.03 11:33:40.
