data_PCOD9151387
_publ_section_title
;
Structure prediction by ZEFSAII (Michael W. Deem and Ramdas Pophale) SiO2 
 PCOD9151387
Probable space group: P 2/M
;
_chemical_formula_sum "Si O2"
_cell_formula_units_Z 26
_cell_length_a 11.858780
_cell_length_b 8.150480
_cell_length_c 16.925404
_cell_angle_alpha 90.000000
_cell_angle_beta 135.484521
_cell_angle_gamma 90.000000
_cell_volume 1146.947146
_symmetry_space_group_name_H-M "P 2/M"
_symmetry_group_IT_number 10
_symmetry_cell_setting 'monoclinic'
loop_
_space_group_symop_operation_xyz
x,y,z
-x,y,-z
-x,-y,-z
x,-y,z
loop_
_atom_site_type_symbol
_atom_site_label
_atom_site_fract_x
_atom_site_fract_y
_atom_site_fract_z
Si Si1 0.818655 0.500000 0.076457
Si Si2 0.729654 0.689864 0.228138
Si Si3 0.609547 0.189761 0.772277
Si Si4 0.053170 0.817055 0.342026
Si Si5 0.261391 0.310236 0.587083
Si Si6 0.389426 0.186679 0.038215
Si Si7 0.143734 0.680127 0.227208
O O1 0.956178 0.640593 0.119257
O O2 0.692205 0.351535 0.034795
O O3 0.677099 0.500000 0.207929
O O4 0.767374 0.745983 0.337214
O O5 0.582542 0.797657 0.123479
O O6 0.899892 0.697455 0.269057
O O7 0.452300 0.292486 0.670163
O O8 0.633487 0.207241 0.877889
O O9 0.763764 0.243711 0.799731
O O10 0.573187 0.000000 0.737815
O O11 0.164159 0.787071 0.472929
O O12 0.149713 0.784875 0.309940
O O13 0.987594 0.000000 0.310142
O O14 0.211521 0.500000 0.556081
O O15 0.335889 0.000000 0.991419
O O16 0.216516 0.500000 0.280782
#
# Coordination Sequence:
#
# PCOD9151387 Si02
#       7
#     2   4   4   4   4   4   4
#     4  10  24  43  67  89 120 165 204 264 311 374
#     4  10  20  38  65  93 125 159 200 252 306 365
#     4  10  21  38  62  94 128 155 197 254 304 365
#     4  12  24  39  59  87 127 164 206 251 299 363
#     4  10  21  37  63  92 122 162 203 244 299 366
#     4  10  21  39  66  98 124 155 203 259 316 366
#     4  10  24  41  59  83 117 166 206 249 300 364
#
# _framework density 22.668873999999999
#
# number of rings (size 3 to 8) (size 9 to 14) (size 15 to 20)
#    0.462    1.231    0.769    3.692    2.154    6.769 
#    0.000    6.154    0.000    1.846    0.000    0.000 
#    0.000    0.000    0.000    0.000    0.000    0.000 
#
# Total GULP energy -144852.220118 kJ/mol
# GULP energy per Si atom -5571.239235 kJ/mol
# Density = 2.261728 g / cm^3
# Si number density = 22.668874 Si / 1000 Ang^3
#
#
#
# Elastic Constant Matrix: (Units=GPa)
#
#
# Indices 1 2 3 4 5 6 
#
# 1 131.3917 8.8133 24.1130 0.0000 10.0077 0.0000
# 2 8.8133 102.3587 29.0959 0.0000 -8.9460 0.0000
# 3 24.1130 29.0959 74.4555 0.0000 -5.8772 0.0000
# 4 0.0000 0.0000 0.0000 27.4860 0.0000 57.8249
# 5 10.0077 -8.9460 -5.8772 0.0000 11.3668 0.0000
# 6 0.0000 0.0000 0.0000 57.8249 0.0000 143.8307
#
#
#
# Elastic Compliance Matrix: (Units=1/GPa)
#
#
# Indices 1 2 3 4 5 6 
#
# 1 0.009086 -0.000695 -0.003488 0.000000 -0.010350 0.000000
# 2 -0.000695 0.011556 -0.003674 0.000000 0.007808 0.000000
# 3 -0.003488 -0.003674 0.016692 0.000000 0.008809 0.000000
# 4 0.000000 0.000000 0.000000 0.235943 0.000000 -0.094857
# 5 -0.010350 0.007808 0.008809 0.000000 0.107788 0.000000
# 6 0.000000 0.000000 0.000000 -0.094857 0.000000 0.045089
#
#
# Mechanical properties :
#
#
# Convention : Reuss Voigt Hill
#
# Bulk Modulus (GPa) = 46.25681 48.02779 47.14230
# Shear Modulus (GPa) = 11.13401 52.94894 32.04147
#
# Velocity S-wave (km/s) = 2.21861 4.83821 3.76368
# Velocity P-wave (km/s) = 5.19738 7.24180 6.30303
#
# Compressibility (1/GPa) = 0.02161844
#
# Stress axis : x y z
#
# Youngs Moduli (GPa) = 110.06053 86.53291 59.91020
#
# Poissons Ratio (x) = 0.06018 0.20895
# Poissons Ratio (y) = 0.07655 0.22014
# Poissons Ratio (z) = 0.38386 0.31796
#
# Static dielectric constant tensor:
#      x y z
#    x 1.842510 0.000000 -0.050430 
#    y 0.000000 1.815450 0.000000 
#    z -0.050430 0.000000 1.848130 
# 
# From -- ./inp_files/83683.got.cif
#   From: 2010.05.17/outbox.cif.g08.bks.cpg/sg10_42_cif.got.tgz:83683.got - 2010.06.03 11:33:40.
