data_PCOD9151325
_publ_section_title
;
Structure prediction by ZEFSAII (Michael W. Deem and Ramdas Pophale) SiO2 
 PCOD9151325
Probable space group: P 2/M
;
_chemical_formula_sum "Si O2"
_cell_formula_units_Z 32
_cell_length_a 11.241168
_cell_length_b 15.222678
_cell_length_c 14.246486
_cell_angle_alpha 90.000000
_cell_angle_beta 38.982018
_cell_angle_gamma 90.000000
_cell_volume 1533.605604
_symmetry_space_group_name_H-M "P 2/M"
_symmetry_group_IT_number 10
_symmetry_cell_setting 'monoclinic'
loop_
_space_group_symop_operation_xyz
x,y,z
-x,y,-z
-x,-y,-z
x,-y,z
loop_
_atom_site_type_symbol
_atom_site_label
_atom_site_fract_x
_atom_site_fract_y
_atom_site_fract_z
Si Si1 0.774597 0.594043 0.151766
Si Si2 0.181805 0.784813 0.817429
Si Si3 0.494562 0.103870 0.724376
Si Si4 0.937727 0.098651 0.430095
Si Si5 0.906209 0.398369 0.456015
Si Si6 0.550917 0.228692 0.069025
Si Si7 0.452995 0.403755 0.208240
Si Si8 0.970020 0.751711 0.759988
O O1 0.725396 0.500000 0.228896
O O2 0.730890 0.687143 0.224581
O O3 0.662138 0.594390 0.122981
O O4 0.000000 0.594327 0.000000
O O5 0.339649 0.855530 0.748916
O O6 0.108502 0.786051 0.756363
O O7 0.000000 0.793483 0.000000
O O8 0.712529 0.114074 0.559290
O O9 0.476034 0.160929 0.830511
O O10 0.461730 0.000000 0.759649
O O11 0.045319 0.171884 0.306968
O O12 0.000000 0.103906 0.500000
O O13 0.979667 0.000000 0.371028
O O14 0.954722 0.500000 0.405857
O O15 0.684923 0.393675 0.617653
O O16 0.963067 0.334258 0.337449
O O17 0.000000 0.375342 0.500000
O O18 0.430971 0.318164 0.158248
O O19 0.500000 0.189246 0.000000
O O20 0.767656 0.259003 0.931844
O O21 0.411016 0.500000 0.191037
#
# Coordination Sequence:
#
# PCOD9151325 Si02
#       8
#     4   4   4   4   4   4   4   4
#     4   9  17  33  59  83 112 157 204 251 299 354
#     4  11  22  42  61  91 132 167 213 263 319 378
#     4  11  24  44  67  89 125 171 212 261 326 388
#     4  10  23  45  69  94 125 161 208 266 327 388
#     4  10  22  41  63  93 133 172 212 259 317 382
#     4  12  23  38  63  96 127 159 214 269 322 384
#     4  10  20  38  63  88 124 168 206 251 312 377
#     4  12  24  38  65  96 128 167 210 263 318 381
#
# _framework density 20.865860000000001
#
# number of rings (size 3 to 8) (size 9 to 14) (size 15 to 20)
#    0.000    1.375    2.500    3.375    0.000    3.250 
#    0.000    1.250    0.000    2.250    0.000    0.000 
#    0.000    0.000    0.000    0.000    0.000    0.000 
#
# Total GULP energy -178674.927746 kJ/mol
# GULP energy per Si atom -5583.591492 kJ/mol
# Density = 2.081837 g / cm^3
# Si number density = 20.865860 Si / 1000 Ang^3
#
#
#
# Elastic Constant Matrix: (Units=GPa)
#
#
# Indices 1 2 3 4 5 6 
#
# 1 67.1513 5.1937 -0.2171 0.0000 -9.1024 0.0000
# 2 5.1937 118.6977 48.2412 0.0000 0.1168 0.0000
# 3 -0.2171 48.2412 53.6956 0.0000 -6.0445 0.0000
# 4 0.0000 0.0000 0.0000 60.3306 0.0000 129.0291
# 5 -9.1024 0.1168 -6.0445 0.0000 27.0245 0.0000
# 6 0.0000 0.0000 0.0000 129.0291 0.0000 338.8250
#
#
#
# Elastic Compliance Matrix: (Units=1/GPa)
#
#
# Indices 1 2 3 4 5 6 
#
# 1 0.015806 -0.001558 0.002117 0.000000 0.005804 0.000000
# 2 -0.001558 0.013633 -0.012638 0.000000 -0.003410 0.000000
# 3 0.002117 -0.012638 0.030849 0.000000 0.007668 0.000000
# 4 0.000000 0.000000 0.000000 0.089329 0.000000 -0.034018
# 5 0.005804 -0.003410 0.007668 0.000000 0.040688 0.000000
# 6 0.000000 0.000000 0.000000 -0.034018 0.000000 0.015906
#
#
# Mechanical properties :
#
#
# Convention : Reuss Voigt Hill
#
# Bulk Modulus (GPa) = 27.67792 38.44224 33.06008
# Shear Modulus (GPa) = 20.62604 97.65781 59.14192
#
# Velocity S-wave (km/s) = 3.14746 6.84867 5.32967
# Velocity P-wave (km/s) = 5.14803 9.00014 7.33160
#
# Compressibility (1/GPa) = 0.03612988
#
# Stress axis : x y z
#
# Youngs Moduli (GPa) = 63.26801 73.35345 32.41550
#
# Poissons Ratio (x) = 0.11425 -0.06861
# Poissons Ratio (y) = 0.09854 0.40967
# Poissons Ratio (z) = -0.13391 0.92704
#
# Static dielectric constant tensor:
#      x y z
#    x 1.785770 0.000000 -0.024180 
#    y 0.000000 1.751160 0.000000 
#    z -0.024180 0.000000 1.751020 
# 
# From -- ./inp_files/65061.got.cif
#   From: 2010.05.17/outbox.cif.g08.bks.cpg/sg10_33_cif.got.tgz:65061.got - 2010.06.03 11:33:40.
