data_PCOD9151884
_publ_section_title
;
Structure prediction by ZEFSAII (Michael W. Deem and Ramdas Pophale) SiO2 
 PCOD9151884
Probable space group: P 2/M
;
_chemical_formula_sum "Si O2"
_cell_formula_units_Z 28
_cell_length_a 13.841224
_cell_length_b 9.044868
_cell_length_c 18.721188
_cell_angle_alpha 90.000000
_cell_angle_beta 37.230852
_cell_angle_gamma 90.000000
_cell_volume 1418.030464
_symmetry_space_group_name_H-M "P 2/M"
_symmetry_group_IT_number 10
_symmetry_cell_setting 'monoclinic'
loop_
_space_group_symop_operation_xyz
x,y,z
-x,y,-z
-x,-y,-z
x,-y,z
loop_
_atom_site_type_symbol
_atom_site_label
_atom_site_fract_x
_atom_site_fract_y
_atom_site_fract_z
Si Si1 0.823899 0.175777 0.074741
Si Si2 0.066911 0.824372 0.382382
Si Si3 0.957789 0.674794 0.306289
Si Si4 0.247889 0.324303 0.032054
Si Si5 0.399392 0.673542 0.203402
Si Si6 0.357951 0.823491 0.528974
Si Si7 0.493838 0.674428 0.694698
O O1 0.685251 0.261233 0.198602
O O2 0.795814 0.000000 0.096062
O O3 0.808525 0.230749 0.002563
O O4 0.000000 0.208072 0.000000
O O5 0.249858 0.771857 0.270658
O O6 0.000000 0.785562 0.500000
O O7 0.970153 0.742254 0.377704
O O8 0.053711 0.000000 0.380644
O O9 0.930228 0.500000 0.325782
O O10 0.811366 0.751564 0.351729
O O11 0.126393 0.701339 0.167818
O O12 0.241887 0.500000 0.016978
O O13 0.434731 0.291686 0.934610
O O14 0.360984 0.500000 0.214200
O O15 0.438016 0.694092 0.265068
O O16 0.500000 0.785068 0.500000
O O17 0.406587 0.760501 0.423139
O O18 0.342809 0.000000 0.535611
O O19 0.493955 0.500000 0.679265
#
# Coordination Sequence:
#
# PCOD9151884 Si02
#       7
#     4   4   4   4   4   4   4
#     4  10  21  35  56  86 119 157 199 246 303 359
#     4  11  24  40  61  90 123 160 201 248 305 366
#     4  11  24  42  64  90 121 159 205 254 304 362
#     4   9  21  40  60  87 121 159 202 251 304 358
#     4   9  19  38  62  88 119 154 196 247 301 355
#     4  11  25  42  60  85 122 161 198 249 310 365
#     4  10  21  38  61  87 116 154 202 250 297 355
#
# _framework density 19.745695999999999
#
# number of rings (size 3 to 8) (size 9 to 14) (size 15 to 20)
#    0.000    1.857    0.000    3.857    2.000   10.286 
#    0.000    2.857    0.000    0.000    0.000    0.000 
#    0.000    0.000    0.000    0.000    0.000    0.000 
#
# Total GULP energy -156512.949170 kJ/mol
# GULP energy per Si atom -5589.748185 kJ/mol
# Density = 1.970075 g / cm^3
# Si number density = 19.745696 Si / 1000 Ang^3
#
#
#
# Elastic Constant Matrix: (Units=GPa)
#
#
# Indices 1 2 3 4 5 6 
#
# 1 59.6047 39.9307 39.4542 0.0000 -20.1367 0.0000
# 2 39.9307 52.2536 43.0445 0.0000 -9.0049 0.0000
# 3 39.4542 43.0445 97.9081 0.0000 -12.4619 0.0000
# 4 0.0000 0.0000 0.0000 73.2532 0.0000 -12.8488
# 5 -20.1367 -9.0049 -12.4619 0.0000 27.1689 0.0000
# 6 0.0000 0.0000 0.0000 -12.8488 0.0000 0.4988
#
#
#
# Elastic Compliance Matrix: (Units=1/GPa)
#
#
# Indices 1 2 3 4 5 6 
#
# 1 0.045500 -0.028402 -0.002925 0.000000 0.022968 0.000000
# 2 -0.028402 0.048177 -0.011026 0.000000 -0.010141 0.000000
# 3 -0.002925 -0.011026 0.016460 0.000000 0.001727 0.000000
# 4 0.000000 0.000000 0.000000 -0.003880 0.000000 -0.099951
# 5 0.022968 -0.010141 0.001727 0.000000 0.051261 0.000000
# 6 0.000000 0.000000 0.000000 -0.099951 0.000000 -0.569842
#
#
# Mechanical properties :
#
#
# Convention : Reuss Voigt Hill
#
# Bulk Modulus (GPa) = 39.32338 50.51392 44.91865
# Shear Modulus (GPa) = -15.66705 26.00667 5.16981
#
# Velocity S-wave (km/s) = -2.81986 3.63310 1.61984
# Velocity P-wave (km/s) = 3.05875 6.57548 5.12801
#
# Compressibility (1/GPa) = 0.02543016
#
# Stress axis : x y z
#
# Youngs Moduli (GPa) = 21.97791 20.75689 60.75452
#
# Poissons Ratio (x) = 0.58954 0.17771
# Poissons Ratio (y) = 0.62422 0.66987
# Poissons Ratio (z) = 0.06429 0.22886
#
# Static dielectric constant tensor:
#      x y z
#    x 1.677500 0.000000 -0.005960 
#    y 0.000000 1.653170 0.000000 
#    z -0.005960 0.000000 1.714170 
# 
# From -- ./inp_files/84893.got.cif
#   From: 2010.05.17/outbox.cif.g08.bks.cpg/sg10_43_cif.got.tgz:84893.got - 2010.06.03 11:33:40.
