data_PCOD9151526
_publ_section_title
;
Structure prediction by ZEFSAII (Michael W. Deem and Ramdas Pophale) SiO2 
 PCOD9151526
Probable space group: P 2/M
;
_chemical_formula_sum "Si O2"
_cell_formula_units_Z 21
_cell_length_a 9.491959
_cell_length_b 16.722458
_cell_length_c 9.689114
_cell_angle_alpha 90.000000
_cell_angle_beta 137.979781
_cell_angle_gamma 90.000000
_cell_volume 1029.487499
_symmetry_space_group_name_H-M "P 2/M"
_symmetry_group_IT_number 10
_symmetry_cell_setting 'monoclinic'
loop_
_space_group_symop_operation_xyz
x,y,z
-x,y,-z
-x,-y,-z
x,-y,z
loop_
_atom_site_type_symbol
_atom_site_label
_atom_site_fract_x
_atom_site_fract_y
_atom_site_fract_z
Si Si1 0.554541 0.592493 0.877191
Si Si2 0.101785 0.281977 0.925238
Si Si3 0.181943 0.702337 0.541370
Si Si4 0.000000 0.000000 0.000000
Si Si5 0.323396 0.115261 0.074944
Si Si6 0.239248 0.877884 0.694845
O O1 0.557361 0.500000 0.838272
O O2 0.376931 0.643576 0.668770
O O3 0.500000 0.597524 0.000000
O O4 0.774316 0.636908 0.015832
O O5 0.267523 0.208924 0.046131
O O6 0.923972 0.269854 0.678522
O O7 0.000000 0.285400 0.000000
O O8 0.240871 0.781531 0.672765
O O9 0.000000 0.660765 0.500000
O O10 0.837208 0.931447 0.944936
O O11 0.284192 0.098584 0.884529
O O12 0.572267 0.095724 0.269908
O O13 0.000000 0.904468 0.500000
#
# Coordination Sequence:
#
# PCOD9151526 Si02
#       6
#     4   4   4   1   4   4
#     4  11  23  40  66 101 134 173 229 282 326 384
#     4  12  24  41  66  96 135 181 216 273 343 402
#     4  11  20  37  69  98 124 170 236 269 313 398
#     4  12  28  46  62 104 142 172 206 278 358 400
#     4  11  22  42  68  94 135 170 217 277 334 401
#     4  10  20  39  73  96 119 172 233 269 315 395
#
# _framework density 20.398501
#
# number of rings (size 3 to 8) (size 9 to 14) (size 15 to 20)
#    0.000    0.952    8.571    0.000    0.000    3.810 
#    0.000    6.667    0.000    0.000    0.000    0.000 
#    0.000    0.000    0.000    0.000    0.000    0.000 
#
# Total GULP energy -116959.359403 kJ/mol
# GULP energy per Si atom -5569.493305 kJ/mol
# Density = 2.035207 g / cm^3
# Si number density = 20.398501 Si / 1000 Ang^3
#
#
#
# Elastic Constant Matrix: (Units=GPa)
#
#
# Indices 1 2 3 4 5 6 
#
# 1 162.6489 34.7773 35.8779 0.0000 20.9971 0.0000
# 2 34.7773 118.6352 21.9026 0.0000 13.4303 0.0000
# 3 35.8779 21.9026 56.9442 0.0000 15.1834 0.0000
# 4 0.0000 0.0000 0.0000 -565.2766 0.0000 -23.7439
# 5 20.9971 13.4303 15.1834 0.0000 33.4332 0.0000
# 6 0.0000 0.0000 0.0000 -23.7439 0.0000 26.8725
#
#
#
# Elastic Compliance Matrix: (Units=1/GPa)
#
#
# Indices 1 2 3 4 5 6 
#
# 1 0.007542 -0.001256 -0.003573 0.000000 -0.002609 0.000000
# 2 -0.001256 0.009447 -0.002322 0.000000 -0.001952 0.000000
# 3 -0.003573 -0.002322 0.022594 0.000000 -0.007084 0.000000
# 4 0.000000 0.000000 0.000000 -0.001706 0.000000 -0.001507
# 5 -0.002609 -0.001952 -0.007084 0.000000 0.035550 0.000000
# 6 0.000000 0.000000 0.000000 -0.001507 0.000000 0.035881
#
#
# Mechanical properties :
#
#
# Convention : Reuss Voigt Hill
#
# Bulk Modulus (GPa) = 39.55460 58.14934 48.85197
# Shear Modulus (GPa) = 37.86811 -84.61613 -23.37401
#
# Velocity S-wave (km/s) = 4.31329 -6.44760 -3.38874
# Velocity P-wave (km/s) = 6.65124 5.18269 2.94777
#
# Compressibility (1/GPa) = 0.02528151
#
# Stress axis : x y z
#
# Youngs Moduli (GPa) = 132.59597 105.85406 44.25904
#
# Poissons Ratio (x) = 0.13293 0.15813
# Poissons Ratio (y) = 0.16651 0.10277
# Poissons Ratio (z) = 0.47375 0.24579
#
# Static dielectric constant tensor:
#      x y z
#    x 1.717740 0.000000 0.040070 
#    y 0.000000 1.735050 0.000000 
#    z 0.040070 0.000000 1.773700 
# 
# From -- ./inp_files/19746.got.cif
#   From: 2010.05.17/outbox.cif.g08.bks.cpg/sg10_10_cif.got.tgz:19746.got - 2010.06.03 11:33:40.
