data_PCOD9151450
_publ_section_title
;
Structure prediction by ZEFSAII (Michael W. Deem and Ramdas Pophale) SiO2 
 PCOD9151450
Probable space group: P 2/M
;
_chemical_formula_sum "Si O2"
_cell_formula_units_Z 20
_cell_length_a 5.195256
_cell_length_b 8.173769
_cell_length_c 28.582039
_cell_angle_alpha 90.000000
_cell_angle_beta 139.963820
_cell_angle_gamma 90.000000
_cell_volume 780.758342
_symmetry_space_group_name_H-M "P 2/M"
_symmetry_group_IT_number 10
_symmetry_cell_setting 'monoclinic'
loop_
_space_group_symop_operation_xyz
x,y,z
-x,y,-z
-x,-y,-z
x,-y,z
loop_
_atom_site_type_symbol
_atom_site_label
_atom_site_fract_x
_atom_site_fract_y
_atom_site_fract_z
Si Si1 0.595100 0.323076 0.913551
Si Si2 0.572042 0.193850 0.710036
Si Si3 0.599354 0.183259 0.413644
Si Si4 0.527269 0.500000 0.448496
Si Si5 0.519715 0.196660 0.198301
Si Si6 0.529905 0.000000 0.948542
O O1 0.393165 0.500000 0.888774
O O2 0.708364 0.284821 0.875801
O O3 0.364209 0.164765 0.901683
O O4 0.000000 0.332225 0.000000
O O5 0.313910 0.232575 0.627823
O O6 0.521138 0.262709 0.754820
O O7 0.020048 0.222409 0.753651
O O8 0.516997 0.000000 0.709038
O O9 0.361360 0.332827 0.403280
O O10 0.000000 0.168079 0.500000
O O11 0.410549 0.000000 0.387407
O O12 0.500000 0.500000 0.500000
O O13 0.000000 0.500000 0.500000
O O14 0.441068 0.000000 0.184555
O O15 0.500000 0.000000 0.000000
O O16 0.000000 0.000000 0.000000
#
# Coordination Sequence:
#
# PCOD9151450 Si02
#       6
#     4   4   4   2   4   2
#     4  10  22  42  66  95 127 161 210 262 308 370
#     4   9  20  37  61  90 123 163 207 253 307 367
#     4   9  19  39  65  92 125 165 209 258 312 367
#     4  10  22  38  58  90 124 156 201 256 307 362
#     4  10  20  39  61  87 125 165 203 254 308 369
#     4  10  22  40  64  92 124 162 199 248 315 364
#
# _framework density 25.616123000000002
#
# number of rings (size 3 to 8) (size 9 to 14) (size 15 to 20)
#    0.000    2.400    1.000    0.000    0.000    7.200 
#    3.600   10.000    0.000    0.000    0.000    0.000 
#    0.000    0.000    0.000    0.000    0.000    0.000 
#
# Total GULP energy -111830.465374 kJ/mol
# GULP energy per Si atom -5591.523269 kJ/mol
# Density = 2.555782 g / cm^3
# Si number density = 25.616123 Si / 1000 Ang^3
#
#
#
# Elastic Constant Matrix: (Units=GPa)
#
#
# Indices 1 2 3 4 5 6 
#
# 1 145.3911 53.0153 76.2417 0.0000 -56.4449 0.0000
# 2 53.0153 197.8995 33.6089 0.0000 -43.0447 0.0000
# 3 76.2417 33.6089 206.0242 0.0000 -62.6161 0.0000
# 4 0.0000 0.0000 0.0000 -99.3477 0.0000 48.0973
# 5 -56.4449 -43.0447 -62.6161 0.0000 67.6486 0.0000
# 6 0.0000 0.0000 0.0000 48.0973 0.0000 -16.0506
#
#
#
# Elastic Compliance Matrix: (Units=1/GPa)
#
#
# Indices 1 2 3 4 5 6 
#
# 1 0.010813 -0.001150 -0.001801 0.000000 0.006624 0.000000
# 2 -0.001150 0.005996 0.000439 0.000000 0.003262 0.000000
# 3 -0.001801 0.000439 0.007064 0.000000 0.005315 0.000000
# 4 0.000000 0.000000 0.000000 0.022331 0.000000 0.066917
# 5 0.006624 0.003262 0.005315 0.000000 0.027304 0.000000
# 6 0.000000 0.000000 0.000000 0.066917 0.000000 0.138222
#
#
# Mechanical properties :
#
#
# Convention : Reuss Voigt Hill
#
# Bulk Modulus (GPa) = 53.05325 97.22741 75.14033
# Shear Modulus (GPa) = 22.41771 16.21332 19.31551
#
# Velocity S-wave (km/s) = 2.96149 2.51855 2.74895
# Velocity P-wave (km/s) = 5.69647 6.81875 6.28272
#
# Compressibility (1/GPa) = 0.01884899
#
# Stress axis : x y z
#
# Youngs Moduli (GPa) = 92.47930 166.77379 141.56173
#
# Poissons Ratio (x) = 0.19183 0.25493
# Poissons Ratio (y) = 0.10637 -0.06212
# Poissons Ratio (z) = 0.16654 -0.07319
#
# Static dielectric constant tensor:
#      x y z
#    x 2.211670 0.000000 0.155320 
#    y 0.000000 2.127400 0.000000 
#    z 0.155320 0.000000 2.112060 
# 
# From -- ./inp_files/91569.got.cif
#   From: 2010.05.17/outbox.cif.g08.bks.cpg/sg10_46_cif.got.tgz:91569.got - 2010.06.03 11:33:40.
