data_PCOD9151305
_publ_section_title
;
Structure prediction by ZEFSAII (Michael W. Deem and Ramdas Pophale) SiO2 
 PCOD9151305
Probable space group: P 2/M
;
_chemical_formula_sum "Si O2"
_cell_formula_units_Z 21
_cell_length_a 9.162678
_cell_length_b 26.683807
_cell_length_c 5.055986
_cell_angle_alpha 90.000000
_cell_angle_beta 56.140022
_cell_angle_gamma 90.000000
_cell_volume 1026.512626
_symmetry_space_group_name_H-M "P 2/M"
_symmetry_group_IT_number 10
_symmetry_cell_setting 'monoclinic'
loop_
_space_group_symop_operation_xyz
x,y,z
-x,y,-z
-x,-y,-z
x,-y,z
loop_
_atom_site_type_symbol
_atom_site_label
_atom_site_fract_x
_atom_site_fract_y
_atom_site_fract_z
Si Si1 0.286349 0.839391 0.218584
Si Si2 0.000000 0.000000 0.000000
Si Si3 0.000000 0.076368 0.500000
Si Si4 0.700702 0.663999 0.404600
Si Si5 0.624683 0.500000 0.121544
Si Si6 0.288021 0.776546 0.711996
Si Si7 0.190288 0.603672 0.192268
O O1 0.234229 0.818037 0.556017
O O2 0.172150 0.888629 0.286681
O O3 0.500000 0.847512 0.000000
O O4 0.240400 0.796259 0.050152
O O5 0.981525 0.043230 0.254303
O O6 0.500000 0.662336 0.500000
O O7 0.762822 0.721673 0.341205
O O8 0.711578 0.634265 0.670752
O O9 0.811615 0.637385 0.065258
O O10 0.500000 0.500000 0.500000
O O11 0.500000 0.500000 0.000000
O O12 0.731542 0.551134 0.984310
O O13 0.500000 0.775181 0.500000
O O14 0.000000 0.593819 0.500000
#
# Coordination Sequence:
#
# PCOD9151305 Si02
#       7
#     4   1   2   4   2   4   4
#     4  10  20  38  62  91 123 161 211 255 304 363
#     4  10  24  42  62  86 132 156 216 258 310 364
#     4  11  22  42  62  90 120 172 200 263 310 358
#     4  11  22  41  65  88 124 168 206 242 308 382
#     4  12  25  44  69  88 107 154 219 254 305 388
#     4   9  19  36  59  88 122 159 199 247 293 357
#     4  12  25  42  60  92 125 155 192 266 321 366
#
# _framework density 20.457616000000002
#
# number of rings (size 3 to 8) (size 9 to 14) (size 15 to 20)
#    0.000    1.333    0.000    6.571    0.000    3.048 
#   10.286    5.714    0.000    0.000    0.000    0.000 
#    0.000    0.000    0.000    0.000    0.000    0.000 
#
# Total GULP energy -117029.530225 kJ/mol
# GULP energy per Si atom -5572.834773 kJ/mol
# Density = 2.041105 g / cm^3
# Si number density = 20.457616 Si / 1000 Ang^3
#
#
#
# Elastic Constant Matrix: (Units=GPa)
#
#
# Indices 1 2 3 4 5 6 
#
# 1 66.4358 42.4045 37.5005 0.0000 9.7274 0.0000
# 2 42.4045 152.1557 41.9382 0.0000 0.9624 0.0000
# 3 37.5005 41.9382 109.9443 0.0000 15.3050 0.0000
# 4 0.0000 0.0000 0.0000 33.4428 0.0000 34.9132
# 5 9.7274 0.9624 15.3050 0.0000 42.2717 0.0000
# 6 0.0000 0.0000 0.0000 34.9132 0.0000 32.4754
#
#
#
# Elastic Compliance Matrix: (Units=1/GPa)
#
#
# Indices 1 2 3 4 5 6 
#
# 1 0.021238 -0.004488 -0.005124 0.000000 -0.002930 0.000000
# 2 -0.004488 0.008325 -0.001856 0.000000 0.001515 0.000000
# 3 -0.005124 -0.001856 0.011985 0.000000 -0.003118 0.000000
# 4 0.000000 0.000000 0.000000 -0.244432 0.000000 0.262780
# 5 -0.002930 0.001515 -0.003118 0.000000 0.025425 0.000000
# 6 0.000000 0.000000 0.000000 0.262780 0.000000 -0.251712
#
#
# Mechanical properties :
#
#
# Convention : Reuss Voigt Hill
#
# Bulk Modulus (GPa) = 53.72746 63.58024 58.65385
# Shear Modulus (GPa) = -12.49903 35.41748 11.45922
#
# Velocity S-wave (km/s) = -2.47447 4.16536 2.36931
# Velocity P-wave (km/s) = 4.26097 7.36750 6.01814
#
# Compressibility (1/GPa) = 0.01861246
#
# Stress axis : x y z
#
# Youngs Moduli (GPa) = 47.08510 120.12228 83.43617
#
# Poissons Ratio (x) = 0.53911 0.42755
# Poissons Ratio (y) = 0.21132 0.15483
# Poissons Ratio (z) = 0.24128 0.22290
#
# Static dielectric constant tensor:
#      x y z
#    x 1.777560 0.000000 -0.004790 
#    y 0.000000 1.556390 0.000000 
#    z -0.004790 0.000000 1.752220 
# 
# From -- ./inp_files/7974.got.cif
#   From: 2010.05.17/outbox.cif.g08.bks.cpg/sg10_4_cif.got.tgz:7974.got - 2010.06.03 11:33:40.
