data_PCOD9151717
_publ_section_title
;
Structure prediction by ZEFSAII (Michael W. Deem and Ramdas Pophale) SiO2 
 PCOD9151717
Probable space group: P 2/M
;
_chemical_formula_sum "Si O2"
_cell_formula_units_Z 22
_cell_length_a 10.751494
_cell_length_b 12.951077
_cell_length_c 21.990071
_cell_angle_alpha 90.000000
_cell_angle_beta 21.651331
_cell_angle_gamma 90.000000
_cell_volume 1129.737497
_symmetry_space_group_name_H-M "P 2/M"
_symmetry_group_IT_number 10
_symmetry_cell_setting 'monoclinic'
loop_
_space_group_symop_operation_xyz
x,y,z
-x,y,-z
-x,-y,-z
x,-y,z
loop_
_atom_site_type_symbol
_atom_site_label
_atom_site_fract_x
_atom_site_fract_y
_atom_site_fract_z
Si Si1 0.236194 0.173248 0.242915
Si Si2 0.718324 0.780304 0.583410
Si Si3 0.835737 0.000000 0.384485
Si Si4 0.494204 0.612578 0.929421
Si Si5 0.771961 0.000000 0.041000
Si Si6 0.149024 0.616370 0.864780
Si Si7 0.515306 0.000000 0.324033
O O1 0.353493 0.281426 0.163794
O O2 0.927442 0.202506 0.427362
O O3 0.528833 0.100772 0.141216
O O4 0.068776 0.099037 0.269035
O O5 0.411759 0.702176 0.724460
O O6 0.591532 0.894461 0.660518
O O7 0.000000 0.738170 0.500000
O O8 0.500000 0.000000 0.500000
O O9 0.699281 0.000000 0.516245
O O10 0.653351 0.500000 0.840606
O O11 0.500000 0.616413 0.000000
O O12 0.136174 0.611869 0.057430
O O13 0.080222 0.000000 0.852086
O O14 0.000000 0.000000 0.000000
O O15 0.294134 0.500000 0.804450
O O16 0.000000 0.641799 0.000000
#
# Coordination Sequence:
#
# PCOD9151717 Si02
#       7
#     4   4   2   4   2   4   2
#     4  10  22  36  57  88 115 152 201 241 293 359
#     4  11  21  35  56  84 118 150 186 237 294 351
#     4   9  21  39  54  78 116 151 186 241 295 348
#     4  10  22  41  62  86 119 158 203 253 301 353
#     4  11  21  37  60  86 121 158 194 243 299 354
#     4  10  22  40  61  86 115 150 196 246 297 354
#     4  10  21  34  53  80 112 149 188 228 286 352
#
# _framework density 19.473549999999999
#
# number of rings (size 3 to 8) (size 9 to 14) (size 15 to 20)
#    0.000    1.818    0.000    4.091    0.000    6.909 
#    0.000    1.818    0.000    3.818    0.000    0.000 
#    0.000    0.000    0.000    0.000    0.000    0.000 
#
# Total GULP energy -122511.769074 kJ/mol
# GULP energy per Si atom -5568.716776 kJ/mol
# Density = 1.942923 g / cm^3
# Si number density = 19.473550 Si / 1000 Ang^3
#
#
#
# Elastic Constant Matrix: (Units=GPa)
#
#
# Indices 1 2 3 4 5 6 
#
# 1 87.9570 45.4425 18.5393 0.0000 -20.4730 0.0000
# 2 45.4425 198.6763 84.2685 0.0000 -8.8611 0.0000
# 3 18.5393 84.2685 89.8277 0.0000 -10.5815 0.0000
# 4 0.0000 0.0000 0.0000 -179.0305 0.0000 202.9887
# 5 -20.4730 -8.8611 -10.5815 0.0000 26.3462 0.0000
# 6 0.0000 0.0000 0.0000 202.9887 0.0000 -133.9765
#
#
#
# Elastic Compliance Matrix: (Units=1/GPa)
#
#
# Indices 1 2 3 4 5 6 
#
# 1 0.015661 -0.003775 0.001673 0.000000 0.011571 0.000000
# 2 -0.003775 0.009273 -0.008290 0.000000 -0.003145 0.000000
# 3 0.001673 -0.008290 0.019302 0.000000 0.006264 0.000000
# 4 0.000000 0.000000 0.000000 0.007781 0.000000 0.011789
# 5 0.011571 -0.003145 0.006264 0.000000 0.048406 0.000000
# 6 0.000000 0.000000 0.000000 0.011789 0.000000 0.010398
#
#
# Mechanical properties :
#
#
# Convention : Reuss Voigt Hill
#
# Bulk Modulus (GPa) = 42.64430 74.77350 58.70890
# Shear Modulus (GPa) = 35.86215 -42.11812 -3.12799
#
# Velocity S-wave (km/s) = 4.29602 -4.65568 -1.26876
# Velocity P-wave (km/s) = 6.82304 3.09522 5.29784
#
# Compressibility (1/GPa) = 0.02344979
#
# Stress axis : x y z
#
# Youngs Moduli (GPa) = 63.85484 107.84126 51.80737
#
# Poissons Ratio (x) = 0.40714 -0.08666
# Poissons Ratio (y) = 0.24107 0.42950
# Poissons Ratio (z) = -0.10681 0.89403
#
# Static dielectric constant tensor:
#      x y z
#    x 1.570530 0.000000 -0.102040 
#    y 0.000000 1.744350 0.000000 
#    z -0.102040 0.000000 1.610060 
# 
# From -- ./inp_files/88888.got.cif
#   From: 2010.05.17/outbox.cif.g08.bks.cpg/sg10_45_cif.got.tgz:88888.got - 2010.06.03 11:33:40.
