data_PCOD9151294
_publ_section_title
;
Structure prediction by ZEFSAII (Michael W. Deem and Ramdas Pophale) SiO2 
 PCOD9151294
Probable space group: P 2/M
;
_chemical_formula_sum "Si O2"
_cell_formula_units_Z 32
_cell_length_a 9.492216
_cell_length_b 12.809901
_cell_length_c 25.489042
_cell_angle_alpha 90.000000
_cell_angle_beta 28.916031
_cell_angle_gamma 90.000000
_cell_volume 1498.607530
_symmetry_space_group_name_H-M "P 2/M"
_symmetry_group_IT_number 10
_symmetry_cell_setting 'monoclinic'
loop_
_space_group_symop_operation_xyz
x,y,z
-x,y,-z
-x,-y,-z
x,-y,z
loop_
_atom_site_type_symbol
_atom_site_label
_atom_site_fract_x
_atom_site_fract_y
_atom_site_fract_z
Si Si1 0.052172 0.683709 0.563292
Si Si2 0.523302 0.619886 0.659132
Si Si3 0.029754 0.777306 0.855288
Si Si4 0.023856 0.881042 0.229852
Si Si5 0.737058 0.283959 0.765472
Si Si6 0.794776 0.616674 0.015327
Si Si7 0.387336 0.117925 0.478316
Si Si8 0.716937 0.882531 0.130476
O O1 0.327900 0.628482 0.446590
O O2 0.145702 0.805004 0.534795
O O3 0.776122 0.655552 0.617303
O O4 0.960025 0.662636 0.652842
O O5 0.445459 0.500000 0.695286
O O6 0.258536 0.698305 0.753671
O O7 0.182610 0.861417 0.843100
O O8 0.874738 0.839552 0.859515
O O9 0.852681 0.704178 0.952999
O O10 0.120295 0.795845 0.240564
O O11 0.671562 0.882711 0.348782
O O12 0.122969 0.000000 0.208174
O O13 0.535349 0.368859 0.858733
O O14 0.513023 0.207872 0.807367
O O15 0.851658 0.500000 0.976880
O O16 0.000000 0.630879 0.000000
O O17 0.500000 0.149775 0.500000
O O18 0.275713 0.000000 0.520244
O O19 0.600836 0.000000 0.161750
O O20 0.000000 0.873586 0.000000
#
# Coordination Sequence:
#
# PCOD9151294 Si02
#       8
#     4   4   4   4   4   4   4   4
#     4  11  21  38  63  92 125 162 211 266 311 375
#     4  11  24  41  64  94 126 164 211 268 331 371
#     4  12  21  44  65  95 126 167 214 261 312 384
#     4  11  25  41  63  94 134 175 205 251 322 387
#     4  12  22  41  65  96 130 164 216 258 313 380
#     4  11  23  43  71  96 121 165 218 269 321 367
#     4  10  20  38  62  87 123 171 212 248 303 376
#     4  11  22  40  64  92 128 164 210 266 316 374
#
# _framework density 21.353155000000001
#
# number of rings (size 3 to 8) (size 9 to 14) (size 15 to 20)
#    0.000    0.875    6.250    1.875    0.000    3.000 
#    0.000    3.750    0.000    2.250    0.000    0.000 
#    0.000    0.000    0.000    0.000    0.000    0.000 
#
# Total GULP energy -178767.904050 kJ/mol
# GULP energy per Si atom -5586.497002 kJ/mol
# Density = 2.130455 g / cm^3
# Si number density = 21.353155 Si / 1000 Ang^3
#
#
#
# Elastic Constant Matrix: (Units=GPa)
#
#
# Indices 1 2 3 4 5 6 
#
# 1 53.7117 11.8430 14.4531 0.0000 25.1422 0.0000
# 2 11.8430 87.6450 12.0770 0.0000 4.8353 0.0000
# 3 14.4531 12.0770 81.3188 0.0000 18.6776 0.0000
# 4 0.0000 0.0000 0.0000 19.1233 0.0000 -12.4100
# 5 25.1422 4.8353 18.6776 0.0000 25.9557 0.0000
# 6 0.0000 0.0000 0.0000 -12.4100 0.0000 48.2215
#
#
#
# Elastic Compliance Matrix: (Units=1/GPa)
#
#
# Indices 1 2 3 4 5 6 
#
# 1 0.035107 -0.003123 0.002278 0.000000 -0.035064 0.000000
# 2 -0.003123 0.011953 -0.001681 0.000000 0.002009 0.000000
# 3 0.002278 -0.001681 0.015067 0.000000 -0.012735 0.000000
# 4 0.000000 0.000000 0.000000 0.062776 0.000000 0.016156
# 5 -0.035064 0.002009 -0.012735 0.000000 0.081282 0.000000
# 6 0.000000 0.000000 0.000000 0.016156 0.000000 0.024895
#
#
# Mechanical properties :
#
#
# Convention : Reuss Voigt Hill
#
# Bulk Modulus (GPa) = 17.52147 33.26908 25.39528
# Shear Modulus (GPa) = 19.59569 30.94694 25.27132
#
# Velocity S-wave (km/s) = 3.03264 3.81109 3.44393
# Velocity P-wave (km/s) = 4.52613 5.91439 5.26621
#
# Compressibility (1/GPa) = 0.05707282
#
# Stress axis : x y z
#
# Youngs Moduli (GPa) = 28.48458 83.66413 66.36907
#
# Poissons Ratio (x) = 0.26130 -0.15117
# Poissons Ratio (y) = 0.08896 0.11159
# Poissons Ratio (z) = -0.06488 0.14067
#
# Static dielectric constant tensor:
#      x y z
#    x 1.801190 0.000000 0.024170 
#    y 0.000000 1.743410 0.000000 
#    z 0.024170 0.000000 1.808580 
# 
# From -- ./inp_files/88249.got.cif
#   From: 2010.05.17/outbox.cif.g08.bks.cpg/sg10_45_cif.got.tgz:88249.got - 2010.06.03 11:33:40.
