data_PCOD9151047
_publ_section_title
;
Structure prediction by ZEFSAII (Michael W. Deem and Ramdas Pophale) SiO2 
 PCOD9151047
Probable space group: P 2/M
;
_chemical_formula_sum "Si O2"
_cell_formula_units_Z 24
_cell_length_a 10.532587
_cell_length_b 15.606422
_cell_length_c 7.375999
_cell_angle_alpha 90.000000
_cell_angle_beta 91.413516
_cell_angle_gamma 90.000000
_cell_volume 1212.068246
_symmetry_space_group_name_H-M "P 2/M"
_symmetry_group_IT_number 10
_symmetry_cell_setting 'monoclinic'
loop_
_space_group_symop_operation_xyz
x,y,z
-x,y,-z
-x,-y,-z
x,-y,z
loop_
_atom_site_type_symbol
_atom_site_label
_atom_site_fract_x
_atom_site_fract_y
_atom_site_fract_z
Si Si1 0.304882 0.181872 0.868665
Si Si2 0.961033 0.230575 0.199867
Si Si3 0.766919 0.812545 0.720985
Si Si4 0.308343 0.000000 0.357561
Si Si5 0.885364 0.402992 0.349534
Si Si6 0.406258 0.000000 0.769999
Si Si7 0.632012 0.694523 0.432501
O O1 0.167170 0.179209 0.762268
O O2 0.367383 0.088639 0.863725
O O3 0.380489 0.253989 0.758431
O O4 0.276343 0.208025 0.074624
O O5 0.921442 0.329938 0.206778
O O6 0.089748 0.218137 0.315003
O O7 0.000000 0.203884 0.000000
O O8 0.672727 0.767047 0.578750
O O9 0.762884 0.914112 0.698956
O O10 0.337932 0.000000 0.572022
O O11 0.444424 0.000000 0.263337
O O12 0.875813 0.500000 0.280519
O O13 0.749280 0.371675 0.422682
O O14 0.000000 0.401081 0.500000
O O15 0.500000 0.656891 0.500000
#
# Coordination Sequence:
#
# PCOD9151047 Si02
#       7
#     4   4   4   2   4   2   4
#     4  10  22  36  58  82 113 151 197 238 279 335
#     4   9  20  38  59  86 112 145 189 237 286 340
#     4  11  21  38  57  83 115 152 193 238 286 329
#     4  11  23  34  55  75 114 158 189 236 286 322
#     4  10  20  37  62  87 112 148 188 229 286 349
#     4  11  21  38  49  79 114 152 201 232 272 342
#     4  11  22  37  59  86 118 152 189 236 283 339
#
# _framework density 19.800865000000002
#
# number of rings (size 3 to 8) (size 9 to 14) (size 15 to 20)
#    0.000    1.667    3.333    1.500    0.000    4.667 
#    0.000    3.333    0.000    0.000    0.000    4.667 
#    0.000    0.000    0.000    0.000    0.000    0.000 
#
# Total GULP energy -133966.775427 kJ/mol
# GULP energy per Si atom -5581.948976 kJ/mol
# Density = 1.975580 g / cm^3
# Si number density = 19.800865 Si / 1000 Ang^3
#
#
#
# Elastic Constant Matrix: (Units=GPa)
#
#
# Indices 1 2 3 4 5 6 
#
# 1 99.8750 29.9604 7.9409 0.0000 -18.2757 0.0000
# 2 29.9604 92.2094 1.0684 0.0000 -1.3366 0.0000
# 3 7.9409 1.0684 58.6287 0.0000 -5.4240 0.0000
# 4 0.0000 0.0000 0.0000 18.0125 0.0000 -0.5327
# 5 -18.2757 -1.3366 -5.4240 0.0000 21.7803 0.0000
# 6 0.0000 0.0000 0.0000 -0.5327 0.0000 13.4196
#
#
#
# Elastic Compliance Matrix: (Units=1/GPa)
#
#
# Indices 1 2 3 4 5 6 
#
# 1 0.013273 -0.004149 -0.000732 0.000000 0.010701 0.000000
# 2 -0.004149 0.012153 0.000089 0.000000 -0.002714 0.000000
# 3 -0.000732 0.000089 0.017501 0.000000 0.003749 0.000000
# 4 0.000000 0.000000 0.000000 0.055582 0.000000 0.002206
# 5 0.010701 -0.002714 0.003749 0.000000 0.055659 0.000000
# 6 0.000000 0.000000 0.000000 0.002206 0.000000 0.074606
#
#
# Mechanical properties :
#
#
# Convention : Reuss Voigt Hill
#
# Bulk Modulus (GPa) = 29.99117 36.51696 33.25407
# Shear Modulus (GPa) = 20.04230 24.75870 22.40050
#
# Velocity S-wave (km/s) = 3.18495 3.53991 3.36711
# Velocity P-wave (km/s) = 5.35766 5.93213 5.65220
#
# Compressibility (1/GPa) = 0.03334314
#
# Stress axis : x y z
#
# Youngs Moduli (GPa) = 75.33814 82.28656 57.13991
#
# Poissons Ratio (x) = 0.34142 0.04184
# Poissons Ratio (y) = 0.31259 -0.00511
# Poissons Ratio (z) = 0.05517 -0.00736
#
# Static dielectric constant tensor:
#      x y z
#    x 1.741760 0.000000 0.010630 
#    y 0.000000 1.647180 0.000000 
#    z 0.010630 0.000000 1.731100 
# 
# From -- ./inp_files/18934.got.cif
#   From: 2010.05.17/outbox.cif.g08.bks.cpg/sg10_10_cif.got.tgz:18934.got - 2010.06.03 11:33:40.
