data_PCOD9151483
_publ_section_title
;
Structure prediction by ZEFSAII (Michael W. Deem and Ramdas Pophale) SiO2 
 PCOD9151483
Probable space group: P 2/M
;
_chemical_formula_sum "Si O2"
_cell_formula_units_Z 32
_cell_length_a 13.428388
_cell_length_b 7.902204
_cell_length_c 31.028706
_cell_angle_alpha 90.000000
_cell_angle_beta 152.313224
_cell_angle_gamma 90.000000
_cell_volume 1529.854792
_symmetry_space_group_name_H-M "P 2/M"
_symmetry_group_IT_number 10
_symmetry_cell_setting 'monoclinic'
loop_
_space_group_symop_operation_xyz
x,y,z
-x,y,-z
-x,-y,-z
x,-y,z
loop_
_atom_site_type_symbol
_atom_site_label
_atom_site_fract_x
_atom_site_fract_y
_atom_site_fract_z
Si Si1 0.563321 0.199638 0.921839
Si Si2 0.565800 0.798195 0.391813
Si Si3 0.559060 0.299085 0.290253
Si Si4 0.754088 0.705244 0.903778
Si Si5 0.151308 0.200003 0.282645
Si Si6 0.082701 0.792716 0.724733
Si Si7 0.019962 0.794673 0.601927
Si Si8 0.729513 0.303557 0.071791
O O1 0.635288 0.231901 0.900830
O O2 0.317825 0.260459 0.831247
O O3 0.568659 0.000000 0.932774
O O4 0.715590 0.287250 0.014934
O O5 0.548429 0.771115 0.334187
O O6 0.359711 0.728304 0.338503
O O7 0.793272 0.732903 0.496427
O O8 0.569668 0.000000 0.400367
O O9 0.536208 0.500000 0.285019
O O10 0.371517 0.234970 0.186744
O O11 0.783413 0.260810 0.352626
O O12 0.748669 0.500000 0.902066
O O13 0.000000 0.760031 0.000000
O O14 0.091360 0.266828 0.307174
O O15 0.938564 0.220021 0.172070
O O16 0.188276 0.000000 0.302293
O O17 0.049661 0.738515 0.662848
O O18 0.082804 0.000000 0.724556
O O19 0.020909 0.000000 0.602247
O O20 0.737456 0.500000 0.087349
O O21 0.500000 0.231766 0.000000
#
# Coordination Sequence:
#
# PCOD9151483 Si02
#       8
#     4   4   4   4   4   4   4   4
#     4  11  21  36  60  88 115 150 194 243 290 342
#     4  10  23  39  60  87 118 154 194 244 295 347
#     4  11  23  39  61  86 117 156 196 242 292 349
#     4  10  23  41  58  83 119 156 192 237 294 350
#     4  10  21  39  59  87 121 154 194 240 293 349
#     4   9  18  34  60  88 117 149 188 239 291 343
#     4  10  20  39  63  88 115 150 196 245 296 348
#     4  11  23  37  56  83 116 156 195 232 279 343
#
# _framework density 20.917017000000001
#
# number of rings (size 3 to 8) (size 9 to 14) (size 15 to 20)
#    0.000    1.750    2.500    1.500    1.750    4.250 
#    0.000    3.125    0.000    0.000    0.000    2.625 
#    0.000    0.000    0.000    0.000    0.000    0.000 
#
# Total GULP energy -178800.531326 kJ/mol
# GULP energy per Si atom -5587.516604 kJ/mol
# Density = 2.086941 g / cm^3
# Si number density = 20.917017 Si / 1000 Ang^3
#
#
#
# Elastic Constant Matrix: (Units=GPa)
#
#
# Indices 1 2 3 4 5 6 
#
# 1 110.9293 -4.9063 34.3533 0.0000 15.8828 0.0000
# 2 -4.9063 22.4191 -1.6311 0.0000 4.7582 0.0000
# 3 34.3533 -1.6311 75.9822 0.0000 29.6936 0.0000
# 4 0.0000 0.0000 0.0000 13.7491 0.0000 1.4564
# 5 15.8828 4.7582 29.6936 0.0000 30.7346 0.0000
# 6 0.0000 0.0000 0.0000 1.4564 0.0000 4.0621
#
#
#
# Elastic Compliance Matrix: (Units=1/GPa)
#
#
# Indices 1 2 3 4 5 6 
#
# 1 0.010644 0.002481 -0.003951 0.000000 -0.002067 0.000000
# 2 0.002481 0.048512 0.005391 0.000000 -0.014001 0.000000
# 3 -0.003951 0.005391 0.023442 0.000000 -0.021441 0.000000
# 4 0.000000 0.000000 0.000000 0.075603 0.000000 -0.027107
# 5 -0.002067 -0.014001 -0.021441 0.000000 0.056487 0.000000
# 6 0.000000 0.000000 0.000000 -0.027107 0.000000 0.255896
#
#
# Mechanical properties :
#
#
# Convention : Reuss Voigt Hill
#
# Bulk Modulus (GPa) = 11.05716 29.44028 20.24872
# Shear Modulus (GPa) = 10.14427 21.81015 15.97721
#
# Velocity S-wave (km/s) = 2.20461 3.23259 2.76676
# Velocity P-wave (km/s) = 3.43192 5.29511 4.46185
#
# Compressibility (1/GPa) = 0.09043914
#
# Stress axis : x y z
#
# Youngs Moduli (GPa) = 93.94848 20.61365 42.65803
#
# Poissons Ratio (x) = -0.05114 0.16856
# Poissons Ratio (y) = -0.23306 -0.22998
# Poissons Ratio (z) = 0.37123 -0.11113
#
# Static dielectric constant tensor:
#      x y z
#    x 1.741380 0.000000 0.007630 
#    y 0.000000 1.759890 0.000000 
#    z 0.007630 0.000000 1.738930 
# 
# From -- ./inp_files/84745.got.cif
#   From: 2010.05.17/outbox.cif.g08.bks.cpg/sg10_43_cif.got.tgz:84745.got - 2010.06.03 11:33:40.
