data_PCOD9151389
_publ_section_title
;
Structure prediction by ZEFSAII (Michael W. Deem and Ramdas Pophale) SiO2 
 PCOD9151389
Probable space group: P 2/M
;
_chemical_formula_sum "Si O2"
_cell_formula_units_Z 24
_cell_length_a 17.883816
_cell_length_b 7.888363
_cell_length_c 23.932494
_cell_angle_alpha 90.000000
_cell_angle_beta 22.250030
_cell_angle_gamma 90.000000
_cell_volume 1278.415331
_symmetry_space_group_name_H-M "P 2/M"
_symmetry_group_IT_number 10
_symmetry_cell_setting 'monoclinic'
loop_
_space_group_symop_operation_xyz
x,y,z
-x,y,-z
-x,-y,-z
x,-y,z
loop_
_atom_site_type_symbol
_atom_site_label
_atom_site_fract_x
_atom_site_fract_y
_atom_site_fract_z
Si Si1 0.599447 0.295833 0.036707
Si Si2 0.979738 0.000000 0.079793
Si Si3 0.074178 0.803078 0.273614
Si Si4 0.244869 0.311198 0.591527
Si Si5 0.915234 0.300784 0.913698
Si Si6 0.851605 0.704945 0.651165
Si Si7 0.517716 0.000000 0.421278
O O1 0.597170 0.500000 0.032944
O O2 0.375201 0.235328 0.198197
O O3 0.715653 0.228896 0.902099
O O4 0.733684 0.256794 0.997861
O O5 0.069714 0.167149 0.047029
O O6 0.746554 0.000000 0.250857
O O7 0.000000 0.000000 0.000000
O O8 0.080156 0.754731 0.334099
O O9 0.910694 0.701579 0.351653
O O10 0.025765 0.000000 0.300747
O O11 0.330215 0.500000 0.534914
O O12 0.406554 0.166122 0.475691
O O13 0.110849 0.283538 0.739600
O O14 0.898814 0.500000 0.941009
O O15 0.848096 0.500000 0.650572
O O16 0.000000 0.765538 0.500000
O O17 0.500000 0.000000 0.500000
#
# Coordination Sequence:
#
# PCOD9151389 Si02
#       7
#     4   2   4   4   4   4   2
#     4   9  19  36  60  86 112 152 202 246 291 342
#     4  12  26  42  60  89 124 159 191 242 303 358
#     4  11  21  35  58  88 122 153 198 247 288 348
#     4  10  20  38  65  94 119 153 198 250 302 346
#     4   9  19  38  63  89 118 155 200 245 294 355
#     4  10  21  38  57  82 119 160 201 244 291 347
#     4  12  22  40  66  91 122 149 197 250 297 362
#
# _framework density 18.773242
#
# number of rings (size 3 to 8) (size 9 to 14) (size 15 to 20)
#    0.000    1.833    2.500    3.000    3.500    4.333 
#    3.000    0.000    0.000    0.000    0.000    0.000 
#    0.000    0.000    0.000    0.000    0.000    0.000 
#
# Total GULP energy -134029.226907 kJ/mol
# GULP energy per Si atom -5584.551121 kJ/mol
# Density = 1.873051 g / cm^3
# Si number density = 18.773242 Si / 1000 Ang^3
#
#
#
# Elastic Constant Matrix: (Units=GPa)
#
#
# Indices 1 2 3 4 5 6 
#
# 1 119.6474 45.3343 49.7083 0.0000 26.2707 0.0000
# 2 45.3343 80.6867 19.0079 0.0000 5.9612 0.0000
# 3 49.7083 19.0079 75.6153 0.0000 14.1348 0.0000
# 4 0.0000 0.0000 0.0000 11.7630 0.0000 -1.9395
# 5 26.2707 5.9612 14.1348 0.0000 24.9815 0.0000
# 6 0.0000 0.0000 0.0000 -1.9395 0.0000 36.2752
#
#
#
# Elastic Compliance Matrix: (Units=1/GPa)
#
#
# Indices 1 2 3 4 5 6 
#
# 1 0.016299 -0.006681 -0.006854 0.000000 -0.011667 0.000000
# 2 -0.006681 0.015957 -0.000247 0.000000 0.003358 0.000000
# 3 -0.006854 -0.000247 0.018378 0.000000 -0.003132 0.000000
# 4 0.000000 0.000000 0.000000 0.085768 0.000000 0.004586
# 5 -0.011667 0.003358 -0.003132 0.000000 0.053270 0.000000
# 6 0.000000 0.000000 0.000000 0.004586 0.000000 0.027812
#
#
# Mechanical properties :
#
#
# Convention : Reuss Voigt Hill
#
# Bulk Modulus (GPa) = 43.34589 56.00560 49.67574
# Shear Modulus (GPa) = 19.78327 25.39719 22.59023
#
# Velocity S-wave (km/s) = 3.24975 3.68209 3.47265
# Velocity P-wave (km/s) = 6.10086 6.92636 6.52667
#
# Compressibility (1/GPa) = 0.02307024
#
# Stress axis : x y z
#
# Youngs Moduli (GPa) = 61.35503 62.66678 54.41260
#
# Poissons Ratio (x) = 0.41866 0.37295
# Poissons Ratio (y) = 0.40990 0.01345
# Poissons Ratio (z) = 0.42053 0.01549
#
# Static dielectric constant tensor:
#      x y z
#    x 1.626820 0.000000 -0.017350 
#    y 0.000000 1.661170 0.000000 
#    z -0.017350 0.000000 1.626930 
# 
# From -- ./inp_files/90032.got.cif
#   From: 2010.05.17/outbox.cif.g08.bks.cpg/sg10_46_cif.got.tgz:90032.got - 2010.06.03 11:33:40.
