data_PCOD9151121
_publ_section_title
;
Structure prediction by ZEFSAII (Michael W. Deem and Ramdas Pophale) SiO2 
 PCOD9151121
Probable space group: P 2/M
;
_chemical_formula_sum "Si O2"
_cell_formula_units_Z 22
_cell_length_a 10.661428
_cell_length_b 13.746388
_cell_length_c 11.510228
_cell_angle_alpha 90.000000
_cell_angle_beta 140.952171
_cell_angle_gamma 90.000000
_cell_volume 1062.691046
_symmetry_space_group_name_H-M "P 2/M"
_symmetry_group_IT_number 10
_symmetry_cell_setting 'monoclinic'
loop_
_space_group_symop_operation_xyz
x,y,z
-x,y,-z
-x,-y,-z
x,-y,z
loop_
_atom_site_type_symbol
_atom_site_label
_atom_site_fract_x
_atom_site_fract_y
_atom_site_fract_z
Si Si1 0.822365 0.811317 0.212963
Si Si2 0.761658 0.883969 0.429894
Si Si3 0.000000 0.255311 0.000000
Si Si4 0.678553 0.886891 0.879850
Si Si5 0.272429 0.385225 0.360634
Si Si6 0.024638 0.609764 0.656153
O O1 0.774359 0.836408 0.311487
O O2 0.827336 0.695392 0.198876
O O3 0.051605 0.846418 0.362640
O O4 0.687262 0.867627 0.024669
O O5 0.543957 0.864615 0.323990
O O6 0.781652 0.000000 0.429800
O O7 0.840123 0.185343 0.945189
O O8 0.879574 0.323281 0.825171
O O9 0.722733 0.000000 0.888323
O O10 0.500000 0.355202 0.500000
O O11 0.259719 0.500000 0.321036
O O12 0.186868 0.376512 0.430337
O O13 0.093116 0.500000 0.732762
O O14 0.000000 0.618438 0.500000
#
# Coordination Sequence:
#
# PCOD9151121 Si02
#       6
#     4   4   2   4   4   4
#     4  11  19  37  62  84 116 158 197 246 307 362
#     4  10  21  36  59  88 116 154 205 249 299 365
#     4  12  24  38  64  88 122 164 206 248 302 366
#     4  11  24  39  56  85 122 159 202 252 299 354
#     4  10  23  43  66  91 122 163 208 251 302 367
#     4  10  20  37  63  93 123 155 196 252 310 363
#
# _framework density 20.702159999999999
#
# number of rings (size 3 to 8) (size 9 to 14) (size 15 to 20)
#    0.000    1.455    3.636    3.273    2.545    1.455 
#    0.000    0.000    0.000    8.727    0.000    0.000 
#    0.000    0.000    0.000    0.000    0.000    0.000 
#
# Total GULP energy -122902.792792 kJ/mol
# GULP energy per Si atom -5586.490581 kJ/mol
# Density = 2.065504 g / cm^3
# Si number density = 20.702160 Si / 1000 Ang^3
#
#
#
# Elastic Constant Matrix: (Units=GPa)
#
#
# Indices 1 2 3 4 5 6 
#
# 1 94.4867 45.5841 40.5616 0.0000 9.9058 0.0000
# 2 45.5841 112.8923 24.5999 0.0000 20.6480 0.0000
# 3 40.5616 24.5999 75.2782 0.0000 22.4525 0.0000
# 4 0.0000 0.0000 0.0000 63.7807 0.0000 84.2347
# 5 9.9058 20.6480 22.4525 0.0000 28.8727 0.0000
# 6 0.0000 0.0000 0.0000 84.2347 0.0000 90.3054
#
#
#
# Elastic Compliance Matrix: (Units=1/GPa)
#
#
# Indices 1 2 3 4 5 6 
#
# 1 0.016467 -0.005720 -0.008513 0.000000 0.005061 0.000000
# 2 -0.005720 0.012310 0.001431 0.000000 -0.007955 0.000000
# 3 -0.008513 0.001431 0.021922 0.000000 -0.015150 0.000000
# 4 0.000000 0.000000 0.000000 -0.067607 0.000000 0.063062
# 5 0.005061 -0.007955 -0.015150 0.000000 0.050369 0.000000
# 6 0.000000 0.000000 0.000000 0.063062 0.000000 -0.047749
#
#
# Mechanical properties :
#
#
# Convention : Reuss Voigt Hill
#
# Bulk Modulus (GPa) = 39.84545 56.01649 47.93097
# Shear Modulus (GPa) = 254.06490 48.05251 151.05871
#
# Velocity S-wave (km/s) = 11.09010 4.82304 8.55137
# Velocity P-wave (km/s) = 13.53794 7.62448 10.98655
#
# Compressibility (1/GPa) = 0.02509697
#
# Stress axis : x y z
#
# Youngs Moduli (GPa) = 60.72816 81.23187 45.61604
#
# Poissons Ratio (x) = 0.46462 0.38833
# Poissons Ratio (y) = 0.34734 -0.06530
# Poissons Ratio (z) = 0.51698 -0.11628
#
# Static dielectric constant tensor:
#      x y z
#    x 1.782560 0.000000 -0.005240 
#    y 0.000000 1.739910 0.000000 
#    z -0.005240 0.000000 1.701970 
# 
# From -- ./inp_files/47251.got.cif
#   From: 2010.05.17/outbox.cif.g08.bks.cpg/sg10_24_cif.got.tgz:47251.got - 2010.06.03 11:33:40.
