data_PCOD9151895
_publ_section_title
;
Structure prediction by ZEFSAII (Michael W. Deem and Ramdas Pophale) SiO2 
 PCOD9151895
Probable space group: P 2/M
;
_chemical_formula_sum "Si O2"
_cell_formula_units_Z 24
_cell_length_a 10.937914
_cell_length_b 7.696794
_cell_length_c 19.903273
_cell_angle_alpha 90.000000
_cell_angle_beta 50.640808
_cell_angle_gamma 90.000000
_cell_volume 1295.545119
_symmetry_space_group_name_H-M "P 2/M"
_symmetry_group_IT_number 10
_symmetry_cell_setting 'monoclinic'
loop_
_space_group_symop_operation_xyz
x,y,z
-x,y,-z
-x,-y,-z
x,-y,z
loop_
_atom_site_type_symbol
_atom_site_label
_atom_site_fract_x
_atom_site_fract_y
_atom_site_fract_z
Si Si1 0.610300 0.195552 0.734962
Si Si2 0.619264 0.000000 0.859409
Si Si3 0.260173 0.000000 0.035864
Si Si4 0.973367 0.294942 0.929368
Si Si5 0.536477 0.286741 0.563043
Si Si6 0.170264 0.698436 0.455113
Si Si7 0.687272 0.707610 0.238469
O O1 0.731018 0.304625 0.648783
O O2 0.432024 0.252040 0.781213
O O3 0.625696 0.000000 0.701277
O O4 0.644957 0.165810 0.801198
O O5 0.723041 0.000000 0.889421
O O6 0.436330 0.000000 0.944426
O O7 0.167033 0.829843 0.044045
O O8 0.946107 0.500000 0.923766
O O9 0.135871 0.232189 0.837279
O O10 0.000000 0.281337 0.000000
O O11 0.500000 0.232638 0.500000
O O12 0.538071 0.500000 0.563932
O O13 0.706339 0.228348 0.533221
O O14 0.402145 0.230386 0.663149
O O15 0.138810 0.500000 0.488215
O O16 0.000000 0.781919 0.500000
O O17 0.697152 0.500000 0.239773
#
# Coordination Sequence:
#
# PCOD9151895 Si02
#       7
#     4   2   2   4   4   4   4
#     4   9  18  32  52  73 102 135 185 215 269 325
#     4   9  22  38  53  78 102 150 188 214 275 342
#     4  11  21  40  60  74 119 148 181 235 275 333
#     4  10  21  35  57  89 112 139 184 229 284 336
#     4   8  14  27  46  69  99 136 170 215 276 326
#     4   9  17  31  51  75 101 137 187 231 271 326
#     4   9  17  31  52  79 107 133 176 228 272 333
#
# _framework density 18.525020999999999
#
# number of rings (size 3 to 8) (size 9 to 14) (size 15 to 20)
#    0.500    2.333    0.000    2.750    1.167    0.333 
#    3.000    4.167    0.000    8.000    0.000    0.000 
#    0.000    0.000    0.000    0.000    0.000    0.000 
#
# Total GULP energy -133603.460833 kJ/mol
# GULP energy per Si atom -5566.810868 kJ/mol
# Density = 1.848286 g / cm^3
# Si number density = 18.525021 Si / 1000 Ang^3
#
#
#
# Elastic Constant Matrix: (Units=GPa)
#
#
# Indices 1 2 3 4 5 6 
#
# 1 129.2249 35.0673 56.7232 0.0000 8.0002 0.0000
# 2 35.0673 46.2725 18.3989 0.0000 -4.1658 0.0000
# 3 56.7232 18.3989 56.2574 0.0000 8.3242 0.0000
# 4 0.0000 0.0000 0.0000 10.9323 0.0000 -2.9222
# 5 8.0002 -4.1658 8.3242 0.0000 35.3193 0.0000
# 6 0.0000 0.0000 0.0000 -2.9222 0.0000 11.5773
#
#
#
# Elastic Compliance Matrix: (Units=1/GPa)
#
#
# Indices 1 2 3 4 5 6 
#
# 1 0.015367 -0.006499 -0.013200 0.000000 -0.001136 0.000000
# 2 -0.006499 0.028480 -0.003602 0.000000 0.005680 0.000000
# 3 -0.013200 -0.003602 0.033036 0.000000 -0.005221 0.000000
# 4 0.000000 0.000000 0.000000 0.098090 0.000000 0.024759
# 5 -0.001136 0.005680 -0.005221 0.000000 0.030471 0.000000
# 6 0.000000 0.000000 0.000000 0.024759 0.000000 0.092625
#
#
# Mechanical properties :
#
#
# Convention : Reuss Voigt Hill
#
# Bulk Modulus (GPa) = 33.02546 50.23706 41.63126
# Shear Modulus (GPa) = 14.09388 19.67013 16.88200
#
# Velocity S-wave (km/s) = 2.76126 3.26208 3.02206
# Velocity P-wave (km/s) = 5.29455 6.43161 5.89058
#
# Compressibility (1/GPa) = 0.03027966
#
# Stress axis : x y z
#
# Youngs Moduli (GPa) = 65.07577 35.11240 30.27042
#
# Poissons Ratio (x) = 0.22820 0.39958
# Poissons Ratio (y) = 0.42294 0.10903
# Poissons Ratio (z) = 0.85902 0.12647
#
# Static dielectric constant tensor:
#      x y z
#    x 1.631300 0.000000 -0.010610 
#    y 0.000000 1.662040 0.000000 
#    z -0.010610 0.000000 1.654590 
# 
# From -- ./inp_files/81716.got.cif
#   From: 2010.05.17/outbox.cif.g08.bks.cpg/sg10_41_cif.got.tgz:81716.got - 2010.06.03 11:33:40.
