data_PCOD9151224
_publ_section_title
;
Structure prediction by ZEFSAII (Michael W. Deem and Ramdas Pophale) SiO2 
 PCOD9151224
Probable space group: P 2/M
;
_chemical_formula_sum "Si O2"
_cell_formula_units_Z 32
_cell_length_a 25.125309
_cell_length_b 8.469178
_cell_length_c 14.528936
_cell_angle_alpha 90.000000
_cell_angle_beta 149.952215
_cell_angle_gamma 90.000000
_cell_volume 1548.043783
_symmetry_space_group_name_H-M "P 2/M"
_symmetry_group_IT_number 10
_symmetry_cell_setting 'monoclinic'
loop_
_space_group_symop_operation_xyz
x,y,z
-x,y,-z
-x,-y,-z
x,-y,z
loop_
_atom_site_type_symbol
_atom_site_label
_atom_site_fract_x
_atom_site_fract_y
_atom_site_fract_z
Si Si1 0.379658 0.809052 0.292703
Si Si2 0.382988 0.684590 0.799900
Si Si3 0.156848 0.185570 0.480749
Si Si4 0.318788 0.190573 0.994020
Si Si5 0.902964 0.688510 0.417971
Si Si6 0.887241 0.690295 0.790301
Si Si7 0.694413 0.311327 0.636017
Si Si8 0.544583 0.185908 0.270304
O O1 0.500000 0.758782 0.500000
O O2 0.345001 0.761495 0.138151
O O3 0.300838 0.737367 0.250746
O O4 0.376783 0.000000 0.292508
O O5 0.376590 0.500000 0.814073
O O6 0.280851 0.772830 0.684516
O O7 0.385530 0.709966 0.693955
O O8 0.500000 0.747951 0.000000
O O9 0.091626 0.256520 0.468105
O O10 0.129986 0.250284 0.339277
O O11 0.143359 0.000000 0.460170
O O12 0.421939 0.237343 0.088225
O O13 0.315323 0.000000 0.986243
O O14 0.208806 0.255665 0.791882
O O15 0.904666 0.500000 0.419858
O O16 0.000000 0.747770 0.500000
O O17 0.886859 0.500000 0.785564
O O18 0.795063 0.736416 0.724330
O O19 0.000000 0.743215 0.000000
O O20 0.679382 0.500000 0.605833
O O21 0.594266 0.217146 0.444197
O O22 0.552701 0.000000 0.259570
#
# Coordination Sequence:
#
# PCOD9151224 Si02
#       8
#     4   4   4   4   4   4   4   4
#     4  10  20  38  60  86 126 170 207 255 318 379
#     4  11  23  38  59  91 128 166 209 257 313 379
#     4  12  25  42  68  97 127 165 211 263 317 379
#     4  10  22  40  64  94 128 168 213 262 318 378
#     4  11  26  47  69  92 124 167 212 264 321 374
#     4  10  23  44  67  92 129 171 212 262 317 374
#     4  11  22  36  59  90 123 164 210 259 311 369
#     4  11  21  36  59  88 126 165 202 253 317 377
#
# _framework density 20.671251000000002
#
# number of rings (size 3 to 8) (size 9 to 14) (size 15 to 20)
#    0.000    1.250    2.500    3.375    0.000    7.500 
#    0.000    3.750    0.000    0.000    0.000    0.000 
#    0.000    0.000    0.000    0.000    0.000    0.000 
#
# Total GULP energy -178874.899750 kJ/mol
# GULP energy per Si atom -5589.840617 kJ/mol
# Density = 2.062420 g / cm^3
# Si number density = 20.671251 Si / 1000 Ang^3
#
#
#
# Elastic Constant Matrix: (Units=GPa)
#
#
# Indices 1 2 3 4 5 6 
#
# 1 155.6014 19.3687 47.4919 0.0000 9.9741 0.0000
# 2 19.3687 28.2122 17.0923 0.0000 6.4576 0.0000
# 3 47.4919 17.0923 97.3079 0.0000 9.9454 0.0000
# 4 0.0000 0.0000 0.0000 69.9710 0.0000 -7.9216
# 5 9.9741 6.4576 9.9454 0.0000 32.4143 0.0000
# 6 0.0000 0.0000 0.0000 -7.9216 0.0000 -17.6946
#
#
#
# Elastic Compliance Matrix: (Units=1/GPa)
#
#
# Indices 1 2 3 4 5 6 
#
# 1 0.007856 -0.003289 -0.003176 0.000000 -0.000788 0.000000
# 2 -0.003289 0.042188 -0.005213 0.000000 -0.005793 0.000000
# 3 -0.003176 -0.005213 0.012942 0.000000 -0.001955 0.000000
# 4 0.000000 0.000000 0.000000 0.013602 0.000000 -0.006089
# 5 -0.000788 -0.005793 -0.001955 0.000000 0.032847 0.000000
# 6 0.000000 0.000000 0.000000 -0.006089 0.000000 -0.053788
#
#
# Mechanical properties :
#
#
# Convention : Reuss Voigt Hill
#
# Bulk Modulus (GPa) = 25.23330 49.89192 37.56261
# Shear Modulus (GPa) = 54.22233 30.08272 42.15252
#
# Velocity S-wave (km/s) = 5.12716 3.81897 4.52063
# Velocity P-wave (km/s) = 6.87632 6.60563 6.74233
#
# Compressibility (1/GPa) = 0.03963017
#
# Stress axis : x y z
#
# Youngs Moduli (GPa) = 127.29283 23.70343 77.26660
#
# Poissons Ratio (x) = 0.07796 0.24539
# Poissons Ratio (y) = 0.41866 0.40280
# Poissons Ratio (z) = 0.40427 0.12357
#
# Static dielectric constant tensor:
#      x y z
#    x 1.779540 0.000000 -0.023820 
#    y 0.000000 1.694560 0.000000 
#    z -0.023820 0.000000 1.761040 
# 
# From -- ./inp_files/71696.got.cif
#   From: 2010.05.17/outbox.cif.g08.bks.cpg/sg10_36_cif.got.tgz:71696.got - 2010.06.03 11:33:40.
