data_PCOD9151634
_publ_section_title
;
Structure prediction by ZEFSAII (Michael W. Deem and Ramdas Pophale) SiO2 
 PCOD9151634
Probable space group: P 2/M
;
_chemical_formula_sum "Si O2"
_cell_formula_units_Z 22
_cell_length_a 11.323296
_cell_length_b 19.858712
_cell_length_c 5.478306
_cell_angle_alpha 90.000000
_cell_angle_beta 108.476695
_cell_angle_gamma 90.000000
_cell_volume 1168.384735
_symmetry_space_group_name_H-M "P 2/M"
_symmetry_group_IT_number 10
_symmetry_cell_setting 'monoclinic'
loop_
_space_group_symop_operation_xyz
x,y,z
-x,y,-z
-x,-y,-z
x,-y,z
loop_
_atom_site_type_symbol
_atom_site_label
_atom_site_fract_x
_atom_site_fract_y
_atom_site_fract_z
Si Si1 0.848516 0.922047 0.407211
Si Si2 0.805271 0.574542 0.695948
Si Si3 0.000000 0.365865 0.500000
Si Si4 0.139361 0.300188 0.974063
Si Si5 0.152252 0.150830 0.092876
Si Si6 0.553169 0.420986 0.283612
O O1 0.808678 0.879938 0.620740
O O2 0.000000 0.920171 0.500000
O O3 0.811617 0.000000 0.407994
O O4 0.808987 0.891914 0.119801
O O5 0.795206 0.500000 0.799783
O O6 0.701104 0.579273 0.417200
O O7 0.939388 0.586688 0.662686
O O8 0.788961 0.636008 0.870381
O O9 0.892645 0.316952 0.326662
O O10 0.193288 0.227744 0.072329
O O11 0.000000 0.299464 0.000000
O O12 0.000000 0.150643 0.000000
O O13 0.500000 0.391208 0.500000
O O14 0.513296 0.500000 0.256689
O O15 0.500000 0.390928 0.000000
#
# Coordination Sequence:
#
# PCOD9151634 Si02
#       6
#     4   4   2   4   4   4
#     4   9  16  25  39  59  80 109 151 197 235 265
#     4  10  21  34  50  70  96 125 166 216 254 294
#     4  10  21  32  48  68  95 128 172 206 255 296
#     4   9  20  31  44  63  90 127 164 197 246 295
#     4   9  17  26  42  56  84 115 152 194 232 278
#     4   9  19  35  54  73  92 119 157 203 254 302
#
# _framework density 18.829414
#
# number of rings (size 3 to 8) (size 9 to 14) (size 15 to 20)
#    0.000    2.727    0.000    0.818   11.455    6.182 
#    0.000    0.000    0.000    0.000    0.000    0.000 
#    0.000    0.000    0.000    0.000    0.000   18.182 
#
# Total GULP energy -122516.567108 kJ/mol
# GULP energy per Si atom -5568.934869 kJ/mol
# Density = 1.878656 g / cm^3
# Si number density = 18.829414 Si / 1000 Ang^3
#
#
#
# Elastic Constant Matrix: (Units=GPa)
#
#
# Indices 1 2 3 4 5 6 
#
# 1 19.5748 10.8275 8.9212 0.0000 -5.1419 0.0000
# 2 10.8275 153.7027 71.0046 0.0000 -9.5947 0.0000
# 3 8.9212 71.0046 131.1171 0.0000 -17.6538 0.0000
# 4 0.0000 0.0000 0.0000 22.0493 0.0000 -3.4405
# 5 -5.1419 -9.5947 -17.6538 0.0000 15.8823 0.0000
# 6 0.0000 0.0000 0.0000 -3.4405 0.0000 -1.6524
#
#
#
# Elastic Compliance Matrix: (Units=1/GPa)
#
#
# Indices 1 2 3 4 5 6 
#
# 1 0.057120 -0.002967 -0.000037 0.000000 0.016659 0.000000
# 2 -0.002967 0.008831 -0.004694 0.000000 -0.000843 0.000000
# 3 -0.000037 -0.004694 0.011510 0.000000 0.009947 0.000000
# 4 0.000000 0.000000 0.000000 0.034231 0.000000 -0.071276
# 5 0.016659 -0.000843 0.009947 0.000000 0.078904 0.000000
# 6 0.000000 0.000000 0.000000 -0.071276 0.000000 -0.456784
#
#
# Mechanical properties :
#
#
# Convention : Reuss Voigt Hill
#
# Bulk Modulus (GPa) = 16.11180 53.98901 35.05041
# Shear Modulus (GPa) = -21.72927 21.49858 -0.11534
#
# Velocity S-wave (km/s) = -3.40075 3.38265 -0.24777
# Velocity P-wave (km/s) = 2.61627 6.63260 4.30967
#
# Compressibility (1/GPa) = 0.06206630
#
# Stress axis : x y z
#
# Youngs Moduli (GPa) = 17.50700 113.23981 86.87779
#
# Poissons Ratio (x) = 0.33597 0.00319
# Poissons Ratio (y) = 0.05194 0.40779
# Poissons Ratio (z) = 0.00064 0.53153
#
# Static dielectric constant tensor:
#      x y z
#    x 1.670040 0.000000 -0.014120 
#    y 0.000000 1.659710 0.000000 
#    z -0.014120 0.000000 1.748090 
# 
# From -- ./inp_files/7269.got.cif
#   From: 2010.05.17/outbox.cif.g08.bks.cpg/sg10_4_cif.got.tgz:7269.got - 2010.06.03 11:33:40.
