data_PCOD9151336
_publ_section_title
;
Structure prediction by ZEFSAII (Michael W. Deem and Ramdas Pophale) SiO2 
 PCOD9151336
Probable space group: P 2/M
;
_chemical_formula_sum "Si O2"
_cell_formula_units_Z 28
_cell_length_a 13.788510
_cell_length_b 22.599974
_cell_length_c 8.267684
_cell_angle_alpha 90.000000
_cell_angle_beta 148.159764
_cell_angle_gamma 90.000000
_cell_volume 1359.173302
_symmetry_space_group_name_H-M "P 2/M"
_symmetry_group_IT_number 10
_symmetry_cell_setting 'monoclinic'
loop_
_space_group_symop_operation_xyz
x,y,z
-x,y,-z
-x,-y,-z
x,-y,z
loop_
_atom_site_type_symbol
_atom_site_label
_atom_site_fract_x
_atom_site_fract_y
_atom_site_fract_z
Si Si1 0.730455 0.883598 0.465386
Si Si2 0.335973 0.066715 0.948061
Si Si3 0.007240 0.340765 0.196986
Si Si4 0.713102 0.433449 0.259581
Si Si5 0.009753 0.789231 0.323230
Si Si6 0.721302 0.122641 0.810820
Si Si7 0.705656 0.566669 0.860649
O O1 0.772767 0.926325 0.373763
O O2 0.823776 0.822739 0.535435
O O3 0.787725 0.899437 0.729394
O O4 0.508291 0.888239 0.172440
O O5 0.409113 0.000000 0.064147
O O6 0.234426 0.082681 0.969918
O O7 0.171355 0.384000 0.484899
O O8 0.018277 0.280721 0.313645
O O9 0.000000 0.323217 0.000000
O O10 0.828073 0.380700 0.968781
O O11 0.775322 0.500000 0.393551
O O12 0.500000 0.428206 0.000000
O O13 0.722998 0.429116 0.079446
O O14 0.000000 0.803932 0.500000
O O15 0.823592 0.815577 0.983031
O O16 0.500000 0.127421 0.500000
O O17 0.500000 0.572140 0.500000
O O18 0.768168 0.500000 0.903158
#
# Coordination Sequence:
#
# PCOD9151336 Si02
#       7
#     4   4   4   4   4   4   4
#     4  10  20  38  63  90 127 163 202 254 314 366
#     4  10  21  40  67  99 128 161 205 256 316 380
#     4  12  25  40  61  92 125 166 217 265 313 381
#     4  10  21  40  63  92 128 165 209 262 321 378
#     4  12  24  44  64  87 126 166 213 261 314 373
#     4  10  22  40  65  93 126 165 208 253 315 376
#     4  10  21  39  64  93 128 167 209 264 324 377
#
# _framework density 20.600759
#
# number of rings (size 3 to 8) (size 9 to 14) (size 15 to 20)
#    0.000    1.429    1.429    4.714    0.000    7.143 
#    2.571    5.000    0.000    8.571    0.000    0.000 
#    0.000    0.000    0.000    0.000    0.000    0.000 
#
# Total GULP energy -156133.623019 kJ/mol
# GULP energy per Si atom -5576.200822 kJ/mol
# Density = 2.055387 g / cm^3
# Si number density = 20.600759 Si / 1000 Ang^3
#
#
#
# Elastic Constant Matrix: (Units=GPa)
#
#
# Indices 1 2 3 4 5 6 
#
# 1 126.2367 39.0410 37.7804 0.0000 -27.6756 0.0000
# 2 39.0410 86.9563 25.7647 0.0000 4.0530 0.0000
# 3 37.7804 25.7647 74.8123 0.0000 -8.3705 0.0000
# 4 0.0000 0.0000 0.0000 193.1684 0.0000 58.0553
# 5 -27.6756 4.0530 -8.3705 0.0000 46.4995 0.0000
# 6 0.0000 0.0000 0.0000 58.0553 0.0000 38.6189
#
#
#
# Elastic Compliance Matrix: (Units=1/GPa)
#
#
# Indices 1 2 3 4 5 6 
#
# 1 0.011945 -0.004590 -0.003686 0.000000 0.006846 0.000000
# 2 -0.004590 0.014746 -0.003276 0.000000 -0.004607 0.000000
# 3 -0.003686 -0.003276 0.016475 0.000000 0.001058 0.000000
# 4 0.000000 0.000000 0.000000 0.009443 0.000000 -0.014196
# 5 0.006846 -0.004607 0.001058 0.000000 0.026172 0.000000
# 6 0.000000 0.000000 0.000000 -0.014196 0.000000 0.047235
#
#
# Mechanical properties :
#
#
# Convention : Reuss Voigt Hill
#
# Bulk Modulus (GPa) = 49.84362 54.79751 52.32056
# Shear Modulus (GPa) = 32.09095 68.01862 50.05479
#
# Velocity S-wave (km/s) = 3.95112 5.75232 4.93460
# Velocity P-wave (km/s) = 6.71288 8.41287 7.61049
#
# Compressibility (1/GPa) = 0.02006275
#
# Stress axis : x y z
#
# Youngs Moduli (GPa) = 83.71594 67.81392 60.69985
#
# Poissons Ratio (x) = 0.31128 0.22371
# Poissons Ratio (y) = 0.38427 0.19885
# Poissons Ratio (z) = 0.30854 0.22215
#
# Static dielectric constant tensor:
#      x y z
#    x 1.741880 0.000000 -0.001420 
#    y 0.000000 1.697090 0.000000 
#    z -0.001420 0.000000 1.749300 
# 
# From -- ./inp_files/30496.got.cif
#   From: 2010.05.17/outbox.cif.g08.bks.cpg/sg10_16_cif.got.tgz:30496.got - 2010.06.03 11:33:40.
