data_PCOD9151192
_publ_section_title
;
Structure prediction by ZEFSAII (Michael W. Deem and Ramdas Pophale) SiO2 
 PCOD9151192
Probable space group: P 2/M
;
_chemical_formula_sum "Si O2"
_cell_formula_units_Z 28
_cell_length_a 14.886463
_cell_length_b 8.768661
_cell_length_c 14.567895
_cell_angle_alpha 90.000000
_cell_angle_beta 120.387568
_cell_angle_gamma 90.000000
_cell_volume 1640.373951
_symmetry_space_group_name_H-M "P 2/M"
_symmetry_group_IT_number 10
_symmetry_cell_setting 'monoclinic'
loop_
_space_group_symop_operation_xyz
x,y,z
-x,y,-z
-x,-y,-z
x,-y,z
loop_
_atom_site_type_symbol
_atom_site_label
_atom_site_fract_x
_atom_site_fract_y
_atom_site_fract_z
Si Si1 0.796232 0.324491 0.073742
Si Si2 0.334449 0.674689 0.176939
Si Si3 0.230870 0.820335 0.294570
Si Si4 0.612652 0.817300 0.097380
Si Si5 0.986369 0.685252 0.885312
Si Si6 0.399438 0.317221 0.511639
Si Si7 0.552523 0.817319 0.265430
O O1 0.803003 0.500000 0.107886
O O2 0.711707 0.243093 0.093297
O O3 0.913056 0.263451 0.121419
O O4 0.750015 0.324515 0.946828
O O5 0.345802 0.500000 0.216998
O O6 0.299764 0.783425 0.240503
O O7 0.441918 0.736102 0.193134
O O8 0.118691 0.750088 0.212666
O O9 0.294437 0.739984 0.408777
O O10 0.223341 0.000000 0.306638
O O11 0.618847 0.780654 0.208874
O O12 0.611329 0.000000 0.087105
O O13 0.500000 0.761882 0.000000
O O14 0.982621 0.500000 0.882283
O O15 0.000000 0.729758 0.000000
O O16 0.500000 0.274348 0.500000
O O17 0.399990 0.500000 0.519527
O O18 0.408617 0.243623 0.616834
O O19 0.539612 0.000000 0.262652
#
# Coordination Sequence:
#
# PCOD9151192 Si02
#       7
#     4   4   4   4   4   4   4
#     4  10  21  35  56  82 111 152 193 229 270 326
#     4  11  20  33  53  81 115 151 188 228 272 326
#     4  12  24  36  55  84 115 149 187 229 280 337
#     4  10  21  36  54  81 117 152 183 226 283 333
#     4  10  20  38  58  80 114 151 188 230 278 329
#     4  11  23  38  58  82 111 149 188 228 281 335
#     4  11  22  36  55  82 115 151 188 229 278 331
#
# _framework density 17.069277
#
# number of rings (size 3 to 8) (size 9 to 14) (size 15 to 20)
#    0.000    1.286    4.286    2.571    0.000    3.429 
#    0.000    0.000    0.000    0.857    0.000    6.000 
#    0.000    0.000    0.000    0.000    0.000    0.000 
#
# Total GULP energy -156295.567734 kJ/mol
# GULP energy per Si atom -5581.984562 kJ/mol
# Density = 1.703043 g / cm^3
# Si number density = 17.069277 Si / 1000 Ang^3
#
#
#
# Elastic Constant Matrix: (Units=GPa)
#
#
# Indices 1 2 3 4 5 6 
#
# 1 98.8027 20.9259 30.8657 0.0000 2.3930 0.0000
# 2 20.9259 37.5380 23.6769 0.0000 2.8245 0.0000
# 3 30.8657 23.6769 80.5060 0.0000 5.5669 0.0000
# 4 0.0000 0.0000 0.0000 20.5181 0.0000 0.1644
# 5 2.3930 2.8245 5.5669 0.0000 28.9926 0.0000
# 6 0.0000 0.0000 0.0000 0.1644 0.0000 22.9837
#
#
#
# Elastic Compliance Matrix: (Units=1/GPa)
#
#
# Indices 1 2 3 4 5 6 
#
# 1 0.012139 -0.004708 -0.003276 0.000000 0.000086 0.000000
# 2 -0.004708 0.034585 -0.008270 0.000000 -0.001393 0.000000
# 3 -0.003276 -0.008270 0.016251 0.000000 -0.002044 0.000000
# 4 0.000000 0.000000 0.000000 0.048740 0.000000 -0.000349
# 5 0.000086 -0.001393 -0.002044 0.000000 0.035013 0.000000
# 6 0.000000 0.000000 0.000000 -0.000349 0.000000 0.043512
#
#
# Mechanical properties :
#
#
# Convention : Reuss Voigt Hill
#
# Bulk Modulus (GPa) = 32.82081 40.86486 36.84284
# Shear Modulus (GPa) = 21.46812 23.92411 22.69612
#
# Velocity S-wave (km/s) = 3.55026 3.74784 3.65039
# Velocity P-wave (km/s) = 6.00629 6.53613 6.27680
#
# Compressibility (1/GPa) = 0.03046847
#
# Stress axis : x y z
#
# Youngs Moduli (GPa) = 82.37610 28.91404 61.53465
#
# Poissons Ratio (x) = 0.13612 0.20156
# Poissons Ratio (y) = 0.38779 0.50892
# Poissons Ratio (z) = 0.26983 0.23913
#
# Static dielectric constant tensor:
#      x y z
#    x 1.572870 0.000000 -0.001650 
#    y 0.000000 1.576800 0.000000 
#    z -0.001650 0.000000 1.584020 
# 
# From -- ./inp_files/66251.got.cif
#   From: 2010.05.17/outbox.cif.g08.bks.cpg/sg10_34_cif.got.tgz:66251.got - 2010.06.03 11:33:40.
