data_PCOD9151894
_publ_section_title
;
Structure prediction by ZEFSAII (Michael W. Deem and Ramdas Pophale) SiO2 
 PCOD9151894
Probable space group: P 2/M
;
_chemical_formula_sum "Si O2"
_cell_formula_units_Z 28
_cell_length_a 9.996948
_cell_length_b 7.501232
_cell_length_c 31.146887
_cell_angle_alpha 90.000000
_cell_angle_beta 36.350919
_cell_angle_gamma 90.000000
_cell_volume 1384.429943
_symmetry_space_group_name_H-M "P 2/M"
_symmetry_group_IT_number 10
_symmetry_cell_setting 'monoclinic'
loop_
_space_group_symop_operation_xyz
x,y,z
-x,y,-z
-x,-y,-z
x,-y,z
loop_
_atom_site_type_symbol
_atom_site_label
_atom_site_fract_x
_atom_site_fract_y
_atom_site_fract_z
Si Si1 0.922955 0.782967 0.227097
Si Si2 0.420912 0.782209 0.068015
Si Si3 0.920486 0.798677 0.324081
Si Si4 0.230398 0.500000 0.571059
Si Si5 0.546970 0.203959 0.691058
Si Si6 0.256591 0.215557 0.937341
Si Si7 0.597654 0.291872 0.775705
Si Si8 0.095551 0.500000 0.427144
O O1 0.871693 0.726861 0.289170
O O2 0.704621 0.732644 0.256086
O O3 0.166921 0.723200 0.146465
O O4 0.934627 0.000000 0.224818
O O5 0.599655 0.725060 0.058297
O O6 0.418228 0.000000 0.068720
O O7 0.500000 0.726787 0.000000
O O8 0.841273 0.672286 0.382677
O O9 0.191259 0.800295 0.256295
O O10 0.832589 0.000000 0.351362
O O11 0.500000 0.500000 0.500000
O O12 0.099737 0.500000 0.559167
O O13 0.563113 0.210352 0.738138
O O14 0.741760 0.330012 0.622367
O O15 0.573841 0.000000 0.669024
O O16 0.386423 0.271785 0.861100
O O17 0.253707 0.000000 0.939728
O O18 0.000000 0.278003 0.000000
O O19 0.652772 0.500000 0.755690
O O20 0.000000 0.500000 0.500000
#
# Coordination Sequence:
#
# PCOD9151894 Si02
#       8
#     4   4   4   2   4   4   4   2
#     4   9  20  35  61  95 123 166 216 258 314 372
#     4   9  17  31  51  84 127 161 205 266 315 369
#     4  11  21  42  69  95 128 164 213 268 311 372
#     4  12  28  46  68 102 127 168 210 248 321 385
#     4  11  23  43  68  95 128 169 214 260 315 381
#     4  10  21  35  57  88 122 169 219 268 326 376
#     4  12  22  40  64  92 123 170 222 270 324 374
#     4  12  28  48  66 100 135 166 207 255 316 386
#
# _framework density 20.224931000000002
#
# number of rings (size 3 to 8) (size 9 to 14) (size 15 to 20)
#    0.000    1.429    4.286    1.286    4.000    0.857 
#    0.000    0.000    0.000    0.429    0.000    0.000 
#    0.000    0.000    0.000    0.000    0.000    0.000 
#
# Total GULP energy -156461.799289 kJ/mol
# GULP energy per Si atom -5587.921403 kJ/mol
# Density = 2.017890 g / cm^3
# Si number density = 20.224931 Si / 1000 Ang^3
#
#
#
# Elastic Constant Matrix: (Units=GPa)
#
#
# Indices 1 2 3 4 5 6 
#
# 1 73.9639 13.2989 34.1232 0.0000 -5.3700 0.0000
# 2 13.2989 89.1621 31.5440 0.0000 -2.0331 0.0000
# 3 34.1232 31.5440 132.1133 0.0000 -1.1490 0.0000
# 4 0.0000 0.0000 0.0000 24.3931 0.0000 -3.8583
# 5 -5.3700 -2.0331 -1.1490 0.0000 41.5221 0.0000
# 6 0.0000 0.0000 0.0000 -3.8583 0.0000 17.8930
#
#
#
# Elastic Compliance Matrix: (Units=1/GPa)
#
#
# Indices 1 2 3 4 5 6 
#
# 1 0.015569 -0.000942 -0.003780 0.000000 0.001863 0.000000
# 2 -0.000942 0.012319 -0.002694 0.000000 0.000407 0.000000
# 3 -0.003780 -0.002694 0.009186 0.000000 -0.000367 0.000000
# 4 0.000000 0.000000 0.000000 0.042443 0.000000 0.009152
# 5 0.001863 0.000407 -0.000367 0.000000 0.024334 0.000000
# 6 0.000000 0.000000 0.000000 0.009152 0.000000 0.057861
#
#
# Mechanical properties :
#
#
# Convention : Reuss Voigt Hill
#
# Bulk Modulus (GPa) = 44.96477 50.35238 47.65857
# Shear Modulus (GPa) = 27.18014 31.17985 29.18000
#
# Velocity S-wave (km/s) = 3.66989 3.93065 3.80251
# Velocity P-wave (km/s) = 6.34335 6.74909 6.54936
#
# Compressibility (1/GPa) = 0.02223964
#
# Stress axis : x y z
#
# Youngs Moduli (GPa) = 64.23151 81.17841 108.86481
#
# Poissons Ratio (x) = 0.07650 0.41151
# Poissons Ratio (y) = 0.06053 0.29331
# Poissons Ratio (z) = 0.24279 0.21872
#
# Static dielectric constant tensor:
#      x y z
#    x 1.695000 0.000000 -0.018590 
#    y 0.000000 1.757760 0.000000 
#    z -0.018590 0.000000 1.724040 
# 
# From -- ./inp_files/94530.got.cif
#   From: 2010.05.17/outbox.cif.g08.bks.cpg/sg10_48_cif.got.tgz:94530.got - 2010.06.03 11:33:40.
