data_PCOD9151379
_publ_section_title
;
Structure prediction by ZEFSAII (Michael W. Deem and Ramdas Pophale) SiO2 
 PCOD9151379
Probable space group: P 2/M
;
_chemical_formula_sum "Si O2"
_cell_formula_units_Z 32
_cell_length_a 31.981989
_cell_length_b 9.412858
_cell_length_c 12.809806
_cell_angle_alpha 90.000000
_cell_angle_beta 26.783524
_cell_angle_gamma 90.000000
_cell_volume 1737.724048
_symmetry_space_group_name_H-M "P 2/M"
_symmetry_group_IT_number 10
_symmetry_cell_setting 'monoclinic'
loop_
_space_group_symop_operation_xyz
x,y,z
-x,y,-z
-x,-y,-z
x,-y,z
loop_
_atom_site_type_symbol
_atom_site_label
_atom_site_fract_x
_atom_site_fract_y
_atom_site_fract_z
Si Si1 0.286456 0.334934 0.446328
Si Si2 0.343129 0.667959 0.942766
Si Si3 0.297588 0.666082 0.813722
Si Si4 0.895788 0.338389 0.273229
Si Si5 0.091494 0.664878 0.364559
Si Si6 0.445829 0.334159 0.920753
Si Si7 0.629741 0.169488 0.548231
Si Si8 0.844372 0.831828 0.587386
O O1 0.297447 0.500000 0.455024
O O2 0.181130 0.313297 0.644113
O O3 0.316628 0.232738 0.471806
O O4 0.353404 0.315126 0.196473
O O5 0.318726 0.500000 0.006079
O O6 0.355322 0.693916 0.792082
O O7 0.423337 0.692269 0.848769
O O8 0.256555 0.762558 0.170300
O O9 0.311668 0.500000 0.754203
O O10 0.326532 0.766101 0.654989
O O11 0.188754 0.684558 0.085961
O O12 0.877726 0.500000 0.353153
O O13 0.881555 0.226321 0.395791
O O14 0.000000 0.332920 0.000000
O O15 0.091648 0.500000 0.399872
O O16 0.093810 0.769016 0.457122
O O17 0.000000 0.686653 0.500000
O O18 0.473835 0.500000 0.869374
O O19 0.525679 0.231991 0.783300
O O20 0.630588 0.000000 0.545879
O O21 0.839541 0.000000 0.601636
#
# Coordination Sequence:
#
# PCOD9151379 Si02
#       8
#     4   4   4   4   4   4   4   4
#     4  10  21  40  64  86 112 150 198 247 291 342
#     4   9  18  37  64  88 110 145 196 245 284 338
#     4   9  19  37  60  84 114 150 193 242 291 342
#     4  10  21  39  63  88 113 148 197 247 290 340
#     4   9  19  37  62  86 109 147 201 249 285 336
#     4  10  20  38  65  89 111 146 198 250 293 344
#     4  12  26  39  54  82 124 162 193 237 293 358
#     4  11  21  33  54  84 121 154 181 229 294 356
#
# _framework density 18.414892999999999
#
# number of rings (size 3 to 8) (size 9 to 14) (size 15 to 20)
#    0.000    2.000    1.250    3.375    0.000    7.000 
#    0.000    7.500    0.000    0.000    0.000    0.000 
#    0.000    0.000    0.000    0.000    0.000    0.000 
#
# Total GULP energy -178673.544651 kJ/mol
# GULP energy per Si atom -5583.548270 kJ/mol
# Density = 1.837298 g / cm^3
# Si number density = 18.414893 Si / 1000 Ang^3
#
#
#
# Elastic Constant Matrix: (Units=GPa)
#
#
# Indices 1 2 3 4 5 6 
#
# 1 113.3985 77.3384 47.6063 0.0000 -5.6945 0.0000
# 2 77.3384 106.7601 43.5096 0.0000 -1.7418 0.0000
# 3 47.6063 43.5096 58.4482 0.0000 -5.9259 0.0000
# 4 0.0000 0.0000 0.0000 -2.7690 0.0000 -6.9897
# 5 -5.6945 -1.7418 -5.9259 0.0000 23.4461 0.0000
# 6 0.0000 0.0000 0.0000 -6.9897 0.0000 -21.7211
#
#
#
# Elastic Compliance Matrix: (Units=1/GPa)
#
#
# Indices 1 2 3 4 5 6 
#
# 1 0.019697 -0.011171 -0.007519 0.000000 0.002054 0.000000
# 2 -0.011171 0.019838 -0.005947 0.000000 -0.002742 0.000000
# 3 -0.007519 -0.005947 0.028152 0.000000 0.004847 0.000000
# 4 0.000000 0.000000 0.000000 -1.923996 0.000000 0.619131
# 5 0.002054 -0.002742 0.004847 0.000000 0.044171 0.000000
# 6 0.000000 0.000000 0.000000 0.619131 0.000000 -0.245271
#
#
# Mechanical properties :
#
#
# Convention : Reuss Voigt Hill
#
# Bulk Modulus (GPa) = 54.31012 68.39059 61.35035
# Shear Modulus (GPa) = -2.49751 7.13470 2.31860
#
# Velocity S-wave (km/s) = -1.16584 1.97049 1.12331
# Velocity P-wave (km/s) = 5.26728 6.51126 5.92202
#
# Compressibility (1/GPa) = 0.01841278
#
# Stress axis : x y z
#
# Youngs Moduli (GPa) = 50.77003 50.40864 35.52109
#
# Poissons Ratio (x) = 0.56309 0.26709
# Poissons Ratio (y) = 0.56713 0.21125
# Poissons Ratio (z) = 0.38176 0.29979
#
# Static dielectric constant tensor:
#      x y z
#    x 1.642280 0.000000 0.000100 
#    y 0.000000 1.601870 0.000000 
#    z 0.000100 0.000000 1.636000 
# 
# From -- ./inp_files/58212.got.cif
#   From: 2010.05.17/outbox.cif.g08.bks.cpg/sg10_30_cif.got.tgz:58212.got - 2010.06.03 11:33:40.
