data_PCOD9151800
_publ_section_title
;
Structure prediction by ZEFSAII (Michael W. Deem and Ramdas Pophale) SiO2 
 PCOD9151800
Probable space group: P 2/M
;
_chemical_formula_sum "Si O2"
_cell_formula_units_Z 32
_cell_length_a 21.558576
_cell_length_b 8.740976
_cell_length_c 27.066620
_cell_angle_alpha 90.000000
_cell_angle_beta 158.788533
_cell_angle_gamma 90.000000
_cell_volume 1845.423206
_symmetry_space_group_name_H-M "P 2/M"
_symmetry_group_IT_number 10
_symmetry_cell_setting 'monoclinic'
loop_
_space_group_symop_operation_xyz
x,y,z
-x,y,-z
-x,-y,-z
x,-y,z
loop_
_atom_site_type_symbol
_atom_site_label
_atom_site_fract_x
_atom_site_fract_y
_atom_site_fract_z
Si Si1 0.411622 0.818499 0.088790
Si Si2 0.958430 0.186803 0.413251
Si Si3 0.525957 0.815518 0.599258
Si Si4 0.843045 0.682696 0.023090
Si Si5 0.561508 0.317388 0.734373
Si Si6 0.701918 0.818504 0.386529
Si Si7 0.428604 0.186987 0.894344
Si Si8 0.222962 0.184525 0.303190
O O1 0.581338 0.799711 0.248682
O O2 0.457817 0.764422 0.068185
O O3 0.373589 0.000000 0.059127
O O4 0.258776 0.735246 0.003642
O O5 0.108793 0.235584 0.487765
O O6 0.000000 0.234808 0.500000
O O7 0.767924 0.235800 0.257968
O O8 0.961845 0.000000 0.415628
O O9 0.557657 0.749028 0.676677
O O10 0.673914 0.771590 0.669979
O O11 0.345179 0.768867 0.439817
O O12 0.525386 0.000000 0.601787
O O13 0.850470 0.500000 0.027118
O O14 0.033451 0.748837 0.163413
O O15 0.724624 0.735282 0.888711
O O16 0.566998 0.500000 0.736147
O O17 0.393508 0.265266 0.639892
O O18 0.707393 0.000000 0.401661
O O19 0.428999 0.000000 0.893464
O O20 0.500000 0.236235 0.000000
O O21 0.213004 0.000000 0.296576
#
# Coordination Sequence:
#
# PCOD9151800 Si02
#       8
#     4   4   4   4   4   4   4   4
#     4   9  16  29  49  70  96 131 167 208 257 303
#     4   9  14  24  44  68  91 121 163 207 252 302
#     4   9  19  37  59  81 105 132 166 211 259 303
#     4  10  21  35  52  76 106 141 177 210 249 302
#     4  10  21  35  51  75 109 142 173 211 252 300
#     4   9  16  28  49  72  95 128 170 212 253 299
#     4   9  16  26  42  68  98 122 154 208 264 303
#     4   9  19  37  59  81 104 132 169 211 254 305
#
# _framework density 17.340195999999999
#
# number of rings (size 3 to 8) (size 9 to 14) (size 15 to 20)
#    0.000    2.750    1.250    1.500    0.000    3.000 
#    2.250    3.750    0.000    1.500    0.000    0.000 
#    0.000    0.000    0.000    0.000    0.000    0.000 
#
# Total GULP energy -178391.050545 kJ/mol
# GULP energy per Si atom -5574.720330 kJ/mol
# Density = 1.730073 g / cm^3
# Si number density = 17.340196 Si / 1000 Ang^3
#
#
#
# Elastic Constant Matrix: (Units=GPa)
#
#
# Indices 1 2 3 4 5 6 
#
# 1 147.4650 36.2555 103.4369 0.0000 -0.3389 0.0000
# 2 36.2555 16.1420 31.9334 0.0000 2.1329 0.0000
# 3 103.4369 31.9334 154.3696 0.0000 14.2910 0.0000
# 4 0.0000 0.0000 0.0000 9.4252 0.0000 -14.8512
# 5 -0.3389 2.1329 14.2910 0.0000 24.7103 0.0000
# 6 0.0000 0.0000 0.0000 -14.8512 0.0000 -10.2698
#
#
#
# Elastic Compliance Matrix: (Units=1/GPa)
#
#
# Indices 1 2 3 4 5 6 
#
# 1 0.019301 -0.029456 -0.007501 0.000000 0.007146 0.000000
# 2 -0.029456 0.150137 -0.010654 0.000000 -0.007202 0.000000
# 3 -0.007501 -0.010654 0.014404 0.000000 -0.007513 0.000000
# 4 0.000000 0.000000 0.000000 0.032361 0.000000 -0.046797
# 5 0.007146 -0.007202 -0.007513 0.000000 0.045534 0.000000
# 6 0.000000 0.000000 0.000000 -0.046797 0.000000 -0.029699
#
#
# Mechanical properties :
#
#
# Convention : Reuss Voigt Hill
#
# Bulk Modulus (GPa) = 11.28413 73.46978 42.37696
# Shear Modulus (GPa) = 14.01347 14.52986 14.27167
#
# Velocity S-wave (km/s) = 2.84588 2.89784 2.87198
# Velocity P-wave (km/s) = 4.16177 7.32518 5.95729
#
# Compressibility (1/GPa) = 0.08862007
#
# Stress axis : x y z
#
# Youngs Moduli (GPa) = 51.81014 6.66058 69.42699
#
# Poissons Ratio (x) = 0.19619 0.52078
# Poissons Ratio (y) = 1.52612 0.73966
# Poissons Ratio (z) = 0.38863 0.07096
#
# Static dielectric constant tensor:
#      x y z
#    x 1.573010 0.000000 -0.002050 
#    y 0.000000 1.582270 0.000000 
#    z -0.002050 0.000000 1.580640 
# 
# From -- ./inp_files/93710.got.cif
#   From: 2010.05.17/outbox.cif.g08.bks.cpg/sg10_47_cif.got.tgz:93710.got - 2010.06.03 11:33:40.
