data_PCOD9151337
_publ_section_title
;
Structure prediction by ZEFSAII (Michael W. Deem and Ramdas Pophale) SiO2 
 PCOD9151337
Probable space group: P 2/M
;
_chemical_formula_sum "Si O2"
_cell_formula_units_Z 21
_cell_length_a 27.564936
_cell_length_b 7.755909
_cell_length_c 8.995790
_cell_angle_alpha 90.000000
_cell_angle_beta 150.228046
_cell_angle_gamma 90.000000
_cell_volume 954.973304
_symmetry_space_group_name_H-M "P 2/M"
_symmetry_group_IT_number 10
_symmetry_cell_setting 'monoclinic'
loop_
_space_group_symop_operation_xyz
x,y,z
-x,y,-z
-x,-y,-z
x,-y,z
loop_
_atom_site_type_symbol
_atom_site_label
_atom_site_fract_x
_atom_site_fract_y
_atom_site_fract_z
Si Si1 0.643743 0.302848 0.315412
Si Si2 0.214232 0.299990 0.722520
Si Si3 0.861678 0.706130 0.796520
Si Si4 0.955805 0.198604 0.531270
Si Si5 0.500000 0.000000 0.000000
Si Si6 0.415561 0.198005 0.169357
O O1 0.630243 0.500000 0.333416
O O2 0.759975 0.264210 0.613608
O O3 0.605995 0.292113 0.042901
O O4 0.584243 0.154155 0.239214
O O5 0.239433 0.500000 0.765507
O O6 0.158041 0.238015 0.425031
O O7 0.141154 0.284077 0.663970
O O8 0.315767 0.201028 0.997444
O O9 0.879067 0.500000 0.841697
O O10 0.956266 0.791232 0.117469
O O11 0.000000 0.279110 0.500000
O O12 0.930698 0.000000 0.434507
O O13 0.500000 0.267632 0.500000
O O14 0.441347 0.000000 0.194942
#
# Coordination Sequence:
#
# PCOD9151337 Si02
#       6
#     4   4   4   4   1   4
#     4  10  22  40  62  91 123 161 208 254 303 367
#     4  10  21  38  62  89 116 154 204 252 302 366
#     4   9  20  39  63  87 115 152 200 251 299 361
#     4  11  24  39  56  86 123 157 196 247 305 368
#     4  12  22  40  62  90 124 168 204 256 302 366
#     4  10  20  38  63  91 122 157 204 257 306 359
#
# _framework density 21.990143
#
# number of rings (size 3 to 8) (size 9 to 14) (size 15 to 20)
#    0.000    1.905    0.952    3.714    1.333    6.857 
#    3.429    0.000    0.000    0.000    0.000    0.000 
#    0.000    0.000    0.000    0.000    0.000    0.000 
#
# Total GULP energy -117079.478642 kJ/mol
# GULP energy per Si atom -5575.213269 kJ/mol
# Density = 2.194009 g / cm^3
# Si number density = 21.990143 Si / 1000 Ang^3
#
#
#
# Elastic Constant Matrix: (Units=GPa)
#
#
# Indices 1 2 3 4 5 6 
#
# 1 60.7664 12.6645 11.2033 0.0000 21.0067 0.0000
# 2 12.6645 89.5954 -6.2369 0.0000 15.4430 0.0000
# 3 11.2033 -6.2369 68.9822 0.0000 7.1304 0.0000
# 4 0.0000 0.0000 0.0000 20.3664 0.0000 12.7436
# 5 21.0067 15.4430 7.1304 0.0000 16.4012 0.0000
# 6 0.0000 0.0000 0.0000 12.7436 0.0000 35.2929
#
#
#
# Elastic Compliance Matrix: (Units=1/GPa)
#
#
# Indices 1 2 3 4 5 6 
#
# 1 0.030143 0.002789 -0.000399 0.000000 -0.041059 0.000000
# 2 0.002789 0.014049 0.002674 0.000000 -0.017963 0.000000
# 3 -0.000399 0.002674 0.015717 0.000000 -0.008839 0.000000
# 4 0.000000 0.000000 0.000000 0.063432 0.000000 -0.022904
# 5 -0.041059 -0.017963 -0.008839 0.000000 0.134316 0.000000
# 6 0.000000 0.000000 0.000000 -0.022904 0.000000 0.036605
#
#
# Mechanical properties :
#
#
# Convention : Reuss Voigt Hill
#
# Bulk Modulus (GPa) = 14.27846 28.28956 21.28401
# Shear Modulus (GPa) = 16.26123 27.85963 22.06043
#
# Velocity S-wave (km/s) = 2.72228 3.56324 3.17076
# Velocity P-wave (km/s) = 4.04825 5.46090 4.80675
#
# Compressibility (1/GPa) = 0.07003556
#
# Stress axis : x y z
#
# Youngs Moduli (GPa) = 33.17539 71.17758 63.62629
#
# Poissons Ratio (x) = -0.19848 0.02541
# Poissons Ratio (y) = -0.09251 -0.17014
# Poissons Ratio (z) = 0.01325 -0.19033
#
# Static dielectric constant tensor:
#      x y z
#    x 1.855660 0.000000 -0.022440 
#    y 0.000000 1.776650 0.000000 
#    z -0.022440 0.000000 1.779280 
# 
# From -- ./inp_files/33653.got.cif
#   From: 2010.05.17/outbox.cif.g08.bks.cpg/sg10_17_cif.got.tgz:33653.got - 2010.06.03 11:33:40.
