data_PCOD9151223
_publ_section_title
;
Structure prediction by ZEFSAII (Michael W. Deem and Ramdas Pophale) SiO2 
 PCOD9151223
Probable space group: P 2/M
;
_chemical_formula_sum "Si O2"
_cell_formula_units_Z 19
_cell_length_a 9.992357
_cell_length_b 15.758861
_cell_length_c 4.876576
_cell_angle_alpha 90.000000
_cell_angle_beta 81.382345
_cell_angle_gamma 90.000000
_cell_volume 759.236019
_symmetry_space_group_name_H-M "P 2/M"
_symmetry_group_IT_number 10
_symmetry_cell_setting 'monoclinic'
loop_
_space_group_symop_operation_xyz
x,y,z
-x,y,-z
-x,-y,-z
x,-y,z
loop_
_atom_site_type_symbol
_atom_site_label
_atom_site_fract_x
_atom_site_fract_y
_atom_site_fract_z
Si Si1 0.198196 0.899892 0.260689
Si Si2 0.000000 0.500000 0.000000
Si Si3 0.202000 0.642574 0.933796
Si Si4 0.624286 0.100637 0.286252
Si Si5 0.000000 0.790687 0.000000
Si Si6 0.630258 0.598462 0.628962
O O1 0.325156 0.871786 0.027343
O O2 0.067771 0.848821 0.208712
O O3 0.176344 0.000000 0.216118
O O4 0.246154 0.890466 0.556035
O O5 0.098909 0.574656 0.093934
O O6 0.322128 0.649523 0.118858
O O7 0.253615 0.602147 0.636328
O O8 0.122322 0.727451 0.885777
O O9 0.500000 0.138071 0.500000
O O10 0.593174 0.000000 0.263391
O O11 0.500000 0.629968 0.500000
O O12 0.605264 0.500000 0.716511
#
# Coordination Sequence:
#
# PCOD9151223 Si02
#       6
#     4   1   4   4   2   4
#     4  10  21  39  63  87 121 167 210 253 308 362
#     4  10  20  38  60  86 122 158 198 224 292 364
#     4  11  24  40  64  94 125 163 200 252 306 359
#     4   9  18  35  62  92 116 149 204 261 308 363
#     4  11  27  43  59  90 130 164 209 261 297 373
#     4  11  22  42  69  95 123 158 207 252 305 371
#
# _framework density 25.025157
#
# number of rings (size 3 to 8) (size 9 to 14) (size 15 to 20)
#    0.000    1.684    2.105    1.579    0.000   12.632 
#    0.000    9.474    0.000    0.000    0.000    0.000 
#    0.000    0.000    0.000    0.000    0.000    0.000 
#
# Total GULP energy -106025.134374 kJ/mol
# GULP energy per Si atom -5580.270230 kJ/mol
# Density = 2.496820 g / cm^3
# Si number density = 25.025157 Si / 1000 Ang^3
#
#
#
# Elastic Constant Matrix: (Units=GPa)
#
#
# Indices 1 2 3 4 5 6 
#
# 1 97.3213 34.4521 22.0996 0.0000 18.7911 0.0000
# 2 34.4521 95.7244 8.7761 0.0000 1.8254 0.0000
# 3 22.0996 8.7761 119.5625 0.0000 6.3593 0.0000
# 4 0.0000 0.0000 0.0000 -71.6312 0.0000 -31.1583
# 5 18.7911 1.8254 6.3593 0.0000 27.2972 0.0000
# 6 0.0000 0.0000 0.0000 -31.1583 0.0000 12.4450
#
#
#
# Elastic Compliance Matrix: (Units=1/GPa)
#
#
# Indices 1 2 3 4 5 6 
#
# 1 0.014087 -0.004736 -0.001779 0.000000 -0.008966 0.000000
# 2 -0.004736 0.012117 -0.000146 0.000000 0.002484 0.000000
# 3 -0.001779 -0.000146 0.008746 0.000000 -0.000803 0.000000
# 4 0.000000 0.000000 0.000000 -0.006683 0.000000 -0.016731
# 5 -0.008966 0.002484 -0.000803 0.000000 0.042827 0.000000
# 6 0.000000 0.000000 0.000000 -0.016731 0.000000 0.038464
#
#
# Mechanical properties :
#
#
# Convention : Reuss Voigt Hill
#
# Bulk Modulus (GPa) = 46.23725 49.25154 47.74440
# Shear Modulus (GPa) = 38.43472 10.10757 24.27114
#
# Velocity S-wave (km/s) = 3.92324 2.01190 3.11765
# Velocity P-wave (km/s) = 6.24810 5.01204 5.66389
#
# Compressibility (1/GPa) = 0.02162758
#
# Stress axis : x y z
#
# Youngs Moduli (GPa) = 70.98716 82.52728 114.33615
#
# Poissons Ratio (x) = 0.39085 0.20344
# Poissons Ratio (y) = 0.33619 0.01671
# Poissons Ratio (z) = 0.12631 0.01206
#
# Static dielectric constant tensor:
#      x y z
#    x 2.113130 0.000000 -0.089480 
#    y 0.000000 1.925110 0.000000 
#    z -0.089480 0.000000 1.978670 
# 
# From -- ./inp_files/4141.got.cif
#   From: 2010.05.17/outbox.cif.g08.bks.cpg/sg10_3_cif.got.tgz:4141.got - 2010.06.03 11:33:40.
