data_PCOD9151062
_publ_section_title
;
Structure prediction by ZEFSAII (Michael W. Deem and Ramdas Pophale) SiO2 
 PCOD9151062
Probable space group: P 2/M
;
_chemical_formula_sum "Si O2"
_cell_formula_units_Z 32
_cell_length_a 31.689826
_cell_length_b 8.777202
_cell_length_c 12.242663
_cell_angle_alpha 90.000000
_cell_angle_beta 30.160957
_cell_angle_gamma 90.000000
_cell_volume 1710.913975
_symmetry_space_group_name_H-M "P 2/M"
_symmetry_group_IT_number 10
_symmetry_cell_setting 'monoclinic'
loop_
_space_group_symop_operation_xyz
x,y,z
-x,y,-z
-x,-y,-z
x,-y,z
loop_
_atom_site_type_symbol
_atom_site_label
_atom_site_fract_x
_atom_site_fract_y
_atom_site_fract_z
Si Si1 0.402390 0.817970 0.203120
Si Si2 0.230404 0.818496 0.203854
Si Si3 0.467162 0.822245 0.448870
Si Si4 0.737630 0.682909 0.338116
Si Si5 0.623331 0.318262 0.972709
Si Si6 0.283318 0.318674 0.859456
Si Si7 0.928141 0.818264 0.297819
Si Si8 0.894528 0.682422 0.139126
O O1 0.345667 0.763115 0.430449
O O2 0.367642 0.741018 0.170830
O O3 0.397786 0.000000 0.202572
O O4 0.500000 0.775011 0.000000
O O5 0.300899 0.739252 0.120871
O O6 0.139258 0.783693 0.457856
O O7 0.244093 0.000000 0.179182
O O8 0.241204 0.763331 0.056173
O O9 0.500000 0.814785 0.500000
O O10 0.380301 0.732511 0.637729
O O11 0.454267 0.000000 0.449696
O O12 0.537698 0.751087 0.213489
O O13 0.725371 0.500000 0.371996
O O14 0.754260 0.720973 0.174745
O O15 0.815701 0.723872 0.240545
O O16 0.619929 0.500000 0.981992
O O17 0.278444 0.500000 0.886269
O O18 0.890962 0.761116 0.265427
O O19 0.940751 0.000000 0.264203
O O20 0.017642 0.736662 0.109583
O O21 0.895917 0.500000 0.150340
#
# Coordination Sequence:
#
# PCOD9151062 Si02
#       8
#     4   4   4   4   4   4   4   4
#     4  11  24  40  59  85 117 154 195 238 289 344
#     4  11  23  39  58  85 118 151 191 240 290 343
#     4  11  22  37  57  81 115 153 193 242 288 338
#     4  10  23  41  60  86 118 154 196 239 287 346
#     4  12  24  37  59  86 115 151 194 242 292 345
#     4  11  23  39  60  85 116 154 198 243 288 343
#     4  10  21  37  60  89 119 147 185 236 288 342
#     4  10  20  37  62  89 117 149 187 231 287 348
#
# _framework density 18.703455000000002
#
# number of rings (size 3 to 8) (size 9 to 14) (size 15 to 20)
#    0.000    1.250    1.250    5.625    0.000    9.500 
#    0.000    0.625    0.000    3.750    0.000    0.000 
#    0.000    0.000    0.000    0.000    0.000    0.000 
#
# Total GULP energy -178978.038166 kJ/mol
# GULP energy per Si atom -5593.063693 kJ/mol
# Density = 1.866088 g / cm^3
# Si number density = 18.703455 Si / 1000 Ang^3
#
#
#
# Elastic Constant Matrix: (Units=GPa)
#
#
# Indices 1 2 3 4 5 6 
#
# 1 71.5559 14.0024 27.9846 0.0000 3.7831 0.0000
# 2 14.0024 34.5190 15.1791 0.0000 8.6245 0.0000
# 3 27.9846 15.1791 91.6650 0.0000 14.5990 0.0000
# 4 0.0000 0.0000 0.0000 50.3646 0.0000 -18.4343
# 5 3.7831 8.6245 14.5990 0.0000 29.9737 0.0000
# 6 0.0000 0.0000 0.0000 -18.4343 0.0000 49.4920
#
#
#
# Elastic Compliance Matrix: (Units=1/GPa)
#
#
# Indices 1 2 3 4 5 6 
#
# 1 0.016657 -0.005180 -0.004477 0.000000 0.001569 0.000000
# 2 -0.005180 0.034278 -0.002849 0.000000 -0.007822 0.000000
# 3 -0.004477 -0.002849 0.013581 0.000000 -0.005230 0.000000
# 4 0.000000 0.000000 0.000000 0.022989 0.000000 0.008563
# 5 0.001569 -0.007822 -0.005230 0.000000 0.037962 0.000000
# 6 0.000000 0.000000 0.000000 0.008563 0.000000 0.023395
#
#
# Mechanical properties :
#
#
# Convention : Reuss Voigt Hill
#
# Bulk Modulus (GPa) = 25.31457 34.67467 29.99462
# Shear Modulus (GPa) = 26.73196 35.33766 31.03481
#
# Velocity S-wave (km/s) = 3.78465 4.35140 4.07788
# Velocity P-wave (km/s) = 5.71508 6.62009 6.18417
#
# Compressibility (1/GPa) = 0.03950294
#
# Stress axis : x y z
#
# Youngs Moduli (GPa) = 60.03564 29.17339 73.63284
#
# Poissons Ratio (x) = 0.15112 0.32968
# Poissons Ratio (y) = 0.31098 0.20979
# Poissons Ratio (z) = 0.26880 0.08312
#
# Static dielectric constant tensor:
#      x y z
#    x 1.636700 0.000000 0.008060 
#    y 0.000000 1.625010 0.000000 
#    z 0.008060 0.000000 1.631400 
# 
# From -- ./inp_files/58206.got.cif
#   From: 2010.05.17/outbox.cif.g08.bks.cpg/sg10_30_cif.got.tgz:58206.got - 2010.06.03 11:33:40.
