data_PCOD9151621
_publ_section_title
;
Structure prediction by ZEFSAII (Michael W. Deem and Ramdas Pophale) SiO2 
 PCOD9151621
Probable space group: P 2/M
;
_chemical_formula_sum "Si O2"
_cell_formula_units_Z 26
_cell_length_a 8.974424
_cell_length_b 21.655590
_cell_length_c 12.012101
_cell_angle_alpha 90.000000
_cell_angle_beta 143.318613
_cell_angle_gamma 90.000000
_cell_volume 1394.553244
_symmetry_space_group_name_H-M "P 2/M"
_symmetry_group_IT_number 10
_symmetry_cell_setting 'monoclinic'
loop_
_space_group_symop_operation_xyz
x,y,z
-x,y,-z
-x,-y,-z
x,-y,z
loop_
_atom_site_type_symbol
_atom_site_label
_atom_site_fract_x
_atom_site_fract_y
_atom_site_fract_z
Si Si1 0.262324 0.651427 0.215638
Si Si2 0.064581 0.000000 0.751298
Si Si3 0.651905 0.429282 0.335082
Si Si4 0.493488 0.000000 0.169940
Si Si5 0.500000 0.386089 0.000000
Si Si6 0.614793 0.234146 0.446936
Si Si7 0.956056 0.659491 0.674261
Si Si8 0.222084 0.896462 0.542251
O O1 0.405406 0.592633 0.253082
O O2 0.428235 0.712514 0.289427
O O3 0.205927 0.644066 0.312712
O O4 0.000000 0.659155 0.000000
O O5 0.902290 0.938669 0.629652
O O6 0.288775 0.000000 0.794266
O O7 0.217073 0.000000 0.956256
O O8 0.720425 0.500000 0.396409
O O9 0.579780 0.421120 0.161439
O O10 0.859594 0.384810 0.516901
O O11 0.559511 0.060709 0.278433
O O12 0.752726 0.348368 0.127107
O O13 0.500000 0.222205 0.500000
O O14 0.878449 0.270264 0.604671
O O15 0.663370 0.169222 0.419293
O O16 0.000000 0.889283 0.500000
#
# Coordination Sequence:
#
# PCOD9151621 Si02
#       8
#     4   2   4   2   2   4   4   4
#     4  10  20  43  64  82 110 154 200 240 283 346
#     4   8  15  31  52  76 115 147 186 224 270 327
#     4  11  24  40  62  88 116 149 190 240 290 349
#     4   8  15  31  52  78 112 152 180 226 272 320
#     4  12  23  40  60  86 122 153 182 236 300 349
#     4   9  20  38  59  81 115 149 186 237 288 335
#     4  10  23  42  61  84 116 154 193 236 294 343
#     4   9  17  32  55  83 111 144 186 230 274 328
#
# _framework density 18.643962999999999
#
# number of rings (size 3 to 8) (size 9 to 14) (size 15 to 20)
#    0.000    2.308    1.538    3.000    0.000    5.846 
#    5.538    3.077    0.000    0.923    0.000    0.000 
#    0.000    0.000    0.000    0.000    0.000    0.000 
#
# Total GULP energy -144813.430779 kJ/mol
# GULP energy per Si atom -5569.747338 kJ/mol
# Density = 1.860153 g / cm^3
# Si number density = 18.643963 Si / 1000 Ang^3
#
#
#
# Elastic Constant Matrix: (Units=GPa)
#
#
# Indices 1 2 3 4 5 6 
#
# 1 61.7690 52.5147 32.2182 0.0000 2.0763 0.0000
# 2 52.5147 137.9831 46.7768 0.0000 -7.5795 0.0000
# 3 32.2182 46.7768 120.8467 0.0000 3.4162 0.0000
# 4 0.0000 0.0000 0.0000 5.6921 0.0000 -1.8147
# 5 2.0763 -7.5795 3.4162 0.0000 34.6615 0.0000
# 6 0.0000 0.0000 0.0000 -1.8147 0.0000 32.5789
#
#
#
# Elastic Compliance Matrix: (Units=1/GPa)
#
#
# Indices 1 2 3 4 5 6 
#
# 1 0.025447 -0.008731 -0.003317 0.000000 -0.003107 0.000000
# 2 -0.008731 0.011500 -0.002216 0.000000 0.003256 0.000000
# 3 -0.003317 -0.002216 0.010053 0.000000 -0.001277 0.000000
# 4 0.000000 0.000000 0.000000 0.178859 0.000000 0.009963
# 5 -0.003107 0.003256 -0.001277 0.000000 0.029874 0.000000
# 6 0.000000 0.000000 0.000000 0.009963 0.000000 0.031250
#
#
# Mechanical properties :
#
#
# Convention : Reuss Voigt Hill
#
# Bulk Modulus (GPa) = 54.13377 64.84645 59.49011
# Shear Modulus (GPa) = 15.54398 27.19244 21.36821
#
# Velocity S-wave (km/s) = 2.89057 3.82319 3.38911
# Velocity P-wave (km/s) = 6.34343 7.37198 6.87696
#
# Compressibility (1/GPa) = 0.01847276
#
# Stress axis : x y z
#
# Youngs Moduli (GPa) = 39.29787 86.95524 99.47290
#
# Poissons Ratio (x) = 0.75920 0.32993
# Poissons Ratio (y) = 0.34311 0.22041
# Poissons Ratio (z) = 0.13034 0.19267
#
# Static dielectric constant tensor:
#      x y z
#    x 1.691610 0.000000 -0.018610 
#    y 0.000000 1.603760 0.000000 
#    z -0.018610 0.000000 1.672110 
# 
# From -- ./inp_files/43657.got.cif
#   From: 2010.05.17/outbox.cif.g08.bks.cpg/sg10_22_cif.got.tgz:43657.got - 2010.06.03 11:33:40.
