data_PCOD9151007
_publ_section_title
;
Structure prediction by ZEFSAII (Michael W. Deem and Ramdas Pophale) SiO2 
 PCOD9151007
Probable space group: P 2/M
;
_chemical_formula_sum "Si O2"
_cell_formula_units_Z 32
_cell_length_a 20.391692
_cell_length_b 13.410164
_cell_length_c 8.690273
_cell_angle_alpha 90.000000
_cell_angle_beta 135.568647
_cell_angle_gamma 90.000000
_cell_volume 1663.613516
_symmetry_space_group_name_H-M "P 2/M"
_symmetry_group_IT_number 10
_symmetry_cell_setting 'monoclinic'
loop_
_space_group_symop_operation_xyz
x,y,z
-x,y,-z
-x,-y,-z
x,-y,z
loop_
_atom_site_type_symbol
_atom_site_label
_atom_site_fract_x
_atom_site_fract_y
_atom_site_fract_z
Si Si1 0.447161 0.242646 0.775101
Si Si2 0.745639 0.713845 0.375639
Si Si3 0.650795 0.275016 0.686590
Si Si4 0.793242 0.110869 0.991909
Si Si5 0.123283 0.883343 0.532866
Si Si6 0.177714 0.382030 0.200669
Si Si7 0.393804 0.381984 0.083068
Si Si8 0.049234 0.206452 0.919714
O O1 0.347030 0.263542 0.681772
O O2 0.417708 0.220119 0.549908
O O3 0.519527 0.333693 0.865325
O O4 0.500000 0.180963 0.000000
O O5 0.797005 0.815455 0.413274
O O6 0.810706 0.650759 0.600863
O O7 0.703469 0.654169 0.159626
O O8 0.727534 0.344682 0.727152
O O9 0.603795 0.340636 0.739750
O O10 0.710916 0.189384 0.867824
O O11 0.854655 0.115836 0.249292
O O12 0.858895 0.140190 0.958518
O O13 0.756647 0.000000 0.912553
O O14 0.027437 0.826706 0.332465
O O15 0.120050 0.000000 0.477145
O O16 0.167233 0.500000 0.168661
O O17 0.090731 0.318415 0.987455
O O18 0.399854 0.500000 0.089004
O O19 0.000000 0.188082 0.000000
#
# Coordination Sequence:
#
# PCOD9151007 Si02
#       8
#     4   4   4   4   4   4   4   4
#     4   9  21  36  56  83 121 151 184 236 296 338
#     4  10  20  39  56  86 118 155 198 245 290 345
#     4  10  20  37  61  88 120 150 200 247 281 350
#     4  10  22  40  64  87 117 156 192 243 306 351
#     4  11  22  40  63  85 116 155 196 246 303 349
#     4  10  21  38  57  81 124 168 195 233 294 350
#     4  11  21  35  61  89 116 153 199 244 290 344
#     4  11  22  38  58  93 120 149 197 247 286 342
#
# _framework density 19.235237000000001
#
# number of rings (size 3 to 8) (size 9 to 14) (size 15 to 20)
#    0.000    1.750    2.500    1.875    0.000    7.500 
#    0.000    0.000    0.000   10.500    0.000    0.000 
#    0.000    0.000    0.000    0.000    0.000    0.000 
#
# Total GULP energy -178237.433616 kJ/mol
# GULP energy per Si atom -5569.919800 kJ/mol
# Density = 1.919146 g / cm^3
# Si number density = 19.235237 Si / 1000 Ang^3
#
#
#
# Elastic Constant Matrix: (Units=GPa)
#
#
# Indices 1 2 3 4 5 6 
#
# 1 81.1755 34.6819 11.9646 0.0000 -3.8997 0.0000
# 2 34.6819 105.3389 30.7217 0.0000 9.1345 0.0000
# 3 11.9646 30.7217 83.4986 0.0000 7.7879 0.0000
# 4 0.0000 0.0000 0.0000 14.4574 0.0000 -6.6973
# 5 -3.8997 9.1345 7.7879 0.0000 29.5242 0.0000
# 6 0.0000 0.0000 0.0000 -6.6973 0.0000 7.7561
#
#
#
# Elastic Compliance Matrix: (Units=1/GPa)
#
#
# Indices 1 2 3 4 5 6 
#
# 1 0.014713 -0.004981 -0.000616 0.000000 0.003647 0.000000
# 2 -0.004981 0.012477 -0.003543 0.000000 -0.003584 0.000000
# 3 -0.000616 -0.003543 0.013608 0.000000 -0.002575 0.000000
# 4 0.000000 0.000000 0.000000 0.115281 0.000000 0.099544
# 5 0.003647 -0.003584 -0.002575 0.000000 0.036140 0.000000
# 6 0.000000 0.000000 0.000000 0.099544 0.000000 0.214886
#
#
# Mechanical properties :
#
#
# Convention : Reuss Voigt Hill
#
# Bulk Modulus (GPa) = 44.40591 47.19437 45.80014
# Shear Modulus (GPa) = 11.55026 23.19053 17.37039
#
# Velocity S-wave (km/s) = 2.45312 3.47598 3.00834
# Velocity P-wave (km/s) = 5.58207 6.37954 5.99408
#
# Compressibility (1/GPa) = 0.02251953
#
# Stress axis : x y z
#
# Youngs Moduli (GPa) = 67.96735 80.14738 73.48554
#
# Poissons Ratio (x) = 0.39919 0.04525
# Poissons Ratio (y) = 0.33853 0.26034
# Poissons Ratio (z) = 0.04185 0.28394
#
# Static dielectric constant tensor:
#      x y z
#    x 1.678370 0.000000 -0.021550 
#    y 0.000000 1.629280 0.000000 
#    z -0.021550 0.000000 1.745760 
# 
# From -- ./inp_files/34884.got.cif
#   From: 2010.05.17/outbox.cif.g08.bks.cpg/sg10_18_cif.got.tgz:34884.got - 2010.06.03 11:33:40.
