data_PCOD9151794
_publ_section_title
;
Structure prediction by ZEFSAII (Michael W. Deem and Ramdas Pophale) SiO2 
 PCOD9151794
Probable space group: P 2/M
;
_chemical_formula_sum "Si O2"
_cell_formula_units_Z 28
_cell_length_a 23.491286
_cell_length_b 9.404922
_cell_length_c 20.713260
_cell_angle_alpha 90.000000
_cell_angle_beta 160.880392
_cell_angle_gamma 90.000000
_cell_volume 1498.913144
_symmetry_space_group_name_H-M "P 2/M"
_symmetry_group_IT_number 10
_symmetry_cell_setting 'monoclinic'
loop_
_space_group_symop_operation_xyz
x,y,z
-x,y,-z
-x,-y,-z
x,-y,z
loop_
_atom_site_type_symbol
_atom_site_label
_atom_site_fract_x
_atom_site_fract_y
_atom_site_fract_z
Si Si1 0.144331 0.340809 0.341376
Si Si2 0.039354 0.167951 0.618082
Si Si3 0.780227 0.672019 0.435057
Si Si4 0.625417 0.327983 0.970584
Si Si5 0.552719 0.340810 0.749763
Si Si6 0.012291 0.839860 0.941602
Si Si7 0.417022 0.160138 0.346334
O O1 0.069763 0.500000 0.256557
O O2 0.129603 0.290718 0.399466
O O3 0.350460 0.350667 0.551374
O O4 0.072046 0.244543 0.207216
O O5 0.000000 0.179744 0.500000
O O6 0.885647 0.245657 0.493228
O O7 0.048016 0.000000 0.644070
O O8 0.221913 0.245654 0.829498
O O9 0.794183 0.500000 0.442568
O O10 0.572565 0.704477 0.217716
O O11 0.645819 0.500000 0.997430
O O12 0.640270 0.290716 0.910130
O O13 0.617034 0.500000 0.803824
O O14 0.563123 0.244542 0.698292
O O15 0.937056 0.000000 0.864645
O O16 0.214139 0.849787 0.142417
O O17 0.000000 0.774324 0.000000
O O18 0.500000 0.225681 0.500000
O O19 0.490536 0.000000 0.418127
#
# Coordination Sequence:
#
# PCOD9151794 Si02
#       7
#     4   4   4   4   4   4   4
#     4   9  19  36  57  81 108 139 180 232 285 336
#     4  11  25  41  59  89 127 161 195 241 297 359
#     4   9  20  40  64  89 118 155 200 247 294 350
#     4   9  20  40  64  89 118 155 200 247 294 350
#     4   9  19  36  57  81 108 139 180 232 285 336
#     4  10  21  35  51  74 106 145 187 229 276 333
#     4  10  21  35  51  74 106 145 187 229 276 333
#
# _framework density 18.680202999999999
#
# number of rings (size 3 to 8) (size 9 to 14) (size 15 to 20)
#    0.000    2.429    0.000    3.000    2.000    6.286 
#    0.000    5.714    0.000    0.000    0.000    0.000 
#    0.000    0.000    0.000    0.000    0.000    0.000 
#
# Total GULP energy -156119.552767 kJ/mol
# GULP energy per Si atom -5575.698313 kJ/mol
# Density = 1.863769 g / cm^3
# Si number density = 18.680203 Si / 1000 Ang^3
#
#
#
# Elastic Constant Matrix: (Units=GPa)
#
#
# Indices 1 2 3 4 5 6 
#
# 1 139.3042 64.8920 46.8739 0.0000 -11.1820 0.0000
# 2 64.8920 64.5393 47.9840 0.0000 -16.0100 0.0000
# 3 46.8739 47.9840 104.9342 0.0000 -21.3620 0.0000
# 4 0.0000 0.0000 0.0000 31.1908 0.0000 -3.0364
# 5 -11.1820 -16.0100 -21.3620 0.0000 30.6690 0.0000
# 6 0.0000 0.0000 0.0000 -3.0364 0.0000 34.3953
#
#
#
# Elastic Compliance Matrix: (Units=1/GPa)
#
#
# Indices 1 2 3 4 5 6 
#
# 1 0.013670 -0.014319 -0.000077 0.000000 -0.002544 0.000000
# 2 -0.014319 0.039320 -0.009867 0.000000 0.008432 0.000000
# 3 -0.000077 -0.009867 0.015173 0.000000 0.005390 0.000000
# 4 0.000000 0.000000 0.000000 0.032339 0.000000 0.002855
# 5 -0.002544 0.008432 0.005390 0.000000 0.039835 0.000000
# 6 0.000000 0.000000 0.000000 0.002855 0.000000 0.029326
#
#
# Mechanical properties :
#
#
# Convention : Reuss Voigt Hill
#
# Bulk Modulus (GPa) = 50.92274 69.80860 60.36567
# Shear Modulus (GPa) = 22.24849 29.18619 25.71734
#
# Velocity S-wave (km/s) = 3.45486 3.95702 3.71444
# Velocity P-wave (km/s) = 6.57527 7.63734 7.12612
#
# Compressibility (1/GPa) = 0.01963759
#
# Stress axis : x y z
#
# Youngs Moduli (GPa) = 73.15046 25.43250 65.90570
#
# Poissons Ratio (x) = 0.36418 0.00505
# Poissons Ratio (y) = 1.04747 0.65029
# Poissons Ratio (z) = 0.00560 0.25094
#
# Static dielectric constant tensor:
#      x y z
#    x 1.659850 0.000000 -0.012280 
#    y 0.000000 1.691410 0.000000 
#    z -0.012280 0.000000 1.646880 
# 
# From -- ./inp_files/86544.got.cif
#   From: 2010.05.17/outbox.cif.g08.bks.cpg/sg10_44_cif.got.tgz:86544.got - 2010.06.03 11:33:40.
