data_PCOD9151683
_publ_section_title
;
Structure prediction by ZEFSAII (Michael W. Deem and Ramdas Pophale) SiO2 
 PCOD9151683
Probable space group: P 2/M
;
_chemical_formula_sum "Si O2"
_cell_formula_units_Z 20
_cell_length_a 25.131873
_cell_length_b 7.391152
_cell_length_c 7.897064
_cell_angle_alpha 90.000000
_cell_angle_beta 141.952043
_cell_angle_gamma 90.000000
_cell_volume 904.085480
_symmetry_space_group_name_H-M "P 2/M"
_symmetry_group_IT_number 10
_symmetry_cell_setting 'monoclinic'
loop_
_space_group_symop_operation_xyz
x,y,z
-x,y,-z
-x,-y,-z
x,-y,z
loop_
_atom_site_type_symbol
_atom_site_label
_atom_site_fract_x
_atom_site_fract_y
_atom_site_fract_z
Si Si1 0.599564 0.221619 0.251145
Si Si2 0.093112 0.703446 0.267388
Si Si3 0.714774 0.210304 0.231080
Si Si4 0.721414 0.220485 0.859251
Si Si5 0.090503 0.219563 0.650409
O O1 0.650937 0.285261 0.213036
O O2 0.649722 0.279458 0.546484
O O3 0.601829 0.000000 0.256224
O O4 0.500000 0.276090 0.000000
O O5 0.089500 0.500000 0.188069
O O6 0.186295 0.781415 0.453190
O O7 0.096462 0.705009 0.477706
O O8 0.000000 0.792898 0.000000
O O9 0.692464 0.000000 0.157471
O O10 0.710188 0.283564 0.026597
O O11 0.719652 0.000000 0.860035
O O12 0.818023 0.269334 0.037326
O O13 0.000000 0.279569 0.500000
O O14 0.088126 0.000000 0.634855
#
# Coordination Sequence:
#
# PCOD9151683 Si02
#       5
#     4   4   4   4   4
#     4   9  17  28  47  76 103 128 161 207 262 305
#     4  10  21  34  48  71 103 136 170 208 252 302
#     4   9  18  32  51  72  98 133 168 208 255 298
#     4   8  15  28  43  68 102 127 161 203 243 301
#     4   9  18  31  50  75 100 131 169 209 252 298
#
# _framework density 22.121801999999999
#
# number of rings (size 3 to 8) (size 9 to 14) (size 15 to 20)
#    0.000    3.000    0.000    1.800    2.800    2.800 
#    0.000    4.000    0.000    0.600    0.000    5.600 
#    0.000    0.000    0.000    0.000    0.000    0.000 
#
# Total GULP energy -111483.873931 kJ/mol
# GULP energy per Si atom -5574.193697 kJ/mol
# Density = 2.207145 g / cm^3
# Si number density = 22.121802 Si / 1000 Ang^3
#
#
#
# Elastic Constant Matrix: (Units=GPa)
#
#
# Indices 1 2 3 4 5 6 
#
# 1 156.1756 4.8844 99.7756 0.0000 32.4208 0.0000
# 2 4.8844 69.1790 3.5966 0.0000 1.4058 0.0000
# 3 99.7756 3.5966 213.7403 0.0000 21.7681 0.0000
# 4 0.0000 0.0000 0.0000 -45.9926 0.0000 -14.1621
# 5 32.4208 1.4058 21.7681 0.0000 31.8561 0.0000
# 6 0.0000 0.0000 0.0000 -14.1621 0.0000 -8.6707
#
#
#
# Elastic Compliance Matrix: (Units=1/GPa)
#
#
# Indices 1 2 3 4 5 6 
#
# 1 0.010776 -0.000378 -0.004201 0.000000 -0.008080 0.000000
# 2 -0.000378 0.014489 -0.000044 0.000000 -0.000224 0.000000
# 3 -0.004201 -0.000044 0.006669 0.000000 -0.000279 0.000000
# 4 0.000000 0.000000 0.000000 -0.043742 0.000000 0.071446
# 5 -0.008080 -0.000224 -0.000279 0.000000 0.039815 0.000000
# 6 0.000000 0.000000 0.000000 0.071446 0.000000 -0.232026
#
#
# Mechanical properties :
#
#
# Convention : Reuss Voigt Hill
#
# Bulk Modulus (GPa) = 44.07955 72.84534 58.46245
# Shear Modulus (GPa) = -26.70808 17.49444 -4.60682
#
# Velocity S-wave (km/s) = -3.47842 2.81521 -1.44465
# Velocity P-wave (km/s) = 1.95871 6.60060 4.86849
#
# Compressibility (1/GPa) = 0.02268626
#
# Stress axis : x y z
#
# Youngs Moduli (GPa) = 92.79750 69.01874 149.94949
#
# Poissons Ratio (x) = 0.02611 0.62996
# Poissons Ratio (y) = 0.03510 0.00666
# Poissons Ratio (z) = 0.38986 0.00307
#
# Static dielectric constant tensor:
#      x y z
#    x 1.780670 0.000000 0.019370 
#    y 0.000000 1.846440 0.000000 
#    z 0.019370 0.000000 1.816820 
# 
# From -- ./inp_files/26743.got.cif
#   From: 2010.05.17/outbox.cif.g08.bks.cpg/sg10_14_cif.got.tgz:26743.got - 2010.06.03 11:33:40.
