data_PCOD9151617
_publ_section_title
;
Structure prediction by ZEFSAII (Michael W. Deem and Ramdas Pophale) SiO2 
 PCOD9151617
Probable space group: P 2/M
;
_chemical_formula_sum "Si O2"
_cell_formula_units_Z 24
_cell_length_a 9.928286
_cell_length_b 18.420406
_cell_length_c 5.228043
_cell_angle_alpha 90.000000
_cell_angle_beta 81.497869
_cell_angle_gamma 90.000000
_cell_volume 945.613081
_symmetry_space_group_name_H-M "P 2/M"
_symmetry_group_IT_number 10
_symmetry_cell_setting 'monoclinic'
loop_
_space_group_symop_operation_xyz
x,y,z
-x,y,-z
-x,-y,-z
x,-y,z
loop_
_atom_site_type_symbol
_atom_site_label
_atom_site_fract_x
_atom_site_fract_y
_atom_site_fract_z
Si Si1 0.568082 0.769071 0.766474
Si Si2 0.349683 0.582279 0.931080
Si Si3 0.705593 0.728834 0.297000
Si Si4 0.931726 0.585994 0.764800
Si Si5 0.151475 0.872162 0.860754
Si Si6 0.311886 0.918977 0.313814
O O1 0.500000 0.740206 0.500000
O O2 0.595981 0.754098 0.078616
O O3 0.576136 0.855596 0.717350
O O4 0.710473 0.740623 0.604916
O O5 0.352730 0.500000 0.826883
O O6 0.303646 0.643293 0.747218
O O7 0.231125 0.586150 0.174320
O O8 0.500000 0.598539 0.000000
O O9 0.820335 0.785681 0.174354
O O10 0.969572 0.500000 0.755170
O O11 0.000000 0.620033 0.500000
O O12 0.000000 0.617273 0.000000
O O13 0.242327 0.906801 0.059374
O O14 0.205064 0.904443 0.575502
O O15 0.000000 0.886046 0.000000
O O16 0.366356 0.000000 0.321344
#
# Coordination Sequence:
#
# PCOD9151617 Si02
#       6
#     4   4   4   4   4   4
#     4  10  20  42  66  93 130 176 221 273 334 412
#     4  10  22  43  73 107 139 180 239 307 370 423
#     4  10  22  42  67  93 132 182 224 278 345 412
#     4   9  19  41  67  93 133 178 219 274 347 424
#     4  11  24  43  66  99 139 183 230 272 335 414
#     4  11  24  42  69 102 136 177 227 282 339 399
#
# _framework density 25.380355999999999
#
# number of rings (size 3 to 8) (size 9 to 14) (size 15 to 20)
#    0.000    1.833    1.667    1.500    0.000    3.000 
#    9.000    5.833    0.000    0.500    0.000    0.000 
#    0.000    0.000    0.000    0.000    0.000    0.000 
#
# Total GULP energy -133840.638845 kJ/mol
# GULP energy per Si atom -5576.693285 kJ/mol
# Density = 2.532259 g / cm^3
# Si number density = 25.380356 Si / 1000 Ang^3
#
#
#
# Elastic Constant Matrix: (Units=GPa)
#
#
# Indices 1 2 3 4 5 6 
#
# 1 57.2836 -2.1402 29.1446 0.0000 -11.8179 0.0000
# 2 -2.1402 165.6049 26.7654 0.0000 -9.4120 0.0000
# 3 29.1446 26.7654 224.8306 0.0000 -29.7031 0.0000
# 4 0.0000 0.0000 0.0000 23.4867 0.0000 1.8888
# 5 -11.8179 -9.4120 -29.7031 0.0000 23.3391 0.0000
# 6 0.0000 0.0000 0.0000 1.8888 0.0000 12.3540
#
#
#
# Elastic Compliance Matrix: (Units=1/GPa)
#
#
# Indices 1 2 3 4 5 6 
#
# 1 0.020066 0.001002 -0.001592 0.000000 0.008538 0.000000
# 2 0.001002 0.006275 -0.000572 0.000000 0.002310 0.000000
# 3 -0.001592 -0.000572 0.005512 0.000000 0.005978 0.000000
# 4 0.000000 0.000000 0.000000 0.043107 0.000000 -0.006591
# 5 0.008538 0.002310 0.005978 0.000000 0.055710 0.000000
# 6 0.000000 0.000000 0.000000 -0.006591 0.000000 0.081953
#
#
# Mechanical properties :
#
#
# Convention : Reuss Voigt Hill
#
# Bulk Modulus (GPa) = 33.86511 61.69540 47.78026
# Shear Modulus (GPa) = 22.24288 38.09924 30.17106
#
# Velocity S-wave (km/s) = 2.96359 3.87865 3.45158
# Velocity P-wave (km/s) = 5.00824 6.66481 5.89500
#
# Compressibility (1/GPa) = 0.02952892
#
# Stress axis : x y z
#
# Youngs Moduli (GPa) = 49.83534 159.35942 181.41991
#
# Poissons Ratio (x) = -0.15967 0.28890
# Poissons Ratio (y) = -0.04993 0.10372
# Poissons Ratio (z) = 0.07936 0.09110
#
# Static dielectric constant tensor:
#      x y z
#    x 1.552110 0.000000 0.285340 
#    y 0.000000 2.030900 0.000000 
#    z 0.285340 0.000000 1.846740 
# 
# From -- ./inp_files/7402.got.cif
#   From: 2010.05.17/outbox.cif.g08.bks.cpg/sg10_4_cif.got.tgz:7402.got - 2010.06.03 11:33:40.
