data_PCOD9151404
_publ_section_title
;
Structure prediction by ZEFSAII (Michael W. Deem and Ramdas Pophale) SiO2 
 PCOD9151404
Probable space group: P 2/M
;
_chemical_formula_sum "Si O2"
_cell_formula_units_Z 28
_cell_length_a 22.075447
_cell_length_b 7.831905
_cell_length_c 16.022908
_cell_angle_alpha 90.000000
_cell_angle_beta 152.199372
_cell_angle_gamma 90.000000
_cell_volume 1292.032345
_symmetry_space_group_name_H-M "P 2/M"
_symmetry_group_IT_number 10
_symmetry_cell_setting 'monoclinic'
loop_
_space_group_symop_operation_xyz
x,y,z
-x,y,-z
-x,-y,-z
x,-y,z
loop_
_atom_site_type_symbol
_atom_site_label
_atom_site_fract_x
_atom_site_fract_y
_atom_site_fract_z
Si Si1 0.979694 0.793920 0.266111
Si Si2 0.234653 0.298499 0.867199
Si Si3 0.390849 0.000000 0.754797
Si Si4 0.560172 0.301685 0.740395
Si Si5 0.730254 0.704256 0.643234
Si Si6 0.238499 0.695134 0.500231
Si Si7 0.771245 0.801029 0.875978
Si Si8 0.305189 0.000000 0.835505
O O1 0.901559 0.726780 0.250712
O O2 0.120736 0.719890 0.420295
O O3 0.987177 0.000000 0.279129
O O4 0.891572 0.742269 0.078826
O O5 0.252509 0.500000 0.869752
O O6 0.243703 0.169768 0.800901
O O7 0.345711 0.239051 0.070129
O O8 0.349515 0.170834 0.657164
O O9 0.308330 0.000000 0.739906
O O10 0.542589 0.000000 0.956065
O O11 0.540245 0.500000 0.735974
O O12 0.417003 0.228232 0.551381
O O13 0.643148 0.287653 0.756716
O O14 0.724271 0.500000 0.648367
O O15 0.805011 0.735345 0.647840
O O16 0.787302 0.776897 0.797561
O O17 0.284859 0.500000 0.558388
O O18 0.753034 0.000000 0.872061
#
# Coordination Sequence:
#
# PCOD9151404 Si02
#       8
#     4   4   2   4   4   4   4   2
#     4  10  20  40  63  88 125 166 209 256 303 353
#     4  10  20  38  66  96 125 161 205 251 300 364
#     4  11  26  45  67  95 130 159 189 248 307 367
#     4   9  18  33  53  79 117 160 199 249 305 353
#     4  10  21  35  52  79 117 160 207 254 299 355
#     4  11  24  43  65  89 121 168 212 247 302 364
#     4  10  21  32  51  84 117 156 206 256 302 348
#     4  11  24  43  69 100 126 156 192 239 312 374
#
# _framework density 21.671285000000001
#
# number of rings (size 3 to 8) (size 9 to 14) (size 15 to 20)
#    0.000    1.857    1.429    2.143    2.000    6.857 
#    0.000    5.714    0.000    1.714    0.000    0.000 
#    0.000    0.000    0.000    0.000    0.000    0.000 
#
# Total GULP energy -156447.158905 kJ/mol
# GULP energy per Si atom -5587.398532 kJ/mol
# Density = 2.162196 g / cm^3
# Si number density = 21.671285 Si / 1000 Ang^3
#
#
#
# Elastic Constant Matrix: (Units=GPa)
#
#
# Indices 1 2 3 4 5 6 
#
# 1 89.1032 30.0559 3.1686 0.0000 -4.9816 0.0000
# 2 30.0559 91.2206 12.5140 0.0000 -7.6314 0.0000
# 3 3.1686 12.5140 16.5722 0.0000 10.5798 0.0000
# 4 0.0000 0.0000 0.0000 1.9567 0.0000 -7.8674
# 5 -4.9816 -7.6314 10.5798 0.0000 28.9820 0.0000
# 6 0.0000 0.0000 0.0000 -7.8674 0.0000 16.7653
#
#
#
# Elastic Compliance Matrix: (Units=1/GPa)
#
#
# Indices 1 2 3 4 5 6 
#
# 1 0.012661 -0.004067 -0.000072 0.000000 0.001132 0.000000
# 2 -0.004067 0.015432 -0.016980 0.000000 0.009563 0.000000
# 3 -0.000072 -0.016980 0.099146 0.000000 -0.040677 0.000000
# 4 0.000000 0.000000 0.000000 -0.576298 0.000000 -0.270436
# 5 0.001132 0.009563 -0.040677 0.000000 0.052066 0.000000
# 6 0.000000 0.000000 0.000000 -0.270436 0.000000 -0.067259
#
#
# Mechanical properties :
#
#
# Convention : Reuss Voigt Hill
#
# Bulk Modulus (GPa) = 11.76475 32.04145 21.90310
# Shear Modulus (GPa) = -12.70067 19.61797 3.45865
#
# Velocity S-wave (km/s) = -2.42349 3.01200 1.26468
# Velocity P-wave (km/s) = 1.54615 5.18783 3.50164
#
# Compressibility (1/GPa) = 0.08499969
#
# Stress axis : x y z
#
# Youngs Moduli (GPa) = 78.98507 64.80077 10.08613
#
# Poissons Ratio (x) = 0.26354 0.00073
# Poissons Ratio (y) = 0.32123 0.17127
# Poissons Ratio (z) = 0.00569 1.10035
#
# Static dielectric constant tensor:
#      x y z
#    x 1.775790 0.000000 -0.000630 
#    y 0.000000 1.781040 0.000000 
#    z -0.000630 0.000000 1.793370 
# 
# From -- ./inp_files/70347.got.cif
#   From: 2010.05.17/outbox.cif.g08.bks.cpg/sg10_36_cif.got.tgz:70347.got - 2010.06.03 11:33:40.
