data_PCOD9151109
_publ_section_title
;
Structure prediction by ZEFSAII (Michael W. Deem and Ramdas Pophale) SiO2 
 PCOD9151109
Probable space group: P 2/M
;
_chemical_formula_sum "Si O2"
_cell_formula_units_Z 28
_cell_length_a 12.865514
_cell_length_b 8.138778
_cell_length_c 15.575743
_cell_angle_alpha 90.000000
_cell_angle_beta 128.407656
_cell_angle_gamma 90.000000
_cell_volume 1278.013191
_symmetry_space_group_name_H-M "P 2/M"
_symmetry_group_IT_number 10
_symmetry_cell_setting 'monoclinic'
loop_
_space_group_symop_operation_xyz
x,y,z
-x,y,-z
-x,-y,-z
x,-y,z
loop_
_atom_site_type_symbol
_atom_site_label
_atom_site_fract_x
_atom_site_fract_y
_atom_site_fract_z
Si Si1 0.535157 0.195016 0.741731
Si Si2 0.731436 0.696255 0.694259
Si Si3 0.293505 0.303758 0.007954
Si Si4 0.993001 0.311027 0.097935
Si Si5 0.881398 0.802168 0.616383
Si Si6 0.238370 0.799076 0.619236
Si Si7 0.180431 0.198661 0.783720
O O1 0.614694 0.249111 0.697397
O O2 0.385214 0.258486 0.668875
O O3 0.528805 0.000000 0.734776
O O4 0.607321 0.240123 0.868597
O O5 0.731918 0.500000 0.699956
O O6 0.869720 0.767439 0.802853
O O7 0.754475 0.744885 0.607130
O O8 0.293038 0.500000 0.017964
O O9 0.293917 0.262739 0.906948
O O10 0.147465 0.231441 0.954240
O O11 0.990019 0.500000 0.129450
O O12 0.000000 0.322116 0.000000
O O13 0.861435 0.749759 0.507590
O O14 0.027309 0.746930 0.724290
O O15 0.882633 0.000000 0.619616
O O16 0.206822 0.747754 0.699676
O O17 0.236639 0.000000 0.619621
O O18 0.183230 0.000000 0.788731
#
# Coordination Sequence:
#
# PCOD9151109 Si02
#       7
#     4   4   4   4   4   4   4
#     4  11  23  39  58  84 117 157 199 232 276 344
#     4  11  21  36  58  86 120 153 186 232 295 347
#     4  11  21  36  58  86 120 153 186 232 295 347
#     4   9  16  30  52  77 108 149 181 218 284 344
#     4  10  20  37  63  91 113 144 195 245 287 338
#     4   9  21  41  61  81 116 158 192 238 292 335
#     4  10  20  37  63  91 113 144 195 245 287 338
#
# _framework density 21.909006999999999
#
# number of rings (size 3 to 8) (size 9 to 14) (size 15 to 20)
#    0.000    1.857    2.857    1.714    0.000    2.857 
#    0.000   10.000    0.000    1.714    0.000    0.000 
#    0.000    0.000    0.000    0.000    0.000    0.000 
#
# Total GULP energy -156114.224916 kJ/mol
# GULP energy per Si atom -5575.508033 kJ/mol
# Density = 2.185914 g / cm^3
# Si number density = 21.909007 Si / 1000 Ang^3
#
#
#
# Elastic Constant Matrix: (Units=GPa)
#
#
# Indices 1 2 3 4 5 6 
#
# 1 64.9532 7.4756 17.1805 0.0000 -11.0487 0.0000
# 2 7.4756 30.1554 1.2350 0.0000 -3.5003 0.0000
# 3 17.1805 1.2350 53.1250 0.0000 -18.6800 0.0000
# 4 0.0000 0.0000 0.0000 1.1614 0.0000 7.1236
# 5 -11.0487 -3.5003 -18.6800 0.0000 34.9004 0.0000
# 6 0.0000 0.0000 0.0000 7.1236 0.0000 -0.6098
#
#
#
# Elastic Compliance Matrix: (Units=1/GPa)
#
#
# Indices 1 2 3 4 5 6 
#
# 1 0.017520 -0.003842 -0.004634 0.000000 0.002681 0.000000
# 2 -0.003842 0.034405 0.001513 0.000000 0.003044 0.000000
# 3 -0.004634 0.001513 0.024420 0.000000 0.011756 0.000000
# 4 0.000000 0.000000 0.000000 0.011851 0.000000 0.138446
# 5 0.002681 0.003044 0.011756 0.000000 0.036099 0.000000
# 6 0.000000 0.000000 0.000000 0.138446 0.000000 -0.022571
#
#
# Mechanical properties :
#
#
# Convention : Reuss Voigt Hill
#
# Bulk Modulus (GPa) = 16.02061 22.22399 19.12230
# Shear Modulus (GPa) = 36.64175 15.24657 25.94416
#
# Velocity S-wave (km/s) = 4.09400 2.64086 3.44492
# Velocity P-wave (km/s) = 5.44757 4.41188 4.95685
#
# Compressibility (1/GPa) = 0.06241960
#
# Stress axis : x y z
#
# Youngs Moduli (GPa) = 57.07891 29.06516 40.94925
#
# Poissons Ratio (x) = 0.11167 0.18975
# Poissons Ratio (y) = 0.21931 -0.06196
# Poissons Ratio (z) = 0.26450 -0.04398
#
# Static dielectric constant tensor:
#      x y z
#    x 1.865680 0.000000 -0.034560 
#    y 0.000000 1.780610 0.000000 
#    z -0.034560 0.000000 1.851350 
# 
# From -- ./inp_files/63931.got.cif
#   From: 2010.05.17/outbox.cif.g08.bks.cpg/sg10_32_cif.got.tgz:63931.got - 2010.06.03 11:33:40.
