data_PCOD9151058
_publ_section_title
;
Structure prediction by ZEFSAII (Michael W. Deem and Ramdas Pophale) SiO2 
 PCOD9151058
Probable space group: P 2/M
;
_chemical_formula_sum "Si O2"
_cell_formula_units_Z 32
_cell_length_a 12.062281
_cell_length_b 9.310753
_cell_length_c 31.825643
_cell_angle_alpha 90.000000
_cell_angle_beta 152.539936
_cell_angle_gamma 90.000000
_cell_volume 1648.219465
_symmetry_space_group_name_H-M "P 2/M"
_symmetry_group_IT_number 10
_symmetry_cell_setting 'monoclinic'
loop_
_space_group_symop_operation_xyz
x,y,z
-x,y,-z
-x,-y,-z
x,-y,z
loop_
_atom_site_type_symbol
_atom_site_label
_atom_site_fract_x
_atom_site_fract_y
_atom_site_fract_z
Si Si1 0.800720 0.165757 0.492073
Si Si2 0.605362 0.329202 0.810504
Si Si3 0.640792 0.166249 0.345853
Si Si4 0.224159 0.825517 0.911894
Si Si5 0.414059 0.168709 0.823725
Si Si6 0.917361 0.170035 0.041882
Si Si7 0.984647 0.172535 0.744445
Si Si8 0.513959 0.330320 0.553949
O O1 0.654240 0.198550 0.399936
O O2 0.719588 0.270374 0.501165
O O3 0.082486 0.174749 0.576386
O O4 0.748989 0.000000 0.485946
O O5 0.608972 0.500000 0.812911
O O6 0.515654 0.269283 0.735481
O O7 0.433617 0.264418 0.788854
O O8 0.869335 0.261811 0.906132
O O9 0.560434 0.000000 0.313856
O O10 0.117291 0.786015 0.921076
O O11 0.074188 0.781311 0.820723
O O12 0.230614 0.000000 0.913746
O O13 0.500000 0.776438 0.000000
O O14 0.193496 0.202634 0.780505
O O15 0.395931 0.000000 0.805721
O O16 0.661929 0.186929 0.933022
O O17 0.979406 0.000000 0.060681
O O18 0.741821 0.249692 0.649966
O O19 0.950947 0.000000 0.733880
O O20 0.500000 0.299146 0.500000
O O21 0.536396 0.500000 0.567428
#
# Coordination Sequence:
#
# PCOD9151058 Si02
#       8
#     4   4   4   4   4   4   4   4
#     4   9  20  41  68  91 113 145 194 252 300 348
#     4  12  26  38  55  85 123 161 199 240 292 358
#     4   9  20  41  66  91 114 144 193 252 305 349
#     4   9  16  33  62  94 120 146 190 249 304 350
#     4  10  21  39  62  87 116 155 204 253 298 345
#     4  10  20  37  62  88 119 155 197 248 297 347
#     4  10  21  38  64  94 118 151 203 253 297 351
#     4  11  26  43  59  86 129 168 197 237 295 362
#
# _framework density 19.41489
#
# number of rings (size 3 to 8) (size 9 to 14) (size 15 to 20)
#    0.000    2.000    1.250    2.625    3.500    4.500 
#    0.000    1.250    0.000    0.750    0.000    0.000 
#    0.000    0.000    0.000    0.000    0.000    0.000 
#
# Total GULP energy -178825.255369 kJ/mol
# GULP energy per Si atom -5588.289230 kJ/mol
# Density = 1.937070 g / cm^3
# Si number density = 19.414890 Si / 1000 Ang^3
#
#
#
# Elastic Constant Matrix: (Units=GPa)
#
#
# Indices 1 2 3 4 5 6 
#
# 1 70.4722 31.6768 -9.0161 0.0000 -7.6523 0.0000
# 2 31.6768 40.5339 14.9413 0.0000 -9.7511 0.0000
# 3 -9.0161 14.9413 35.8578 0.0000 -1.7140 0.0000
# 4 0.0000 0.0000 0.0000 -30.2044 0.0000 9.0928
# 5 -7.6523 -9.7511 -1.7140 0.0000 16.2215 0.0000
# 6 0.0000 0.0000 0.0000 9.0928 0.0000 -15.7558
#
#
#
# Elastic Compliance Matrix: (Units=1/GPa)
#
#
# Indices 1 2 3 4 5 6 
#
# 1 0.031751 -0.033552 0.021826 0.000000 -0.002885 0.000000
# 2 -0.033552 0.069646 -0.036396 0.000000 0.022192 0.000000
# 3 0.021826 -0.036396 0.048232 0.000000 -0.006486 0.000000
# 4 0.000000 0.000000 0.000000 -0.040069 0.000000 -0.023124
# 5 -0.002885 0.022192 -0.006486 0.000000 0.072941 0.000000
# 6 0.000000 0.000000 0.000000 -0.023124 0.000000 -0.076814
#
#
# Mechanical properties :
#
#
# Convention : Reuss Voigt Hill
#
# Bulk Modulus (GPa) = 18.73210 24.67421 21.70315
# Shear Modulus (GPa) = 22.75574 1.33638 12.04606
#
# Velocity S-wave (km/s) = 3.42727 0.83055 2.49360
# Velocity P-wave (km/s) = 5.03298 3.69544 4.41515
#
# Compressibility (1/GPa) = 0.05338429
#
# Stress axis : x y z
#
# Youngs Moduli (GPa) = 31.49543 14.35830 20.73334
#
# Poissons Ratio (x) = 0.48175 -0.45253
# Poissons Ratio (y) = 1.05674 0.75461
# Poissons Ratio (z) = -0.68742 0.52258
#
# Static dielectric constant tensor:
#      x y z
#    x 1.689790 0.000000 -0.001210 
#    y 0.000000 1.636380 0.000000 
#    z -0.001210 0.000000 1.677680 
# 
# From -- ./inp_files/95057.got.cif
#   From: 2010.05.17/outbox.cif.g08.bks.cpg/sg10_48_cif.got.tgz:95057.got - 2010.06.03 11:33:40.
