data_PCOD9151210
_publ_section_title
;
Structure prediction by ZEFSAII (Michael W. Deem and Ramdas Pophale) SiO2 
 PCOD9151210
Probable space group: P 2/M
;
_chemical_formula_sum "Si O2"
_cell_formula_units_Z 32
_cell_length_a 14.187883
_cell_length_b 23.940828
_cell_length_c 8.453472
_cell_angle_alpha 90.000000
_cell_angle_beta 148.699476
_cell_angle_gamma 90.000000
_cell_volume 1491.763390
_symmetry_space_group_name_H-M "P 2/M"
_symmetry_group_IT_number 10
_symmetry_cell_setting 'monoclinic'
loop_
_space_group_symop_operation_xyz
x,y,z
-x,y,-z
-x,-y,-z
x,-y,z
loop_
_atom_site_type_symbol
_atom_site_label
_atom_site_fract_x
_atom_site_fract_y
_atom_site_fract_z
Si Si1 0.209237 0.772140 0.753572
Si Si2 0.366331 0.126300 0.178353
Si Si3 0.796581 0.348662 0.643142
Si Si4 0.497736 0.563927 0.190697
Si Si5 0.794137 0.349221 0.257507
Si Si6 0.004756 0.934689 0.699194
Si Si7 0.199936 0.775672 0.360269
Si Si8 0.636817 0.889651 0.340190
O O1 0.284686 0.711105 0.906583
O O2 0.206759 0.774473 0.560994
O O3 0.000000 0.773452 0.500000
O O4 0.299976 0.824144 0.968825
O O5 0.500000 0.149684 0.500000
O O6 0.494490 0.082980 0.261771
O O7 0.187550 0.099084 0.000172
O O8 0.663877 0.399323 0.495170
O O9 0.795036 0.349502 0.449534
O O10 0.734975 0.285688 0.602023
O O11 0.000000 0.356071 0.000000
O O12 0.498409 0.500000 0.245007
O O13 0.500000 0.563163 0.000000
O O14 0.319258 0.599560 0.972120
O O15 0.000000 0.352387 0.500000
O O16 0.821476 0.915323 0.528750
O O17 0.000000 0.927770 0.500000
O O18 0.027297 0.000000 0.765231
O O19 0.303676 0.833177 0.486032
O O20 0.000000 0.781380 0.000000
O O21 0.500000 0.878555 0.000000
#
# Coordination Sequence:
#
# PCOD9151210 Si02
#       8
#     4   4   4   4   4   4   4   4
#     4  10  20  38  59  88 128 161 199 253 317 377
#     4  12  27  43  66  99 134 173 216 262 321 382
#     4   9  19  35  55  84 117 153 197 248 304 366
#     4   9  18  33  55  80 112 157 205 244 294 364
#     4   9  19  35  56  82 115 155 198 249 304 360
#     4  11  25  48  72  96 131 170 217 273 318 378
#     4  10  21  35  61  92 124 158 201 257 315 377
#     4  12  24  41  68 100 129 170 215 261 323 381
#
# _framework density 21.451122999999999
#
# number of rings (size 3 to 8) (size 9 to 14) (size 15 to 20)
#    0.000    1.750    2.500    1.125    5.250    2.000 
#    0.000    1.250    0.000    0.750    0.000    0.000 
#    0.000    0.000    0.000    0.000    0.000    0.000 
#
# Total GULP energy -178394.400303 kJ/mol
# GULP energy per Si atom -5574.825009 kJ/mol
# Density = 2.140230 g / cm^3
# Si number density = 21.451123 Si / 1000 Ang^3
#
#
#
# Elastic Constant Matrix: (Units=GPa)
#
#
# Indices 1 2 3 4 5 6 
#
# 1 77.1124 37.7419 19.5272 0.0000 27.8888 0.0000
# 2 37.7419 144.1632 68.9273 0.0000 15.3881 0.0000
# 3 19.5272 68.9273 122.3422 0.0000 17.5703 0.0000
# 4 0.0000 0.0000 0.0000 51.4142 0.0000 22.9451
# 5 27.8888 15.3881 17.5703 0.0000 31.5889 0.0000
# 6 0.0000 0.0000 0.0000 22.9451 0.0000 21.5914
#
#
#
# Elastic Compliance Matrix: (Units=1/GPa)
#
#
# Indices 1 2 3 4 5 6 
#
# 1 0.020962 -0.004422 0.001624 0.000000 -0.017256 0.000000
# 2 -0.004422 0.010521 -0.005485 0.000000 0.001830 0.000000
# 3 0.001624 -0.005485 0.011767 0.000000 -0.005307 0.000000
# 4 0.000000 0.000000 0.000000 0.036995 0.000000 -0.039315
# 5 -0.017256 0.001830 -0.005307 0.000000 0.048952 0.000000
# 6 0.000000 0.000000 0.000000 -0.039315 0.000000 0.088094
#
#
# Mechanical properties :
#
#
# Convention : Reuss Voigt Hill
#
# Bulk Modulus (GPa) = 37.47550 66.22339 51.84944
# Shear Modulus (GPa) = 20.59714 35.41366 28.00540
#
# Velocity S-wave (km/s) = 3.10205 4.06753 3.61715
# Velocity P-wave (km/s) = 5.50803 7.28001 6.45511
#
# Compressibility (1/GPa) = 0.02668410
#
# Stress axis : x y z
#
# Youngs Moduli (GPa) = 47.70509 95.04457 84.98522
#
# Poissons Ratio (x) = 0.42033 -0.13801
# Poissons Ratio (y) = 0.21097 0.46611
# Poissons Ratio (z) = -0.07747 0.52128
#
# Static dielectric constant tensor:
#      x y z
#    x 1.819160 0.000000 0.042560 
#    y 0.000000 1.796110 0.000000 
#    z 0.042560 0.000000 1.745450 
# 
# From -- ./inp_files/30627.got.cif
#   From: 2010.05.17/outbox.cif.g08.bks.cpg/sg10_16_cif.got.tgz:30627.got - 2010.06.03 11:33:40.
