data_PCOD9151878
_publ_section_title
;
Structure prediction by ZEFSAII (Michael W. Deem and Ramdas Pophale) SiO2 
 PCOD9151878
Probable space group: P 2/M
;
_chemical_formula_sum "Si O2"
_cell_formula_units_Z 30
_cell_length_a 26.182157
_cell_length_b 11.157790
_cell_length_c 26.325804
_cell_angle_alpha 90.000000
_cell_angle_beta 11.381118
_cell_angle_gamma 90.000000
_cell_volume 1517.636564
_symmetry_space_group_name_H-M "P 2/M"
_symmetry_group_IT_number 10
_symmetry_cell_setting 'monoclinic'
loop_
_space_group_symop_operation_xyz
x,y,z
-x,y,-z
-x,-y,-z
x,-y,z
loop_
_atom_site_type_symbol
_atom_site_label
_atom_site_fract_x
_atom_site_fract_y
_atom_site_fract_z
Si Si1 0.673251 0.725763 0.183482
Si Si2 0.844190 0.786194 0.771769
Si Si3 0.661174 0.638487 0.700661
Si Si4 0.911797 0.867627 0.815387
Si Si5 0.732139 0.357156 0.239738
Si Si6 0.581223 0.366132 0.166289
Si Si7 0.175809 0.134544 0.657384
Si Si8 0.227504 0.000000 0.237176
O O1 0.696344 0.663598 0.215071
O O2 0.555518 0.645726 0.252116
O O3 0.461650 0.830170 0.394736
O O4 0.954629 0.776191 0.893463
O O5 0.949495 0.856547 0.718851
O O6 0.071300 0.691440 0.539757
O O7 0.796499 0.882204 0.774529
O O8 0.579856 0.717501 0.044523
O O9 0.627316 0.500000 0.748198
O O10 0.652000 0.641161 0.647299
O O11 0.155565 0.862214 0.615491
O O12 0.790759 0.000000 0.943550
O O13 0.747794 0.750792 0.990060
O O14 0.500000 0.307183 0.500000
O O15 0.737348 0.500000 0.242581
O O16 0.000000 0.306741 0.000000
O O17 0.696601 0.500000 0.044088
O O18 0.110756 0.000000 0.736932
O O19 0.000000 0.000000 0.500000
O O20 0.500000 0.000000 0.000000
#
# Coordination Sequence:
#
# PCOD9151878 Si02
#       8
#     4   4   4   4   4   4   4   2
#     4  11  20  36  57  81 112 153 188 238 296 354
#     4  11  21  40  63  90 121 164 202 252 302 358
#     4  10  21  37  62  93 128 161 198 239 300 378
#     4   9  18  35  57  89 121 161 202 237 291 362
#     4  10  21  37  57  80 105 140 191 246 294 346
#     4   9  19  34  55  90 127 160 193 241 297 367
#     4  10  21  35  56  84 117 149 186 232 284 357
#     4  12  26  44  66  94 124 160 208 270 310 340
#
# _framework density 19.767579999999999
#
# number of rings (size 3 to 8) (size 9 to 14) (size 15 to 20)
#    0.000    1.867    0.667    3.600    0.000    1.067 
#    1.200   10.000    0.000   16.000    0.000    0.000 
#    0.000    0.000    0.000    0.000    0.000    0.000 
#
# Total GULP energy -167257.563332 kJ/mol
# GULP energy per Si atom -5575.252111 kJ/mol
# Density = 1.972259 g / cm^3
# Si number density = 19.767580 Si / 1000 Ang^3
#
#
#
# Elastic Constant Matrix: (Units=GPa)
#
#
# Indices 1 2 3 4 5 6 
#
# 1 108.2869 26.5993 56.8647 0.0000 -0.1040 0.0000
# 2 26.5993 97.5152 24.1442 0.0000 2.1193 0.0000
# 3 56.8647 24.1442 96.5596 0.0000 -1.4251 0.0000
# 4 0.0000 0.0000 0.0000 17.2541 0.0000 -0.9950
# 5 -0.1040 2.1193 -1.4251 0.0000 25.6472 0.0000
# 6 0.0000 0.0000 0.0000 -0.9950 0.0000 25.2048
#
#
#
# Elastic Compliance Matrix: (Units=1/GPa)
#
#
# Indices 1 2 3 4 5 6 
#
# 1 0.013677 -0.001845 -0.007596 0.000000 -0.000214 0.000000
# 2 -0.001845 0.011209 -0.001731 0.000000 -0.001030 0.000000
# 3 -0.007596 -0.001731 0.015277 0.000000 0.000961 0.000000
# 4 0.000000 0.000000 0.000000 0.058089 0.000000 0.002293
# 5 -0.000214 -0.001030 0.000961 0.000000 0.039128 0.000000
# 6 0.000000 0.000000 0.000000 0.002293 0.000000 0.039766
#
#
# Mechanical properties :
#
#
# Convention : Reuss Voigt Hill
#
# Bulk Modulus (GPa) = 56.12490 57.50868 56.81679
# Shear Modulus (GPa) = 24.33915 26.60479 25.47197
#
# Velocity S-wave (km/s) = 3.51275 3.67260 3.59356
# Velocity P-wave (km/s) = 6.70124 6.86583 6.78403
#
# Compressibility (1/GPa) = 0.01781740
#
# Stress axis : x y z
#
# Youngs Moduli (GPa) = 73.11695 89.21256 65.45872
#
# Poissons Ratio (x) = 0.16461 0.49723
# Poissons Ratio (y) = 0.13492 0.11333
# Poissons Ratio (z) = 0.55540 0.15446
#
# Static dielectric constant tensor:
#      x y z
#    x 1.699270 0.000000 0.014590 
#    y 0.000000 1.715460 0.000000 
#    z 0.014590 0.000000 1.685030 
# 
# From -- ./inp_files/94092.got.cif
#   From: 2010.05.17/outbox.cif.g08.bks.cpg/sg10_48_cif.got.tgz:94092.got - 2010.06.03 11:33:40.
