data_PCOD9151018
_publ_section_title
;
Structure prediction by ZEFSAII (Michael W. Deem and Ramdas Pophale) SiO2 
 PCOD9151018
Probable space group: P 2/M
;
_chemical_formula_sum "Si O2"
_cell_formula_units_Z 20
_cell_length_a 13.915489
_cell_length_b 8.892249
_cell_length_c 22.522687
_cell_angle_alpha 90.000000
_cell_angle_beta 158.533359
_cell_angle_gamma 90.000000
_cell_volume 1019.913308
_symmetry_space_group_name_H-M "P 2/M"
_symmetry_group_IT_number 10
_symmetry_cell_setting 'monoclinic'
loop_
_space_group_symop_operation_xyz
x,y,z
-x,y,-z
-x,-y,-z
x,-y,z
loop_
_atom_site_type_symbol
_atom_site_label
_atom_site_fract_x
_atom_site_fract_y
_atom_site_fract_z
Si Si1 0.668735 0.326959 0.194214
Si Si2 0.199965 0.821411 0.479557
Si Si3 0.420867 0.326239 0.723230
Si Si4 0.622521 0.673394 0.635754
Si Si5 0.187824 0.820666 0.969024
O O1 0.638719 0.500000 0.158398
O O2 0.733728 0.327279 0.302748
O O3 0.911048 0.247257 0.302252
O O4 0.390377 0.240920 0.035083
O O5 0.292243 0.771200 0.598201
O O6 0.414249 0.751656 0.559002
O O7 0.190763 0.000000 0.469479
O O8 0.450231 0.500000 0.721277
O O9 0.693915 0.252500 0.902547
O O10 0.500000 0.673823 0.500000
O O11 0.666985 0.500000 0.679557
O O12 0.896803 0.760948 0.792712
O O13 0.199868 0.000000 0.978461
#
# Coordination Sequence:
#
# PCOD9151018 Si02
#       5
#     4   4   4   4   4
#     4   9  19  36  59  88 123 159 192 230 283 350
#     4  12  23  35  59  92 122 153 193 242 292 340
#     4   9  19  35  59  88 123 159 192 230 282 350
#     4  11  25  45  64  81 110 155 201 242 289 349
#     4  10  20  37  61  89 121 151 188 241 296 342
#
# _framework density 19.60951
#
# number of rings (size 3 to 8) (size 9 to 14) (size 15 to 20)
#    1.200    0.600    0.000    5.400    0.000    4.800 
#    0.000    5.000    0.000    6.000    0.000    0.000 
#    0.000    0.000    0.000    0.000    0.000    0.000 
#
# Total GULP energy -111556.226568 kJ/mol
# GULP energy per Si atom -5577.811328 kJ/mol
# Density = 1.956488 g / cm^3
# Si number density = 19.609510 Si / 1000 Ang^3
#
#
#
# Elastic Constant Matrix: (Units=GPa)
#
#
# Indices 1 2 3 4 5 6 
#
# 1 83.1550 35.1770 -12.9596 0.0000 49.8308 0.0000
# 2 35.1770 164.4111 40.3373 0.0000 33.4164 0.0000
# 3 -12.9596 40.3373 157.7390 0.0000 18.1058 0.0000
# 4 0.0000 0.0000 0.0000 127.6872 0.0000 -94.4474
# 5 49.8308 33.4164 18.1058 0.0000 44.0138 0.0000
# 6 0.0000 0.0000 0.0000 -94.4474 0.0000 124.0856
#
#
#
# Elastic Compliance Matrix: (Units=1/GPa)
#
#
# Indices 1 2 3 4 5 6 
#
# 1 0.052055 -0.001265 0.011813 0.000000 -0.062834 0.000000
# 2 -0.001265 0.007475 -0.001604 0.000000 -0.003583 0.000000
# 3 0.011813 -0.001604 0.009567 0.000000 -0.016092 0.000000
# 4 0.000000 0.000000 0.000000 0.017922 0.000000 0.013641
# 5 -0.062834 -0.003583 -0.016092 0.000000 0.103199 0.000000
# 6 0.000000 0.000000 0.000000 0.013641 0.000000 0.018442
#
#
# Mechanical properties :
#
#
# Convention : Reuss Voigt Hill
#
# Bulk Modulus (GPa) = 11.49626 58.93493 35.21560
# Shear Modulus (GPa) = 22.75137 82.00732 52.37934
#
# Velocity S-wave (km/s) = 3.40990 6.47387 5.17389
# Velocity P-wave (km/s) = 4.62369 9.27366 7.32732
#
# Compressibility (1/GPa) = 0.08698482
#
# Stress axis : x y z
#
# Youngs Moduli (GPa) = 19.21034 133.78341 104.52233
#
# Poissons Ratio (x) = 0.16920 -1.23467
# Poissons Ratio (y) = 0.02430 0.16766
# Poissons Ratio (z) = -0.22692 0.21460
#
# Static dielectric constant tensor:
#      x y z
#    x 1.690840 0.000000 -0.001230 
#    y 0.000000 1.653810 0.000000 
#    z -0.001230 0.000000 1.685390 
# 
# From -- ./inp_files/93072.got.cif
#   From: 2010.05.17/outbox.cif.g08.bks.cpg/sg10_47_cif.got.tgz:93072.got - 2010.06.03 11:33:40.
