data_PCOD9151733
_publ_section_title
;
Structure prediction by ZEFSAII (Michael W. Deem and Ramdas Pophale) SiO2 
 PCOD9151733
Probable space group: P 2/M
;
_chemical_formula_sum "Si O2"
_cell_formula_units_Z 28
_cell_length_a 30.362058
_cell_length_b 9.776381
_cell_length_c 30.348363
_cell_angle_alpha 90.000000
_cell_angle_beta 9.865628
_cell_angle_gamma 90.000000
_cell_volume 1543.471217
_symmetry_space_group_name_H-M "P 2/M"
_symmetry_group_IT_number 10
_symmetry_cell_setting 'monoclinic'
loop_
_space_group_symop_operation_xyz
x,y,z
-x,y,-z
-x,-y,-z
x,-y,z
loop_
_atom_site_type_symbol
_atom_site_label
_atom_site_fract_x
_atom_site_fract_y
_atom_site_fract_z
Si Si1 0.234756 0.000000 0.735870
Si Si2 0.049719 0.664723 0.652253
Si Si3 0.580111 0.333263 0.969862
Si Si4 0.768994 0.757295 0.328299
Si Si5 0.894561 0.332904 0.502872
Si Si6 0.576112 0.666059 0.181425
Si Si7 0.235430 0.500000 0.732392
Si Si8 0.707839 0.167529 0.139558
O O1 0.500000 0.000000 0.500000
O O2 0.217236 0.873338 0.721469
O O3 0.000000 0.000000 0.000000
O O4 0.056622 0.500000 0.642278
O O5 0.075326 0.715955 0.577013
O O6 0.294206 0.701708 0.441055
O O7 0.784904 0.697388 0.937715
O O8 0.580684 0.500000 0.968413
O O9 0.862011 0.290837 0.707662
O O10 0.500000 0.287904 0.000000
O O11 0.368414 0.291082 0.214390
O O12 0.773606 0.624383 0.293243
O O13 0.510522 0.781378 0.611088
O O14 0.015869 0.777804 0.116259
O O15 0.894078 0.500000 0.502406
O O16 0.586325 0.500000 0.180485
O O17 0.643211 0.757564 0.157405
O O18 0.500000 0.500000 0.500000
O O19 0.000000 0.500000 0.000000
O O20 0.707522 0.000000 0.137617
#
# Coordination Sequence:
#
# PCOD9151733 Si02
#       8
#     2   4   4   4   4   4   2   4
#     4  12  22  40  64  88 114 148 186 218 260 310
#     4   9  17  31  46  72  96 127 176 224 275 324
#     4   9  15  21  30  50  78 119 169 212 256 311
#     4  12  25  42  65  91 119 152 188 227 271 327
#     4   9  15  23  37  52  82 120 160 218 264 306
#     4  10  21  34  56  78 104 136 178 227 271 326
#     4  12  26  46  66  94 126 152 188 232 276 318
#     4  12  24  43  61  89 118 151 188 227 277 333
#
# _framework density 18.140927000000001
#
# number of rings (size 3 to 8) (size 9 to 14) (size 15 to 20)
#    0.000    1.571    1.429    4.714    2.000    5.143 
#    0.000    0.000    0.000    0.000    0.000    0.000 
#    0.000    0.000    0.000    0.000    0.000   50.000 
#
# Total GULP energy -156215.730811 kJ/mol
# GULP energy per Si atom -5579.133243 kJ/mol
# Density = 1.809964 g / cm^3
# Si number density = 18.140927 Si / 1000 Ang^3
#
#
#
# Elastic Constant Matrix: (Units=GPa)
#
#
# Indices 1 2 3 4 5 6 
#
# 1 50.1222 14.3279 -31.4198 0.0000 -0.6681 0.0000
# 2 14.3279 70.5143 -8.5112 0.0000 1.5470 0.0000
# 3 -31.4198 -8.5112 52.0247 0.0000 -5.3902 0.0000
# 4 0.0000 0.0000 0.0000 10.6805 0.0000 -3.5610
# 5 -0.6681 1.5470 -5.3902 0.0000 35.2749 0.0000
# 6 0.0000 0.0000 0.0000 -3.5610 0.0000 9.8471
#
#
#
# Elastic Compliance Matrix: (Units=1/GPa)
#
#
# Indices 1 2 3 4 5 6 
#
# 1 0.033942 -0.004549 0.020161 0.000000 0.003923 0.000000
# 2 -0.004549 0.015080 -0.000364 0.000000 -0.000803 0.000000
# 3 0.020161 -0.000364 0.031884 0.000000 0.005270 0.000000
# 4 0.000000 0.000000 0.000000 0.106465 0.000000 0.038501
# 5 0.003923 -0.000803 0.005270 0.000000 0.029264 0.000000
# 6 0.000000 0.000000 0.000000 0.038501 0.000000 0.115476
#
#
# Mechanical properties :
#
#
# Convention : Reuss Voigt Hill
#
# Bulk Modulus (GPa) = 8.97641 13.49500 11.23571
# Shear Modulus (GPa) = 14.76022 24.37812 19.56917
#
# Velocity S-wave (km/s) = 2.85554 3.66979 3.28797
# Velocity P-wave (km/s) = 3.97882 5.04099 4.54107
#
# Compressibility (1/GPa) = 0.11140309
#
# Stress axis : x y z
#
# Youngs Moduli (GPa) = 29.46162 66.31465 31.36329
#
# Poissons Ratio (x) = 0.30169 -0.63233
# Poissons Ratio (y) = 0.13403 0.01141
# Poissons Ratio (z) = -0.59399 0.02412
#
# Static dielectric constant tensor:
#      x y z
#    x 1.612550 0.000000 -0.000830 
#    y 0.000000 1.558370 0.000000 
#    z -0.000830 0.000000 1.605170 
# 
# From -- ./inp_files/94362.got.cif
#   From: 2010.05.17/outbox.cif.g08.bks.cpg/sg10_48_cif.got.tgz:94362.got - 2010.06.03 11:33:40.
