data_PCOD9151490
_publ_section_title
;
Structure prediction by ZEFSAII (Michael W. Deem and Ramdas Pophale) SiO2 
 PCOD9151490
Probable space group: P 2/M
;
_chemical_formula_sum "Si O2"
_cell_formula_units_Z 20
_cell_length_a 8.276064
_cell_length_b 11.942533
_cell_length_c 10.118657
_cell_angle_alpha 90.000000
_cell_angle_beta 97.335472
_cell_angle_gamma 90.000000
_cell_volume 991.914169
_symmetry_space_group_name_H-M "P 2/M"
_symmetry_group_IT_number 10
_symmetry_cell_setting 'monoclinic'
loop_
_space_group_symop_operation_xyz
x,y,z
-x,y,-z
-x,-y,-z
x,-y,z
loop_
_atom_site_type_symbol
_atom_site_label
_atom_site_fract_x
_atom_site_fract_y
_atom_site_fract_z
Si Si1 0.042824 0.634615 0.352961
Si Si2 0.152093 0.000000 0.415082
Si Si3 0.377171 0.195287 0.091821
Si Si4 0.363631 0.777506 0.380315
Si Si5 0.130347 0.000000 0.123758
Si Si6 0.842926 0.370120 0.079721
O O1 0.054247 0.500000 0.342259
O O2 0.216617 0.690317 0.344099
O O3 0.000000 0.662744 0.500000
O O4 0.909094 0.671089 0.229686
O O5 0.272706 0.891469 0.422942
O O6 0.064444 0.000000 0.263820
O O7 0.000000 0.000000 0.500000
O O8 0.448903 0.216310 0.244935
O O9 0.236373 0.109468 0.113292
O O10 0.500000 0.143125 0.000000
O O11 0.297524 0.299193 0.005296
O O12 0.500000 0.744680 0.500000
O O13 0.000000 0.000000 0.000000
O O14 0.793591 0.500000 0.087657
O O15 0.000000 0.365203 0.000000
#
# Coordination Sequence:
#
# PCOD9151490 Si02
#       6
#     4   2   4   4   2   4
#     4  10  22  40  63  90 119 157 205 249 295 350
#     4  10  23  42  64  90 115 156 202 243 295 358
#     4  11  24  39  60  90 123 159 197 243 300 357
#     4  11  24  40  60  89 125 157 195 247 301 354
#     4  10  23  40  64  90 119 152 198 250 295 348
#     4  10  20  39  64  86 118 160 203 250 292 347
#
# _framework density 20.163032999999999
#
# number of rings (size 3 to 8) (size 9 to 14) (size 15 to 20)
#    0.000    1.600    2.000    1.800    5.600    2.400 
#    0.000    0.000    0.000    0.000    0.000    0.000 
#    0.000    0.000    0.000    0.000    0.000    0.000 
#
# Total GULP energy -111576.865357 kJ/mol
# GULP energy per Si atom -5578.843268 kJ/mol
# Density = 2.011714 g / cm^3
# Si number density = 20.163033 Si / 1000 Ang^3
#
#
#
# Elastic Constant Matrix: (Units=GPa)
#
#
# Indices 1 2 3 4 5 6 
#
# 1 38.2995 4.2137 45.0614 0.0000 -8.0122 0.0000
# 2 4.2137 37.7747 26.0331 0.0000 6.1959 0.0000
# 3 45.0614 26.0331 186.9999 0.0000 0.6633 0.0000
# 4 0.0000 0.0000 0.0000 17.4264 0.0000 -2.1330
# 5 -8.0122 6.1959 0.6633 0.0000 48.9768 0.0000
# 6 0.0000 0.0000 0.0000 -2.1330 0.0000 11.9046
#
#
#
# Elastic Compliance Matrix: (Units=1/GPa)
#
#
# Indices 1 2 3 4 5 6 
#
# 1 0.038395 0.001197 -0.009441 0.000000 0.006258 0.000000
# 2 0.001197 0.029987 -0.004450 0.000000 -0.003537 0.000000
# 3 -0.009441 -0.004450 0.008246 0.000000 -0.001093 0.000000
# 4 0.000000 0.000000 0.000000 0.058671 0.000000 0.010512
# 5 0.006258 -0.003537 -0.001093 0.000000 0.021904 0.000000
# 6 0.000000 0.000000 0.000000 0.010512 0.000000 0.085885
#
#
# Mechanical properties :
#
#
# Convention : Reuss Voigt Hill
#
# Bulk Modulus (GPa) = 19.51634 45.96560 32.74097
# Shear Modulus (GPa) = 17.50973 28.17929 22.84451
#
# Velocity S-wave (km/s) = 2.95007 3.74247 3.36964
# Velocity P-wave (km/s) = 4.61565 6.44369 5.60470
#
# Compressibility (1/GPa) = 0.05123910
#
# Stress axis : x y z
#
# Youngs Moduli (GPa) = 26.04493 33.34832 121.27040
#
# Poissons Ratio (x) = -0.03992 1.14491
# Poissons Ratio (y) = -0.03118 0.53971
# Poissons Ratio (z) = 0.24589 0.14842
#
# Static dielectric constant tensor:
#      x y z
#    x 1.684720 0.000000 -0.005390 
#    y 0.000000 1.727470 0.000000 
#    z -0.005390 0.000000 1.652630 
# 
# From -- ./inp_files/17811.got.cif
#   From: 2010.05.17/outbox.cif.g08.bks.cpg/sg10_9_cif.got.tgz:17811.got - 2010.06.03 11:33:40.
