data_PCOD9151193
_publ_section_title
;
Structure prediction by ZEFSAII (Michael W. Deem and Ramdas Pophale) SiO2 
 PCOD9151193
Probable space group: P 2/M
;
_chemical_formula_sum "Si O2"
_cell_formula_units_Z 24
_cell_length_a 8.673153
_cell_length_b 13.206497
_cell_length_c 11.151318
_cell_angle_alpha 90.000000
_cell_angle_beta 108.158298
_cell_angle_gamma 90.000000
_cell_volume 1213.683572
_symmetry_space_group_name_H-M "P 2/M"
_symmetry_group_IT_number 10
_symmetry_cell_setting 'monoclinic'
loop_
_space_group_symop_operation_xyz
x,y,z
-x,y,-z
-x,-y,-z
x,-y,z
loop_
_atom_site_type_symbol
_atom_site_label
_atom_site_fract_x
_atom_site_fract_y
_atom_site_fract_z
Si Si1 0.373725 0.385889 0.605034
Si Si2 0.433808 0.884534 0.847419
Si Si3 0.345889 0.769233 0.282242
Si Si4 0.194271 0.385741 0.057994
Si Si5 0.901801 0.265849 0.592499
Si Si6 0.776161 0.688304 0.198165
O O1 0.422433 0.500000 0.591040
O O2 0.513554 0.302001 0.628896
O O3 0.216497 0.351601 0.491029
O O4 0.320436 0.378590 0.730535
O O5 0.568184 0.852892 0.780640
O O6 0.291596 0.802181 0.803805
O O7 0.381937 0.000000 0.814907
O O8 0.500000 0.877067 0.000000
O O9 0.251957 0.694310 0.169287
O O10 0.220202 0.801714 0.356088
O O11 0.248397 0.500000 0.100051
O O12 0.253595 0.350837 0.941892
O O13 0.000000 0.385818 0.000000
O O14 0.000000 0.222996 0.500000
O O15 0.037469 0.310483 0.714369
#
# Coordination Sequence:
#
# PCOD9151193 Si02
#       6
#     4   4   4   4   4   4
#     4  10  22  36  57  86 119 163 209 242 282 347
#     4  10  21  39  65  92 118 150 191 246 312 371
#     4  11  21  38  60  85 123 154 198 252 297 347
#     4  11  21  32  54  88 125 162 192 232 300 362
#     4  10  22  38  58  80 116 161 200 240 286 337
#     4  10  20  38  58  85 123 155 193 248 297 354
#
# _framework density 19.774511
#
# number of rings (size 3 to 8) (size 9 to 14) (size 15 to 20)
#    0.000    1.667    3.333    1.500    0.000    5.667 
#    0.000    3.333    0.000   34.000    0.000    0.000 
#    0.000    0.000    0.000    0.000    0.000    0.000 
#
# Total GULP energy -133916.849785 kJ/mol
# GULP energy per Si atom -5579.868741 kJ/mol
# Density = 1.972950 g / cm^3
# Si number density = 19.774511 Si / 1000 Ang^3
#
#
#
# Elastic Constant Matrix: (Units=GPa)
#
#
# Indices 1 2 3 4 5 6 
#
# 1 94.8467 13.3875 29.1248 0.0000 -27.3495 0.0000
# 2 13.3875 90.4891 20.6636 0.0000 -4.4489 0.0000
# 3 29.1248 20.6636 89.9373 0.0000 -13.2574 0.0000
# 4 0.0000 0.0000 0.0000 15.8253 0.0000 -2.2470
# 5 -27.3495 -4.4489 -13.2574 0.0000 47.0268 0.0000
# 6 0.0000 0.0000 0.0000 -2.2470 0.0000 14.0977
#
#
#
# Elastic Compliance Matrix: (Units=1/GPa)
#
#
# Indices 1 2 3 4 5 6 
#
# 1 0.013660 -0.000953 -0.003179 0.000000 0.006958 0.000000
# 2 -0.000953 0.011735 -0.002406 0.000000 -0.000122 0.000000
# 3 -0.003179 -0.002406 0.012932 0.000000 0.001569 0.000000
# 4 0.000000 0.000000 0.000000 0.064653 0.000000 0.010305
# 5 0.006958 -0.000122 0.001569 0.000000 0.025742 0.000000
# 6 0.000000 0.000000 0.000000 0.010305 0.000000 0.072576
#
#
# Mechanical properties :
#
#
# Convention : Reuss Voigt Hill
#
# Bulk Modulus (GPa) = 39.59957 44.62499 42.11228
# Shear Modulus (GPa) = 22.44244 29.52979 25.98612
#
# Velocity S-wave (km/s) = 3.37251 3.86855 3.62901
# Velocity P-wave (km/s) = 5.93583 6.52458 6.23716
#
# Compressibility (1/GPa) = 0.02525280
#
# Stress axis : x y z
#
# Youngs Moduli (GPa) = 73.20386 85.21243 77.32508
#
# Poissons Ratio (x) = 0.08120 0.24582
# Poissons Ratio (y) = 0.06976 0.18602
# Poissons Ratio (z) = 0.23272 0.20499
#
# Static dielectric constant tensor:
#      x y z
#    x 1.752280 0.000000 -0.038800 
#    y 0.000000 1.629820 0.000000 
#    z -0.038800 0.000000 1.714770 
# 
# From -- ./inp_files/42518.got.cif
#   From: 2010.05.17/outbox.cif.g08.bks.cpg/sg10_22_cif.got.tgz:42518.got - 2010.06.03 11:33:40.
