data_PCOD9151859
_publ_section_title
;
Structure prediction by ZEFSAII (Michael W. Deem and Ramdas Pophale) SiO2 
 PCOD9151859
Probable space group: P 2/M
;
_chemical_formula_sum "Si O2"
_cell_formula_units_Z 30
_cell_length_a 5.851659
_cell_length_b 14.064404
_cell_length_c 16.528609
_cell_angle_alpha 90.000000
_cell_angle_beta 108.592624
_cell_angle_gamma 90.000000
_cell_volume 1289.311006
_symmetry_space_group_name_H-M "P 2/M"
_symmetry_group_IT_number 10
_symmetry_cell_setting 'monoclinic'
loop_
_space_group_symop_operation_xyz
x,y,z
-x,y,-z
-x,-y,-z
x,-y,z
loop_
_atom_site_type_symbol
_atom_site_label
_atom_site_fract_x
_atom_site_fract_y
_atom_site_fract_z
Si Si1 0.204939 0.790358 0.452808
Si Si2 0.792182 0.894019 0.249698
Si Si3 0.372258 0.892123 0.066603
Si Si4 0.120154 0.396290 0.813776
Si Si5 0.205040 0.000000 0.449651
Si Si6 0.591067 0.292646 0.286552
Si Si7 0.097063 0.786384 0.159882
Si Si8 0.291652 0.394352 0.366474
O O1 0.500000 0.790380 0.500000
O O2 0.174330 0.689389 0.405150
O O3 0.000000 0.791310 0.500000
O O4 0.173901 0.894914 0.406997
O O5 0.566126 0.895854 0.161467
O O6 0.750857 0.803220 0.303509
O O7 0.000088 0.866243 0.210057
O O8 0.805712 0.000000 0.286972
O O9 0.164783 0.830242 0.082595
O O10 0.294403 0.000000 0.039594
O O11 0.500000 0.854690 0.000000
O O12 0.166228 0.500000 0.855776
O O13 0.320907 0.364953 0.772010
O O14 0.080525 0.304086 0.864754
O O15 0.882535 0.404407 0.730836
O O16 0.500000 0.000000 0.500000
O O17 0.000000 0.000000 0.500000
O O18 0.336034 0.252059 0.229613
O O19 0.544926 0.351377 0.362807
O O20 0.313466 0.500000 0.404665
#
# Coordination Sequence:
#
# PCOD9151859 Si02
#       8
#     4   4   4   4   2   4   4   4
#     4  10  22  39  61  85 115 150 192 230 281 342
#     4   9  17  30  49  73 105 140 172 217 267 317
#     4   9  17  28  45  73 105 139 174 207 255 319
#     4   9  18  33  54  75  98 132 174 218 270 327
#     4   8  16  36  60  78 102 146 186 226 261 316
#     4   9  18  33  51  72 101 135 175 215 266 320
#     4   9  17  30  48  70  99 134 172 217 261 312
#     4  10  21  35  55  81 111 140 174 226 277 329
#
# _framework density 23.268241
#
# number of rings (size 3 to 8) (size 9 to 14) (size 15 to 20)
#    0.000    2.800    0.000    0.800    1.867    2.133 
#    1.200    2.000    7.333    0.400    0.000    8.400 
#    0.000    0.000    0.000    0.000    0.000    0.000 
#
# Total GULP energy -167182.706152 kJ/mol
# GULP energy per Si atom -5572.756872 kJ/mol
# Density = 2.321528 g / cm^3
# Si number density = 23.268241 Si / 1000 Ang^3
#
#
#
# Elastic Constant Matrix: (Units=GPa)
#
#
# Indices 1 2 3 4 5 6 
#
# 1 95.4187 37.4318 21.5527 0.0000 -20.6244 0.0000
# 2 37.4318 214.2001 53.4081 0.0000 -31.8030 0.0000
# 3 21.5527 53.4081 45.0196 0.0000 -15.2580 0.0000
# 4 0.0000 0.0000 0.0000 -27.0423 0.0000 87.1864
# 5 -20.6244 -31.8030 -15.2580 0.0000 41.5734 0.0000
# 6 0.0000 0.0000 0.0000 87.1864 0.0000 -205.2144
#
#
#
# Elastic Compliance Matrix: (Units=1/GPa)
#
#
# Indices 1 2 3 4 5 6 
#
# 1 0.012515 -0.000588 -0.003816 0.000000 0.004358 0.000000
# 2 -0.000588 0.006892 -0.007088 0.000000 0.002379 0.000000
# 3 -0.003816 -0.007088 0.034226 0.000000 0.005246 0.000000
# 4 0.000000 0.000000 0.000000 0.100007 0.000000 0.042489
# 5 0.004358 0.002379 0.005246 0.000000 0.029961 0.000000
# 6 0.000000 0.000000 0.000000 0.042489 0.000000 0.013179
#
#
# Mechanical properties :
#
#
# Convention : Reuss Voigt Hill
#
# Bulk Modulus (GPa) = 32.62930 64.38040 48.50485
# Shear Modulus (GPa) = 21.74091 -21.98693 -0.12301
#
# Velocity S-wave (km/s) = 3.06005 -3.07731 -0.23017
# Velocity P-wave (km/s) = 5.15158 3.88618 4.56296
#
# Compressibility (1/GPa) = 0.03064730
#
# Stress axis : x y z
#
# Youngs Moduli (GPa) = 79.90472 145.09813 29.21723
#
# Poissons Ratio (x) = 0.08538 0.11150
# Poissons Ratio (y) = 0.04702 0.20710
# Poissons Ratio (z) = 0.30495 1.02847
#
# Static dielectric constant tensor:
#      x y z
#    x 2.002810 0.000000 0.078140 
#    y 0.000000 1.909270 0.000000 
#    z 0.078140 0.000000 1.945900 
# 
# From -- ./inp_files/81205.got.cif
#   From: 2010.05.17/outbox.cif.g08.bks.cpg/sg10_41_cif.got.tgz:81205.got - 2010.06.03 11:33:40.
