data_PCOD9151405
_publ_section_title
;
Structure prediction by ZEFSAII (Michael W. Deem and Ramdas Pophale) SiO2 
 PCOD9151405
Probable space group: P 2/M
;
_chemical_formula_sum "Si O2"
_cell_formula_units_Z 28
_cell_length_a 9.151317
_cell_length_b 14.930267
_cell_length_c 11.458803
_cell_angle_alpha 90.000000
_cell_angle_beta 121.687743
_cell_angle_gamma 90.000000
_cell_volume 1332.235326
_symmetry_space_group_name_H-M "P 2/M"
_symmetry_group_IT_number 10
_symmetry_cell_setting 'monoclinic'
loop_
_space_group_symop_operation_xyz
x,y,z
-x,y,-z
-x,-y,-z
x,-y,z
loop_
_atom_site_type_symbol
_atom_site_label
_atom_site_fract_x
_atom_site_fract_y
_atom_site_fract_z
Si Si1 0.085264 0.226685 0.913528
Si Si2 0.851625 0.000000 0.615262
Si Si3 0.332627 0.170836 0.858632
Si Si4 0.747515 0.000000 0.303515
Si Si5 0.461887 0.650121 0.356372
Si Si6 0.198781 0.288110 0.593423
Si Si7 0.763879 0.197333 0.637295
Si Si8 0.798510 0.595883 0.949000
O O1 0.195232 0.149395 0.901785
O O2 0.928639 0.245717 0.762354
O O3 0.208758 0.312746 0.980992
O O4 0.000000 0.203415 0.000000
O O5 0.766705 0.000000 0.450609
O O6 0.790261 0.090520 0.655607
O O7 0.056879 0.000000 0.669263
O O8 0.353625 0.085618 0.785879
O O9 0.243966 0.242676 0.735479
O O10 0.500000 0.197863 0.000000
O O11 0.500000 0.610610 0.500000
O O12 0.642723 0.646075 0.365077
O O13 0.389634 0.751481 0.357922
O O14 0.317985 0.607082 0.214488
O O15 0.225402 0.219475 0.495855
O O16 0.000000 0.318152 0.500000
O O17 0.757225 0.500000 0.988380
O O18 0.000000 0.594158 0.000000
#
# Coordination Sequence:
#
# PCOD9151405 Si02
#       8
#     4   2   4   2   4   4   4   4
#     4  11  21  38  64  89 125 160 210 260 315 383
#     4  11  20  36  66  87 128 172 220 260 311 383
#     4  12  24  38  62  91 125 167 215 270 314 374
#     4  11  21  38  57  92 127 164 223 264 305 379
#     4  10  22  38  64  96 132 159 211 274 316 383
#     4  11  21  40  65  92 118 175 226 250 315 385
#     4  11  20  39  62  92 124 169 214 263 311 366
#     4  10  20  38  66  96 128 167 209 260 323 391
#
# _framework density 21.017306999999999
#
# number of rings (size 3 to 8) (size 9 to 14) (size 15 to 20)
#    0.000    1.143    7.143    1.071    0.000    0.286 
#    0.000    5.357    0.000    4.286    0.000    0.000 
#    0.000    0.000    0.000    0.000    0.000    0.000 
#
# Total GULP energy -155912.201227 kJ/mol
# GULP energy per Si atom -5568.292901 kJ/mol
# Density = 2.096947 g / cm^3
# Si number density = 21.017307 Si / 1000 Ang^3
#
#
#
# Elastic Constant Matrix: (Units=GPa)
#
#
# Indices 1 2 3 4 5 6 
#
# 1 102.9744 7.5097 38.3036 0.0000 16.6095 0.0000
# 2 7.5097 50.1355 22.6646 0.0000 -2.5989 0.0000
# 3 38.3036 22.6646 165.6696 0.0000 21.7207 0.0000
# 4 0.0000 0.0000 0.0000 -23.7809 0.0000 -12.7391
# 5 16.6095 -2.5989 21.7207 0.0000 39.6652 0.0000
# 6 0.0000 0.0000 0.0000 -12.7391 0.0000 -6.6295
#
#
#
# Elastic Compliance Matrix: (Units=1/GPa)
#
#
# Indices 1 2 3 4 5 6 
#
# 1 0.011096 -0.000966 -0.001956 0.000000 -0.003639 0.000000
# 2 -0.000966 0.021733 -0.003221 0.000000 0.003592 0.000000
# 3 -0.001956 -0.003221 0.007379 0.000000 -0.003433 0.000000
# 4 0.000000 0.000000 0.000000 1.431882 0.000000 -2.751477
# 5 -0.003639 0.003592 -0.003433 0.000000 0.028850 0.000000
# 6 0.000000 0.000000 0.000000 -2.751477 0.000000 5.136343
#
#
# Mechanical properties :
#
#
# Convention : Reuss Voigt Hill
#
# Bulk Modulus (GPa) = 35.81470 50.63726 43.22598
# Shear Modulus (GPa) = 0.75088 18.53773 9.64430
#
# Velocity S-wave (km/s) = 0.59837 2.97311 2.14446
# Velocity P-wave (km/s) = 4.18986 5.99427 5.17137
#
# Compressibility (1/GPa) = 0.02792150
#
# Stress axis : x y z
#
# Youngs Moduli (GPa) = 90.12114 46.01316 135.51839
#
# Poissons Ratio (x) = 0.04446 0.26511
# Poissons Ratio (y) = 0.08709 0.43647
# Poissons Ratio (z) = 0.17630 0.14820
#
# Static dielectric constant tensor:
#      x y z
#    x 1.805770 0.000000 0.019000 
#    y 0.000000 1.791940 0.000000 
#    z 0.019000 0.000000 1.799110 
# 
# From -- ./inp_files/43063.got.cif
#   From: 2010.05.17/outbox.cif.g08.bks.cpg/sg10_22_cif.got.tgz:43063.got - 2010.06.03 11:33:40.
