data_PCOD9151108
_publ_section_title
;
Structure prediction by ZEFSAII (Michael W. Deem and Ramdas Pophale) SiO2 
 PCOD9151108
Probable space group: P 2/M
;
_chemical_formula_sum "Si O2"
_cell_formula_units_Z 28
_cell_length_a 10.128611
_cell_length_b 9.018616
_cell_length_c 26.575391
_cell_angle_alpha 90.000000
_cell_angle_beta 38.033484
_cell_angle_gamma 90.000000
_cell_volume 1495.671053
_symmetry_space_group_name_H-M "P 2/M"
_symmetry_group_IT_number 10
_symmetry_cell_setting 'monoclinic'
loop_
_space_group_symop_operation_xyz
x,y,z
-x,y,-z
-x,-y,-z
x,-y,z
loop_
_atom_site_type_symbol
_atom_site_label
_atom_site_fract_x
_atom_site_fract_y
_atom_site_fract_z
Si Si1 0.478299 0.174880 0.272709
Si Si2 0.370876 0.323133 0.201265
Si Si3 0.749986 0.324788 0.564596
Si Si4 0.043797 0.677311 0.742250
Si Si5 0.021964 0.824636 0.857571
Si Si6 0.469621 0.176818 0.568007
Si Si7 0.181145 0.677774 0.986797
O O1 0.380137 0.235846 0.250651
O O2 0.381917 0.261848 0.348776
O O3 0.734391 0.197784 0.196076
O O4 0.437150 0.000000 0.290824
O O5 0.376252 0.500000 0.210291
O O6 0.159670 0.291467 0.232309
O O7 0.585341 0.287171 0.105428
O O8 0.711202 0.500000 0.570657
O O9 0.667774 0.240769 0.540043
O O10 0.000000 0.301005 0.500000
O O11 0.070190 0.500000 0.738069
O O12 0.004415 0.744428 0.809243
O O13 0.256337 0.748546 0.654512
O O14 0.867916 0.757624 0.946158
O O15 0.987061 0.000000 0.861930
O O16 0.500000 0.208859 0.500000
O O17 0.455101 0.000000 0.579279
O O18 0.167234 0.500000 0.998272
O O19 0.000000 0.719205 0.000000
#
# Coordination Sequence:
#
# PCOD9151108 Si02
#       7
#     4   4   4   4   4   4   4
#     4  11  23  39  63  92 125 165 205 254 311 366
#     4  10  23  41  62  93 125 161 211 260 309 367
#     4  11  25  43  66  96 126 161 208 257 303 362
#     4  11  24  42  65  90 123 165 209 257 307 368
#     4  11  23  39  62  91 125 163 207 254 307 372
#     4  11  25  44  65  92 127 165 204 251 311 373
#     4  10  20  37  63  90 122 162 206 257 310 363
#
# _framework density 18.720693000000001
#
# number of rings (size 3 to 8) (size 9 to 14) (size 15 to 20)
#    0.000    1.286    2.857    2.143    2.000    6.000 
#    0.000    2.857    0.000    0.000    0.000    0.000 
#    0.000    0.000    0.000    0.000    0.000    0.000 
#
# Total GULP energy -156584.559756 kJ/mol
# GULP energy per Si atom -5592.305706 kJ/mol
# Density = 1.867808 g / cm^3
# Si number density = 18.720693 Si / 1000 Ang^3
#
#
#
# Elastic Constant Matrix: (Units=GPa)
#
#
# Indices 1 2 3 4 5 6 
#
# 1 145.1047 72.2489 42.2746 0.0000 17.6452 0.0000
# 2 72.2489 62.3466 40.8742 0.0000 10.9759 0.0000
# 3 42.2746 40.8742 60.5315 0.0000 15.0143 0.0000
# 4 0.0000 0.0000 0.0000 18.5353 0.0000 8.1335
# 5 17.6452 10.9759 15.0143 0.0000 31.8784 0.0000
# 6 0.0000 0.0000 0.0000 8.1335 0.0000 37.9744
#
#
#
# Elastic Compliance Matrix: (Units=1/GPa)
#
#
# Indices 1 2 3 4 5 6 
#
# 1 0.016867 -0.021127 0.003394 0.000000 -0.003661 0.000000
# 2 -0.021127 0.055263 -0.023487 0.000000 0.003729 0.000000
# 3 0.003394 -0.023487 0.032235 0.000000 -0.008975 0.000000
# 4 0.000000 0.000000 0.000000 0.059548 0.000000 -0.012754
# 5 -0.003661 0.003729 -0.008975 0.000000 0.036339 0.000000
# 6 0.000000 0.000000 0.000000 -0.012754 0.000000 0.029065
#
#
# Mechanical properties :
#
#
# Convention : Reuss Voigt Hill
#
# Bulk Modulus (GPa) = 45.60611 64.30871 54.95741
# Shear Modulus (GPa) = 15.67078 25.18331 20.42705
#
# Velocity S-wave (km/s) = 2.89638 3.67169 3.30684
# Velocity P-wave (km/s) = 5.96654 7.23888 6.63328
#
# Compressibility (1/GPa) = 0.02192689
#
# Stress axis : x y z
#
# Youngs Moduli (GPa) = 59.28698 18.09526 31.02173
#
# Poissons Ratio (x) = 0.38230 -0.10529
# Poissons Ratio (y) = 1.25254 0.72860
# Poissons Ratio (z) = -0.20123 0.42500
#
# Static dielectric constant tensor:
#      x y z
#    x 1.625550 0.000000 -0.014280 
#    y 0.000000 1.625410 0.000000 
#    z -0.014280 0.000000 1.619510 
# 
# From -- ./inp_files/37279.got.cif
#   From: 2010.05.17/outbox.cif.g08.bks.cpg/sg10_19_cif.got.tgz:37279.got - 2010.06.03 11:33:40.
