data_PCOD9151163
_publ_section_title
;
Structure prediction by ZEFSAII (Michael W. Deem and Ramdas Pophale) SiO2 
 PCOD9151163
Probable space group: P 2/M
;
_chemical_formula_sum "Si O2"
_cell_formula_units_Z 28
_cell_length_a 10.495539
_cell_length_b 19.229221
_cell_length_c 10.390834
_cell_angle_alpha 90.000000
_cell_angle_beta 42.638595
_cell_angle_gamma 90.000000
_cell_volume 1420.508595
_symmetry_space_group_name_H-M "P 2/M"
_symmetry_group_IT_number 10
_symmetry_cell_setting 'monoclinic'
loop_
_space_group_symop_operation_xyz
x,y,z
-x,y,-z
-x,-y,-z
x,-y,z
loop_
_atom_site_type_symbol
_atom_site_label
_atom_site_fract_x
_atom_site_fract_y
_atom_site_fract_z
Si Si1 0.596862 0.646309 0.066222
Si Si2 0.104059 0.881298 0.048579
Si Si3 0.351604 0.651146 0.497827
Si Si4 0.502943 0.084622 0.647921
Si Si5 0.976296 0.281013 0.869977
Si Si6 0.213599 0.500000 0.681452
Si Si7 0.236981 0.500000 0.972794
Si Si8 0.899795 0.919442 0.452120
O O1 0.449905 0.663217 0.288761
O O2 0.666363 0.567623 0.039680
O O3 0.500000 0.654737 0.000000
O O4 0.785644 0.690915 0.948524
O O5 0.039316 0.801773 0.110844
O O6 0.035649 0.917709 0.228535
O O7 0.323869 0.886987 0.856472
O O8 0.000000 0.911462 0.000000
O O9 0.500000 0.669755 0.500000
O O10 0.298102 0.569901 0.557660
O O11 0.160641 0.693942 0.658710
O O12 0.500000 0.104923 0.500000
O O13 0.698311 0.110309 0.562500
O O14 0.494707 0.000000 0.657518
O O15 0.000000 0.308390 0.000000
O O16 0.743965 0.500000 0.196853
O O17 0.987329 0.500000 0.834326
O O18 0.000000 0.885789 0.500000
O O19 0.860369 0.000000 0.514486
#
# Coordination Sequence:
#
# PCOD9151163 Si02
#       8
#     4   4   4   4   4   2   2   4
#     4  12  26  44  64  97 131 164 208 272 327 373
#     4  11  23  40  65  94 127 169 217 262 314 372
#     4  12  22  41  71  93 121 169 217 260 317 380
#     4  10  20  37  66  98 127 164 211 263 318 372
#     4  11  24  45  64  93 124 171 222 259 304 388
#     4  11  20  36  72  97 120 165 218 262 315 378
#     4  11  20  39  68  94 133 158 206 273 317 378
#     4  10  22  41  64  96 132 166 209 263 320 376
#
# _framework density 19.71125
#
# number of rings (size 3 to 8) (size 9 to 14) (size 15 to 20)
#    0.000    1.000    5.714    1.286    0.000    2.857 
#    5.143    2.857    0.000    0.000    0.000    0.000 
#    0.000    0.000    0.000    0.000    0.000    0.000 
#
# Total GULP energy -156554.063854 kJ/mol
# GULP energy per Si atom -5591.216566 kJ/mol
# Density = 1.966639 g / cm^3
# Si number density = 19.711250 Si / 1000 Ang^3
#
#
#
# Elastic Constant Matrix: (Units=GPa)
#
#
# Indices 1 2 3 4 5 6 
#
# 1 181.4458 18.7936 86.1066 0.0000 -3.7797 0.0000
# 2 18.7936 39.9598 10.2799 0.0000 -8.1456 0.0000
# 3 86.1066 10.2799 169.6595 0.0000 -18.6463 0.0000
# 4 0.0000 0.0000 0.0000 -24.3062 0.0000 -11.1040
# 5 -3.7797 -8.1456 -18.6463 0.0000 33.1188 0.0000
# 6 0.0000 0.0000 0.0000 -11.1040 0.0000 -3.1136
#
#
#
# Elastic Compliance Matrix: (Units=1/GPa)
#
#
# Indices 1 2 3 4 5 6 
#
# 1 0.007642 -0.003008 -0.003925 0.000000 -0.002077 0.000000
# 2 -0.003008 0.027672 0.000597 0.000000 0.006799 0.000000
# 3 -0.003925 0.000597 0.008332 0.000000 0.004390 0.000000
# 4 0.000000 0.000000 0.000000 0.065387 0.000000 -0.233188
# 5 -0.002077 0.006799 0.004390 0.000000 0.034101 0.000000
# 6 0.000000 0.000000 0.000000 -0.233188 0.000000 0.510439
#
#
# Mechanical properties :
#
#
# Convention : Reuss Voigt Hill
#
# Bulk Modulus (GPa) = 32.28335 69.04725 50.66530
# Shear Modulus (GPa) = 7.39022 19.53212 13.46117
#
# Velocity S-wave (km/s) = 1.93840 3.15129 2.61611
# Velocity P-wave (km/s) = 4.62856 6.95315 5.90634
#
# Compressibility (1/GPa) = 0.03097572
#
# Stress axis : x y z
#
# Youngs Moduli (GPa) = 130.85583 36.13742 120.01507
#
# Poissons Ratio (x) = 0.10870 0.47101
# Poissons Ratio (y) = 0.39361 -0.07167
# Poissons Ratio (z) = 0.51355 -0.02158
#
# Static dielectric constant tensor:
#      x y z
#    x 1.730730 0.000000 -0.025060 
#    y 0.000000 1.715410 0.000000 
#    z -0.025060 0.000000 1.676200 
# 
# From -- ./inp_files/48020.got.cif
#   From: 2010.05.17/outbox.cif.g08.bks.cpg/sg10_25_cif.got.tgz:48020.got - 2010.06.03 11:33:40.
