data_PCOD9151824
_publ_section_title
;
Structure prediction by ZEFSAII (Michael W. Deem and Ramdas Pophale) SiO2 
 PCOD9151824
Probable space group: P 2/M
;
_chemical_formula_sum "Si O2"
_cell_formula_units_Z 28
_cell_length_a 25.412816
_cell_length_b 7.428455
_cell_length_c 19.878810
_cell_angle_alpha 90.000000
_cell_angle_beta 20.794928
_cell_angle_gamma 90.000000
_cell_volume 1332.292669
_symmetry_space_group_name_H-M "P 2/M"
_symmetry_group_IT_number 10
_symmetry_cell_setting 'monoclinic'
loop_
_space_group_symop_operation_xyz
x,y,z
-x,y,-z
-x,-y,-z
x,-y,z
loop_
_atom_site_type_symbol
_atom_site_label
_atom_site_fract_x
_atom_site_fract_y
_atom_site_fract_z
Si Si1 0.579399 0.793924 0.093941
Si Si2 0.325883 0.205928 0.863601
Si Si3 0.751668 0.779060 0.487336
Si Si4 0.416665 0.298080 0.536232
Si Si5 0.868222 0.794983 0.202668
Si Si6 0.012647 0.219424 0.273820
Si Si7 0.896573 0.220600 0.685148
O O1 0.634737 0.799576 0.104864
O O2 0.414149 0.715671 0.295777
O O3 0.562003 0.000000 0.090018
O O4 0.725322 0.716761 0.883114
O O5 0.455635 0.307058 0.671839
O O6 0.328174 0.000000 0.835823
O O7 0.159609 0.277763 0.057668
O O8 0.814009 0.718828 0.339665
O O9 0.866367 0.728215 0.408693
O O10 0.743237 0.000000 0.493340
O O11 0.500000 0.213817 0.500000
O O12 0.368351 0.500000 0.613445
O O13 0.276336 0.203368 0.671760
O O14 0.916807 0.000000 0.159996
O O15 0.000000 0.712297 0.000000
O O16 0.034185 0.276071 0.325543
O O17 0.016700 0.000000 0.269479
O O18 0.000000 0.275116 0.500000
O O19 0.891090 0.000000 0.692744
#
# Coordination Sequence:
#
# PCOD9151824 Si02
#       7
#     4   4   4   4   4   4   4
#     4   8  13  23  41  62  85 115 151 194 235 269
#     4   9  16  30  50  68  86 118 162 202 237 275
#     4   9  15  26  42  65  91 111 147 203 245 273
#     4  11  24  37  48  67  98 130 159 196 247 297
#     4  10  21  35  53  75  94 121 164 208 246 288
#     4   8  15  24  41  67  91 117 152 196 240 274
#     4   8  13  22  35  56  91 131 160 179 218 286
#
# _framework density 21.016404000000001
#
# number of rings (size 3 to 8) (size 9 to 14) (size 15 to 20)
#    0.000    3.000    1.429    2.143    2.000    1.429 
#    0.000    0.714    0.000    4.286    0.000    0.000 
#    0.000    9.143    0.000    5.143    0.000    5.714 
#
# Total GULP energy -156012.427003 kJ/mol
# GULP energy per Si atom -5571.872393 kJ/mol
# Density = 2.096857 g / cm^3
# Si number density = 21.016404 Si / 1000 Ang^3
#
#
#
# Elastic Constant Matrix: (Units=GPa)
#
#
# Indices 1 2 3 4 5 6 
#
# 1 86.3083 2.2149 83.1907 0.0000 -14.9934 0.0000
# 2 2.2149 63.3237 9.0353 0.0000 0.8250 0.0000
# 3 83.1907 9.0353 223.9615 0.0000 -8.9894 0.0000
# 4 0.0000 0.0000 0.0000 7640.2703 0.0000**********
# 5 -14.9934 0.8250 -8.9894 0.0000 35.7038 0.0000
# 6 0.0000 0.0000 0.0000********** 0.000014563.0644
#
#
#
# Elastic Compliance Matrix: (Units=1/GPa)
#
#
# Indices 1 2 3 4 5 6 
#
# 1 0.019397 0.000231 -0.006958 0.000000 0.006388 0.000000
# 2 0.000231 0.015896 -0.000746 0.000000 -0.000458 0.000000
# 3 -0.006958 -0.000746 0.007034 0.000000 -0.001134 0.000000
# 4 0.000000 0.000000 0.000000 0.082234 0.000000 0.059516
# 5 0.006388 -0.000458 -0.001134 0.000000 0.030416 0.000000
# 6 0.000000 0.000000 0.000000 0.059516 0.000000 0.043143
#
#
# Mechanical properties :
#
#
# Convention : Reuss Voigt Hill
#
# Bulk Modulus (GPa) = 36.51974 62.49725 49.50850
# Shear Modulus (GPa) = 22.50309 4466.41784 2244.46047
#
# Velocity S-wave (km/s) = 3.27577 46.14996 32.71506
# Velocity P-wave (km/s) = 5.63223 53.56828 38.08729
#
# Compressibility (1/GPa) = 0.02738245
#
# Stress axis : x y z
#
# Youngs Moduli (GPa) = 51.55508 62.90833 142.16407
#
# Poissons Ratio (x) = -0.01454 0.98916
# Poissons Ratio (y) = -0.01191 0.10599
# Poissons Ratio (z) = 0.35871 0.04690
#
# Static dielectric constant tensor:
#      x y z
#    x 1.720850 0.000000 0.013140 
#    y 0.000000 1.820010 0.000000 
#    z 0.013140 0.000000 1.774900 
# 
# From -- ./inp_files/38029.got.cif
#   From: 2010.05.17/outbox.cif.g08.bks.cpg/sg10_20_cif.got.tgz:38029.got - 2010.06.03 11:33:40.
