data_PCOD9151844
_publ_section_title
;
Structure prediction by ZEFSAII (Michael W. Deem and Ramdas Pophale) SiO2 
 PCOD9151844
Probable space group: P 2/M
;
_chemical_formula_sum "Si O2"
_cell_formula_units_Z 32
_cell_length_a 10.173586
_cell_length_b 7.408601
_cell_length_c 24.577170
_cell_angle_alpha 90.000000
_cell_angle_beta 126.858060
_cell_angle_gamma 90.000000
_cell_volume 1482.174743
_symmetry_space_group_name_H-M "P 2/M"
_symmetry_group_IT_number 10
_symmetry_cell_setting 'monoclinic'
loop_
_space_group_symop_operation_xyz
x,y,z
-x,y,-z
-x,-y,-z
x,-y,z
loop_
_atom_site_type_symbol
_atom_site_label
_atom_site_fract_x
_atom_site_fract_y
_atom_site_fract_z
Si Si1 0.414273 0.279185 0.034155
Si Si2 0.547198 0.713493 0.184252
Si Si3 0.041132 0.719633 0.949409
Si Si4 0.075244 0.217432 0.691754
Si Si5 0.555984 0.208206 0.451730
Si Si6 0.764045 0.788837 0.683606
Si Si7 0.926700 0.220682 0.539858
Si Si8 0.732272 0.718700 0.802323
O O1 0.419342 0.500000 0.036198
O O2 0.495154 0.217759 0.111309
O O3 0.500000 0.220383 0.000000
O O4 0.225149 0.223290 0.983014
O O5 0.514727 0.500000 0.173917
O O6 0.739406 0.735479 0.245126
O O7 0.426789 0.781723 0.202566
O O8 0.039981 0.500000 0.947906
O O9 0.896593 0.778747 0.874107
O O10 0.000000 0.775750 0.000000
O O11 0.932794 0.281451 0.698402
O O12 0.025188 0.278634 0.618376
O O13 0.071948 0.000000 0.690685
O O14 0.500000 0.204893 0.500000
O O15 0.404430 0.292334 0.381761
O O16 0.738419 0.284666 0.494799
O O17 0.573717 0.000000 0.436548
O O18 0.749869 0.776897 0.744612
O O19 0.761519 0.000000 0.666633
O O20 0.000000 0.274079 0.500000
O O21 0.927118 0.000000 0.542000
O O22 0.728395 0.500000 0.800751
#
# Coordination Sequence:
#
# PCOD9151844 Si02
#       8
#     4   4   4   4   4   4   4   4
#     4   9  17  29  49  77 102 129 172 219 259 302
#     4  10  21  36  53  78 111 141 172 214 262 314
#     4   9  15  29  51  73  99 130 170 222 264 293
#     4  10  21  36  53  78 111 141 172 214 262 314
#     4   9  15  29  51  73  99 130 170 222 264 293
#     4  10  21  35  54  80 108 139 175 216 262 312
#     4   9  17  29  49  77 102 129 172 219 259 302
#     4  10  21  35  54  80 108 139 175 216 262 312
#
# _framework density 21.589897000000001
#
# number of rings (size 3 to 8) (size 9 to 14) (size 15 to 20)
#    0.000    2.500    2.500    0.000    3.500    1.000 
#    0.000    0.000    0.000    3.000    0.000    0.000 
#    0.000    0.000    0.000    0.000    0.000    0.000 
#
# Total GULP energy -178601.814092 kJ/mol
# GULP energy per Si atom -5581.306690 kJ/mol
# Density = 2.154076 g / cm^3
# Si number density = 21.589897 Si / 1000 Ang^3
#
#
#
# Elastic Constant Matrix: (Units=GPa)
#
#
# Indices 1 2 3 4 5 6 
#
# 1 186.2901 -4.9133 89.1240 0.0000 13.0276 0.0000
# 2 -4.9133 68.3931 -9.9214 0.0000 0.2234 0.0000
# 3 89.1240 -9.9214 170.5051 0.0000 13.2158 0.0000
# 4 0.0000 0.0000 0.0000 13.8167 0.0000 5.3601
# 5 13.0276 0.2234 13.2158 0.0000 40.9677 0.0000
# 6 0.0000 0.0000 0.0000 5.3601 0.0000 -3.9255
#
#
#
# Elastic Compliance Matrix: (Units=1/GPa)
#
#
# Indices 1 2 3 4 5 6 
#
# 1 0.007206 -0.000013 -0.003682 0.000000 -0.001104 0.000000
# 2 -0.000013 0.014751 0.000893 0.000000 -0.000365 0.000000
# 3 -0.003682 0.000893 0.007950 0.000000 -0.001399 0.000000
# 4 0.000000 0.000000 0.000000 0.047313 0.000000 0.064605
# 5 -0.001104 -0.000365 -0.001399 0.000000 0.025214 0.000000
# 6 0.000000 0.000000 0.000000 0.064605 0.000000 -0.166531
#
#
# Mechanical properties :
#
#
# Convention : Reuss Voigt Hill
#
# Bulk Modulus (GPa) = 41.14473 63.75189 52.44831
# Shear Modulus (GPa) = -99.22150 33.56507 -32.82822
#
# Velocity S-wave (km/s) = -6.78654 3.94720 -3.90364
# Velocity P-wave (km/s) = 6.50467 7.09694 2.00696
#
# Compressibility (1/GPa) = 0.02430445
#
# Stress axis : x y z
#
# Youngs Moduli (GPa) = 138.76668 67.79100 125.78763
#
# Poissons Ratio (x) = 0.00087 0.46315
# Poissons Ratio (y) = 0.00178 -0.11237
# Poissons Ratio (z) = 0.51094 -0.06056
#
# Static dielectric constant tensor:
#      x y z
#    x 1.759070 0.000000 -0.006750 
#    y 0.000000 1.868020 0.000000 
#    z -0.006750 0.000000 1.741050 
# 
# From -- ./inp_files/82637.got.cif
#   From: 2010.05.17/outbox.cif.g08.bks.cpg/sg10_42_cif.got.tgz:82637.got - 2010.06.03 11:33:40.
