data_PCOD9151096
_publ_section_title
;
Structure prediction by ZEFSAII (Michael W. Deem and Ramdas Pophale) SiO2 
 PCOD9151096
Probable space group: P 2/M
;
_chemical_formula_sum "Si O2"
_cell_formula_units_Z 28
_cell_length_a 8.081799
_cell_length_b 9.197834
_cell_length_c 28.039359
_cell_angle_alpha 90.000000
_cell_angle_beta 43.783257
_cell_angle_gamma 90.000000
_cell_volume 1442.199214
_symmetry_space_group_name_H-M "P 2/M"
_symmetry_group_IT_number 10
_symmetry_cell_setting 'monoclinic'
loop_
_space_group_symop_operation_xyz
x,y,z
-x,y,-z
-x,-y,-z
x,-y,z
loop_
_atom_site_type_symbol
_atom_site_label
_atom_site_fract_x
_atom_site_fract_y
_atom_site_fract_z
Si Si1 0.972884 0.674533 0.150415
Si Si2 0.108999 0.332706 0.279937
Si Si3 0.691988 0.172836 0.848590
Si Si4 0.593853 0.672033 0.428182
Si Si5 0.254255 0.826555 0.425231
Si Si6 0.207306 0.329849 0.917565
Si Si7 0.456894 0.668997 0.293926
O O1 0.011759 0.500000 0.143664
O O2 0.902964 0.714261 0.110694
O O3 0.735093 0.707399 0.231041
O O4 0.196734 0.756272 0.126900
O O5 0.095826 0.500000 0.264834
O O6 0.136404 0.224820 0.230390
O O7 0.336994 0.319661 0.266955
O O8 0.875248 0.307562 0.360774
O O9 0.434415 0.238384 0.887827
O O10 0.682806 0.000000 0.854199
O O11 0.500000 0.712785 0.500000
O O12 0.543149 0.500000 0.432254
O O13 0.455681 0.763751 0.417864
O O14 0.310732 0.763749 0.361588
O O15 0.000000 0.779266 0.500000
O O16 0.259090 0.000000 0.422983
O O17 0.281455 0.500000 0.897503
O O18 0.000000 0.320832 0.000000
O O19 0.440487 0.500000 0.312137
#
# Coordination Sequence:
#
# PCOD9151096 Si02
#       7
#     4   4   4   4   4   4   4
#     4  10  21  40  66  94 124 161 209 260 308 364
#     4  10  20  38  62  88 118 154 205 259 308 364
#     4  12  25  39  61  94 133 171 205 251 312 379
#     4  10  21  37  59  84 110 147 199 259 311 361
#     4  11  24  38  52  77 116 157 196 244 305 375
#     4  10  22  44  72  97 124 163 213 265 312 365
#     4  10  20  37  63  88 113 152 201 259 308 353
#
# _framework density 19.414791999999998
#
# number of rings (size 3 to 8) (size 9 to 14) (size 15 to 20)
#    0.000    1.571    1.429    3.429    0.000    9.143 
#    0.000    2.857    0.000    0.000    0.000    0.000 
#    0.000    0.000    0.000    0.000    0.000    0.000 
#
# Total GULP energy -156476.884175 kJ/mol
# GULP energy per Si atom -5588.460149 kJ/mol
# Density = 1.937060 g / cm^3
# Si number density = 19.414792 Si / 1000 Ang^3
#
#
#
# Elastic Constant Matrix: (Units=GPa)
#
#
# Indices 1 2 3 4 5 6 
#
# 1 128.7162 65.7442 42.0495 0.0000 -2.0110 0.0000
# 2 65.7442 69.4575 39.9418 0.0000 -0.9090 0.0000
# 3 42.0495 39.9418 82.2479 0.0000 5.7543 0.0000
# 4 0.0000 0.0000 0.0000 -46.4237 0.0000 -90.7265
# 5 -2.0110 -0.9090 5.7543 0.0000 21.2260 0.0000
# 6 0.0000 0.0000 0.0000 -90.7265 0.0000 -101.7610
#
#
#
# Elastic Compliance Matrix: (Units=1/GPa)
#
#
# Indices 1 2 3 4 5 6 
#
# 1 0.015138 -0.013618 -0.001208 0.000000 0.001179 0.000000
# 2 -0.013618 0.032494 -0.008995 0.000000 0.002540 0.000000
# 3 -0.001208 -0.008995 0.017511 0.000000 -0.005247 0.000000
# 4 0.000000 0.000000 0.000000 0.029015 0.000000 -0.025869
# 5 0.001179 0.002540 -0.005247 0.000000 0.048755 0.000000
# 6 0.000000 0.000000 0.000000 -0.025869 0.000000 0.013237
#
#
# Mechanical properties :
#
#
# Convention : Reuss Voigt Hill
#
# Bulk Modulus (GPa) = 57.14451 63.98807 60.56629
# Shear Modulus (GPa) = 23.85196 -16.54598 3.65299
#
# Velocity S-wave (km/s) = 3.50886 -2.92248 1.37318
# Velocity P-wave (km/s) = 6.77595 4.65211 5.81187
#
# Compressibility (1/GPa) = 0.01749949
#
# Stress axis : x y z
#
# Youngs Moduli (GPa) = 66.05860 30.77537 57.10569
#
# Poissons Ratio (x) = 0.41911 0.06900
# Poissons Ratio (y) = 0.89962 0.51366
# Poissons Ratio (z) = 0.07982 0.27682
#
# Static dielectric constant tensor:
#      x y z
#    x 1.676100 0.000000 0.000550 
#    y 0.000000 1.645790 0.000000 
#    z 0.000550 0.000000 1.710730 
# 
# From -- ./inp_files/86458.got.cif
#   From: 2010.05.17/outbox.cif.g08.bks.cpg/sg10_44_cif.got.tgz:86458.got - 2010.06.03 11:33:40.
