data_PCOD9151388
_publ_section_title
;
Structure prediction by ZEFSAII (Michael W. Deem and Ramdas Pophale) SiO2 
 PCOD9151388
Probable space group: P 2/M
;
_chemical_formula_sum "Si O2"
_cell_formula_units_Z 28
_cell_length_a 11.556581
_cell_length_b 11.984771
_cell_length_c 18.203740
_cell_angle_alpha 90.000000
_cell_angle_beta 144.206351
_cell_angle_gamma 90.000000
_cell_volume 1474.610833
_symmetry_space_group_name_H-M "P 2/M"
_symmetry_group_IT_number 10
_symmetry_cell_setting 'monoclinic'
loop_
_space_group_symop_operation_xyz
x,y,z
-x,y,-z
-x,-y,-z
x,-y,z
loop_
_atom_site_type_symbol
_atom_site_label
_atom_site_fract_x
_atom_site_fract_y
_atom_site_fract_z
Si Si1 0.822055 0.292006 0.073403
Si Si2 0.425220 0.277144 0.672230
Si Si3 0.473239 0.500000 0.074321
Si Si4 0.097558 0.128074 0.471953
Si Si5 0.847536 0.368873 0.853723
Si Si6 0.764364 0.500000 0.359695
Si Si7 0.233910 0.126742 0.824140
Si Si8 0.561519 0.871632 0.873039
O O1 0.806334 0.230936 0.143535
O O2 0.031835 0.340508 0.157851
O O3 0.659467 0.389856 0.978008
O O4 0.765929 0.191745 0.989611
O O5 0.272290 0.212453 0.541684
O O6 0.644394 0.301772 0.756222
O O7 0.328688 0.390994 0.650727
O O8 0.444973 0.193889 0.751122
O O9 0.670955 0.500000 0.227556
O O10 0.500000 0.500000 0.000000
O O11 0.000000 0.160774 0.500000
O O12 0.929984 0.128998 0.324026
O O13 0.168256 0.000000 0.516450
O O14 0.799058 0.500000 0.831421
O O15 0.000000 0.348842 0.000000
O O16 0.000000 0.500000 0.500000
O O17 0.440813 0.137905 0.887352
O O18 0.226585 0.000000 0.853726
O O19 0.580606 0.000000 0.864221
#
# Coordination Sequence:
#
# PCOD9151388 Si02
#       8
#     4   4   2   4   4   2   4   4
#     4  12  23  39  63  90 126 166 212 251 315 381
#     4  12  22  39  63  92 123 161 212 259 315 370
#     4  12  24  39  61  95 129 164 206 264 330 382
#     4  10  20  38  65  93 126 166 206 255 317 381
#     4  11  22  42  63  84 120 170 213 258 313 369
#     4  12  26  39  61  95 131 164 206 267 330 378
#     4  10  22  40  63  94 132 168 200 254 324 382
#     4  11  21  36  61  93 127 158 200 256 316 375
#
# _framework density 18.988060999999998
#
# number of rings (size 3 to 8) (size 9 to 14) (size 15 to 20)
#    0.000    0.857    5.714    2.571    0.000    1.143 
#    0.000    4.286    0.000    2.571    0.000    0.000 
#    0.000    0.000    0.000    0.000    0.000    0.000 
#
# Total GULP energy -156330.366164 kJ/mol
# GULP energy per Si atom -5583.227363 kJ/mol
# Density = 1.894484 g / cm^3
# Si number density = 18.988061 Si / 1000 Ang^3
#
#
#
# Elastic Constant Matrix: (Units=GPa)
#
#
# Indices 1 2 3 4 5 6 
#
# 1 50.4525 32.8219 33.1763 0.0000 12.0041 0.0000
# 2 32.8219 118.6063 40.5008 0.0000 9.7610 0.0000
# 3 33.1763 40.5008 104.1099 0.0000 14.9090 0.0000
# 4 0.0000 0.0000 0.0000 39.2836 0.0000 1.2713
# 5 12.0041 9.7610 14.9090 0.0000 27.9134 0.0000
# 6 0.0000 0.0000 0.0000 1.2713 0.0000 19.5682
#
#
#
# Elastic Compliance Matrix: (Units=1/GPa)
#
#
# Indices 1 2 3 4 5 6 
#
# 1 0.029085 -0.005348 -0.006133 0.000000 -0.007362 0.000000
# 2 -0.005348 0.010764 -0.002462 0.000000 -0.000149 0.000000
# 3 -0.006133 -0.002462 0.013012 0.000000 -0.003451 0.000000
# 4 0.000000 0.000000 0.000000 0.025510 0.000000 -0.001657
# 5 -0.007362 -0.000149 -0.003451 0.000000 0.040887 0.000000
# 6 0.000000 0.000000 0.000000 -0.001657 0.000000 0.051211
#
#
# Mechanical properties :
#
#
# Convention : Reuss Voigt Hill
#
# Bulk Modulus (GPa) = 40.04261 54.01852 47.03056
# Shear Modulus (GPa) = 24.19205 28.46434 26.32820
#
# Velocity S-wave (km/s) = 3.57328 3.87598 3.72770
# Velocity P-wave (km/s) = 6.17726 6.96716 6.58407
#
# Compressibility (1/GPa) = 0.02497340
#
# Stress axis : x y z
#
# Youngs Moduli (GPa) = 34.38225 92.90041 76.85401
#
# Poissons Ratio (x) = 0.49686 0.47138
# Poissons Ratio (y) = 0.18389 0.18920
# Poissons Ratio (z) = 0.21088 0.22870
#
# Static dielectric constant tensor:
#      x y z
#    x 1.676340 0.000000 -0.031860 
#    y 0.000000 1.670810 0.000000 
#    z -0.031860 0.000000 1.709270 
# 
# From -- ./inp_files/55836.got.cif
#   From: 2010.05.17/outbox.cif.g08.bks.cpg/sg10_28_cif.got.tgz:55836.got - 2010.06.03 11:33:40.
