data_PCOD9151670
_publ_section_title
;
Structure prediction by ZEFSAII (Michael W. Deem and Ramdas Pophale) SiO2 
 PCOD9151670
Probable space group: P 2/M
;
_chemical_formula_sum "Si O2"
_cell_formula_units_Z 32
_cell_length_a 15.493798
_cell_length_b 8.740355
_cell_length_c 15.470889
_cell_angle_alpha 90.000000
_cell_angle_beta 78.943704
_cell_angle_gamma 90.000000
_cell_volume 2056.201378
_symmetry_space_group_name_H-M "P 2/M"
_symmetry_group_IT_number 10
_symmetry_cell_setting 'monoclinic'
loop_
_space_group_symop_operation_xyz
x,y,z
-x,y,-z
-x,-y,-z
x,-y,z
loop_
_atom_site_type_symbol
_atom_site_label
_atom_site_fract_x
_atom_site_fract_y
_atom_site_fract_z
Si Si1 0.750243 0.317286 0.252011
Si Si2 0.583151 0.184787 0.368773
Si Si3 0.933323 0.184424 0.888037
Si Si4 0.196570 0.183856 0.424697
Si Si5 0.119879 0.315199 0.616456
Si Si6 0.388857 0.185656 0.437002
Si Si7 0.079618 0.316983 0.295138
Si Si8 0.128665 0.184173 0.913772
O O1 0.749009 0.500000 0.251062
O O2 0.653697 0.254171 0.290569
O O3 0.814140 0.268204 0.319204
O O4 0.793470 0.256038 0.156106
O O5 0.481523 0.233748 0.377524
O O6 0.609487 0.229947 0.462043
O O7 0.586971 0.000000 0.363416
O O8 0.903598 0.258538 0.804804
O O9 0.034975 0.227330 0.888339
O O10 0.930409 0.000000 0.881465
O O11 0.878679 0.228490 0.984113
O O12 0.149581 0.242053 0.520875
O O13 0.298465 0.235887 0.410772
O O14 0.146308 0.247903 0.351608
O O15 0.194621 0.000000 0.423780
O O16 0.123425 0.500000 0.607982
O O17 0.020251 0.271767 0.659747
O O18 0.389532 0.000000 0.436305
O O19 0.084196 0.500000 0.296844
O O20 0.134533 0.000000 0.909075
#
# Coordination Sequence:
#
# PCOD9151670 Si02
#       8
#     4   4   4   4   4   4   4   4
#     4  11  20  30  46  73 102 130 160 193 235 288
#     4   9  16  31  51  69  92 124 159 198 242 289
#     4   9  18  33  51  72  94 121 162 206 238 276
#     4  11  21  33  50  71  92 125 170 209 238 276
#     4  10  21  34  44  63  99 136 166 195 231 279
#     4   8  16  30  49  70  92 120 159 203 245 283
#     4  11  22  35  48  66  97 136 166 196 239 284
#     4   9  18  32  51  72  96 124 157 200 245 281
#
# _framework density 15.562678999999999
#
# number of rings (size 3 to 8) (size 9 to 14) (size 15 to 20)
#    0.000    2.250    2.500    3.000    0.000    3.500 
#    0.000    3.750    0.000    0.000    0.000    0.875 
#    0.000    7.000    0.000    0.000    0.000    0.000 
#
# Total GULP energy -178493.221529 kJ/mol
# GULP energy per Si atom -5577.913173 kJ/mol
# Density = 1.552726 g / cm^3
# Si number density = 15.562679 Si / 1000 Ang^3
#
#
#
# Elastic Constant Matrix: (Units=GPa)
#
#
# Indices 1 2 3 4 5 6 
#
# 1 102.9188 27.4879 76.3378 0.0000 -12.2196 0.0000
# 2 27.4879 21.4338 34.4407 0.0000 -4.2897 0.0000
# 3 76.3378 34.4407 131.9236 0.0000 -14.5840 0.0000
# 4 0.0000 0.0000 0.0000 53.1894 0.0000 -18.0191
# 5 -12.2196 -4.2897 -14.5840 0.0000 26.6750 0.0000
# 6 0.0000 0.0000 0.0000 -18.0191 0.0000 28.8684
#
#
#
# Elastic Compliance Matrix: (Units=1/GPa)
#
#
# Indices 1 2 3 4 5 6 
#
# 1 0.018633 -0.011219 -0.007566 0.000000 0.002595 0.000000
# 2 -0.011219 0.087185 -0.016271 0.000000 -0.000015 0.000000
# 3 -0.007566 -0.016271 0.016533 0.000000 0.002956 0.000000
# 4 0.000000 0.000000 0.000000 0.023842 0.000000 0.014882
# 5 0.002595 -0.000015 0.002956 0.000000 0.040291 0.000000
# 6 0.000000 0.000000 0.000000 0.014882 0.000000 0.043929
#
#
# Mechanical properties :
#
#
# Convention : Reuss Voigt Hill
#
# Bulk Modulus (GPa) = 19.14285 59.20099 39.17192
# Shear Modulus (GPa) = 15.72637 29.61389 22.67013
#
# Velocity S-wave (km/s) = 3.18231 4.36693 3.82081
# Velocity P-wave (km/s) = 5.08232 7.97181 6.68505
#
# Compressibility (1/GPa) = 0.05223883
#
# Stress axis : x y z
#
# Youngs Moduli (GPa) = 53.66835 11.46991 60.48525
#
# Poissons Ratio (x) = 0.12868 0.45765
# Poissons Ratio (y) = 0.60210 0.98414
# Poissons Ratio (z) = 0.40607 0.18662
#
# Static dielectric constant tensor:
#      x y z
#    x 1.518190 0.000000 -0.007160 
#    y 0.000000 1.522730 0.000000 
#    z -0.007160 0.000000 1.497290 
# 
# From -- ./inp_files/66047.got.cif
#   From: 2010.05.17/outbox.cif.g08.bks.cpg/sg10_34_cif.got.tgz:66047.got - 2010.06.03 11:33:40.
