data_PCOD9151905
_publ_section_title
;
Structure prediction by ZEFSAII (Michael W. Deem and Ramdas Pophale) SiO2 
 PCOD9151905
Probable space group: P 2/M
;
_chemical_formula_sum "Si O2"
_cell_formula_units_Z 28
_cell_length_a 9.019265
_cell_length_b 11.788500
_cell_length_c 13.770056
_cell_angle_alpha 90.000000
_cell_angle_beta 110.872207
_cell_angle_gamma 90.000000
_cell_volume 1368.005149
_symmetry_space_group_name_H-M "P 2/M"
_symmetry_group_IT_number 10
_symmetry_cell_setting 'monoclinic'
loop_
_space_group_symop_operation_xyz
x,y,z
-x,y,-z
-x,-y,-z
x,-y,z
loop_
_atom_site_type_symbol
_atom_site_label
_atom_site_fract_x
_atom_site_fract_y
_atom_site_fract_z
Si Si1 0.619593 0.266578 0.453772
Si Si2 0.159071 0.742284 0.761108
Si Si3 0.227378 0.500000 0.469672
Si Si4 0.483079 0.864407 0.883111
Si Si5 0.877141 0.500000 0.331975
Si Si6 0.144535 0.134837 0.385804
Si Si7 0.966161 0.630778 0.879016
Si Si8 0.338770 0.243269 0.249724
O O1 0.500000 0.206352 0.500000
O O2 0.672869 0.385277 0.514866
O O3 0.773935 0.188527 0.498619
O O4 0.509135 0.281540 0.334462
O O5 0.316469 0.814242 0.808236
O O6 0.188147 0.617184 0.724732
O O7 0.025828 0.807104 0.668241
O O8 0.077780 0.715262 0.845367
O O9 0.166092 0.500000 0.565392
O O10 0.069558 0.500000 0.367918
O O11 0.617521 0.822242 0.839206
O O12 0.480160 0.000000 0.879751
O O13 0.500000 0.828572 0.000000
O O14 0.246193 0.171915 0.312448
O O15 0.136464 0.000000 0.389366
O O16 0.004106 0.500000 0.864216
O O17 0.784970 0.658200 0.807127
O O18 0.000000 0.646661 0.000000
#
# Coordination Sequence:
#
# PCOD9151905 Si02
#       8
#     4   4   2   4   2   4   4   4
#     4  10  21  35  58  87 117 152 190 240 293 350
#     4  11  21  40  62  87 118 158 198 242 294 353
#     4  11  21  36  54  82 120 153 192 232 284 356
#     4  11  24  42  62  86 120 159 202 250 296 347
#     4  11  22  36  60  80 118 158 190 236 290 350
#     4  10  21  38  61  88 117 154 199 241 292 353
#     4  10  21  38  61  88 119 154 196 248 298 350
#     4  10  22  38  60  89 120 156 195 247 299 349
#
# _framework density 20.467759000000001
#
# number of rings (size 3 to 8) (size 9 to 14) (size 15 to 20)
#    0.000    1.571    2.143    2.786    1.000    3.143 
#    1.286    0.357    0.000    9.429    0.000    0.000 
#    0.000    0.000    0.000    0.000    0.000    0.000 
#
# Total GULP energy -156241.908206 kJ/mol
# GULP energy per Si atom -5580.068150 kJ/mol
# Density = 2.042117 g / cm^3
# Si number density = 20.467759 Si / 1000 Ang^3
#
#
#
# Elastic Constant Matrix: (Units=GPa)
#
#
# Indices 1 2 3 4 5 6 
#
# 1 71.0622 -4.5528 9.2562 0.0000 -0.5075 0.0000
# 2 -4.5528 64.2852 -12.4251 0.0000 8.7010 0.0000
# 3 9.2562 -12.4251 63.4832 0.0000 0.5430 0.0000
# 4 0.0000 0.0000 0.0000 -13.8983 0.0000 31.1319
# 5 -0.5075 8.7010 0.5430 0.0000 30.7568 0.0000
# 6 0.0000 0.0000 0.0000 31.1319 0.0000 21.0769
#
#
#
# Elastic Compliance Matrix: (Units=1/GPa)
#
#
# Indices 1 2 3 4 5 6 
#
# 1 0.014370 0.000623 -0.001974 0.000000 0.000096 0.000000
# 2 0.000623 0.016882 0.003255 0.000000 -0.004823 0.000000
# 3 -0.001974 0.003255 0.016688 0.000000 -0.001248 0.000000
# 4 0.000000 0.000000 0.000000 -0.016700 0.000000 0.024666
# 5 0.000096 -0.004823 -0.001248 0.000000 0.033901 0.000000
# 6 0.000000 0.000000 0.000000 0.024666 0.000000 0.011012
#
#
# Mechanical properties :
#
#
# Convention : Reuss Voigt Hill
#
# Bulk Modulus (GPa) = 19.32496 20.37636 19.85066
# Shear Modulus (GPa) = 55.80715 21.35722 38.58219
#
# Velocity S-wave (km/s) = 5.22734 3.23376 4.34639
# Velocity P-wave (km/s) = 6.77463 4.89080 5.90828
#
# Compressibility (1/GPa) = 0.05174655
#
# Stress axis : x y z
#
# Youngs Moduli (GPa) = 69.58978 59.23593 59.92442
#
# Poissons Ratio (x) = -0.03692 0.11829
# Poissons Ratio (y) = -0.04337 -0.19502
# Poissons Ratio (z) = 0.13737 -0.19278
#
# Static dielectric constant tensor:
#      x y z
#    x 1.782510 0.000000 -0.036470 
#    y 0.000000 1.693730 0.000000 
#    z -0.036470 0.000000 1.769260 
# 
# From -- ./inp_files/61289.got.cif
#   From: 2010.05.17/outbox.cif.g08.bks.cpg/sg10_31_cif.got.tgz:61289.got - 2010.06.03 11:33:40.
