data_PCOD9151587
_publ_section_title
;
Structure prediction by ZEFSAII (Michael W. Deem and Ramdas Pophale) SiO2 
 PCOD9151587
Probable space group: P 2/M
;
_chemical_formula_sum "Si O2"
_cell_formula_units_Z 16
_cell_length_a 5.088417
_cell_length_b 11.652768
_cell_length_c 12.781775
_cell_angle_alpha 90.000000
_cell_angle_beta 102.440368
_cell_angle_gamma 90.000000
_cell_volume 740.089830
_symmetry_space_group_name_H-M "P 2/M"
_symmetry_group_IT_number 10
_symmetry_cell_setting 'monoclinic'
loop_
_space_group_symop_operation_xyz
x,y,z
-x,y,-z
-x,-y,-z
x,-y,z
loop_
_atom_site_type_symbol
_atom_site_label
_atom_site_fract_x
_atom_site_fract_y
_atom_site_fract_z
Si Si1 0.791889 0.500000 0.577258
Si Si2 0.208483 0.752310 0.422801
Si Si3 0.986026 0.867135 0.208473
Si Si4 0.435830 0.749625 0.118476
Si Si5 0.294248 0.500000 0.077833
O O1 0.500000 0.500000 0.500000
O O2 0.823183 0.624597 0.631582
O O3 0.000000 0.500000 0.500000
O O4 0.500000 0.761699 0.500000
O O5 0.000000 0.762203 0.500000
O O6 0.150972 0.844100 0.328723
O O7 0.711452 0.794181 0.192919
O O8 0.181783 0.824900 0.132333
O O9 0.917211 0.000000 0.189145
O O10 0.356784 0.618948 0.140623
O O11 0.500000 0.755540 0.000000
O O12 0.500000 0.500000 0.000000
O O13 0.000000 0.500000 0.000000
#
# Coordination Sequence:
#
# PCOD9151587 Si02
#       5
#     2   4   4   4   2
#     4   8  16  32  56  84 113 148 195 247 310 373
#     4  10  21  39  61  87 122 161 204 263 317 363
#     4  12  26  41  62  94 127 171 223 251 300 386
#     4  11  24  43  66  93 127 164 205 266 322 368
#     4  10  20  40  68  96 124 158 206 259 322 385
#
# _framework density 21.618995000000002
#
# number of rings (size 3 to 8) (size 9 to 14) (size 15 to 20)
#    0.000    1.500    0.000    6.000    0.000    6.000 
#    0.000    2.500    0.000    0.000    0.000    0.000 
#    0.000    0.000    0.000    0.000    0.000    0.000 
#
# Total GULP energy -89396.104322 kJ/mol
# GULP energy per Si atom -5587.256520 kJ/mol
# Density = 2.156979 g / cm^3
# Si number density = 21.618995 Si / 1000 Ang^3
#
#
#
# Elastic Constant Matrix: (Units=GPa)
#
#
# Indices 1 2 3 4 5 6 
#
# 1 179.3983 53.4921 28.3270 0.0000 7.5544 0.0000
# 2 53.4921 140.9531 32.2065 0.0000 14.0023 0.0000
# 3 28.3270 32.2065 67.3801 0.0000 -7.7489 0.0000
# 4 0.0000 0.0000 0.0000 31.3875 0.0000 2.7811
# 5 7.5544 14.0023 -7.7489 0.0000 33.8016 0.0000
# 6 0.0000 0.0000 0.0000 2.7811 0.0000 46.7750
#
#
#
# Elastic Compliance Matrix: (Units=1/GPa)
#
#
# Indices 1 2 3 4 5 6 
#
# 1 0.006498 -0.001912 -0.001945 0.000000 -0.001106 0.000000
# 2 -0.001912 0.009181 -0.004080 0.000000 -0.004311 0.000000
# 3 -0.001945 -0.004080 0.018337 0.000000 0.006329 0.000000
# 4 0.000000 0.000000 0.000000 0.032029 0.000000 -0.001904
# 5 -0.001106 -0.004311 0.006329 0.000000 0.033068 0.000000
# 6 0.000000 0.000000 0.000000 -0.001904 0.000000 0.021492
#
#
# Mechanical properties :
#
#
# Convention : Reuss Voigt Hill
#
# Bulk Modulus (GPa) = 55.12301 68.42030 61.77165
# Shear Modulus (GPa) = 35.08124 40.63987 37.86056
#
# Velocity S-wave (km/s) = 4.03265 4.34040 4.18935
# Velocity P-wave (km/s) = 6.87284 7.53894 7.21358
#
# Compressibility (1/GPa) = 0.01814124
#
# Stress axis : x y z
#
# Youngs Moduli (GPa) = 153.89531 108.92520 54.53420
#
# Poissons Ratio (x) = 0.20822 0.10608
# Poissons Ratio (y) = 0.29419 0.22252
# Poissons Ratio (z) = 0.29937 0.44445
#
# Static dielectric constant tensor:
#      x y z
#    x 1.729560 0.000000 0.008420 
#    y 0.000000 1.849350 0.000000 
#    z 0.008420 0.000000 1.783360 
# 
# From -- ./inp_files/38788.got.cif
#   From: 2010.05.17/outbox.cif.g08.bks.cpg/sg10_20_cif.got.tgz:38788.got - 2010.06.03 11:33:40.
