data_PCOD9151493
_publ_section_title
;
Structure prediction by ZEFSAII (Michael W. Deem and Ramdas Pophale) SiO2 
 PCOD9151493
Probable space group: P 2/M
;
_chemical_formula_sum "Si O2"
_cell_formula_units_Z 32
_cell_length_a 26.387395
_cell_length_b 14.028620
_cell_length_c 9.431735
_cell_angle_alpha 90.000000
_cell_angle_beta 31.022453
_cell_angle_gamma 90.000000
_cell_volume 1799.390881
_symmetry_space_group_name_H-M "P 2/M"
_symmetry_group_IT_number 10
_symmetry_cell_setting 'monoclinic'
loop_
_space_group_symop_operation_xyz
x,y,z
-x,y,-z
-x,-y,-z
x,-y,z
loop_
_atom_site_type_symbol
_atom_site_label
_atom_site_fract_x
_atom_site_fract_y
_atom_site_fract_z
Si Si1 0.696910 0.745736 0.305689
Si Si2 0.517667 0.224532 0.304954
Si Si3 0.197999 0.112250 0.739668
Si Si4 0.306298 0.112947 0.194179
Si Si5 0.018866 0.110949 0.624474
Si Si6 0.798534 0.756372 0.766940
Si Si7 0.613198 0.389627 0.728677
Si Si8 0.670254 0.388431 0.918424
O O1 0.587335 0.760968 0.511410
O O2 0.739334 0.832933 0.293700
O O3 0.683763 0.660625 0.448029
O O4 0.765626 0.731191 0.004869
O O5 0.500000 0.177294 0.500000
O O6 0.577786 0.323119 0.189517
O O7 0.587767 0.160818 0.038626
O O8 0.233553 0.140452 0.497131
O O9 0.216604 0.000000 0.708184
O O10 0.083183 0.126762 0.048085
O O11 0.268282 0.159706 0.140280
O O12 0.311634 0.000000 0.172546
O O13 0.000000 0.115996 0.500000
O O14 0.095362 0.193390 0.483842
O O15 0.051739 0.000000 0.574676
O O16 0.767054 0.665286 0.746474
O O17 0.604102 0.500000 0.710518
O O18 0.500000 0.351020 0.000000
O O19 0.659092 0.382995 0.775199
O O20 0.665108 0.500000 0.971872
#
# Coordination Sequence:
#
# PCOD9151493 Si02
#       8
#     4   4   4   4   4   4   4   4
#     4  12  21  34  56  84 119 149 194 238 288 346
#     4  11  21  36  51  85 119 159 195 231 287 344
#     4  10  23  39  59  85 115 154 196 244 295 342
#     4  10  22  38  53  80 119 155 195 236 282 348
#     4  10  20  39  64  89 116 148 195 250 299 348
#     4  11  22  37  59  87 116 150 193 246 299 345
#     4  10  21  36  58  84 114 156 197 238 285 338
#     4  10  21  38  58  85 121 155 194 241 290 347
#
# _framework density 17.783795999999999
#
# number of rings (size 3 to 8) (size 9 to 14) (size 15 to 20)
#    0.000    1.500    5.000    1.875    0.000    2.500 
#    0.000    3.125    0.000    1.125    0.000    7.000 
#    0.000    0.000    0.000    0.000    0.000    0.000 
#
# Total GULP energy -178375.191735 kJ/mol
# GULP energy per Si atom -5574.224742 kJ/mol
# Density = 1.774332 g / cm^3
# Si number density = 17.783796 Si / 1000 Ang^3
#
#
#
# Elastic Constant Matrix: (Units=GPa)
#
#
# Indices 1 2 3 4 5 6 
#
# 1 55.5555 35.1895 26.4389 0.0000 -2.9670 0.0000
# 2 35.1895 85.9786 48.4901 0.0000 -7.2327 0.0000
# 3 26.4389 48.4901 104.7336 0.0000 8.1244 0.0000
# 4 0.0000 0.0000 0.0000 22.8749 0.0000 -6.0125
# 5 -2.9670 -7.2327 8.1244 0.0000 27.1283 0.0000
# 6 0.0000 0.0000 0.0000 -6.0125 0.0000 27.0841
#
#
#
# Elastic Compliance Matrix: (Units=1/GPa)
#
#
# Indices 1 2 3 4 5 6 
#
# 1 0.024663 -0.008727 -0.002267 0.000000 0.001049 0.000000
# 2 -0.008727 0.020047 -0.007595 0.000000 0.006665 0.000000
# 3 -0.002267 -0.007595 0.014142 0.000000 -0.006508 0.000000
# 4 0.000000 0.000000 0.000000 0.046425 0.000000 0.010306
# 5 0.001049 0.006665 -0.006508 0.000000 0.040703 0.000000
# 6 0.000000 0.000000 0.000000 0.010306 0.000000 0.039210
#
#
# Mechanical properties :
#
#
# Convention : Reuss Voigt Hill
#
# Bulk Modulus (GPa) = 46.14109 51.83387 48.98748
# Shear Modulus (GPa) = 21.77776 24.49406 23.13591
#
# Velocity S-wave (km/s) = 3.50320 3.71526 3.61079
# Velocity P-wave (km/s) = 6.50885 6.90030 6.70743
#
# Compressibility (1/GPa) = 0.02167266
#
# Stress axis : x y z
#
# Youngs Moduli (GPa) = 40.54692 49.88261 70.71344
#
# Poissons Ratio (x) = 0.43535 0.16028
# Poissons Ratio (y) = 0.35387 0.53709
# Poissons Ratio (z) = 0.09190 0.37888
#
# Static dielectric constant tensor:
#      x y z
#    x 1.626030 0.000000 0.006130 
#    y 0.000000 1.620220 0.000000 
#    z 0.006130 0.000000 1.627510 
# 
# From -- ./inp_files/37700.got.cif
#   From: 2010.05.17/outbox.cif.g08.bks.cpg/sg10_19_cif.got.tgz:37700.got - 2010.06.03 11:33:40.
