data_PCOD9151801
_publ_section_title
;
Structure prediction by ZEFSAII (Michael W. Deem and Ramdas Pophale) SiO2 
 PCOD9151801
Probable space group: P 2/M
;
_chemical_formula_sum "Si O2"
_cell_formula_units_Z 32
_cell_length_a 14.610569
_cell_length_b 8.621936
_cell_length_c 16.298855
_cell_angle_alpha 90.000000
_cell_angle_beta 63.371190
_cell_angle_gamma 90.000000
_cell_volume 1835.405531
_symmetry_space_group_name_H-M "P 2/M"
_symmetry_group_IT_number 10
_symmetry_cell_setting 'monoclinic'
loop_
_space_group_symop_operation_xyz
x,y,z
-x,y,-z
-x,-y,-z
x,-y,z
loop_
_atom_site_type_symbol
_atom_site_label
_atom_site_fract_x
_atom_site_fract_y
_atom_site_fract_z
Si Si1 0.799483 0.186604 0.901034
Si Si2 0.731989 0.812644 0.747170
Si Si3 0.947140 0.685846 0.605721
Si Si4 0.302510 0.684063 0.894980
Si Si5 0.020841 0.187356 0.747171
Si Si6 0.482082 0.812329 0.245217
Si Si7 0.552087 0.188673 0.395826
Si Si8 0.772702 0.187671 0.245216
O O1 0.742771 0.229500 0.838829
O O2 0.918400 0.229501 0.838829
O O3 0.793986 0.000000 0.912028
O O4 0.749972 0.262623 0.000055
O O5 0.831190 0.746492 0.661419
O O6 0.624730 0.761834 0.751453
O O7 0.737452 0.000000 0.740480
O O8 0.946180 0.500000 0.607642
O O9 0.000000 0.737991 0.500000
O O10 0.007392 0.746493 0.661419
O O11 0.305568 0.500000 0.888864
O O12 0.417817 0.749530 0.840914
O O13 0.241270 0.749530 0.840914
O O14 0.123817 0.238166 0.751453
O O15 0.022068 0.000000 0.740481
O O16 0.493486 0.765433 0.336069
O O17 0.486095 0.000000 0.240520
O O18 0.500000 0.245777 0.500000
O O19 0.670445 0.234568 0.336069
O O20 0.550525 0.000000 0.398951
O O21 0.773386 0.000000 0.240520
#
# Coordination Sequence:
#
# PCOD9151801 Si02
#       8
#     4   4   4   4   4   4   4   4
#     4   9  18  34  52  72  99 128 166 216 265 306
#     4   9  19  35  56  78  98 130 176 220 258 297
#     4  10  21  35  51  75 110 146 172 202 252 307
#     4  11  22  34  50  74 103 136 170 202 249 314
#     4   9  19  35  56  78  98 130 176 220 258 297
#     4   9  18  34  54  75 101 132 168 213 258 297
#     4   8  14  26  47  75 102 126 156 198 248 297
#     4   9  18  34  54  75 101 132 168 213 258 297
#
# _framework density 17.434839
#
# number of rings (size 3 to 8) (size 9 to 14) (size 15 to 20)
#    0.000    2.750    0.000    3.000    0.000    6.000 
#    0.000    7.500    0.000    6.000    0.000    0.000 
#    0.000    0.000    0.000    0.000    0.000    0.000 
#
# Total GULP energy -178449.767104 kJ/mol
# GULP energy per Si atom -5576.555222 kJ/mol
# Density = 1.739516 g / cm^3
# Si number density = 17.434839 Si / 1000 Ang^3
#
#
#
# Elastic Constant Matrix: (Units=GPa)
#
#
# Indices 1 2 3 4 5 6 
#
# 1 201.7175 35.4884 105.8138 0.0000 0.0001 0.0000
# 2 35.4884 17.8878 35.3050 0.0000 0.0000 0.0000
# 3 105.8138 35.3050 186.5547 0.0000 0.0001 0.0000
# 4 0.0000 0.0000 0.0000 12.0452 0.0000 0.0000
# 5 0.0001 0.0000 0.0001 0.0000 5.2798 0.0000
# 6 0.0000 0.0000 0.0000 0.0000 0.0000 8.4367
#
#
#
# Elastic Compliance Matrix: (Units=1/GPa)
#
#
# Indices 1 2 3 4 5 6 
#
# 1 0.008308 -0.011464 -0.002543 0.000000 0.000000 0.000000
# 2 -0.011464 0.105054 -0.013379 0.000000 0.000000 0.000000
# 3 -0.002543 -0.013379 0.009335 0.000000 0.000000 0.000000
# 4 0.000000 0.000000 0.000000 0.083020 0.000000 0.000000
# 5 0.000000 0.000000 0.000000 0.000000 0.189403 0.000000
# 6 0.000000 0.000000 0.000000 0.000000 0.000000 0.118530
#
#
# Mechanical properties :
#
#
# Convention : Reuss Voigt Hill
#
# Bulk Modulus (GPa) = 14.72206 84.37495 49.54850
# Shear Modulus (GPa) = 8.45932 20.45584 14.45758
#
# Velocity S-wave (km/s) = 2.20511 3.42902 2.88277
# Velocity P-wave (km/s) = 3.86597 8.01106 6.28979
#
# Compressibility (1/GPa) = 0.06792528
#
# Stress axis : x y z
#
# Youngs Moduli (GPa) = 120.36225 9.51889 107.12909
#
# Poissons Ratio (x) = 0.10913 0.27241
# Poissons Ratio (y) = 1.37988 1.43324
# Poissons Ratio (z) = 0.30606 0.12735
#
# Static dielectric constant tensor:
#      x y z
#    x 1.585160 0.000000 0.000000 
#    y 0.000000 1.580260 0.000000 
#    z 0.000000 0.000000 1.568510 
# 
# From -- ./inp_files/66558.got.cif
#   From: 2010.05.17/outbox.cif.g08.bks.cpg/sg10_34_cif.got.tgz:66558.got - 2010.06.03 11:33:40.
