data_PCOD9151660
_publ_section_title
;
Structure prediction by ZEFSAII (Michael W. Deem and Ramdas Pophale) SiO2 
 PCOD9151660
Probable space group: P 2/M
;
_chemical_formula_sum "Si O2"
_cell_formula_units_Z 28
_cell_length_a 16.182719
_cell_length_b 7.781577
_cell_length_c 12.425025
_cell_angle_alpha 90.000000
_cell_angle_beta 52.359241
_cell_angle_gamma 90.000000
_cell_volume 1238.974207
_symmetry_space_group_name_H-M "P 2/M"
_symmetry_group_IT_number 10
_symmetry_cell_setting 'monoclinic'
loop_
_space_group_symop_operation_xyz
x,y,z
-x,y,-z
-x,-y,-z
x,-y,z
loop_
_atom_site_type_symbol
_atom_site_label
_atom_site_fract_x
_atom_site_fract_y
_atom_site_fract_z
Si Si1 0.566337 0.193285 0.558319
Si Si2 0.370671 0.702603 0.843919
Si Si3 0.250379 0.301956 0.724112
Si Si4 0.821602 0.209280 0.642075
Si Si5 0.383011 0.797242 0.077769
Si Si6 0.009975 0.789622 0.651861
Si Si7 0.027964 0.805161 0.866783
O O1 0.500000 0.187016 0.500000
O O2 0.489663 0.264555 0.710105
O O3 0.666289 0.294836 0.438768
O O4 0.596804 0.000000 0.564503
O O5 0.354571 0.500000 0.865865
O O6 0.300462 0.762550 0.797702
O O7 0.352315 0.780348 0.976122
O O8 0.220089 0.500000 0.764139
O O9 0.152343 0.191765 0.767823
O O10 0.709125 0.272949 0.771887
O O11 0.878745 0.265384 0.486665
O O12 0.911376 0.254740 0.657180
O O13 0.815775 0.000000 0.643857
O O14 0.390022 0.000000 0.097160
O O15 0.500000 0.723678 0.000000
O O16 0.992361 0.722581 0.785078
O O17 0.013563 0.000000 0.652355
O O18 0.984387 0.000000 0.904220
O O19 0.000000 0.716595 0.000000
#
# Coordination Sequence:
#
# PCOD9151660 Si02
#       7
#     4   4   4   4   4   4   4
#     4   9  17  32  55  80 104 135 180 228 268 314
#     4  10  21  36  54  77 109 150 185 219 272 342
#     4  10  21  36  53  76 109 150 188 221 274 344
#     4   8  15  30  53  75 103 141 182 227 275 329
#     4  10  21  34  52  82 110 136 179 235 290 337
#     4   8  15  30  51  77 104 140 184 227 277 324
#     4  10  21  33  51  83 115 141 181 234 283 331
#
# _framework density 22.599340999999999
#
# number of rings (size 3 to 8) (size 9 to 14) (size 15 to 20)
#    0.000    2.714    0.000    2.143    2.000    5.143 
#    0.000    2.857    0.000    0.857    0.000    2.000 
#    0.000    0.000    0.000    0.000    0.000    0.000 
#
# Total GULP energy -156148.077215 kJ/mol
# GULP energy per Si atom -5576.717043 kJ/mol
# Density = 2.254790 g / cm^3
# Si number density = 22.599341 Si / 1000 Ang^3
#
#
#
# Elastic Constant Matrix: (Units=GPa)
#
#
# Indices 1 2 3 4 5 6 
#
# 1 20.7601 0.9531 -0.0163 0.0000 2.0991 0.0000
# 2 0.9531 32.9242 -6.5985 0.0000 -5.6972 0.0000
# 3 -0.0163 -6.5985 86.9999 0.0000 2.4299 0.0000
# 4 0.0000 0.0000 0.0000 10.5110 0.0000 -2.4654
# 5 2.0991 -5.6972 2.4299 0.0000 34.0116 0.0000
# 6 0.0000 0.0000 0.0000 -2.4654 0.0000 20.3220
#
#
#
# Elastic Compliance Matrix: (Units=1/GPa)
#
#
# Indices 1 2 3 4 5 6 
#
# 1 0.048597 -0.001993 -0.000049 0.000000 -0.003330 0.000000
# 2 -0.001993 0.031799 0.002264 0.000000 0.005288 0.000000
# 3 -0.000049 0.002264 0.011679 0.000000 -0.000452 0.000000
# 4 0.000000 0.000000 0.000000 0.097925 0.000000 0.011880
# 5 -0.003330 0.005288 -0.000452 0.000000 0.030525 0.000000
# 6 0.000000 0.000000 0.000000 0.011880 0.000000 0.050649
#
#
# Mechanical properties :
#
#
# Convention : Reuss Voigt Hill
#
# Bulk Modulus (GPa) = 10.80858 14.37341 12.59100
# Shear Modulus (GPa) = 16.57990 22.72533 19.65261
#
# Velocity S-wave (km/s) = 2.71153 3.17452 2.95211
# Velocity P-wave (km/s) = 3.82050 4.45092 4.14771
#
# Compressibility (1/GPa) = 0.09251907
#
# Stress axis : x y z
#
# Youngs Moduli (GPa) = 20.57724 31.44734 85.62686
#
# Poissons Ratio (x) = 0.06267 0.00420
# Poissons Ratio (y) = 0.04101 -0.19384
# Poissons Ratio (z) = 0.00101 -0.07119
#
# Static dielectric constant tensor:
#      x y z
#    x 1.848430 0.000000 0.010310 
#    y 0.000000 1.822380 0.000000 
#    z 0.010310 0.000000 1.883320 
# 
# From -- ./inp_files/49594.got.cif
#   From: 2010.05.17/outbox.cif.g08.bks.cpg/sg10_25_cif.got.tgz:49594.got - 2010.06.03 11:33:40.
