data_PCOD9151966
_publ_section_title
;
Structure prediction by ZEFSAII (Michael W. Deem and Ramdas Pophale) SiO2 
 PCOD9151966
Probable space group: P 2/M
;
_chemical_formula_sum "Si O2"
_cell_formula_units_Z 32
_cell_length_a 29.543072
_cell_length_b 13.326133
_cell_length_c 9.388652
_cell_angle_alpha 90.000000
_cell_angle_beta 27.029317
_cell_angle_gamma 90.000000
_cell_volume 1679.753894
_symmetry_space_group_name_H-M "P 2/M"
_symmetry_group_IT_number 10
_symmetry_cell_setting 'monoclinic'
loop_
_space_group_symop_operation_xyz
x,y,z
-x,y,-z
-x,-y,-z
x,-y,z
loop_
_atom_site_type_symbol
_atom_site_label
_atom_site_fract_x
_atom_site_fract_y
_atom_site_fract_z
Si Si1 0.072923 0.382325 0.160237
Si Si2 0.724186 0.118382 0.592756
Si Si3 0.230917 0.386098 0.925226
Si Si4 0.585963 0.270051 0.152632
Si Si5 0.553558 0.681289 0.697537
Si Si6 0.223965 0.620998 0.260434
Si Si7 0.609573 0.109366 0.621841
Si Si8 0.911230 0.750063 0.150958
O O1 0.075504 0.500000 0.108286
O O2 0.000000 0.373531 0.500000
O O3 0.179017 0.345965 0.928584
O O4 0.047851 0.311957 0.098589
O O5 0.686675 0.128287 0.534338
O O6 0.831290 0.167918 0.322383
O O7 0.723204 0.000000 0.628275
O O8 0.644980 0.180178 0.910011
O O9 0.192891 0.500000 0.036295
O O10 0.349420 0.386208 0.581706
O O11 0.202614 0.343109 0.158472
O O12 0.500000 0.234136 0.500000
O O13 0.528604 0.333020 0.192121
O O14 0.666448 0.338857 0.006508
O O15 0.600064 0.793786 0.550093
O O16 0.500000 0.674528 0.000000
O O17 0.220389 0.500000 0.275279
O O18 0.149263 0.670561 0.581819
O O19 0.630493 0.000000 0.497664
O O20 0.500000 0.103187 0.000000
O O21 0.000000 0.791437 0.000000
#
# Coordination Sequence:
#
# PCOD9151966 Si02
#       8
#     4   4   4   4   4   4   4   4
#     4  10  21  37  60  89 115 142 186 239 286 334
#     4  10  21  38  59  85 115 147 191 240 286 338
#     4  10  21  36  53  77 112 151 189 232 278 326
#     4  11  21  35  54  84 117 153 195 233 281 338
#     4  11  20  33  53  78 112 151 190 232 270 333
#     4  10  22  38  56  80 117 157 193 233 282 341
#     4   9  16  30  54  78 102 139 179 220 274 331
#     4  11  23  39  62  87 112 151 191 233 291 349
#
# _framework density 19.050409999999999
#
# number of rings (size 3 to 8) (size 9 to 14) (size 15 to 20)
#    0.000    1.750    3.750    1.875    1.750    3.500 
#    0.000    0.000    0.000    0.375    0.000    0.000 
#    0.000    0.000    0.000    0.000    0.000    0.000 
#
# Total GULP energy -178479.099071 kJ/mol
# GULP energy per Si atom -5577.471846 kJ/mol
# Density = 1.900705 g / cm^3
# Si number density = 19.050410 Si / 1000 Ang^3
#
#
#
# Elastic Constant Matrix: (Units=GPa)
#
#
# Indices 1 2 3 4 5 6 
#
# 1 92.5353 -5.1750 12.4300 0.0000 -22.2894 0.0000
# 2 -5.1750 36.0455 2.2700 0.0000 -10.5329 0.0000
# 3 12.4300 2.2700 67.7208 0.0000 -10.8266 0.0000
# 4 0.0000 0.0000 0.0000 13.4507 0.0000 -11.4469
# 5 -22.2894 -10.5329 -10.8266 0.0000 35.6516 0.0000
# 6 0.0000 0.0000 0.0000 -11.4469 0.0000 31.8679
#
#
#
# Elastic Compliance Matrix: (Units=1/GPa)
#
#
# Indices 1 2 3 4 5 6 
#
# 1 0.013521 0.004797 -0.001119 0.000000 0.009531 0.000000
# 2 0.004797 0.032078 0.000041 0.000000 0.012488 0.000000
# 3 -0.001119 0.000041 0.015619 0.000000 0.004056 0.000000
# 4 0.000000 0.000000 0.000000 0.107077 0.000000 0.038462
# 5 0.009531 0.012488 0.004056 0.000000 0.038929 0.000000
# 6 0.000000 0.000000 0.000000 0.038462 0.000000 0.045195
#
#
# Mechanical properties :
#
#
# Convention : Reuss Voigt Hill
#
# Bulk Modulus (GPa) = 14.56555 23.92795 19.24675
# Shear Modulus (GPa) = 18.66598 28.64582 23.65590
#
# Velocity S-wave (km/s) = 3.13360 3.88195 3.52767
# Velocity P-wave (km/s) = 4.55577 5.71667 5.16891
#
# Compressibility (1/GPa) = 0.06865516
#
# Stress axis : x y z
#
# Youngs Moduli (GPa) = 73.95944 31.17400 64.02498
#
# Poissons Ratio (x) = -0.14953 0.07163
# Poissons Ratio (y) = -0.35476 -0.00262
# Poissons Ratio (z) = 0.08275 -0.00127
#
# Static dielectric constant tensor:
#      x y z
#    x 1.708080 0.000000 -0.025950 
#    y 0.000000 1.666360 0.000000 
#    z -0.025950 0.000000 1.668670 
# 
# From -- ./inp_files/37693.got.cif
#   From: 2010.05.17/outbox.cif.g08.bks.cpg/sg10_19_cif.got.tgz:37693.got - 2010.06.03 11:33:40.
