data_PCOD9151079
_publ_section_title
;
Structure prediction by ZEFSAII (Michael W. Deem and Ramdas Pophale) SiO2 
 PCOD9151079
Probable space group: P 2/M
;
_chemical_formula_sum "Si O2"
_cell_formula_units_Z 25
_cell_length_a 9.433219
_cell_length_b 7.662403
_cell_length_c 20.533651
_cell_angle_alpha 90.000000
_cell_angle_beta 49.438317
_cell_angle_gamma 90.000000
_cell_volume 1127.552672
_symmetry_space_group_name_H-M "P 2/M"
_symmetry_group_IT_number 10
_symmetry_cell_setting 'monoclinic'
loop_
_space_group_symop_operation_xyz
x,y,z
-x,y,-z
-x,-y,-z
x,-y,z
loop_
_atom_site_type_symbol
_atom_site_label
_atom_site_fract_x
_atom_site_fract_y
_atom_site_fract_z
Si Si1 0.776068 0.205671 0.248778
Si Si2 0.440441 0.710486 0.255396
Si Si3 0.699239 0.791797 0.415357
Si Si4 0.042537 0.204677 0.058144
Si Si5 0.517930 0.193282 0.084891
Si Si6 0.026579 0.289253 0.418076
Si Si7 0.500000 0.500000 0.000000
O O1 0.580169 0.225786 0.269685
O O2 0.758772 0.279686 0.326675
O O3 0.930237 0.280771 0.152665
O O4 0.820239 0.000000 0.243062
O O5 0.448531 0.500000 0.251836
O O6 0.503804 0.779809 0.166375
O O7 0.228826 0.767287 0.332011
O O8 0.500000 0.721646 0.500000
O O9 0.859588 0.764107 0.420595
O O10 0.674588 0.000000 0.414215
O O11 0.984407 0.000000 0.071610
O O12 0.263650 0.209685 0.998494
O O13 0.000000 0.284687 0.000000
O O14 0.425887 0.347543 0.072741
O O15 0.447996 0.000000 0.089530
O O16 0.028066 0.500000 0.419057
O O17 0.000000 0.226979 0.500000
#
# Coordination Sequence:
#
# PCOD9151079 Si02
#       7
#     4   4   4   4   4   4   1
#     4  10  20  37  62  91 125 167 214 266 327 395
#     4  11  22  39  62  95 129 165 223 274 324 402
#     4  10  22  39  61  94 129 159 208 272 327 393
#     4   9  17  34  61  90 119 160 217 262 312 384
#     4  11  23  42  66  91 130 178 217 276 336 381
#     4  10  23  42  64  90 127 172 216 267 327 399
#     4  12  26  44  58  94 130 168 230 274 308 414
#
# _framework density 22.171911999999999
#
# number of rings (size 3 to 8) (size 9 to 14) (size 15 to 20)
#    0.000    1.760    2.400    1.680    0.000    3.840 
#    1.440    2.800    0.000    0.000    0.000    0.000 
#    0.000    0.000    0.000    0.000    0.000    0.000 
#
# Total GULP energy -139457.573379 kJ/mol
# GULP energy per Si atom -5578.302935 kJ/mol
# Density = 2.212145 g / cm^3
# Si number density = 22.171912 Si / 1000 Ang^3
#
#
#
# Elastic Constant Matrix: (Units=GPa)
#
#
# Indices 1 2 3 4 5 6 
#
# 1 85.3414 -1.9178 91.9712 0.0000 33.4152 0.0000
# 2 -1.9178 81.7252 12.8300 0.0000 10.5573 0.0000
# 3 91.9712 12.8300 209.4292 0.0000 19.0679 0.0000
# 4 0.0000 0.0000 0.0000 -5.9316 0.0000 -2.5383
# 5 33.4152 10.5573 19.0679 0.0000 45.6764 0.0000
# 6 0.0000 0.0000 0.0000 -2.5383 0.0000 23.9407
#
#
#
# Elastic Compliance Matrix: (Units=1/GPa)
#
#
# Indices 1 2 3 4 5 6 
#
# 1 0.035000 0.005721 -0.013793 0.000000 -0.021169 0.000000
# 2 0.005721 0.013604 -0.002784 0.000000 -0.006168 0.000000
# 3 -0.013793 -0.002784 0.010422 0.000000 0.006384 0.000000
# 4 0.000000 0.000000 0.000000 -0.161272 0.000000 -0.017099
# 5 -0.021169 -0.006168 0.006384 0.000000 0.036140 0.000000
# 6 0.000000 0.000000 0.000000 -0.017099 0.000000 0.039957
#
#
# Mechanical properties :
#
#
# Convention : Reuss Voigt Hill
#
# Bulk Modulus (GPa) = 26.80051 64.69585 45.74818
# Shear Modulus (GPa) = 624.95536 30.97795 327.96666
#
# Velocity S-wave (km/s) = 16.80714 3.74193 12.17543
# Velocity P-wave (km/s) = 19.71684 6.92184 14.77609
#
# Compressibility (1/GPa) = 0.03731273
#
# Stress axis : x y z
#
# Youngs Moduli (GPa) = 28.57169 73.50649 95.95448
#
# Poissons Ratio (x) = -0.42056 1.32353
# Poissons Ratio (y) = -0.16347 0.26718
# Poissons Ratio (z) = 0.39410 0.20467
#
# Static dielectric constant tensor:
#      x y z
#    x 1.788290 0.000000 0.015270 
#    y 0.000000 1.817000 0.000000 
#    z 0.015270 0.000000 1.830270 
# 
# From -- ./inp_files/82191.got.cif
#   From: 2010.05.17/outbox.cif.g08.bks.cpg/sg10_42_cif.got.tgz:82191.got - 2010.06.03 11:33:40.
