data_PCOD9151773
_publ_section_title
;
Structure prediction by ZEFSAII (Michael W. Deem and Ramdas Pophale) SiO2 
 PCOD9151773
Probable space group: P 2/M
;
_chemical_formula_sum "Si O2"
_cell_formula_units_Z 28
_cell_length_a 13.160940
_cell_length_b 8.476455
_cell_length_c 16.437832
_cell_angle_alpha 90.000000
_cell_angle_beta 55.471663
_cell_angle_gamma 90.000000
_cell_volume 1510.746938
_symmetry_space_group_name_H-M "P 2/M"
_symmetry_group_IT_number 10
_symmetry_cell_setting 'monoclinic'
loop_
_space_group_symop_operation_xyz
x,y,z
-x,y,-z
-x,-y,-z
x,-y,z
loop_
_atom_site_type_symbol
_atom_site_label
_atom_site_fract_x
_atom_site_fract_y
_atom_site_fract_z
Si Si1 0.198814 0.692418 0.408082
Si Si2 0.579506 0.309542 0.041535
Si Si3 0.170277 0.188074 0.010070
Si Si4 0.944398 0.688337 0.212867
Si Si5 0.001997 0.692349 0.367879
Si Si6 0.727723 0.811570 0.211538
Si Si7 0.522825 0.309810 0.734730
O O1 0.201104 0.500000 0.406343
O O2 0.113457 0.739085 0.522896
O O3 0.339584 0.746491 0.347812
O O4 0.125765 0.741497 0.359479
O O5 0.591041 0.500000 0.033869
O O6 0.511672 0.266292 0.156607
O O7 0.500000 0.259627 0.000000
O O8 0.715781 0.237868 0.984323
O O9 0.044420 0.257282 0.101395
O O10 0.159281 0.000000 0.012512
O O11 0.208128 0.244069 0.902388
O O12 0.942360 0.500000 0.215886
O O13 0.985792 0.747365 0.283158
O O14 0.810575 0.748577 0.246964
O O15 0.003725 0.500000 0.365712
O O16 0.587070 0.754391 0.271232
O O17 0.729850 0.000000 0.210696
O O18 0.521123 0.500000 0.730890
#
# Coordination Sequence:
#
# PCOD9151773 Si02
#       7
#     4   4   4   4   4   4   4
#     4   8  14  29  52  77 105 132 161 201 253 308
#     4   9  18  30  47  75 107 132 164 211 253 294
#     4  10  21  35  50  70 100 140 175 204 248 302
#     4  11  21  32  53  79 103 129 169 216 257 296
#     4   8  16  29  49  79 107 129 159 206 258 302
#     4  10  21  37  52  69 101 139 174 208 249 302
#     4   9  17  30  53  77  99 132 170 206 251 299
#
# _framework density 18.533878999999999
#
# number of rings (size 3 to 8) (size 9 to 14) (size 15 to 20)
#    0.000    2.714    0.000    2.571    2.000    3.714 
#    0.000    0.714    0.000    6.000    0.000    5.000 
#    0.000    0.000    0.000    0.000    0.000    0.000 
#
# Total GULP energy -156179.531392 kJ/mol
# GULP energy per Si atom -5577.840407 kJ/mol
# Density = 1.849169 g / cm^3
# Si number density = 18.533879 Si / 1000 Ang^3
#
#
#
# Elastic Constant Matrix: (Units=GPa)
#
#
# Indices 1 2 3 4 5 6 
#
# 1 126.3409 16.0919 47.4374 0.0000 -19.1295 0.0000
# 2 16.0919 10.1354 8.4594 0.0000 -4.5142 0.0000
# 3 47.4374 8.4594 44.7589 0.0000 -15.0907 0.0000
# 4 0.0000 0.0000 0.0000 6.1968 0.0000 6.2681
# 5 -19.1295 -4.5142 -15.0907 0.0000 30.8198 0.0000
# 6 0.0000 0.0000 0.0000 6.2681 0.0000 -20.2830
#
#
#
# Elastic Compliance Matrix: (Units=1/GPa)
#
#
# Indices 1 2 3 4 5 6 
#
# 1 0.014287 -0.011735 -0.012592 0.000000 0.000983 0.000000
# 2 -0.011735 0.128274 -0.009495 0.000000 0.006855 0.000000
# 3 -0.012592 -0.009495 0.041176 0.000000 0.010955 0.000000
# 4 0.000000 0.000000 0.000000 0.122943 0.000000 0.037993
# 5 0.000983 0.006855 0.010955 0.000000 0.039425 0.000000
# 6 0.000000 0.000000 0.000000 0.037993 0.000000 -0.037561
#
#
# Mechanical properties :
#
#
# Convention : Reuss Voigt Hill
#
# Bulk Modulus (GPa) = 8.61390 36.13475 22.37432
# Shear Modulus (GPa) = 12.05154 10.62982 11.34068
#
# Velocity S-wave (km/s) = 2.55275 2.39746 2.47632
# Velocity P-wave (km/s) = 3.65328 5.21562 4.50273
#
# Compressibility (1/GPa) = 0.11609144
#
# Stress axis : x y z
#
# Youngs Moduli (GPa) = 69.99550 7.79582 24.28611
#
# Poissons Ratio (x) = 0.09148 0.30582
# Poissons Ratio (y) = 0.82140 0.23060
# Poissons Ratio (z) = 0.88140 0.07402
#
# Static dielectric constant tensor:
#      x y z
#    x 1.639920 0.000000 0.006520 
#    y 0.000000 1.631320 0.000000 
#    z 0.006520 0.000000 1.634150 
# 
# From -- ./inp_files/49369.got.cif
#   From: 2010.05.17/outbox.cif.g08.bks.cpg/sg10_25_cif.got.tgz:49369.got - 2010.06.03 11:33:40.
