data_PCOD9151017
_publ_section_title
;
Structure prediction by ZEFSAII (Michael W. Deem and Ramdas Pophale) SiO2 
 PCOD9151017
Probable space group: P 2/M
;
_chemical_formula_sum "Si O2"
_cell_formula_units_Z 20
_cell_length_a 11.864162
_cell_length_b 11.881134
_cell_length_c 13.738986
_cell_angle_alpha 90.000000
_cell_angle_beta 149.396014
_cell_angle_gamma 90.000000
_cell_volume 985.947625
_symmetry_space_group_name_H-M "P 2/M"
_symmetry_group_IT_number 10
_symmetry_cell_setting 'monoclinic'
loop_
_space_group_symop_operation_xyz
x,y,z
-x,y,-z
-x,-y,-z
x,-y,z
loop_
_atom_site_type_symbol
_atom_site_label
_atom_site_fract_x
_atom_site_fract_y
_atom_site_fract_z
Si Si1 0.201782 0.132759 0.075036
Si Si2 0.884315 0.742114 0.190710
Si Si3 0.612177 0.739517 0.360023
Si Si4 0.819898 0.500000 0.222788
Si Si5 0.254164 0.873367 0.726747
Si Si6 0.664372 0.500000 0.324422
O O1 0.143870 0.202597 0.934959
O O2 0.240028 0.000000 0.083163
O O3 0.425324 0.192884 0.279101
O O4 0.000000 0.140938 0.000000
O O5 0.145843 0.745281 0.411976
O O6 0.802442 0.614286 0.147692
O O7 0.758209 0.816680 0.177634
O O8 0.627084 0.799706 0.265985
O O9 0.562825 0.610580 0.297591
O O10 0.671786 0.500000 0.211610
O O11 0.074401 0.500000 0.451871
O O12 0.000000 0.877037 0.500000
O O13 0.339148 0.000000 0.791995
#
# Coordination Sequence:
#
# PCOD9151017 Si02
#       6
#     4   4   4   2   4   2
#     4  11  26  44  59  80 112 156 210 253 288 339
#     4  10  20  37  61  89 120 152 190 238 295 353
#     4  10  20  37  61  89 120 152 190 238 295 353
#     4   9  16  33  61  92 125 157 184 224 290 363
#     4   9  16  28  52  85 117 147 180 226 288 350
#     4   9  16  33  61  92 125 157 184 224 290 363
#
# _framework density 20.285053000000001
#
# number of rings (size 3 to 8) (size 9 to 14) (size 15 to 20)
#    0.000    2.200    2.000    1.200    0.000    4.800 
#    0.000    7.000    0.000    3.600    0.000    0.000 
#    0.000    0.000    0.000    0.000    0.000    0.000 
#
# Total GULP energy -111783.261806 kJ/mol
# GULP energy per Si atom -5589.163090 kJ/mol
# Density = 2.023888 g / cm^3
# Si number density = 20.285053 Si / 1000 Ang^3
#
#
#
# Elastic Constant Matrix: (Units=GPa)
#
#
# Indices 1 2 3 4 5 6 
#
# 1 64.9946 50.6758 20.6930 0.0000 15.0168 0.0000
# 2 50.6758 195.6052 26.2311 0.0000 11.1804 0.0000
# 3 20.6930 26.2311 82.5505 0.0000 6.8023 0.0000
# 4 0.0000 0.0000 0.0000 89.8426 0.0000 -80.1299
# 5 15.0168 11.1804 6.8023 0.0000 31.6289 0.0000
# 6 0.0000 0.0000 0.0000 -80.1299 0.0000 132.0151
#
#
#
# Elastic Compliance Matrix: (Units=1/GPa)
#
#
# Indices 1 2 3 4 5 6 
#
# 1 0.022057 -0.004806 -0.003338 0.000000 -0.008056 0.000000
# 2 -0.004806 0.006463 -0.000864 0.000000 0.000183 0.000000
# 3 -0.003338 -0.000864 0.013305 0.000000 -0.000971 0.000000
# 4 0.000000 0.000000 0.000000 0.024268 0.000000 0.014730
# 5 -0.008056 0.000183 -0.000971 0.000000 0.035585 0.000000
# 6 0.000000 0.000000 0.000000 0.014730 0.000000 0.016516
#
#
# Mechanical properties :
#
#
# Convention : Reuss Voigt Hill
#
# Bulk Modulus (GPa) = 42.00162 59.81670 50.90916
# Shear Modulus (GPa) = 34.68658 67.06736 50.87697
#
# Velocity S-wave (km/s) = 4.13965 5.75623 5.01353
# Velocity P-wave (km/s) = 6.60300 8.58668 7.65933
#
# Compressibility (1/GPa) = 0.02380860
#
# Stress axis : x y z
#
# Youngs Moduli (GPa) = 45.33635 154.72895 75.15913
#
# Poissons Ratio (x) = 0.74368 0.25089
# Poissons Ratio (y) = 0.21790 0.06493
# Poissons Ratio (z) = 0.15134 0.13367
#
# Static dielectric constant tensor:
#      x y z
#    x 1.659670 0.000000 0.017760 
#    y 0.000000 1.707920 0.000000 
#    z 0.017760 0.000000 1.828530 
# 
# From -- ./inp_files/27703.got.cif
#   From: 2010.05.17/outbox.cif.g08.bks.cpg/sg10_14_cif.got.tgz:27703.got - 2010.06.03 11:33:40.
