data_PCOD9151598
_publ_section_title
;
Structure prediction by ZEFSAII (Michael W. Deem and Ramdas Pophale) SiO2 
 PCOD9151598
Probable space group: P 2/M
;
_chemical_formula_sum "Si O2"
_cell_formula_units_Z 24
_cell_length_a 8.804847
_cell_length_b 16.141984
_cell_length_c 14.140305
_cell_angle_alpha 90.000000
_cell_angle_beta 140.547423
_cell_angle_gamma 90.000000
_cell_volume 1277.060878
_symmetry_space_group_name_H-M "P 2/M"
_symmetry_group_IT_number 10
_symmetry_cell_setting 'monoclinic'
loop_
_space_group_symop_operation_xyz
x,y,z
-x,y,-z
-x,-y,-z
x,-y,z
loop_
_atom_site_type_symbol
_atom_site_label
_atom_site_fract_x
_atom_site_fract_y
_atom_site_fract_z
Si Si1 0.702712 0.500000 0.331984
Si Si2 0.324810 0.500000 0.327580
Si Si3 0.212994 0.905800 0.853696
Si Si4 0.225592 0.327863 0.343333
Si Si5 0.056188 0.768478 0.924334
Si Si6 0.497476 0.346243 0.111622
Si Si7 0.077330 0.229414 0.646675
O O1 0.513948 0.500000 0.330593
O O2 0.618369 0.420520 0.229496
O O3 0.000000 0.500000 0.500000
O O4 0.500000 0.500000 0.500000
O O5 0.168050 0.417863 0.270467
O O6 0.148700 0.842794 0.905905
O O7 0.100736 0.860348 0.707351
O O8 0.124846 0.000000 0.819753
O O9 0.500000 0.908837 0.000000
O O10 0.500000 0.329788 0.500000
O O11 0.182362 0.263299 0.239859
O O12 0.081615 0.292960 0.364904
O O13 0.235162 0.689110 0.010194
O O14 0.000000 0.797908 0.000000
O O15 0.661661 0.267796 0.214390
O O16 0.500000 0.364084 0.000000
O O17 0.000000 0.228510 0.500000
#
# Coordination Sequence:
#
# PCOD9151598 Si02
#       7
#     2   2   4   4   4   4   4
#     4  12  29  40  64  94 126 171 215 271 306 360
#     4  10  24  40  54  85 126 160 211 245 310 367
#     4  10  20  41  66  93 126 160 203 257 317 382
#     4  10  23  39  59  88 123 169 206 257 311 369
#     4  11  22  39  65  90 125 164 208 256 310 379
#     4  12  23  44  62  93 123 168 216 259 314 361
#     4  11  23  39  67  91 125 162 212 260 308 378
#
# _framework density 18.793154999999999
#
# number of rings (size 3 to 8) (size 9 to 14) (size 15 to 20)
#    0.000    1.167    5.000    1.750   11.667    1.333 
#    0.000    2.083    0.000    8.000    0.000    0.000 
#    0.000    0.000    0.000    0.000    0.000    0.000 
#
# Total GULP energy -133607.644602 kJ/mol
# GULP energy per Si atom -5566.985192 kJ/mol
# Density = 1.875038 g / cm^3
# Si number density = 18.793155 Si / 1000 Ang^3
#
#
#
# Elastic Constant Matrix: (Units=GPa)
#
#
# Indices 1 2 3 4 5 6 
#
# 1 49.9143 26.3713 42.3056 0.0000 -31.4013 0.0000
# 2 26.3713 137.7525 46.6134 0.0000 -7.9805 0.0000
# 3 42.3056 46.6134 103.3786 0.0000 -18.9532 0.0000
# 4 0.0000 0.0000 0.0000 -813.4269 0.0000 1153.2456
# 5 -31.4013 -7.9805 -18.9532 0.0000 40.3046 0.0000
# 6 0.0000 0.0000 0.0000 1153.2456 0.0000-1555.6973
#
#
#
# Elastic Compliance Matrix: (Units=1/GPa)
#
#
# Indices 1 2 3 4 5 6 
#
# 1 0.059106 -0.003878 -0.015471 0.000000 0.038006 0.000000
# 2 -0.003878 0.008822 -0.002872 0.000000 -0.002625 0.000000
# 3 -0.015471 -0.002872 0.016399 0.000000 -0.004911 0.000000
# 4 0.000000 0.000000 0.000000 0.024108 0.000000 0.017872
# 5 0.038006 -0.002625 -0.004911 0.000000 0.051592 0.000000
# 6 0.000000 0.000000 0.000000 0.017872 0.000000 0.012606
#
#
# Mechanical properties :
#
#
# Convention : Reuss Voigt Hill
#
# Bulk Modulus (GPa) = 25.07275 57.95844 41.51559
# Shear Modulus (GPa) = 21.70421 -454.04690 -216.17135
#
# Velocity S-wave (km/s) = 3.40207 -15.56042 -10.73668
# Velocity P-wave (km/s) = 5.36679 17.08592 11.47009
#
# Compressibility (1/GPa) = 0.03988394
#
# Stress axis : x y z
#
# Youngs Moduli (GPa) = 16.91881 113.35884 60.97894
#
# Poissons Ratio (x) = 0.43962 0.94342
# Poissons Ratio (y) = 0.06561 0.17513
# Poissons Ratio (z) = 0.26175 0.32556
#
# Static dielectric constant tensor:
#      x y z
#    x 1.892640 0.000000 0.177640 
#    y 0.000000 1.708320 0.000000 
#    z 0.177640 0.000000 1.763740 
# 
# From -- ./inp_files/61982.got.cif
#   From: 2010.05.17/outbox.cif.g08.bks.cpg/sg10_31_cif.got.tgz:61982.got - 2010.06.03 11:33:40.
