data_PCOD9151982
_publ_section_title
;
Structure prediction by ZEFSAII (Michael W. Deem and Ramdas Pophale) SiO2 
 PCOD9151982
Probable space group: P 2/M
;
_chemical_formula_sum "Si O2"
_cell_formula_units_Z 28
_cell_length_a 20.850430
_cell_length_b 9.363744
_cell_length_c 23.646680
_cell_angle_alpha 90.000000
_cell_angle_beta 19.118954
_cell_angle_gamma 90.000000
_cell_volume 1512.120645
_symmetry_space_group_name_H-M "P 2/M"
_symmetry_group_IT_number 10
_symmetry_cell_setting 'monoclinic'
loop_
_space_group_symop_operation_xyz
x,y,z
-x,y,-z
-x,-y,-z
x,-y,z
loop_
_atom_site_type_symbol
_atom_site_label
_atom_site_fract_x
_atom_site_fract_y
_atom_site_fract_z
Si Si1 0.940204 0.837775 0.487711
Si Si2 0.388223 0.173562 0.537252
Si Si3 0.656467 0.837775 0.915618
Si Si4 0.057154 0.171611 0.113941
Si Si5 0.654388 0.338975 0.646611
Si Si6 0.456115 0.828388 0.714979
Si Si7 0.248594 0.661024 0.052405
O O1 0.794431 0.740077 0.574018
O O2 0.000000 0.784198 0.500000
O O3 0.138032 0.845991 0.287325
O O4 0.860411 0.000000 0.560857
O O5 0.500000 0.225265 0.500000
O O6 0.498564 0.214271 0.387265
O O7 0.158942 0.214269 0.726884
O O8 0.391092 0.000000 0.536292
O O9 0.689092 0.740072 0.942458
O O10 0.596619 0.000000 0.982115
O O11 0.500000 0.784200 0.000000
O O12 0.100802 0.247453 0.137271
O O13 0.059474 0.000000 0.119972
O O14 0.236710 0.205268 0.921102
O O15 0.722024 0.500000 0.577896
O O16 0.613399 0.247457 0.624673
O O17 0.444308 0.347289 0.851902
O O18 0.478853 0.000000 0.700592
O O19 0.177717 0.500000 0.122200
#
# Coordination Sequence:
#
# PCOD9151982 Si02
#       7
#     4   4   4   4   4   4   4
#     4  10  21  36  55  78 104 137 177 221 269 322
#     4   9  18  32  53  83 113 139 177 229 277 327
#     4  10  21  36  55  78 104 137 177 221 269 322
#     4   9  18  33  54  79 108 143 181 223 272 325
#     4  10  21  36  54  77 106 140 178 223 271 320
#     4   9  18  33  54  79 108 143 181 223 272 325
#     4  10  21  36  54  77 106 140 178 223 271 320
#
# _framework density 18.517040999999999
#
# number of rings (size 3 to 8) (size 9 to 14) (size 15 to 20)
#    0.000    2.429    0.000    1.714    2.000    4.571 
#    0.000    2.857    0.000    1.714    0.000    4.000 
#    0.000    0.000    0.000    0.000    0.000    0.000 
#
# Total GULP energy -156165.908564 kJ/mol
# GULP energy per Si atom -5577.353877 kJ/mol
# Density = 1.847490 g / cm^3
# Si number density = 18.517041 Si / 1000 Ang^3
#
#
#
# Elastic Constant Matrix: (Units=GPa)
#
#
# Indices 1 2 3 4 5 6 
#
# 1 196.5853 70.4582 61.9368 0.0000 -12.6114 0.0000
# 2 70.4582 55.0979 35.4854 0.0000 -7.1236 0.0000
# 3 61.9368 35.4854 68.6821 0.0000 -13.4362 0.0000
# 4 0.0000 0.0000 0.0000 13.0174 0.0000 3.0622
# 5 -12.6114 -7.1236 -13.4362 0.0000 36.1933 0.0000
# 6 0.0000 0.0000 0.0000 3.0622 0.0000 -2.0179
#
#
#
# Elastic Compliance Matrix: (Units=1/GPa)
#
#
# Indices 1 2 3 4 5 6 
#
# 1 0.009950 -0.010408 -0.003578 0.000000 0.000090 0.000000
# 2 -0.010408 0.038089 -0.010283 0.000000 0.000053 0.000000
# 3 -0.003578 -0.010283 0.024218 0.000000 0.005720 0.000000
# 4 0.000000 0.000000 0.000000 0.056612 0.000000 0.085907
# 5 0.000090 0.000053 0.005720 0.000000 0.029795 0.000000
# 6 0.000000 0.000000 0.000000 0.085907 0.000000 -0.365194
#
#
# Mechanical properties :
#
#
# Convention : Reuss Voigt Hill
#
# Bulk Modulus (GPa) = 42.15938 72.90289 57.53113
# Shear Modulus (GPa) = -33.31420 19.60422 -6.85499
#
# Velocity S-wave (km/s) = -4.24619 3.25732 -1.92614
# Velocity P-wave (km/s) = 1.10585 7.32141 5.11762
#
# Compressibility (1/GPa) = 0.02371951
#
# Stress axis : x y z
#
# Youngs Moduli (GPa) = 100.49890 26.25449 41.29178
#
# Poissons Ratio (x) = 0.27327 0.14774
# Poissons Ratio (y) = 1.04603 0.42458
# Poissons Ratio (z) = 0.35957 0.26996
#
# Static dielectric constant tensor:
#      x y z
#    x 1.626230 0.000000 -0.003350 
#    y 0.000000 1.647490 0.000000 
#    z -0.003350 0.000000 1.609730 
# 
# From -- ./inp_files/90336.got.cif
#   From: 2010.05.17/outbox.cif.g08.bks.cpg/sg10_46_cif.got.tgz:90336.got - 2010.06.03 11:33:40.
