data_PCOD9151362
_publ_section_title
;
Structure prediction by ZEFSAII (Michael W. Deem and Ramdas Pophale) SiO2 
 PCOD9151362
Probable space group: P 2/M
;
_chemical_formula_sum "Si O2"
_cell_formula_units_Z 20
_cell_length_a 9.915820
_cell_length_b 14.587892
_cell_length_c 7.671743
_cell_angle_alpha 90.000000
_cell_angle_beta 61.696568
_cell_angle_gamma 90.000000
_cell_volume 977.055877
_symmetry_space_group_name_H-M "P 2/M"
_symmetry_group_IT_number 10
_symmetry_cell_setting 'monoclinic'
loop_
_space_group_symop_operation_xyz
x,y,z
-x,y,-z
-x,-y,-z
x,-y,z
loop_
_atom_site_type_symbol
_atom_site_label
_atom_site_fract_x
_atom_site_fract_y
_atom_site_fract_z
Si Si1 0.174629 0.106969 0.960880
Si Si2 0.827791 0.782980 0.678134
Si Si3 0.325002 0.772696 0.572449
Si Si4 0.834497 0.603282 0.186425
Si Si5 0.321593 0.604338 0.085212
O O1 0.187620 0.156683 0.138608
O O2 0.213380 0.000000 0.950894
O O3 0.275304 0.158425 0.755083
O O4 0.000000 0.114791 0.000000
O O5 0.711769 0.812228 0.595401
O O6 0.783186 0.679557 0.759234
O O7 0.000000 0.789959 0.500000
O O8 0.500000 0.747270 0.500000
O O9 0.218493 0.682441 0.653405
O O10 0.838278 0.500000 0.257461
O O11 0.718289 0.605470 0.094939
O O12 0.000000 0.622529 0.000000
O O13 0.295450 0.500000 0.163949
O O14 0.500000 0.627170 0.000000
#
# Coordination Sequence:
#
# PCOD9151362 Si02
#       5
#     4   4   4   4   4
#     4  11  25  48  72  95 130 168 215 278 336 391
#     4  12  24  40  70 100 127 172 225 265 322 395
#     4  12  25  41  67 100 135 170 215 270 331 390
#     4  10  20  38  64  91 130 179 221 262 314 381
#     4  10  21  38  62  93 134 178 215 259 318 380
#
# _framework density 20.469659
#
# number of rings (size 3 to 8) (size 9 to 14) (size 15 to 20)
#    0.000    1.000    4.000    3.000    0.000    3.200 
#    0.000    1.000    0.000    0.000    0.000    0.000 
#    0.000    0.000    0.000    0.000    0.000    0.000 
#
# Total GULP energy -111871.935765 kJ/mol
# GULP energy per Si atom -5593.596788 kJ/mol
# Density = 2.042307 g / cm^3
# Si number density = 20.469659 Si / 1000 Ang^3
#
#
#
# Elastic Constant Matrix: (Units=GPa)
#
#
# Indices 1 2 3 4 5 6 
#
# 1 90.7410 24.1243 17.0812 0.0000 18.8056 0.0000
# 2 24.1243 127.6048 70.1676 0.0000 4.2956 0.0000
# 3 17.0812 70.1676 79.3267 0.0000 30.2844 0.0000
# 4 0.0000 0.0000 0.0000 15.4502 0.0000 -22.6890
# 5 18.8056 4.2956 30.2844 0.0000 34.6294 0.0000
# 6 0.0000 0.0000 0.0000 -22.6890 0.0000 27.3649
#
#
#
# Elastic Compliance Matrix: (Units=1/GPa)
#
#
# Indices 1 2 3 4 5 6 
#
# 1 0.014202 -0.006837 0.008422 0.000000 -0.014229 0.000000
# 2 -0.006837 0.026223 -0.032874 0.000000 0.029209 0.000000
# 3 0.008422 -0.032874 0.060139 0.000000 -0.053088 0.000000
# 4 0.000000 0.000000 0.000000 -0.297448 0.000000 -0.246623
# 5 -0.014229 0.029209 -0.053088 0.000000 0.079408 0.000000
# 6 0.000000 0.000000 0.000000 -0.246623 0.000000 -0.167939
#
#
# Mechanical properties :
#
#
# Convention : Reuss Voigt Hill
#
# Bulk Modulus (GPa) = 26.32658 57.82431 42.07545
# Shear Modulus (GPa) = -23.78971 27.90884 2.05956
#
# Velocity S-wave (km/s) = -3.41280 3.69646 1.00416
# Velocity P-wave (km/s) = 1.62492 6.82119 4.68445
#
# Compressibility (1/GPa) = 0.03798442
#
# Stress axis : x y z
#
# Youngs Moduli (GPa) = 70.41464 38.13468 16.62823
#
# Poissons Ratio (x) = 0.26072 -0.14004
# Poissons Ratio (y) = 0.48141 0.54664
# Poissons Ratio (z) = -0.59300 1.25365
#
# Static dielectric constant tensor:
#      x y z
#    x 1.754830 0.000000 0.015030 
#    y 0.000000 1.724710 0.000000 
#    z 0.015030 0.000000 1.710470 
# 
# From -- ./inp_files/24513.got.cif
#   From: 2010.05.17/outbox.cif.g08.bks.cpg/sg10_13_cif.got.tgz:24513.got - 2010.06.03 11:33:40.
