data_PCOD9151882
_publ_section_title
;
Structure prediction by ZEFSAII (Michael W. Deem and Ramdas Pophale) SiO2 
 PCOD9151882
Probable space group: P 2/M
;
_chemical_formula_sum "Si O2"
_cell_formula_units_Z 28
_cell_length_a 17.438695
_cell_length_b 8.060184
_cell_length_c 15.161133
_cell_angle_alpha 90.000000
_cell_angle_beta 146.748713
_cell_angle_gamma 90.000000
_cell_volume 1168.472129
_symmetry_space_group_name_H-M "P 2/M"
_symmetry_group_IT_number 10
_symmetry_cell_setting 'monoclinic'
loop_
_space_group_symop_operation_xyz
x,y,z
-x,y,-z
-x,-y,-z
x,-y,z
loop_
_atom_site_type_symbol
_atom_site_label
_atom_site_fract_x
_atom_site_fract_y
_atom_site_fract_z
Si Si1 0.920108 0.194106 0.011448
Si Si2 0.809516 0.697721 0.204173
Si Si3 0.325112 0.195998 0.498256
Si Si4 0.443576 0.809673 0.158849
Si Si5 0.949018 0.305418 0.682312
Si Si6 0.633243 0.689347 0.192907
Si Si7 0.345609 0.307006 0.331883
O O1 0.756072 0.216088 0.833391
O O2 0.955214 0.000000 0.055666
O O3 0.965807 0.282553 0.144515
O O4 0.000000 0.255004 0.000000
O O5 0.822460 0.500000 0.228108
O O6 0.953680 0.762566 0.302598
O O7 0.754276 0.759270 0.245788
O O8 0.688815 0.724945 0.014043
O O9 0.475083 0.260715 0.677940
O O10 0.279815 0.288400 0.366160
O O11 0.199862 0.222141 0.446407
O O12 0.338076 0.000000 0.493300
O O13 0.569362 0.799260 0.208407
O O14 0.405237 0.000000 0.138436
O O15 0.927061 0.500000 0.646307
O O16 0.666009 0.500000 0.255152
O O17 0.500000 0.672777 0.000000
O O18 0.500000 0.236994 0.500000
O O19 0.355710 0.500000 0.317446
#
# Coordination Sequence:
#
# PCOD9151882 Si02
#       7
#     4   4   4   4   4   4   4
#     4  11  23  40  62  86 115 153 189 228 284 343
#     4   9  20  37  58  86 115 145 188 236 282 334
#     4  11  24  41  57  82 118 154 189 230 286 345
#     4  10  21  35  56  86 116 149 189 231 280 338
#     4  11  23  39  61  86 113 149 194 240 281 332
#     4   8  15  32  56  81 112 148 185 230 281 332
#     4  11  25  42  62  88 114 146 192 240 281 330
#
# _framework density 23.962914999999999
#
# number of rings (size 3 to 8) (size 9 to 14) (size 15 to 20)
#    0.000    1.857    1.429    3.000    2.000    7.714 
#    0.000    0.714    0.000    4.286    0.000    0.000 
#    0.000    0.000    0.000    0.000    0.000    0.000 
#
# Total GULP energy -156470.504190 kJ/mol
# GULP energy per Si atom -5588.232292 kJ/mol
# Density = 2.390837 g / cm^3
# Si number density = 23.962915 Si / 1000 Ang^3
#
#
#
# Elastic Constant Matrix: (Units=GPa)
#
#
# Indices 1 2 3 4 5 6 
#
# 1 74.7883 -2.3164 -4.5512 0.0000 31.1675 0.0000
# 2 -2.3164 36.7285 -11.4207 0.0000 0.7321 0.0000
# 3 -4.5512 -11.4207 70.5044 0.0000 11.3689 0.0000
# 4 0.0000 0.0000 0.0000 15.4788 0.0000 10.0228
# 5 31.1675 0.7321 11.3689 0.0000 29.3601 0.0000
# 6 0.0000 0.0000 0.0000 10.0228 0.0000 9.3904
#
#
#
# Elastic Compliance Matrix: (Units=1/GPa)
#
#
# Indices 1 2 3 4 5 6 
#
# 1 0.027419 0.004778 0.007740 0.000000 -0.032223 0.000000
# 2 0.004778 0.029703 0.006461 0.000000 -0.008315 0.000000
# 3 0.007740 0.006461 0.018218 0.000000 -0.015432 0.000000
# 4 0.000000 0.000000 0.000000 0.209166 0.000000 -0.223253
# 5 -0.032223 -0.008315 -0.015432 0.000000 0.074449 0.000000
# 6 0.000000 0.000000 0.000000 -0.223253 0.000000 0.344781
#
#
# Mechanical properties :
#
#
# Convention : Reuss Voigt Hill
#
# Bulk Modulus (GPa) = 8.82638 16.16052 12.49345
# Shear Modulus (GPa) = 7.10688 24.19982 15.65335
#
# Velocity S-wave (km/s) = 1.72401 3.18132 2.55861
# Velocity P-wave (km/s) = 2.76664 4.50033 3.73546
#
# Compressibility (1/GPa) = 0.11329673
#
# Stress axis : x y z
#
# Youngs Moduli (GPa) = 36.47153 33.66684 54.89066
#
# Poissons Ratio (x) = -0.16087 -0.42485
# Poissons Ratio (y) = -0.17427 -0.35463
# Poissons Ratio (z) = -0.28228 -0.21751
#
# Static dielectric constant tensor:
#      x y z
#    x 2.028890 0.000000 0.013040 
#    y 0.000000 1.829370 0.000000 
#    z 0.013040 0.000000 1.918450 
# 
# From -- ./inp_files/79305.got.cif
#   From: 2010.05.17/outbox.cif.g08.bks.cpg/sg10_40_cif.got.tgz:79305.got - 2010.06.03 11:33:40.
