data_PCOD9151432
_publ_section_title
;
Structure prediction by ZEFSAII (Michael W. Deem and Ramdas Pophale) SiO2 
 PCOD9151432
Probable space group: P 2/M
;
_chemical_formula_sum "Si O2"
_cell_formula_units_Z 28
_cell_length_a 16.369340
_cell_length_b 18.797947
_cell_length_c 9.337223
_cell_angle_alpha 90.000000
_cell_angle_beta 150.270337
_cell_angle_gamma 90.000000
_cell_volume 1424.822304
_symmetry_space_group_name_H-M "P 2/M"
_symmetry_group_IT_number 10
_symmetry_cell_setting 'monoclinic'
loop_
_space_group_symop_operation_xyz
x,y,z
-x,y,-z
-x,-y,-z
x,-y,z
loop_
_atom_site_type_symbol
_atom_site_label
_atom_site_fract_x
_atom_site_fract_y
_atom_site_fract_z
Si Si1 0.952770 0.419081 0.592935
Si Si2 0.551314 0.683365 0.429768
Si Si3 0.328544 0.151474 0.677351
Si Si4 0.344402 0.160009 0.359199
Si Si5 0.659117 0.308656 0.164873
Si Si6 0.171822 0.418113 0.181182
Si Si7 0.012686 0.081971 0.845406
O O1 0.897433 0.500000 0.547581
O O2 0.814254 0.360278 0.408799
O O3 0.000000 0.418196 0.500000
O O4 0.117089 0.405526 0.934385
O O5 0.500000 0.646149 0.500000
O O6 0.643074 0.754691 0.622037
O O7 0.684957 0.634230 0.556896
O O8 0.403973 0.701909 0.095733
O O9 0.349487 0.144799 0.537519
O O10 0.313114 0.233096 0.711672
O O11 0.162792 0.111862 0.472362
O O12 0.500000 0.123003 0.000000
O O13 0.500000 0.134494 0.500000
O O14 0.171121 0.128338 0.042510
O O15 0.500000 0.341508 0.000000
O O16 0.219755 0.500000 0.274062
O O17 0.000000 0.405498 0.000000
O O18 0.036153 0.000000 0.839966
O O19 0.000000 0.085022 0.000000
#
# Coordination Sequence:
#
# PCOD9151432 Si02
#       7
#     4   4   4   4   4   4   4
#     4  10  22  39  57  81 114 151 191 240 298 346
#     4  11  22  36  57  83 112 147 193 235 289 342
#     4  10  20  39  59  89 123 150 193 243 288 342
#     4  10  21  38  61  89 120 153 192 243 288 345
#     4  11  21  37  56  85 113 148 193 236 291 347
#     4  10  22  37  55  81 110 147 193 237 286 343
#     4   9  20  38  64  93 117 157 200 229 286 356
#
# _framework density 19.651572999999999
#
# number of rings (size 3 to 8) (size 9 to 14) (size 15 to 20)
#    0.000    1.857    2.857    1.714    2.000    2.286 
#    0.000    0.714    0.000    0.857    0.000    0.000 
#    0.000    0.000    0.000    0.000    0.000    0.000 
#
# Total GULP energy -156115.868483 kJ/mol
# GULP energy per Si atom -5575.566732 kJ/mol
# Density = 1.960685 g / cm^3
# Si number density = 19.651573 Si / 1000 Ang^3
#
#
#
# Elastic Constant Matrix: (Units=GPa)
#
#
# Indices 1 2 3 4 5 6 
#
# 1 70.8338 16.4436 31.2897 0.0000 1.6161 0.0000
# 2 16.4436 73.5743 62.0600 0.0000 23.5692 0.0000
# 3 31.2897 62.0600 122.9850 0.0000 17.8574 0.0000
# 4 0.0000 0.0000 0.0000 5.5324 0.0000 -5.9802
# 5 1.6161 23.5692 17.8574 0.0000 37.8650 0.0000
# 6 0.0000 0.0000 0.0000 -5.9802 0.0000 7.9804
#
#
#
# Elastic Compliance Matrix: (Units=1/GPa)
#
#
# Indices 1 2 3 4 5 6 
#
# 1 0.015991 -0.000822 -0.003896 0.000000 0.001666 0.000000
# 2 -0.000822 0.027629 -0.012067 0.000000 -0.011472 0.000000
# 3 -0.003896 -0.012067 0.015133 0.000000 0.000541 0.000000
# 4 0.000000 0.000000 0.000000 0.951384 0.000000 0.712927
# 5 0.001666 -0.011472 0.000541 0.000000 0.033224 0.000000
# 6 0.000000 0.000000 0.000000 0.712927 0.000000 0.659544
#
#
# Mechanical properties :
#
#
# Convention : Reuss Voigt Hill
#
# Bulk Modulus (GPa) = 39.70799 54.10887 46.90843
# Shear Modulus (GPa) = 2.86554 20.78222 11.82388
#
# Velocity S-wave (km/s) = 1.20886 3.25550 2.45557
# Velocity P-wave (km/s) = 4.71151 6.45949 5.65346
#
# Compressibility (1/GPa) = 0.02518385
#
# Stress axis : x y z
#
# Youngs Moduli (GPa) = 62.53447 36.19385 66.08062
#
# Poissons Ratio (x) = 0.02974 0.25744
# Poissons Ratio (y) = 0.05138 0.79741
# Poissons Ratio (z) = 0.24362 0.43676
#
# Static dielectric constant tensor:
#      x y z
#    x 1.779490 0.000000 -0.044920 
#    y 0.000000 1.684810 0.000000 
#    z -0.044920 0.000000 1.703820 
# 
# From -- ./inp_files/30501.got.cif
#   From: 2010.05.17/outbox.cif.g08.bks.cpg/sg10_16_cif.got.tgz:30501.got - 2010.06.03 11:33:40.
