data_PCOD9151786
_publ_section_title
;
Structure prediction by ZEFSAII (Michael W. Deem and Ramdas Pophale) SiO2 
 PCOD9151786
Probable space group: P 2/M
;
_chemical_formula_sum "Si O2"
_cell_formula_units_Z 32
_cell_length_a 12.842414
_cell_length_b 8.409188
_cell_length_c 23.889461
_cell_angle_alpha 90.000000
_cell_angle_beta 135.614623
_cell_angle_gamma 90.000000
_cell_volume 1804.608435
_symmetry_space_group_name_H-M "P 2/M"
_symmetry_group_IT_number 10
_symmetry_cell_setting 'monoclinic'
loop_
_space_group_symop_operation_xyz
x,y,z
-x,y,-z
-x,-y,-z
x,-y,z
loop_
_atom_site_type_symbol
_atom_site_label
_atom_site_fract_x
_atom_site_fract_y
_atom_site_fract_z
Si Si1 0.150574 0.317393 0.020307
Si Si2 0.041521 0.810863 0.278273
Si Si3 0.188946 0.811314 0.502688
Si Si4 0.676887 0.305075 0.809168
Si Si5 0.879242 0.808310 0.327132
Si Si6 0.662115 0.310831 0.330206
Si Si7 0.334829 0.311528 0.450405
Si Si8 0.963291 0.692068 0.848566
O O1 0.196679 0.500000 0.026856
O O2 0.094144 0.246145 0.940151
O O3 0.271507 0.247257 0.109305
O O4 0.000000 0.323495 0.000000
O O5 0.205632 0.767717 0.364037
O O6 0.018156 0.739725 0.208219
O O7 0.927421 0.756831 0.283250
O O8 0.029641 0.000000 0.270183
O O9 0.238020 0.769652 0.583694
O O10 0.295490 0.723732 0.499577
O O11 0.020715 0.766321 0.421064
O O12 0.201126 0.000000 0.498093
O O13 0.679646 0.500000 0.811664
O O14 0.509281 0.256679 0.731130
O O15 0.803568 0.256268 0.813204
O O16 0.733967 0.732003 0.298183
O O17 0.864572 0.000000 0.321981
O O18 0.666265 0.500000 0.339962
O O19 0.500000 0.253151 0.500000
O O20 0.329380 0.500000 0.437804
O O21 0.965038 0.500000 0.853294
#
# Coordination Sequence:
#
# PCOD9151786 Si02
#       8
#     4   4   4   4   4   4   4   4
#     4   7  11  24  47  72  98 130 161 191 236 294
#     4  10  21  35  51  72  99 131 166 204 247 296
#     4  10  21  36  52  70  96 132 170 205 246 297
#     4   8  16  29  46  75 108 129 153 198 252 294
#     4   9  20  38  52  64  91 132 173 210 247 288
#     4  11  21  31  50  77 102 127 163 212 254 293
#     4  10  21  35  51  71  99 131 164 206 247 285
#     4   9  16  29  53  78 100 129 165 199 237 295
#
# _framework density 17.732378000000001
#
# number of rings (size 3 to 8) (size 9 to 14) (size 15 to 20)
#    0.000    2.750    0.000    4.125    1.750    5.500 
#    0.000    0.625    0.000    5.625    0.000    5.250 
#    0.000    0.000    0.000    0.000    0.000    0.000 
#
# Total GULP energy -178329.087902 kJ/mol
# GULP energy per Si atom -5572.783997 kJ/mol
# Density = 1.769202 g / cm^3
# Si number density = 17.732378 Si / 1000 Ang^3
#
#
#
# Elastic Constant Matrix: (Units=GPa)
#
#
# Indices 1 2 3 4 5 6 
#
# 1 53.1059 0.8247 37.8727 0.0000 -11.7200 0.0000
# 2 0.8247 6.4226 4.1447 0.0000 2.0070 0.0000
# 3 37.8727 4.1447 78.3585 0.0000 -27.5448 0.0000
# 4 0.0000 0.0000 0.0000 -11.0789 0.0000 -2.7338
# 5 -11.7200 2.0070 -27.5448 0.0000 22.8513 0.0000
# 6 0.0000 0.0000 0.0000 -2.7338 0.0000 29.6104
#
#
#
# Elastic Compliance Matrix: (Units=1/GPa)
#
#
# Indices 1 2 3 4 5 6 
#
# 1 0.029303 0.008846 -0.016695 0.000000 -0.005872 0.000000
# 2 0.008846 0.191626 -0.032506 0.000000 -0.051476 0.000000
# 3 -0.016695 -0.032506 0.035650 0.000000 0.037264 0.000000
# 4 0.000000 0.000000 0.000000 -0.088251 0.000000 -0.008148
# 5 -0.005872 -0.051476 0.037264 0.000000 0.090189 0.000000
# 6 0.000000 0.000000 0.000000 -0.008148 0.000000 0.033020
#
#
# Mechanical properties :
#
#
# Convention : Reuss Voigt Hill
#
# Bulk Modulus (GPa) = 5.68610 24.84126 15.26368
# Shear Modulus (GPa) = 11.60446 14.61289 13.10867
#
# Velocity S-wave (km/s) = 2.56094 2.87379 2.72187
# Velocity P-wave (km/s) = 3.45806 5.00510 4.30169
#
# Compressibility (1/GPa) = 0.17586756
#
# Stress axis : x y z
#
# Youngs Moduli (GPa) = 34.12607 5.21850 28.05088
#
# Poissons Ratio (x) = -0.04616 0.46831
# Poissons Ratio (y) = -0.30186 0.91182
# Poissons Ratio (z) = 0.56973 0.16963
#
# Static dielectric constant tensor:
#      x y z
#    x 1.597500 0.000000 -0.006680 
#    y 0.000000 1.615450 0.000000 
#    z -0.006680 0.000000 1.621740 
# 
# From -- ./inp_files/83599.got.cif
#   From: 2010.05.17/outbox.cif.g08.bks.cpg/sg10_42_cif.got.tgz:83599.got - 2010.06.03 11:33:40.
