data_PCOD9151346
_publ_section_title
;
Structure prediction by ZEFSAII (Michael W. Deem and Ramdas Pophale) SiO2 
 PCOD9151346
Probable space group: P 2/M
;
_chemical_formula_sum "Si O2"
_cell_formula_units_Z 24
_cell_length_a 12.142535
_cell_length_b 14.060963
_cell_length_c 15.221486
_cell_angle_alpha 90.000000
_cell_angle_beta 28.848342
_cell_angle_gamma 90.000000
_cell_volume 1253.927360
_symmetry_space_group_name_H-M "P 2/M"
_symmetry_group_IT_number 10
_symmetry_cell_setting 'monoclinic'
loop_
_space_group_symop_operation_xyz
x,y,z
-x,y,-z
-x,-y,-z
x,-y,z
loop_
_atom_site_type_symbol
_atom_site_label
_atom_site_fract_x
_atom_site_fract_y
_atom_site_fract_z
Si Si1 0.991307 0.341853 0.100889
Si Si2 0.730007 0.896229 0.451890
Si Si3 0.208975 0.136366 0.794272
Si Si4 0.732543 0.609104 0.781792
Si Si5 0.142725 0.321052 0.613289
Si Si6 0.497512 0.613673 0.769897
O O1 0.845250 0.248149 0.179633
O O2 0.890459 0.367762 0.266888
O O3 0.259037 0.330868 0.937041
O O4 0.000000 0.395177 0.000000
O O5 0.777280 0.901124 0.314351
O O6 0.458342 0.884227 0.658414
O O7 0.835567 0.793830 0.401513
O O8 0.802223 0.000000 0.438573
O O9 0.000000 0.101564 0.000000
O O10 0.806952 0.500000 0.718356
O O11 0.661600 0.645207 0.735291
O O12 0.928282 0.657216 0.701135
O O13 0.500000 0.610586 0.000000
O O14 0.367118 0.365623 0.413187
O O15 0.451227 0.500000 0.813193
#
# Coordination Sequence:
#
# PCOD9151346 Si02
#       6
#     4   4   4   4   4   4
#     4  10  21  36  54  83 120 155 187 228 281 341
#     4  10  21  34  53  84 114 147 193 236 276 332
#     4   9  17  33  56  80 110 149 191 234 279 325
#     4  10  20  38  64  88 108 141 193 244 288 336
#     4  11  21  37  60  84 116 153 187 239 292 334
#     4  11  23  38  60  88 114 148 195 239 283 341
#
# _framework density 19.139865
#
# number of rings (size 3 to 8) (size 9 to 14) (size 15 to 20)
#    0.000    1.833    1.667    4.000    0.000    5.667 
#    0.000    0.833    0.000    2.500    0.000    0.000 
#    0.000    0.000    0.000    0.000    0.000    0.000 
#
# Total GULP energy -133644.697550 kJ/mol
# GULP energy per Si atom -5568.529065 kJ/mol
# Density = 1.909630 g / cm^3
# Si number density = 19.139865 Si / 1000 Ang^3
#
#
#
# Elastic Constant Matrix: (Units=GPa)
#
#
# Indices 1 2 3 4 5 6 
#
# 1 82.4031 20.7214 26.6231 0.0000 11.8097 0.0000
# 2 20.7214 72.5481 2.8517 0.0000 -11.9177 0.0000
# 3 26.6231 2.8517 125.9068 0.0000 24.0281 0.0000
# 4 0.0000 0.0000 0.0000 -81.0561 0.0000 16.0313
# 5 11.8097 -11.9177 24.0281 0.0000 34.2483 0.0000
# 6 0.0000 0.0000 0.0000 16.0313 0.0000 7.1334
#
#
#
# Elastic Compliance Matrix: (Units=1/GPa)
#
#
# Indices 1 2 3 4 5 6 
#
# 1 0.014833 -0.005061 -0.001974 0.000000 -0.005491 0.000000
# 2 -0.005061 0.016597 -0.000856 0.000000 0.008121 0.000000
# 3 -0.001974 -0.000856 0.009590 0.000000 -0.006345 0.000000
# 4 0.000000 0.000000 0.000000 -0.008541 0.000000 0.019194
# 5 -0.005491 0.008121 -0.006345 0.000000 0.038370 0.000000
# 6 0.000000 0.000000 0.000000 0.019194 0.000000 0.097049
#
#
# Mechanical properties :
#
#
# Convention : Reuss Voigt Hill
#
# Bulk Modulus (GPa) = 39.62094 42.36115 40.99105
# Shear Modulus (GPa) = 26.02928 7.44258 16.73593
#
# Velocity S-wave (km/s) = 3.69175 1.97407 2.96024
# Velocity P-wave (km/s) = 6.23841 5.23225 5.75735
#
# Compressibility (1/GPa) = 0.02523918
#
# Stress axis : x y z
#
# Youngs Moduli (GPa) = 67.41811 60.25128 104.27432
#
# Poissons Ratio (x) = 0.30493 0.20582
# Poissons Ratio (y) = 0.34120 0.08921
# Poissons Ratio (z) = 0.13307 0.05155
#
# Static dielectric constant tensor:
#      x y z
#    x 1.676010 0.000000 0.033940 
#    y 0.000000 1.711660 0.000000 
#    z 0.033940 0.000000 1.690610 
# 
# From -- ./inp_files/65022.got.cif
#   From: 2010.05.17/outbox.cif.g08.bks.cpg/sg10_33_cif.got.tgz:65022.got - 2010.06.03 11:33:40.
