data_PCOD9151612
_publ_section_title
;
Structure prediction by ZEFSAII (Michael W. Deem and Ramdas Pophale) SiO2 
 PCOD9151612
Probable space group: P 2/M
;
_chemical_formula_sum "Si O2"
_cell_formula_units_Z 28
_cell_length_a 16.194756
_cell_length_b 13.220995
_cell_length_c 8.875747
_cell_angle_alpha 90.000000
_cell_angle_beta 41.941600
_cell_angle_gamma 90.000000
_cell_volume 1270.171099
_symmetry_space_group_name_H-M "P 2/M"
_symmetry_group_IT_number 10
_symmetry_cell_setting 'monoclinic'
loop_
_space_group_symop_operation_xyz
x,y,z
-x,y,-z
-x,-y,-z
x,-y,z
loop_
_atom_site_type_symbol
_atom_site_label
_atom_site_fract_x
_atom_site_fract_y
_atom_site_fract_z
Si Si1 0.104548 0.681566 0.178803
Si Si2 0.794228 0.884265 0.826995
Si Si3 0.318939 0.609270 0.104925
Si Si4 0.505316 0.109403 0.310302
Si Si5 0.827193 0.613913 0.243726
Si Si6 0.448267 0.327956 0.399247
Si Si7 0.839351 0.743572 0.504271
O O1 0.145551 0.799417 0.146311
O O2 0.207711 0.622663 0.135543
O O3 0.958606 0.684446 0.410702
O O4 0.117997 0.637755 0.993616
O O5 0.831017 0.848796 0.606891
O O6 0.831852 0.000000 0.803018
O O7 0.646667 0.878181 0.060684
O O8 0.313564 0.500000 0.183598
O O9 0.287587 0.691138 0.272053
O O10 0.446856 0.625419 0.847961
O O11 0.500000 0.104953 0.500000
O O12 0.432704 0.210773 0.369901
O O13 0.459379 0.000000 0.316279
O O14 0.864070 0.500000 0.246137
O O15 0.679651 0.615195 0.428452
O O16 0.854675 0.712043 0.310956
O O17 0.500000 0.327275 0.500000
#
# Coordination Sequence:
#
# PCOD9151612 Si02
#       7
#     4   4   4   4   4   4   4
#     4  11  22  40  64  91 121 163 217 269 303 373
#     4  10  20  41  70  98 127 164 209 264 324 378
#     4  11  21  36  60  88 117 159 210 267 319 364
#     4   9  16  31  60  92 120 151 194 253 316 370
#     4  12  26  42  63  89 128 179 215 259 323 377
#     4  11  20  38  62  90 125 154 212 274 312 378
#     4  11  25  41  57  90 132 165 210 258 313 384
#
# _framework density 22.044273
#
# number of rings (size 3 to 8) (size 9 to 14) (size 15 to 20)
#    0.000    1.286    4.286    4.286    0.000    5.714 
#    0.000    2.857    0.000    3.429    0.000    0.000 
#    0.000    0.000    0.000    0.000    0.000    0.000 
#
# Total GULP energy -156127.641388 kJ/mol
# GULP energy per Si atom -5575.987192 kJ/mol
# Density = 2.199410 g / cm^3
# Si number density = 22.044273 Si / 1000 Ang^3
#
#
#
# Elastic Constant Matrix: (Units=GPa)
#
#
# Indices 1 2 3 4 5 6 
#
# 1 39.1127 -0.1998 14.1814 0.0000 -3.0342 0.0000
# 2 -0.1998 112.4752 15.6601 0.0000 -3.8381 0.0000
# 3 14.1814 15.6601 106.4985 0.0000 -15.2514 0.0000
# 4 0.0000 0.0000 0.0000 55.9289 0.0000 -43.0041
# 5 -3.0342 -3.8381 -15.2514 0.0000 41.8664 0.0000
# 6 0.0000 0.0000 0.0000 -43.0041 0.0000 25.6985
#
#
#
# Elastic Compliance Matrix: (Units=1/GPa)
#
#
# Indices 1 2 3 4 5 6 
#
# 1 0.026918 0.000569 -0.003567 0.000000 0.000703 0.000000
# 2 0.000569 0.009094 -0.001359 0.000000 0.000380 0.000000
# 3 -0.003567 -0.001359 0.010561 0.000000 0.003464 0.000000
# 4 0.000000 0.000000 0.000000 -0.062366 0.000000 -0.104363
# 5 0.000703 0.000380 0.003464 0.000000 0.025233 0.000000
# 6 0.000000 0.000000 0.000000 -0.104363 0.000000 -0.135729
#
#
# Mechanical properties :
#
#
# Convention : Reuss Voigt Hill
#
# Bulk Modulus (GPa) = 26.41440 35.26330 30.83885
# Shear Modulus (GPa) = -47.63940 39.92841 -3.85550
#
# Velocity S-wave (km/s) = -4.65378 4.26053 -1.32392
# Velocity P-wave (km/s) = 4.10713 6.34304 3.41802
#
# Compressibility (1/GPa) = 0.03785814
#
# Stress axis : x y z
#
# Youngs Moduli (GPa) = 37.14978 109.96293 94.69102
#
# Poissons Ratio (x) = -0.06251 0.33779
# Poissons Ratio (y) = -0.02112 0.12864
# Poissons Ratio (z) = 0.13252 0.14939
#
# Static dielectric constant tensor:
#      x y z
#    x 1.882100 0.000000 0.031410 
#    y 0.000000 1.810670 0.000000 
#    z 0.031410 0.000000 1.803360 
# 
# From -- ./inp_files/32784.got.cif
#   From: 2010.05.17/outbox.cif.g08.bks.cpg/sg10_17_cif.got.tgz:32784.got - 2010.06.03 11:33:40.
