data_PCOD9151497
_publ_section_title
;
Structure prediction by ZEFSAII (Michael W. Deem and Ramdas Pophale) SiO2 
 PCOD9151497
Probable space group: P 2/M
;
_chemical_formula_sum "Si O2"
_cell_formula_units_Z 28
_cell_length_a 29.648191
_cell_length_b 8.965191
_cell_length_c 9.897119
_cell_angle_alpha 90.000000
_cell_angle_beta 32.702869
_cell_angle_gamma 90.000000
_cell_volume 1421.305396
_symmetry_space_group_name_H-M "P 2/M"
_symmetry_group_IT_number 10
_symmetry_cell_setting 'monoclinic'
loop_
_space_group_symop_operation_xyz
x,y,z
-x,y,-z
-x,-y,-z
x,-y,z
loop_
_atom_site_type_symbol
_atom_site_label
_atom_site_fract_x
_atom_site_fract_y
_atom_site_fract_z
Si Si1 0.370689 0.823114 0.695818
Si Si2 0.644546 0.677317 0.987277
Si Si3 0.131067 0.676863 0.925454
Si Si4 0.484883 0.178783 0.882545
Si Si5 0.815473 0.175957 0.475297
Si Si6 0.803600 0.676452 0.938246
Si Si7 0.936800 0.323476 0.367073
O O1 0.434811 0.789030 0.413472
O O2 0.372372 0.000000 0.715864
O O3 0.392990 0.740788 0.778854
O O4 0.278343 0.770436 0.887618
O O5 0.645405 0.500000 0.987320
O O6 0.738313 0.739785 0.739182
O O7 0.592159 0.738637 0.993126
O O8 0.142714 0.500000 0.867390
O O9 0.178789 0.772444 0.693759
O O10 0.163289 0.705410 0.994767
O O11 0.032432 0.708767 0.161396
O O12 0.470027 0.000000 0.916005
O O13 0.500000 0.221321 0.000000
O O14 0.899455 0.229938 0.338157
O O15 0.804488 0.000000 0.515485
O O16 0.782649 0.500000 0.980195
O O17 0.877266 0.705429 0.645547
O O18 0.930874 0.500000 0.348598
#
# Coordination Sequence:
#
# PCOD9151497 Si02
#       7
#     4   4   4   4   4   4   4
#     4  11  23  41  66  95 128 167 207 251 308 369
#     4  12  25  43  67  94 124 164 213 259 308 365
#     4  10  22  39  61  91 127 167 211 261 316 369
#     4  10  24  45  68  97 132 165 198 246 310 374
#     4  12  25  40  61  90 126 167 212 260 316 372
#     4  10  21  38  63  93 126 165 211 258 307 367
#     4  10  20  39  64  90 123 165 212 261 312 371
#
# _framework density 19.700199999999999
#
# number of rings (size 3 to 8) (size 9 to 14) (size 15 to 20)
#    0.000    1.286    1.429    4.286    2.000    7.714 
#    0.000    0.000    0.000    2.571    0.000    0.000 
#    0.000    0.000    0.000    0.000    0.000    0.000 
#
# Total GULP energy -156651.081971 kJ/mol
# GULP energy per Si atom -5594.681499 kJ/mol
# Density = 1.965536 g / cm^3
# Si number density = 19.700200 Si / 1000 Ang^3
#
#
#
# Elastic Constant Matrix: (Units=GPa)
#
#
# Indices 1 2 3 4 5 6 
#
# 1 112.5672 50.4690 27.7743 0.0000 11.4192 0.0000
# 2 50.4690 61.6761 34.7358 0.0000 5.7797 0.0000
# 3 27.7743 34.7358 58.7069 0.0000 5.0555 0.0000
# 4 0.0000 0.0000 0.0000 31.8908 0.0000 2.5423
# 5 11.4192 5.7797 5.0555 0.0000 34.9605 0.0000
# 6 0.0000 0.0000 0.0000 2.5423 0.0000 26.4433
#
#
#
# Elastic Compliance Matrix: (Units=1/GPa)
#
#
# Indices 1 2 3 4 5 6 
#
# 1 0.014297 -0.011643 0.000366 0.000000 -0.002798 0.000000
# 2 -0.011643 0.033933 -0.014595 0.000000 0.000304 0.000000
# 3 0.000366 -0.014595 0.025618 0.000000 -0.001411 0.000000
# 4 0.000000 0.000000 0.000000 0.031599 0.000000 -0.003038
# 5 -0.002798 0.000304 -0.001411 0.000000 0.029671 0.000000
# 6 0.000000 0.000000 0.000000 -0.003038 0.000000 0.038109
#
#
# Mechanical properties :
#
#
# Convention : Reuss Voigt Hill
#
# Bulk Modulus (GPa) = 45.24254 50.98980 48.11617
# Shear Modulus (GPa) = 21.52016 26.65699 24.08857
#
# Velocity S-wave (km/s) = 3.30871 3.68249 3.50059
# Velocity P-wave (km/s) = 6.13287 6.63476 6.38874
#
# Compressibility (1/GPa) = 0.02210309
#
# Stress axis : x y z
#
# Youngs Moduli (GPa) = 69.94304 29.46993 39.03529
#
# Poissons Ratio (x) = 0.34313 -0.01429
# Poissons Ratio (y) = 0.81437 0.56973
# Poissons Ratio (z) = -0.02560 0.43012
#
# Static dielectric constant tensor:
#      x y z
#    x 1.670770 0.000000 0.006020 
#    y 0.000000 1.659910 0.000000 
#    z 0.006020 0.000000 1.685780 
# 
# From -- ./inp_files/37081.got.cif
#   From: 2010.05.17/outbox.cif.g08.bks.cpg/sg10_19_cif.got.tgz:37081.got - 2010.06.03 11:33:40.
