data_PCOD9151809
_publ_section_title
;
Structure prediction by ZEFSAII (Michael W. Deem and Ramdas Pophale) SiO2 
 PCOD9151809
Probable space group: P 2/M
;
_chemical_formula_sum "Si O2"
_cell_formula_units_Z 32
_cell_length_a 16.206319
_cell_length_b 10.716972
_cell_length_c 16.236027
_cell_angle_alpha 90.000000
_cell_angle_beta 141.404438
_cell_angle_gamma 90.000000
_cell_volume 1759.117642
_symmetry_space_group_name_H-M "P 2/M"
_symmetry_group_IT_number 10
_symmetry_cell_setting 'monoclinic'
loop_
_space_group_symop_operation_xyz
x,y,z
-x,y,-z
-x,-y,-z
x,-y,z
loop_
_atom_site_type_symbol
_atom_site_label
_atom_site_fract_x
_atom_site_fract_y
_atom_site_fract_z
Si Si1 0.294403 0.852771 0.543841
Si Si2 0.511456 0.143662 0.157451
Si Si3 0.092628 0.719959 0.501259
Si Si4 0.650139 0.847291 0.595978
Si Si5 0.149994 0.150842 0.106209
Si Si6 0.203729 0.856287 0.959003
Si Si7 0.130737 0.636413 0.790444
Si Si8 0.331033 0.638489 0.800699
O O1 0.421388 0.829535 0.701201
O O2 0.168930 0.808357 0.497846
O O3 0.309786 0.801271 0.463775
O O4 0.284613 0.000000 0.526915
O O5 0.572104 0.247608 0.144640
O O6 0.548276 0.000000 0.162897
O O7 0.354646 0.148419 0.045338
O O8 0.208995 0.648845 0.640561
O O9 0.000000 0.780932 0.500000
O O10 0.992512 0.640355 0.368332
O O11 0.500000 0.811395 0.500000
O O12 0.751332 0.804653 0.745569
O O13 0.652439 0.000000 0.597266
O O14 0.146468 0.000000 0.111293
O O15 0.199157 0.175041 0.052162
O O16 0.000000 0.196599 0.000000
O O17 0.124141 0.753254 0.846065
O O18 0.155675 0.000000 0.911223
O O19 0.136001 0.500000 0.835103
O O20 0.260663 0.650183 0.834206
O O21 0.391170 0.500000 0.840111
#
# Coordination Sequence:
#
# PCOD9151809 Si02
#       8
#     4   4   4   4   4   4   4   4
#     4   9  17  28  48  76 105 134 169 213 260 311
#     4   9  18  33  50  74 108 138 166 208 263 309
#     4   9  18  32  50  73 101 132 169 214 260 306
#     4   9  16  27  46  72 101 134 173 217 262 308
#     4   9  18  31  48  72 103 135 170 213 260 309
#     4  10  21  35  52  74 104 139 171 209 259 313
#     4  10  21  35  52  75 103 136 176 216 254 304
#     4   9  18  34  55  76  99 133 175 216 256 303
#
# _framework density 18.190939
#
# number of rings (size 3 to 8) (size 9 to 14) (size 15 to 20)
#    0.000    2.750    0.000    1.125    1.750    6.750 
#    0.000    5.000    0.000    0.375    0.000    0.000 
#    0.000    6.750    0.000    0.000    0.000    0.000 
#
# Total GULP energy -178303.704489 kJ/mol
# GULP energy per Si atom -5571.990765 kJ/mol
# Density = 1.814954 g / cm^3
# Si number density = 18.190939 Si / 1000 Ang^3
#
#
#
# Elastic Constant Matrix: (Units=GPa)
#
#
# Indices 1 2 3 4 5 6 
#
# 1 62.6814 15.0489 35.8750 0.0000 -9.2445 0.0000
# 2 15.0489 47.3068 36.3561 0.0000 -14.0537 0.0000
# 3 35.8750 36.3561 89.5982 0.0000 -5.0646 0.0000
# 4 0.0000 0.0000 0.0000 -2.9020 0.0000 -12.9164
# 5 -9.2445 -14.0537 -5.0646 0.0000 27.1551 0.0000
# 6 0.0000 0.0000 0.0000 -12.9164 0.0000 -11.7804
#
#
#
# Elastic Compliance Matrix: (Units=1/GPa)
#
#
# Indices 1 2 3 4 5 6 
#
# 1 0.021690 0.002178 -0.009184 0.000000 0.006798 0.000000
# 2 0.002178 0.036988 -0.014914 0.000000 0.017102 0.000000
# 3 -0.009184 -0.014914 0.020493 0.000000 -0.007023 0.000000
# 4 0.000000 0.000000 0.000000 0.088810 0.000000 -0.097375
# 5 0.006798 0.017102 -0.007023 0.000000 0.046681 0.000000
# 6 0.000000 0.000000 0.000000 -0.097375 0.000000 0.021878
#
#
# Mechanical properties :
#
#
# Convention : Reuss Voigt Hill
#
# Bulk Modulus (GPa) = 28.30410 41.57182 34.93796
# Shear Modulus (GPa) = 17.11411 9.98164 13.54788
#
# Velocity S-wave (km/s) = 3.07058 2.34501 2.73199
# Velocity P-wave (km/s) = 5.30703 5.49861 5.40367
#
# Compressibility (1/GPa) = 0.03533057
#
# Stress axis : x y z
#
# Youngs Moduli (GPa) = 46.10470 27.03579 48.79782
#
# Poissons Ratio (x) = -0.05888 0.44816
# Poissons Ratio (y) = -0.10040 0.72776
# Poissons Ratio (z) = 0.42342 0.40321
#
# Static dielectric constant tensor:
#      x y z
#    x 1.625460 0.000000 0.003750 
#    y 0.000000 1.611120 0.000000 
#    z 0.003750 0.000000 1.656240 
# 
# From -- ./inp_files/67385.got.cif
#   From: 2010.05.17/outbox.cif.g08.bks.cpg/sg10_34_cif.got.tgz:67385.got - 2010.06.03 11:33:40.
