data_PCOD9151589
_publ_section_title
;
Structure prediction by ZEFSAII (Michael W. Deem and Ramdas Pophale) SiO2 
 PCOD9151589
Probable space group: P 2/M
;
_chemical_formula_sum "Si O2"
_cell_formula_units_Z 32
_cell_length_a 11.064394
_cell_length_b 17.493077
_cell_length_c 14.067178
_cell_angle_alpha 90.000000
_cell_angle_beta 147.326668
_cell_angle_gamma 90.000000
_cell_volume 1469.849236
_symmetry_space_group_name_H-M "P 2/M"
_symmetry_group_IT_number 10
_symmetry_cell_setting 'monoclinic'
loop_
_space_group_symop_operation_xyz
x,y,z
-x,y,-z
-x,-y,-z
x,-y,z
loop_
_atom_site_type_symbol
_atom_site_label
_atom_site_fract_x
_atom_site_fract_y
_atom_site_fract_z
Si Si1 0.837848 0.590396 0.629564
Si Si2 0.940119 0.316264 0.069767
Si Si3 0.282586 0.913251 0.289314
Si Si4 0.863454 0.153252 0.116811
Si Si5 0.437601 0.334839 0.711996
Si Si6 0.502899 0.844148 0.737164
Si Si7 0.722860 0.409499 0.208292
Si Si8 0.968146 0.089210 0.588958
O O1 0.810425 0.500000 0.622786
O O2 0.640571 0.626057 0.436646
O O3 0.880625 0.631596 0.757717
O O4 0.061712 0.604928 0.714312
O O5 0.914226 0.238605 0.113511
O O6 0.694658 0.354660 0.906517
O O7 0.000000 0.301318 0.000000
O O8 0.500000 0.903492 0.500000
O O9 0.310640 0.855557 0.220614
O O10 0.058804 0.898062 0.199994
O O11 0.280627 0.000000 0.251477
O O12 0.888971 0.141143 0.245520
O O13 0.622178 0.132565 0.914107
O O14 0.427894 0.243436 0.693836
O O15 0.288609 0.363100 0.701560
O O16 0.294549 0.895485 0.568809
O O17 0.720868 0.500000 0.230603
O O18 0.500000 0.392140 0.000000
O O19 0.000000 0.108518 0.500000
O O20 0.021242 0.000000 0.639504
#
# Coordination Sequence:
#
# PCOD9151589 Si02
#       8
#     4   4   4   4   4   4   4   4
#     4  11  24  41  68 100 129 175 225 271 329 390
#     4  11  25  45  65  92 135 175 214 270 330 390
#     4  11  22  39  68  99 127 164 213 274 332 379
#     4  11  23  43  68  95 126 170 218 269 327 388
#     4  11  23  41  65  98 132 172 215 274 330 391
#     4  11  24  41  64  98 130 170 218 268 328 394
#     4  10  20  40  69  98 131 169 217 276 329 378
#     4  11  25  44  63  90 131 174 213 263 324 390
#
# _framework density 21.77094
#
# number of rings (size 3 to 8) (size 9 to 14) (size 15 to 20)
#    0.000    1.125    2.500    4.125    0.000    7.250 
#    0.000    1.875    0.000    0.000    0.000    0.000 
#    0.000    0.000    0.000    0.000    0.000    0.000 
#
# Total GULP energy -179067.506121 kJ/mol
# GULP energy per Si atom -5595.859566 kJ/mol
# Density = 2.172139 g / cm^3
# Si number density = 21.770940 Si / 1000 Ang^3
#
#
#
# Elastic Constant Matrix: (Units=GPa)
#
#
# Indices 1 2 3 4 5 6 
#
# 1 72.8149 33.5907 17.8238 0.0000 -35.3056 0.0000
# 2 33.5907 75.8686 50.2613 0.0000 -32.6981 0.0000
# 3 17.8238 50.2613 118.5998 0.0000 -37.8309 0.0000
# 4 0.0000 0.0000 0.0000 57.0538 0.0000 6.0349
# 5 -35.3056 -32.6981 -37.8309 0.0000 36.7558 0.0000
# 6 0.0000 0.0000 0.0000 6.0349 0.0000 36.8033
#
#
#
# Elastic Compliance Matrix: (Units=1/GPa)
#
#
# Indices 1 2 3 4 5 6 
#
# 1 0.029624 -0.004132 0.007746 0.000000 0.032752 0.000000
# 2 -0.004132 0.023661 -0.005893 0.000000 0.011015 0.000000
# 3 0.007746 -0.005893 0.015582 0.000000 0.018236 0.000000
# 4 0.000000 0.000000 0.000000 0.017837 0.000000 -0.002925
# 5 0.032752 0.011015 0.018236 0.000000 0.087235 0.000000
# 6 0.000000 0.000000 0.000000 -0.002925 0.000000 0.027651
#
#
# Mechanical properties :
#
#
# Convention : Reuss Voigt Hill
#
# Bulk Modulus (GPa) = 15.54974 52.29277 33.92125
# Shear Modulus (GPa) = 21.96997 37.16309 29.56653
#
# Velocity S-wave (km/s) = 3.18015 4.13607 3.68920
# Velocity P-wave (km/s) = 4.54339 6.84698 5.81049
#
# Compressibility (1/GPa) = 0.06430975
#
# Stress axis : x y z
#
# Youngs Moduli (GPa) = 33.75650 42.26304 64.17748
#
# Poissons Ratio (x) = 0.17464 -0.49714
# Poissons Ratio (y) = 0.13949 0.37819
# Poissons Ratio (z) = -0.26149 0.24905
#
# Static dielectric constant tensor:
#      x y z
#    x 1.834200 0.000000 0.004920 
#    y 0.000000 1.756070 0.000000 
#    z 0.004920 0.000000 1.801930 
# 
# From -- ./inp_files/65418.got.cif
#   From: 2010.05.17/outbox.cif.g08.bks.cpg/sg10_33_cif.got.tgz:65418.got - 2010.06.03 11:33:40.
