data_PCOD9151359
_publ_section_title
;
Structure prediction by ZEFSAII (Michael W. Deem and Ramdas Pophale) SiO2 
 PCOD9151359
Probable space group: P 2/M
;
_chemical_formula_sum "Si O2"
_cell_formula_units_Z 32
_cell_length_a 11.100963
_cell_length_b 13.942330
_cell_length_c 17.504166
_cell_angle_alpha 90.000000
_cell_angle_beta 34.481408
_cell_angle_gamma 90.000000
_cell_volume 1533.770374
_symmetry_space_group_name_H-M "P 2/M"
_symmetry_group_IT_number 10
_symmetry_cell_setting 'monoclinic'
loop_
_space_group_symop_operation_xyz
x,y,z
-x,y,-z
-x,-y,-z
x,-y,z
loop_
_atom_site_type_symbol
_atom_site_label
_atom_site_fract_x
_atom_site_fract_y
_atom_site_fract_z
Si Si1 0.991491 0.112394 0.091689
Si Si2 0.719743 0.609703 0.086005
Si Si3 0.068108 0.285819 0.644504
Si Si4 0.901468 0.612260 0.211227
Si Si5 0.752510 0.114763 0.362308
Si Si6 0.590466 0.308878 0.866030
Si Si7 0.464031 0.386920 0.362994
Si Si8 0.451172 0.104212 0.933423
O O1 0.821730 0.150914 0.241603
O O2 0.933995 0.000000 0.111700
O O3 0.209699 0.113072 0.027770
O O4 0.000000 0.150811 0.000000
O O5 0.761817 0.500000 0.088778
O O6 0.553378 0.616219 0.103784
O O7 0.588000 0.653571 0.224379
O O8 0.942237 0.650047 0.937684
O O9 0.055687 0.336031 0.733109
O O10 0.118526 0.175404 0.641443
O O11 0.261078 0.327924 0.494834
O O12 0.842445 0.315684 0.727759
O O13 0.958855 0.500000 0.187908
O O14 0.651528 0.616749 0.326854
O O15 0.500000 0.130003 0.500000
O O16 0.795623 0.000000 0.346414
O O17 0.549914 0.202565 0.854096
O O18 0.500000 0.310094 0.000000
O O19 0.406983 0.500000 0.381326
O O20 0.529217 0.000000 0.865097
O O21 0.500000 0.103738 0.000000
#
# Coordination Sequence:
#
# PCOD9151359 Si02
#       8
#     4   4   4   4   4   4   4   4
#     4   9  18  35  60  90 118 149 200 264 315 357
#     4  10  22  40  62  89 121 158 197 245 307 365
#     4  12  23  38  60  89 122 158 206 250 294 358
#     4  10  20  38  64  91 119 151 194 248 304 364
#     4  10  21  38  58  85 124 165 199 240 301 367
#     4  11  22  38  58  85 120 159 207 250 296 360
#     4  10  22  41  64  90 121 157 198 249 310 369
#     4   9  18  35  59  87 119 160 207 256 306 360
#
# _framework density 20.863619
#
# number of rings (size 3 to 8) (size 9 to 14) (size 15 to 20)
#    0.000    1.875    1.250    3.375    0.000    5.750 
#    4.500    1.250    0.000    0.000    0.000    1.750 
#    0.000    0.000    0.000    0.000    0.000    0.000 
#
# Total GULP energy -178396.124225 kJ/mol
# GULP energy per Si atom -5574.878882 kJ/mol
# Density = 2.081613 g / cm^3
# Si number density = 20.863619 Si / 1000 Ang^3
#
#
#
# Elastic Constant Matrix: (Units=GPa)
#
#
# Indices 1 2 3 4 5 6 
#
# 1 54.4325 21.0991 27.9573 0.0000 -7.0528 0.0000
# 2 21.0991 13.5032 14.0242 0.0000 -7.6343 0.0000
# 3 27.9573 14.0242 147.0131 0.0000 -11.3898 0.0000
# 4 0.0000 0.0000 0.0000 15.5876 0.0000 4.7052
# 5 -7.0528 -7.6343 -11.3898 0.0000 24.1401 0.0000
# 6 0.0000 0.0000 0.0000 4.7052 0.0000 18.2818
#
#
#
# Elastic Compliance Matrix: (Units=1/GPa)
#
#
# Indices 1 2 3 4 5 6 
#
# 1 0.050239 -0.083017 -0.002628 0.000000 -0.012816 0.000000
# 2 -0.083017 0.234059 -0.002787 0.000000 0.048452 0.000000
# 3 -0.002628 -0.002787 0.007722 0.000000 0.001994 0.000000
# 4 0.000000 0.000000 0.000000 0.069557 0.000000 -0.017902
# 5 -0.012816 0.048452 0.001994 0.000000 0.053944 0.000000
# 6 0.000000 0.000000 0.000000 -0.017902 0.000000 0.059307
#
#
# Mechanical properties :
#
#
# Convention : Reuss Voigt Hill
#
# Bulk Modulus (GPa) = 8.68368 37.90110 23.29239
# Shear Modulus (GPa) = 7.24556 21.72645 14.48600
#
# Velocity S-wave (km/s) = 1.86557 3.23050 2.63785
# Velocity P-wave (km/s) = 2.96844 5.66749 4.52394
#
# Compressibility (1/GPa) = 0.11515851
#
# Stress axis : x y z
#
# Youngs Moduli (GPa) = 19.90472 4.27242 129.49741
#
# Poissons Ratio (x) = 0.35468 0.34026
# Poissons Ratio (y) = 1.65243 0.36089
# Poissons Ratio (z) = 0.05230 0.01191
#
# Static dielectric constant tensor:
#      x y z
#    x 1.897100 0.000000 -0.022650 
#    y 0.000000 1.800320 0.000000 
#    z -0.022650 0.000000 1.750770 
# 
# From -- ./inp_files/77003.got.cif
#   From: 2010.05.17/outbox.cif.g08.bks.cpg/sg10_39_cif.got.tgz:77003.got - 2010.06.03 11:33:40.
