data_PCOD9151465
_publ_section_title
;
Structure prediction by ZEFSAII (Michael W. Deem and Ramdas Pophale) SiO2 
 PCOD9151465
Probable space group: P 2/M
;
_chemical_formula_sum "Si O2"
_cell_formula_units_Z 24
_cell_length_a 10.232066
_cell_length_b 13.294309
_cell_length_c 13.055412
_cell_angle_alpha 90.000000
_cell_angle_beta 146.537306
_cell_angle_gamma 90.000000
_cell_volume 979.223105
_symmetry_space_group_name_H-M "P 2/M"
_symmetry_group_IT_number 10
_symmetry_cell_setting 'monoclinic'
loop_
_space_group_symop_operation_xyz
x,y,z
-x,y,-z
-x,-y,-z
x,-y,z
loop_
_atom_site_type_symbol
_atom_site_label
_atom_site_fract_x
_atom_site_fract_y
_atom_site_fract_z
Si Si1 0.101414 0.109437 0.350934
Si Si2 0.334106 0.391130 0.690441
Si Si3 0.856661 0.331215 0.998314
Si Si4 0.279181 0.109812 0.084516
Si Si5 0.281867 0.316492 0.430700
Si Si6 0.311764 0.185584 0.783810
O O1 0.923713 0.133920 0.328147
O O2 0.290109 0.197638 0.462166
O O3 0.209887 0.000000 0.431756
O O4 0.922281 0.107415 0.136376
O O5 0.258681 0.500000 0.679524
O O6 0.274064 0.375447 0.531732
O O7 0.252849 0.295635 0.702507
O O8 0.619126 0.383977 0.877577
O O9 0.036562 0.326302 0.209749
O O10 0.773970 0.219788 0.902917
O O11 0.000000 0.380341 0.000000
O O12 0.536413 0.123141 0.199683
O O13 0.264786 0.000000 0.127810
O O14 0.500000 0.345292 0.500000
O O15 0.500000 0.197277 0.000000
#
# Coordination Sequence:
#
# PCOD9151465 Si02
#       6
#     4   4   4   4   4   4
#     4   9  18  35  62  91 125 168 203 243 304 371
#     4  11  25  43  65  92 121 161 211 261 320 371
#     4  10  20  39  62  88 122 161 203 254 305 360
#     4   8  15  29  56  91 123 158 199 243 300 368
#     4  11  23  42  63  90 132 165 205 259 305 361
#     4   9  18  37  63  92 127 161 202 260 308 366
#
# _framework density 24.509224
#
# number of rings (size 3 to 8) (size 9 to 14) (size 15 to 20)
#    0.000    2.333    1.667    1.500    0.000    5.000 
#    0.000    6.667    0.000    0.000    0.000    0.000 
#    0.000    0.000    0.000    0.000    0.000    0.000 
#
# Total GULP energy -134297.379396 kJ/mol
# GULP energy per Si atom -5595.724141 kJ/mol
# Density = 2.445344 g / cm^3
# Si number density = 24.509224 Si / 1000 Ang^3
#
#
#
# Elastic Constant Matrix: (Units=GPa)
#
#
# Indices 1 2 3 4 5 6 
#
# 1 37.5623 -19.1841 6.3363 0.0000 10.8252 0.0000
# 2 -19.1841 120.2443 6.1486 0.0000 -2.5620 0.0000
# 3 6.3363 6.1486 126.8968 0.0000 3.8903 0.0000
# 4 0.0000 0.0000 0.0000 -42.9253 0.0000 23.7333
# 5 10.8252 -2.5620 3.8903 0.0000 33.1953 0.0000
# 6 0.0000 0.0000 0.0000 23.7333 0.0000 -19.0580
#
#
#
# Elastic Compliance Matrix: (Units=1/GPa)
#
#
# Indices 1 2 3 4 5 6 
#
# 1 0.032324 0.005024 -0.001552 0.000000 -0.009971 0.000000
# 2 0.005024 0.009134 -0.000667 0.000000 -0.000855 0.000000
# 3 -0.001552 -0.000667 0.008005 0.000000 -0.000484 0.000000
# 4 0.000000 0.000000 0.000000 -0.074795 0.000000 -0.093144
# 5 -0.009971 -0.000855 -0.000484 0.000000 0.033367 0.000000
# 6 0.000000 0.000000 0.000000 -0.093144 0.000000 -0.168465
#
#
# Mechanical properties :
#
#
# Convention : Reuss Voigt Hill
#
# Bulk Modulus (GPa) = 18.15786 30.14498 24.15142
# Shear Modulus (GPa) = -33.85622 13.66925 -10.09348
#
# Velocity S-wave (km/s) = -3.72071 2.36417 -2.03155
# Velocity P-wave (km/s) = 3.32168 4.44731 2.09105
#
# Compressibility (1/GPa) = 0.05507256
#
# Stress axis : x y z
#
# Youngs Moduli (GPa) = 30.93702 109.48311 124.92108
#
# Poissons Ratio (x) = -0.55003 0.19384
# Poissons Ratio (y) = -0.15542 0.08335
# Poissons Ratio (z) = 0.04801 0.07305
#
# Static dielectric constant tensor:
#      x y z
#    x 1.917700 0.000000 -0.034700 
#    y 0.000000 1.954490 0.000000 
#    z -0.034700 0.000000 1.940370 
# 
# From -- ./inp_files/65150.got.cif
#   From: 2010.05.17/outbox.cif.g08.bks.cpg/sg10_33_cif.got.tgz:65150.got - 2010.06.03 11:33:40.
