data_PCOD9151529
_publ_section_title
;
Structure prediction by ZEFSAII (Michael W. Deem and Ramdas Pophale) SiO2 
 PCOD9151529
Probable space group: P 2/M
;
_chemical_formula_sum "Si O2"
_cell_formula_units_Z 24
_cell_length_a 9.994656
_cell_length_b 10.474512
_cell_length_c 11.549070
_cell_angle_alpha 90.000000
_cell_angle_beta 83.879535
_cell_angle_gamma 90.000000
_cell_volume 1202.170509
_symmetry_space_group_name_H-M "P 2/M"
_symmetry_group_IT_number 10
_symmetry_cell_setting 'monoclinic'
loop_
_space_group_symop_operation_xyz
x,y,z
-x,y,-z
-x,-y,-z
x,-y,z
loop_
_atom_site_type_symbol
_atom_site_label
_atom_site_fract_x
_atom_site_fract_y
_atom_site_fract_z
Si Si1 0.870576 0.000000 0.094548
Si Si2 0.161953 0.654800 0.479413
Si Si3 0.512451 0.645003 0.126556
Si Si4 0.744531 0.754136 0.767519
Si Si5 0.642966 0.000000 0.919800
Si Si6 0.031426 0.734238 0.862342
Si Si7 0.275616 0.356770 0.714897
O O1 0.890846 0.869610 0.161684
O O2 0.000000 0.000000 0.000000
O O3 0.747203 0.000000 0.017900
O O4 0.180424 0.500000 0.459728
O O5 0.225284 0.738402 0.370764
O O6 0.233217 0.693753 0.593306
O O7 0.000000 0.674254 0.500000
O O8 0.563033 0.500000 0.103188
O O9 0.363738 0.646703 0.190944
O O10 0.613894 0.706461 0.210435
O O11 0.500000 0.704660 0.000000
O O12 0.888828 0.735737 0.813376
O O13 0.677307 0.879701 0.832389
O O14 0.500000 0.000000 0.000000
O O15 0.137129 0.637539 0.799300
O O16 0.000000 0.713708 0.000000
O O17 0.327904 0.500000 0.686922
#
# Coordination Sequence:
#
# PCOD9151529 Si02
#       7
#     2   4   4   4   2   4   4
#     4  10  20  40  59  87 120 156 205 254 310 382
#     4  10  21  40  64  92 126 169 218 262 308 369
#     4  10  22  38  58  91 129 162 205 261 323 387
#     4  12  22  38  63  91 121 166 213 260 311 375
#     4  12  26  42  64  93 130 167 209 263 332 389
#     4  11  20  35  61  89 121 158 209 263 316 373
#     4  10  22  39  60  90 129 169 205 255 320 377
#
# _framework density 19.963889999999999
#
# number of rings (size 3 to 8) (size 9 to 14) (size 15 to 20)
#    0.000    1.333    5.000    2.000    2.333    1.667 
#    0.000    3.750    0.000    1.000    0.000    0.000 
#    0.000    0.000    0.000    0.000    0.000    0.000 
#
# Total GULP energy -133713.780482 kJ/mol
# GULP energy per Si atom -5571.407520 kJ/mol
# Density = 1.991845 g / cm^3
# Si number density = 19.963890 Si / 1000 Ang^3
#
#
#
# Elastic Constant Matrix: (Units=GPa)
#
#
# Indices 1 2 3 4 5 6 
#
# 1 132.2817 36.7704 85.3679 0.0000 17.1860 0.0000
# 2 36.7704 50.3620 18.2579 0.0000 3.2373 0.0000
# 3 85.3679 18.2579 181.2935 0.0000 27.4018 0.0000
# 4 0.0000 0.0000 0.0000 3.3159 0.0000 -58.8780
# 5 17.1860 3.2373 27.4018 0.0000 41.6355 0.0000
# 6 0.0000 0.0000 0.0000 -58.8780 0.0000 -34.1159
#
#
#
# Elastic Compliance Matrix: (Units=1/GPa)
#
#
# Indices 1 2 3 4 5 6 
#
# 1 0.013281 -0.007697 -0.005264 0.000000 -0.001419 0.000000
# 2 -0.007697 0.025072 0.001015 0.000000 0.000560 0.000000
# 3 -0.005264 0.001015 0.008413 0.000000 -0.003443 0.000000
# 4 0.000000 0.000000 0.000000 0.009530 0.000000 -0.016448
# 5 -0.001419 0.000560 -0.003443 0.000000 0.026826 0.000000
# 6 0.000000 0.000000 0.000000 -0.016448 0.000000 -0.000926
#
#
# Mechanical properties :
#
#
# Convention : Reuss Voigt Hill
#
# Bulk Modulus (GPa) = 43.71924 71.63660 57.67792
# Shear Modulus (GPa) = 43.97074 17.06985 30.52030
#
# Velocity S-wave (km/s) = 4.69819 2.92727 3.91420
# Velocity P-wave (km/s) = 7.16780 6.88376 7.02722
#
# Compressibility (1/GPa) = 0.02287322
#
# Stress axis : x y z
#
# Youngs Moduli (GPa) = 75.29796 39.88505 118.86641
#
# Poissons Ratio (x) = 0.30699 0.62571
# Poissons Ratio (y) = 0.57956 -0.12062
# Poissons Ratio (z) = 0.39637 -0.04047
#
# Static dielectric constant tensor:
#      x y z
#    x 1.696040 0.000000 0.025930 
#    y 0.000000 1.830730 0.000000 
#    z 0.025930 0.000000 1.708490 
# 
# From -- ./inp_files/42042.got.cif
#   From: 2010.05.17/outbox.cif.g08.bks.cpg/sg10_22_cif.got.tgz:42042.got - 2010.06.03 11:33:40.
