data_PCOD9151600
_publ_section_title
;
Structure prediction by ZEFSAII (Michael W. Deem and Ramdas Pophale) SiO2 
 PCOD9151600
Probable space group: P 2/M
;
_chemical_formula_sum "Si O2"
_cell_formula_units_Z 26
_cell_length_a 14.069868
_cell_length_b 7.632974
_cell_length_c 9.692870
_cell_angle_alpha 90.000000
_cell_angle_beta 85.932938
_cell_angle_gamma 90.000000
_cell_volume 1038.343718
_symmetry_space_group_name_H-M "P 2/M"
_symmetry_group_IT_number 10
_symmetry_cell_setting 'monoclinic'
loop_
_space_group_symop_operation_xyz
x,y,z
-x,y,-z
-x,-y,-z
x,-y,z
loop_
_atom_site_type_symbol
_atom_site_label
_atom_site_fract_x
_atom_site_fract_y
_atom_site_fract_z
Si Si1 0.176592 0.210856 0.345552
Si Si2 0.880055 0.705716 0.353482
Si Si3 0.957203 0.799923 0.865952
Si Si4 0.602977 0.500000 0.800121
Si Si5 0.605960 0.797812 0.608874
Si Si6 0.385909 0.189157 0.996585
Si Si7 0.663322 0.289356 0.308474
O O1 0.114469 0.268713 0.482895
O O2 0.284320 0.265338 0.368141
O O3 0.131975 0.278894 0.207894
O O4 0.175837 0.000000 0.342693
O O5 0.889142 0.500000 0.321756
O O6 0.959179 0.801165 0.255986
O O7 0.773561 0.765060 0.323926
O O8 0.929904 0.000000 0.905605
O O9 0.000000 0.716894 0.000000
O O10 0.554398 0.653713 0.705487
O O11 0.641591 0.347414 0.902781
O O12 0.602724 0.784625 0.443659
O O13 0.591516 0.000000 0.650554
O O14 0.362573 0.224319 0.840146
O O15 0.345197 0.000000 0.042689
O O16 0.500000 0.183470 0.000000
O O17 0.660909 0.500000 0.315797
#
# Coordination Sequence:
#
# PCOD9151600 Si02
#       7
#     4   4   4   2   4   4   4
#     4   9  19  36  57  81 112 157 208 251 301 362
#     4  10  21  35  57  87 110 150 204 253 305 361
#     4  10  21  36  52  77 116 157 199 252 311 362
#     4  12  23  40  65  98 134 164 202 258 313 374
#     4  10  21  39  64  95 128 168 214 264 315 366
#     4  11  25  45  69  97 129 169 210 248 306 380
#     4  10  20  41  67  92 125 165 213 262 314 373
#
# _framework density 25.039876
#
# number of rings (size 3 to 8) (size 9 to 14) (size 15 to 20)
#    0.000    1.846    1.538    2.077    1.077    5.846 
#    0.000    3.077    0.000    2.769    0.000    0.000 
#    0.000    0.000    0.000    0.000    0.000    0.000 
#
# Total GULP energy -145033.255386 kJ/mol
# GULP energy per Si atom -5578.202130 kJ/mol
# Density = 2.498288 g / cm^3
# Si number density = 25.039876 Si / 1000 Ang^3
#
#
#
# Elastic Constant Matrix: (Units=GPa)
#
#
# Indices 1 2 3 4 5 6 
#
# 1 60.1075 2.7081 19.0864 0.0000 14.3731 0.0000
# 2 2.7081 137.7598 41.9045 0.0000 -5.5274 0.0000
# 3 19.0864 41.9045 195.5023 0.0000 40.4125 0.0000
# 4 0.0000 0.0000 0.0000 33.6055 0.0000 0.1291
# 5 14.3731 -5.5274 40.4125 0.0000 44.7037 0.0000
# 6 0.0000 0.0000 0.0000 0.1291 0.0000 -6.2745
#
#
#
# Elastic Compliance Matrix: (Units=1/GPa)
#
#
# Indices 1 2 3 4 5 6 
#
# 1 0.018118 -0.000395 -0.000578 0.000000 -0.005352 0.000000
# 2 -0.000395 0.008123 -0.002381 0.000000 0.003284 0.000000
# 3 -0.000578 -0.002381 0.007015 0.000000 -0.006451 0.000000
# 4 0.000000 0.000000 0.000000 0.029755 0.000000 0.000612
# 5 -0.005352 0.003284 -0.006451 0.000000 0.030328 0.000000
# 6 0.000000 0.000000 0.000000 0.000612 0.000000 -0.159364
#
#
# Mechanical properties :
#
#
# Convention : Reuss Voigt Hill
#
# Bulk Modulus (GPa) = 37.66857 57.86306 47.76582
# Shear Modulus (GPa) = -99.07379 36.38500 -31.34440
#
# Velocity S-wave (km/s) = -6.29701 3.81607 -3.54189
# Velocity P-wave (km/s) = 6.14765 6.52495 1.54619
#
# Compressibility (1/GPa) = 0.02654733
#
# Stress axis : x y z
#
# Youngs Moduli (GPa) = 55.19414 123.10821 142.54617
#
# Poissons Ratio (x) = 0.04864 0.08237
# Poissons Ratio (y) = 0.02181 0.33946
# Poissons Ratio (z) = 0.03189 0.29317
#
# Static dielectric constant tensor:
#      x y z
#    x 2.091840 0.000000 0.007140 
#    y 0.000000 1.973560 0.000000 
#    z 0.007140 0.000000 1.970590 
# 
# From -- ./inp_files/31663.got.cif
#   From: 2010.05.17/outbox.cif.g08.bks.cpg/sg10_16_cif.got.tgz:31663.got - 2010.06.03 11:33:40.
