data_PCOD9151879
_publ_section_title
;
Structure prediction by ZEFSAII (Michael W. Deem and Ramdas Pophale) SiO2 
 PCOD9151879
Probable space group: P 2/M
;
_chemical_formula_sum "Si O2"
_cell_formula_units_Z 26
_cell_length_a 11.448930
_cell_length_b 10.139943
_cell_length_c 14.633237
_cell_angle_alpha 90.000000
_cell_angle_beta 122.818294
_cell_angle_gamma 90.000000
_cell_volume 1427.655937
_symmetry_space_group_name_H-M "P 2/M"
_symmetry_group_IT_number 10
_symmetry_cell_setting 'monoclinic'
loop_
_space_group_symop_operation_xyz
x,y,z
-x,y,-z
-x,-y,-z
x,-y,z
loop_
_atom_site_type_symbol
_atom_site_label
_atom_site_fract_x
_atom_site_fract_y
_atom_site_fract_z
Si Si1 0.969569 0.157217 0.338785
Si Si2 0.774785 0.841996 0.414568
Si Si3 0.387715 0.652414 0.028298
Si Si4 0.000000 0.751583 0.000000
Si Si5 0.503303 0.159971 0.605917
Si Si6 0.307831 0.152160 0.151977
Si Si7 0.930798 0.354339 0.163779
O O1 0.837998 0.203570 0.344708
O O2 0.979420 0.239848 0.251336
O O3 0.105410 0.177809 0.459016
O O4 0.957998 0.000000 0.316620
O O5 0.629222 0.791439 0.391592
O O6 0.760686 0.000000 0.398116
O O7 0.414160 0.500000 0.067685
O O8 0.235472 0.655443 0.918065
O O9 0.500000 0.690447 0.000000
O O10 0.380678 0.750821 0.110665
O O11 0.010827 0.665916 0.913057
O O12 0.857357 0.832843 0.930980
O O13 0.500000 0.208429 0.500000
O O14 0.640200 0.187462 0.723921
O O15 0.491998 0.000000 0.595688
O O16 0.347873 0.000000 0.152089
O O17 0.966871 0.500000 0.213837
#
# Coordination Sequence:
#
# PCOD9151879 Si02
#       7
#     4   4   4   2   4   4   4
#     4   9  18  32  55  81 106 139 174 220 270 317
#     4   8  16  32  50  76 111 142 174 209 267 333
#     4   9  20  38  56  76 107 147 180 213 270 336
#     4  10  22  38  54  76 112 148 180 224 274 330
#     4   9  18  31  51  79 111 143 175 215 269 326
#     4  10  21  35  56  85 110 138 180 232 272 310
#     4  10  21  36  56  79 103 141 186 223 268 324
#
# _framework density 18.211670999999999
#
# number of rings (size 3 to 8) (size 9 to 14) (size 15 to 20)
#    0.000    2.769    0.000    1.385    4.308    4.000 
#    0.000    1.538    0.000    1.385    0.000    0.000 
#    0.000    0.000    0.000    0.000    0.000    0.000 
#
# Total GULP energy -144871.399443 kJ/mol
# GULP energy per Si atom -5571.976902 kJ/mol
# Density = 1.817022 g / cm^3
# Si number density = 18.211671 Si / 1000 Ang^3
#
#
#
# Elastic Constant Matrix: (Units=GPa)
#
#
# Indices 1 2 3 4 5 6 
#
# 1 87.9208 23.2631 34.8241 0.0000 -12.2238 0.0000
# 2 23.2631 61.7622 44.5262 0.0000 -13.3744 0.0000
# 3 34.8241 44.5262 88.1449 0.0000 -19.9797 0.0000
# 4 0.0000 0.0000 0.0000 -6.2873 0.0000 0.7196
# 5 -12.2238 -13.3744 -19.9797 0.0000 19.2160 0.0000
# 6 0.0000 0.0000 0.0000 0.7196 0.0000 3.8104
#
#
#
# Elastic Compliance Matrix: (Units=1/GPa)
#
#
# Indices 1 2 3 4 5 6 
#
# 1 0.013829 -0.001688 -0.003772 0.000000 0.003700 0.000000
# 2 -0.001688 0.026155 -0.011334 0.000000 0.005346 0.000000
# 3 -0.003772 -0.011334 0.021232 0.000000 0.011789 0.000000
# 4 0.000000 0.000000 0.000000 -0.155686 0.000000 0.029400
# 5 0.003700 0.005346 0.011789 0.000000 0.070372 0.000000
# 6 0.000000 0.000000 0.000000 0.029400 0.000000 0.256891
#
#
# Mechanical properties :
#
#
# Convention : Reuss Voigt Hill
#
# Bulk Modulus (GPa) = 36.19349 49.22831 42.71090
# Shear Modulus (GPa) = 18.14288 12.36211 15.25249
#
# Velocity S-wave (km/s) = 3.15972 2.60821 2.89712
# Velocity P-wave (km/s) = 5.76444 6.01334 5.89020
#
# Compressibility (1/GPa) = 0.02762928
#
# Stress axis : x y z
#
# Youngs Moduli (GPa) = 72.31160 38.23300 47.09775
#
# Poissons Ratio (x) = 0.06454 0.17766
# Poissons Ratio (y) = 0.12207 0.53378
# Poissons Ratio (z) = 0.27277 0.43332
#
# Static dielectric constant tensor:
#      x y z
#    x 1.652880 0.000000 0.006560 
#    y 0.000000 1.604560 0.000000 
#    z 0.006560 0.000000 1.619960 
# 
# From -- ./inp_files/63563.got.cif
#   From: 2010.05.17/outbox.cif.g08.bks.cpg/sg10_32_cif.got.tgz:63563.got - 2010.06.03 11:33:40.
