data_PCOD9151516
_publ_section_title
;
Structure prediction by ZEFSAII (Michael W. Deem and Ramdas Pophale) SiO2 
 PCOD9151516
Probable space group: P 2/M
;
_chemical_formula_sum "Si O2"
_cell_formula_units_Z 24
_cell_length_a 19.569534
_cell_length_b 13.688306
_cell_length_c 11.982058
_cell_angle_alpha 90.000000
_cell_angle_beta 22.420761
_cell_angle_gamma 90.000000
_cell_volume 1224.188787
_symmetry_space_group_name_H-M "P 2/M"
_symmetry_group_IT_number 10
_symmetry_cell_setting 'monoclinic'
loop_
_space_group_symop_operation_xyz
x,y,z
-x,y,-z
-x,-y,-z
x,-y,z
loop_
_atom_site_type_symbol
_atom_site_label
_atom_site_fract_x
_atom_site_fract_y
_atom_site_fract_z
Si Si1 0.213643 0.887082 0.193400
Si Si2 0.959218 0.389263 0.685980
Si Si3 0.292843 0.605657 0.348510
Si Si4 0.701604 0.222709 0.159236
Si Si5 0.295426 0.176842 0.309670
Si Si6 0.044138 0.110958 0.055420
O O1 0.252219 0.820070 0.242773
O O2 0.000000 0.889069 0.500000
O O3 0.271891 0.000000 0.125253
O O4 0.296573 0.844014 0.954998
O O5 0.888623 0.500000 0.784336
O O6 0.000000 0.353906 0.500000
O O7 0.143894 0.394139 0.476074
O O8 0.816909 0.318600 0.957207
O O9 0.259931 0.500000 0.459799
O O10 0.281821 0.720191 0.398743
O O11 0.500000 0.600129 0.000000
O O12 0.500000 0.243788 0.500000
O O13 0.809988 0.168720 0.093787
O O14 0.141070 0.111752 0.595985
O O15 0.500000 0.142048 0.000000
O O16 0.107892 0.000000 0.944392
O O17 0.000000 0.152340 0.000000
#
# Coordination Sequence:
#
# PCOD9151516 Si02
#       6
#     4   4   4   4   4   4
#     4  11  22  39  63  88 118 160 212 265 309 358
#     4  10  20  39  67  95 124 158 202 255 310 366
#     4   9  17  32  59  90 118 149 190 243 300 364
#     4  12  25  41  62  90 128 167 208 255 312 371
#     4  11  22  38  63  92 122 155 201 262 314 366
#     4  11  25  44  61  85 124 168 210 253 312 377
#
# _framework density 19.604818999999999
#
# number of rings (size 3 to 8) (size 9 to 14) (size 15 to 20)
#    0.000    1.333    3.333    2.500    2.333    3.000 
#    0.000    0.000    0.000    2.000    0.000    0.000 
#    0.000    0.000    0.000    0.000    0.000    0.000 
#
# Total GULP energy -133725.623043 kJ/mol
# GULP energy per Si atom -5571.900960 kJ/mol
# Density = 1.956020 g / cm^3
# Si number density = 19.604819 Si / 1000 Ang^3
#
#
#
# Elastic Constant Matrix: (Units=GPa)
#
#
# Indices 1 2 3 4 5 6 
#
# 1 88.2323 16.8031 60.3858 0.0000 2.1699 0.0000
# 2 16.8031 105.8747 31.2663 0.0000 -2.3660 0.0000
# 3 60.3858 31.2663 119.9931 0.0000 -15.6910 0.0000
# 4 0.0000 0.0000 0.0000 -31.6056 0.0000 8.6525
# 5 2.1699 -2.3660 -15.6910 0.0000 29.5549 0.0000
# 6 0.0000 0.0000 0.0000 8.6525 0.0000 22.0980
#
#
#
# Elastic Compliance Matrix: (Units=1/GPa)
#
#
# Indices 1 2 3 4 5 6 
#
# 1 0.018465 -0.000083 -0.010154 0.000000 -0.006753 0.000000
# 2 -0.000083 0.010244 -0.002708 0.000000 -0.000611 0.000000
# 3 -0.010154 -0.002708 0.015279 0.000000 0.008640 0.000000
# 4 0.000000 0.000000 0.000000 -0.028577 0.000000 0.011189
# 5 -0.006753 -0.000611 0.008640 0.000000 0.038870 0.000000
# 6 0.000000 0.000000 0.000000 0.011189 0.000000 0.040872
#
#
# Mechanical properties :
#
#
# Convention : Reuss Voigt Hill
#
# Bulk Modulus (GPa) = 55.24968 59.00117 57.12542
# Shear Modulus (GPa) = 39.34715 17.71911 28.53313
#
# Velocity S-wave (km/s) = 4.48483 3.00961 3.81913
# Velocity P-wave (km/s) = 7.42032 6.49905 6.97491
#
# Compressibility (1/GPa) = 0.01809965
#
# Stress axis : x y z
#
# Youngs Moduli (GPa) = 54.15730 97.61626 65.44938
#
# Poissons Ratio (x) = 0.00809 0.66455
# Poissons Ratio (y) = 0.00449 0.17721
# Poissons Ratio (z) = 0.54990 0.26430
#
# Static dielectric constant tensor:
#      x y z
#    x 1.725760 0.000000 -0.014510 
#    y 0.000000 1.784730 0.000000 
#    z -0.014510 0.000000 1.667580 
# 
# From -- ./inp_files/56031.got.cif
#   From: 2010.05.17/outbox.cif.g08.bks.cpg/sg10_29_cif.got.tgz:56031.got - 2010.06.03 11:33:40.
