data_PCOD9151758
_publ_section_title
;
Structure prediction by ZEFSAII (Michael W. Deem and Ramdas Pophale) SiO2 
 PCOD9151758
Probable space group: P 2/M
;
_chemical_formula_sum "Si O2"
_cell_formula_units_Z 32
_cell_length_a 15.248308
_cell_length_b 7.349584
_cell_length_c 15.690845
_cell_angle_alpha 90.000000
_cell_angle_beta 58.515062
_cell_angle_gamma 90.000000
_cell_volume 1499.569070
_symmetry_space_group_name_H-M "P 2/M"
_symmetry_group_IT_number 10
_symmetry_cell_setting 'monoclinic'
loop_
_space_group_symop_operation_xyz
x,y,z
-x,y,-z
-x,-y,-z
x,-y,z
loop_
_atom_site_type_symbol
_atom_site_label
_atom_site_fract_x
_atom_site_fract_y
_atom_site_fract_z
Si Si1 0.392840 0.278383 0.010563
Si Si2 0.435742 0.277372 0.799163
Si Si3 0.672316 0.721661 0.656742
Si Si4 0.214762 0.722321 0.229618
Si Si5 0.294004 0.292239 0.720149
Si Si6 0.770358 0.722876 0.429323
Si Si7 0.934990 0.787045 0.112355
Si Si8 0.998303 0.718917 0.268820
O O1 0.392796 0.500000 0.011115
O O2 0.296420 0.220762 0.116184
O O3 0.500000 0.222561 0.000000
O O4 0.391466 0.220138 0.913105
O O5 0.432889 0.500000 0.800673
O O6 0.554600 0.223235 0.731144
O O7 0.369104 0.212231 0.752870
O O8 0.672690 0.500000 0.656584
O O9 0.743021 0.779425 0.699867
O O10 0.715908 0.780235 0.543516
O O11 0.213977 0.500000 0.230134
O O12 0.100461 0.783734 0.263952
O O13 0.329011 0.500000 0.690379
O O14 0.284445 0.213618 0.629976
O O15 0.177806 0.294626 0.815627
O O16 0.770033 0.500000 0.427547
O O17 0.889578 0.780291 0.363011
O O18 0.995975 0.766195 0.169984
O O19 0.917047 0.000000 0.105759
O O20 0.000000 0.713581 0.000000
O O21 0.998259 0.500000 0.273676
#
# Coordination Sequence:
#
# PCOD9151758 Si02
#       8
#     4   4   4   4   4   4   4   4
#     4   9  14  22  34  53  89 126 154 187 225 276
#     4   9  16  24  38  63  93 125 157 187 228 276
#     4   9  15  24  39  62  96 130 153 186 235 276
#     4   9  16  24  38  63  93 125 157 187 228 276
#     4   9  18  31  47  70  95 120 154 193 232 273
#     4   8  15  27  40  59  91 124 155 192 231 272
#     4  10  21  35  49  67  92 123 157 190 229 280
#     4   9  18  31  47  70  95 120 154 193 232 273
#
# _framework density 21.339464
#
# number of rings (size 3 to 8) (size 9 to 14) (size 15 to 20)
#    0.000    3.000    1.250    1.125    1.750    2.000 
#    0.000    5.000    0.000    0.000    0.000   14.875 
#    0.000    3.000    0.000    0.000    0.000    0.000 
#
# Total GULP energy -178658.554406 kJ/mol
# GULP energy per Si atom -5583.079825 kJ/mol
# Density = 2.129089 g / cm^3
# Si number density = 21.339464 Si / 1000 Ang^3
#
#
#
# Elastic Constant Matrix: (Units=GPa)
#
#
# Indices 1 2 3 4 5 6 
#
# 1 157.1735 -1.4655 64.0295 0.0000 37.8806 0.0000
# 2 -1.4655 80.0975 -0.4941 0.0000 1.0594 0.0000
# 3 64.0295 -0.4941 163.4886 0.0000 35.9591 0.0000
# 4 0.0000 0.0000 0.0000 -23.5755 0.0000 16.6828
# 5 37.8806 1.0594 35.9591 0.0000 15.6667 0.0000
# 6 0.0000 0.0000 0.0000 16.6828 0.0000 7.7543
#
#
#
# Elastic Compliance Matrix: (Units=1/GPa)
#
#
# Indices 1 2 3 4 5 6 
#
# 1 0.017007 0.001033 0.004852 0.000000 -0.052327 0.000000
# 2 0.001033 0.012575 0.000747 0.000000 -0.005063 0.000000
# 3 0.004852 0.000747 0.013753 0.000000 -0.043348 0.000000
# 4 0.000000 0.000000 0.000000 -0.016816 0.000000 0.036178
# 5 -0.052327 -0.005063 -0.043348 0.000000 0.290188 0.000000
# 6 0.000000 0.000000 0.000000 0.036178 0.000000 0.051126
#
#
# Mechanical properties :
#
#
# Convention : Reuss Voigt Hill
#
# Bulk Modulus (GPa) = 17.66824 58.32217 37.99520
# Shear Modulus (GPa) = 13.38917 22.54841 17.96879
#
# Velocity S-wave (km/s) = 2.50759 3.25415 2.90495
# Velocity P-wave (km/s) = 4.08431 6.44277 5.39402
#
# Compressibility (1/GPa) = 0.05659874
#
# Stress axis : x y z
#
# Youngs Moduli (GPa) = 58.79964 79.52121 72.71053
#
# Poissons Ratio (x) = -0.08216 -0.35276
# Poissons Ratio (y) = -0.06075 -0.05431
# Poissons Ratio (z) = -0.28527 -0.05940
#
# Static dielectric constant tensor:
#      x y z
#    x 1.728950 0.000000 0.009930 
#    y 0.000000 1.794050 0.000000 
#    z 0.009930 0.000000 1.725680 
# 
# From -- ./inp_files/66532.got.cif
#   From: 2010.05.17/outbox.cif.g08.bks.cpg/sg10_34_cif.got.tgz:66532.got - 2010.06.03 11:33:40.
