data_PCOD9151858
_publ_section_title
;
Structure prediction by ZEFSAII (Michael W. Deem and Ramdas Pophale) SiO2 
 PCOD9151858
Probable space group: P 2/M
;
_chemical_formula_sum "Si O2"
_cell_formula_units_Z 30
_cell_length_a 17.769502
_cell_length_b 9.404887
_cell_length_c 28.574246
_cell_angle_alpha 90.000000
_cell_angle_beta 19.468490
_cell_angle_gamma 90.000000
_cell_volume 1591.562934
_symmetry_space_group_name_H-M "P 2/M"
_symmetry_group_IT_number 10
_symmetry_cell_setting 'monoclinic'
loop_
_space_group_symop_operation_xyz
x,y,z
-x,y,-z
-x,-y,-z
x,-y,z
loop_
_atom_site_type_symbol
_atom_site_label
_atom_site_fract_x
_atom_site_fract_y
_atom_site_fract_z
Si Si1 0.479008 0.833616 0.117574
Si Si2 0.007135 0.659926 0.695512
Si Si3 0.978681 0.827397 0.408942
Si Si4 0.204146 0.173922 0.988435
Si Si5 0.292831 0.172723 0.749754
Si Si6 0.644138 0.167777 0.462162
Si Si7 0.502036 0.172634 0.725283
Si Si8 0.500000 0.736737 0.000000
O O1 0.684029 0.775444 0.028526
O O2 0.228644 0.779568 0.278240
O O3 0.472743 0.000000 0.132084
O O4 0.503948 0.818612 0.047194
O O5 0.908724 0.500000 0.360245
O O6 0.737877 0.656660 0.859753
O O7 0.054182 0.756995 0.622504
O O8 0.133390 0.737725 0.663957
O O9 0.765254 0.787755 0.565968
O O10 0.978966 0.000000 0.403819
O O11 0.373782 0.216185 0.847277
O O12 0.190417 0.000000 0.997300
O O13 0.952039 0.223322 0.123865
O O14 0.482706 0.206490 0.600267
O O15 0.369038 0.220793 0.756596
O O16 0.283211 0.000000 0.757410
O O17 0.500000 0.188880 0.500000
O O18 0.702543 0.000000 0.430891
O O19 0.496893 0.000000 0.727977
#
# Coordination Sequence:
#
# PCOD9151858 Si02
#       8
#     4   4   4   4   4   4   4   2
#     4   9  18  30  46  73 105 137 173 217 265 314
#     4  11  22  37  56  78 104 137 178 221 263 316
#     4   9  17  32  52  75 104 135 170 213 262 313
#     4   9  17  26  42  74 108 136 170 212 262 311
#     4   9  16  28  45  70 105 137 168 205 254 311
#     4  10  21  35  55  81 109 140 175 218 266 315
#     4   9  15  26  46  71 103 139 169 209 261 313
#     4  10  22  36  52  72 101 142 181 218 263 318
#
# _framework density 18.849395000000001
#
# number of rings (size 3 to 8) (size 9 to 14) (size 15 to 20)
#    0.000    2.533    1.333    1.200    1.867    4.000 
#    0.000    2.667    0.000    0.000    0.000   10.267 
#    0.000    0.000    0.000    0.000    0.000    0.000 
#
# Total GULP energy -167094.715438 kJ/mol
# GULP energy per Si atom -5569.823848 kJ/mol
# Density = 1.880649 g / cm^3
# Si number density = 18.849395 Si / 1000 Ang^3
#
#
#
# Elastic Constant Matrix: (Units=GPa)
#
#
# Indices 1 2 3 4 5 6 
#
# 1 82.1249 0.3693 29.7169 0.0000 -7.0596 0.0000
# 2 0.3693 16.8334 6.9439 0.0000 -5.0052 0.0000
# 3 29.7169 6.9439 96.2361 0.0000 -9.4244 0.0000
# 4 0.0000 0.0000 0.0000 2.3399 0.0000 2.5010
# 5 -7.0596 -5.0052 -9.4244 0.0000 15.7346 0.0000
# 6 0.0000 0.0000 0.0000 2.5010 0.0000 -6.0456
#
#
#
# Elastic Compliance Matrix: (Units=1/GPa)
#
#
# Indices 1 2 3 4 5 6 
#
# 1 0.014046 0.002784 -0.004073 0.000000 0.004748 0.000000
# 2 0.002784 0.066911 -0.003698 0.000000 0.020319 0.000000
# 3 -0.004073 -0.003698 0.012346 0.000000 0.004391 0.000000
# 4 0.000000 0.000000 0.000000 0.296334 0.000000 0.122591
# 5 0.004748 0.020319 0.004391 0.000000 0.074778 0.000000
# 6 0.000000 0.000000 0.000000 0.122591 0.000000 -0.114695
#
#
# Mechanical properties :
#
#
# Convention : Reuss Voigt Hill
#
# Bulk Modulus (GPa) = 12.00065 29.91719 20.95892
# Shear Modulus (GPa) = 12.90420 12.95007 12.92713
#
# Velocity S-wave (km/s) = 2.61931 2.62397 2.62164
# Velocity P-wave (km/s) = 3.94058 5.00863 4.50636
#
# Compressibility (1/GPa) = 0.08332884
#
# Stress axis : x y z
#
# Youngs Moduli (GPa) = 71.19425 14.94512 80.99993
#
# Poissons Ratio (x) = -0.04160 0.32993
# Poissons Ratio (y) = -0.19819 0.29952
# Poissons Ratio (z) = 0.28999 0.05526
#
# Static dielectric constant tensor:
#      x y z
#    x 1.671350 0.000000 -0.021930 
#    y 0.000000 1.622520 0.000000 
#    z -0.021930 0.000000 1.686160 
# 
# From -- ./inp_files/95509.got.cif
#   From: 2010.05.17/outbox.cif.g08.bks.cpg/sg10_48_cif.got.tgz:95509.got - 2010.06.03 11:33:40.
