data_PCOD9151088
_publ_section_title
;
Structure prediction by ZEFSAII (Michael W. Deem and Ramdas Pophale) SiO2 
 PCOD9151088
Probable space group: P 2/M
;
_chemical_formula_sum "Si O2"
_cell_formula_units_Z 28
_cell_length_a 12.934588
_cell_length_b 7.921291
_cell_length_c 14.962866
_cell_angle_alpha 90.000000
_cell_angle_beta 121.346982
_cell_angle_gamma 90.000000
_cell_volume 1309.295798
_symmetry_space_group_name_H-M "P 2/M"
_symmetry_group_IT_number 10
_symmetry_cell_setting 'monoclinic'
loop_
_space_group_symop_operation_xyz
x,y,z
-x,y,-z
-x,-y,-z
x,-y,z
loop_
_atom_site_type_symbol
_atom_site_label
_atom_site_fract_x
_atom_site_fract_y
_atom_site_fract_z
Si Si1 0.492556 0.701339 0.274896
Si Si2 0.264464 0.704395 0.271659
Si Si3 0.575392 0.196538 0.116542
Si Si4 0.314046 0.293872 0.493431
Si Si5 0.003587 0.801143 0.900401
Si Si6 0.044556 0.706211 0.422700
Si Si7 0.842979 0.697941 0.192422
O O1 0.487751 0.500000 0.285514
O O2 0.356774 0.761923 0.235901
O O3 0.540789 0.731357 0.197423
O O4 0.585264 0.767883 0.391981
O O5 0.252430 0.500000 0.265237
O O6 0.323767 0.751681 0.393674
O O7 0.129584 0.773548 0.200764
O O8 0.716352 0.215758 0.156752
O O9 0.543759 0.000000 0.108189
O O10 0.500000 0.273148 0.000000
O O11 0.317122 0.500000 0.497475
O O12 0.180784 0.238856 0.464722
O O13 0.105438 0.719592 0.883833
O O14 0.029798 0.000000 0.915407
O O15 0.000000 0.734144 0.000000
O O16 0.046016 0.500000 0.420717
O O17 0.000000 0.758110 0.500000
O O18 0.949155 0.762615 0.305391
O O19 0.825030 0.500000 0.202948
#
# Coordination Sequence:
#
# PCOD9151088 Si02
#       7
#     4   4   4   4   4   4   4
#     4  10  21  37  63  94 121 157 206 256 299 353
#     4  10  20  37  62  94 124 157 203 254 303 354
#     4  11  26  45  62  83 121 168 204 243 305 370
#     4   9  16  32  57  90 128 156 191 245 309 359
#     4  11  25  42  61  87 124 168 204 242 304 369
#     4   9  16  28  54  89 121 152 186 235 299 357
#     4  11  22  40  67  94 119 151 201 260 302 347
#
# _framework density 21.385541
#
# number of rings (size 3 to 8) (size 9 to 14) (size 15 to 20)
#    0.000    1.857    1.429    2.571    2.000    6.857 
#    0.000    0.714    0.000    3.429    0.000    0.000 
#    0.000    0.000    0.000    0.000    0.000    0.000 
#
# Total GULP energy -156450.385339 kJ/mol
# GULP energy per Si atom -5587.513762 kJ/mol
# Density = 2.133687 g / cm^3
# Si number density = 21.385541 Si / 1000 Ang^3
#
#
#
# Elastic Constant Matrix: (Units=GPa)
#
#
# Indices 1 2 3 4 5 6 
#
# 1 128.3265 -13.4406 20.7363 0.0000 -12.3736 0.0000
# 2 -13.4406 14.6443 -5.8423 0.0000 1.7399 0.0000
# 3 20.7363 -5.8423 63.8274 0.0000 -16.5345 0.0000
# 4 0.0000 0.0000 0.0000 30.1123 0.0000 -6.6482
# 5 -12.3736 1.7399 -16.5345 0.0000 34.4241 0.0000
# 6 0.0000 0.0000 0.0000 -6.6482 0.0000 10.5554
#
#
#
# Elastic Compliance Matrix: (Units=1/GPa)
#
#
# Indices 1 2 3 4 5 6 
#
# 1 0.009041 0.007363 -0.001734 0.000000 0.002045 0.000000
# 2 0.007363 0.076879 0.004938 0.000000 0.001133 0.000000
# 3 -0.001734 0.004938 0.018795 0.000000 0.008155 0.000000
# 4 0.000000 0.000000 0.000000 0.038573 0.000000 0.024295
# 5 0.002045 0.001133 0.008155 0.000000 0.033644 0.000000
# 6 0.000000 0.000000 0.000000 0.024295 0.000000 0.110040
#
#
# Mechanical properties :
#
#
# Convention : Reuss Voigt Hill
#
# Bulk Modulus (GPa) = 7.94584 23.30054 15.62319
# Shear Modulus (GPa) = 16.24502 28.70802 22.47652
#
# Velocity S-wave (km/s) = 2.75912 3.66786 3.24545
# Velocity P-wave (km/s) = 3.72477 5.37184 4.62226
#
# Compressibility (1/GPa) = 0.12585200
#
# Stress axis : x y z
#
# Youngs Moduli (GPa) = 110.60530 13.00737 53.20563
#
# Poissons Ratio (x) = -0.09578 0.09223
# Poissons Ratio (y) = -0.81444 -0.26274
# Poissons Ratio (z) = 0.19174 -0.06423
#
# Static dielectric constant tensor:
#      x y z
#    x 1.737640 0.000000 -0.010190 
#    y 0.000000 1.778940 0.000000 
#    z -0.010190 0.000000 1.775330 
# 
# From -- ./inp_files/63895.got.cif
#   From: 2010.05.17/outbox.cif.g08.bks.cpg/sg10_32_cif.got.tgz:63895.got - 2010.06.03 11:33:40.
