data_PCOD9151060
_publ_section_title
;
Structure prediction by ZEFSAII (Michael W. Deem and Ramdas Pophale) SiO2 
 PCOD9151060
Probable space group: P 2/M
;
_chemical_formula_sum "Si O2"
_cell_formula_units_Z 20
_cell_length_a 8.721448
_cell_length_b 16.717641
_cell_length_c 8.919323
_cell_angle_alpha 90.000000
_cell_angle_beta 58.234088
_cell_angle_gamma 90.000000
_cell_volume 1105.655104
_symmetry_space_group_name_H-M "P 2/M"
_symmetry_group_IT_number 10
_symmetry_cell_setting 'monoclinic'
loop_
_space_group_symop_operation_xyz
x,y,z
-x,y,-z
-x,-y,-z
x,-y,z
loop_
_atom_site_type_symbol
_atom_site_label
_atom_site_fract_x
_atom_site_fract_y
_atom_site_fract_z
Si Si1 0.660137 0.593677 0.032107
Si Si2 0.316995 0.298763 0.685991
Si Si3 0.464211 0.000000 0.843431
Si Si4 0.805567 0.878477 0.174693
Si Si5 0.295865 0.000000 0.538542
Si Si6 0.966440 0.593088 0.340896
O O1 0.641689 0.500000 0.083115
O O2 0.652185 0.647424 0.182972
O O3 0.500000 0.613543 0.000000
O O4 0.849147 0.602939 0.847728
O O5 0.500000 0.285855 0.500000
O O6 0.239638 0.213707 0.777888
O O7 0.178635 0.346838 0.652004
O O8 0.344951 0.076035 0.848996
O O9 0.657933 0.000000 0.659175
O O10 0.500000 0.000000 0.000000
O O11 0.798145 0.923464 0.339281
O O12 0.000000 0.889186 0.000000
O O13 0.500000 0.000000 0.500000
O O14 0.908136 0.500000 0.353660
O O15 0.000000 0.606653 0.500000
#
# Coordination Sequence:
#
# PCOD9151060 Si02
#       6
#     4   4   2   4   2   4
#     4  10  21  37  56  80 112 150 192 239 289 343
#     4  12  23  36  57  84 114 153 194 237 289 341
#     4  10  20  37  62  89 114 143 182 226 276 336
#     4  10  20  38  59  81 112 149 185 225 279 338
#     4   8  16  35  58  79 108 141 173 210 266 330
#     4  10  21  38  58  82 113 149 193 243 291 343
#
# _framework density 18.088823999999999
#
# number of rings (size 3 to 8) (size 9 to 14) (size 15 to 20)
#    0.000    2.000    0.000    6.600    0.000    5.600 
#    0.000    8.000    0.000    0.000    0.000    0.000 
#    0.000    0.000    0.000    0.000    0.000    0.000 
#
# Total GULP energy -111658.762070 kJ/mol
# GULP energy per Si atom -5582.938103 kJ/mol
# Density = 1.804765 g / cm^3
# Si number density = 18.088824 Si / 1000 Ang^3
#
#
#
# Elastic Constant Matrix: (Units=GPa)
#
#
# Indices 1 2 3 4 5 6 
#
# 1 75.8303 62.6919 44.2900 0.0000 2.6993 0.0000
# 2 62.6919 110.4525 54.0720 0.0000 8.7348 0.0000
# 3 44.2900 54.0720 152.9627 0.0000 6.3389 0.0000
# 4 0.0000 0.0000 0.0000 29.3144 0.0000 -2.4054
# 5 2.6993 8.7348 6.3389 0.0000 35.6782 0.0000
# 6 0.0000 0.0000 0.0000 -2.4054 0.0000 42.8923
#
#
#
# Elastic Compliance Matrix: (Units=1/GPa)
#
#
# Indices 1 2 3 4 5 6 
#
# 1 0.025901 -0.013469 -0.002815 0.000000 0.001838 0.000000
# 2 -0.013469 0.018097 -0.002373 0.000000 -0.002990 0.000000
# 3 -0.002815 -0.002373 0.008219 0.000000 -0.000666 0.000000
# 4 0.000000 0.000000 0.000000 0.034271 0.000000 0.001922
# 5 0.001838 -0.002990 -0.000666 0.000000 0.028740 0.000000
# 6 0.000000 0.000000 0.000000 0.001922 0.000000 0.023422
#
#
# Mechanical properties :
#
#
# Convention : Reuss Voigt Hill
#
# Bulk Modulus (GPa) = 67.09865 73.48373 70.29119
# Shear Modulus (GPa) = 27.63504 33.45643 30.54573
#
# Velocity S-wave (km/s) = 3.91287 4.30532 4.11378
# Velocity P-wave (km/s) = 7.58872 8.08866 7.84267
#
# Compressibility (1/GPa) = 0.01490343
#
# Stress axis : x y z
#
# Youngs Moduli (GPa) = 38.60882 55.25877 121.66757
#
# Poissons Ratio (x) = 0.74426 0.34244
# Poissons Ratio (y) = 0.52001 0.28877
# Poissons Ratio (z) = 0.10867 0.13115
#
# Static dielectric constant tensor:
#      x y z
#    x 1.602370 0.000000 -0.000770 
#    y 0.000000 1.604470 0.000000 
#    z -0.000770 0.000000 1.638850 
# 
# From -- ./inp_files/19550.got.cif
#   From: 2010.05.17/outbox.cif.g08.bks.cpg/sg10_10_cif.got.tgz:19550.got - 2010.06.03 11:33:40.
