data_PCOD9151588
_publ_section_title
;
Structure prediction by ZEFSAII (Michael W. Deem and Ramdas Pophale) SiO2 
 PCOD9151588
Probable space group: P 2/M
;
_chemical_formula_sum "Si O2"
_cell_formula_units_Z 24
_cell_length_a 9.464202
_cell_length_b 18.183795
_cell_length_c 9.676377
_cell_angle_alpha 90.000000
_cell_angle_beta 130.865095
_cell_angle_gamma 90.000000
_cell_volume 1259.354390
_symmetry_space_group_name_H-M "P 2/M"
_symmetry_group_IT_number 10
_symmetry_cell_setting 'monoclinic'
loop_
_space_group_symop_operation_xyz
x,y,z
-x,y,-z
-x,-y,-z
x,-y,z
loop_
_atom_site_type_symbol
_atom_site_label
_atom_site_fract_x
_atom_site_fract_y
_atom_site_fract_z
Si Si1 0.678165 0.584377 0.517198
Si Si2 0.077128 0.823776 0.897613
Si Si3 0.335079 0.416684 0.811818
Si Si4 0.008886 0.690993 0.661109
Si Si5 0.150598 0.912781 0.472881
Si Si6 0.541889 0.913828 0.863011
O O1 0.500000 0.597316 0.500000
O O2 0.749993 0.500000 0.593677
O O3 0.617414 0.582337 0.318465
O O4 0.826069 0.651659 0.609648
O O5 0.093720 0.749226 0.820500
O O6 0.930374 0.871560 0.712307
O O7 0.272913 0.866258 0.039455
O O8 0.000000 0.809063 0.000000
O O9 0.314390 0.500000 0.848419
O O10 0.144983 0.376269 0.717901
O O11 0.500000 0.378708 0.000000
O O12 0.000000 0.725975 0.500000
O O13 0.356102 0.889728 0.659692
O O14 0.000000 0.903370 0.500000
O O15 0.160327 0.000000 0.450369
O O16 0.577016 0.000000 0.851627
O O17 0.500000 0.910538 0.000000
#
# Coordination Sequence:
#
# PCOD9151588 Si02
#       6
#     4   4   4   4   4   4
#     4   9  18  36  62  89 117 152 195 249 306 354
#     4  12  26  41  57  91 131 164 199 251 311 362
#     4   9  18  35  60  87 112 148 201 249 290 350
#     4  10  22  40  58  83 118 164 203 241 297 362
#     4  10  20  40  69  94 118 155 206 253 298 362
#     4  10  21  40  69  95 116 156 208 254 300 361
#
# _framework density 19.057383000000002
#
# number of rings (size 3 to 8) (size 9 to 14) (size 15 to 20)
#    0.000    2.000    1.667    1.500    0.000    6.000 
#    6.000    1.667    0.000    5.000    0.000    0.000 
#    0.000    0.000    0.000    0.000    0.000    0.000 
#
# Total GULP energy -133792.545319 kJ/mol
# GULP energy per Si atom -5574.689388 kJ/mol
# Density = 1.901401 g / cm^3
# Si number density = 19.057383 Si / 1000 Ang^3
#
#
#
# Elastic Constant Matrix: (Units=GPa)
#
#
# Indices 1 2 3 4 5 6 
#
# 1 117.6472 47.0785 41.9483 0.0000 0.9184 0.0000
# 2 47.0785 60.5223 34.4701 0.0000 0.0923 0.0000
# 3 41.9483 34.4701 105.1438 0.0000 11.3756 0.0000
# 4 0.0000 0.0000 0.0000 22.4774 0.0000 -3.8665
# 5 0.9184 0.0923 11.3756 0.0000 28.5563 0.0000
# 6 0.0000 0.0000 0.0000 -3.8665 0.0000 2.5361
#
#
#
# Elastic Compliance Matrix: (Units=1/GPa)
#
#
# Indices 1 2 3 4 5 6 
#
# 1 0.012772 -0.008607 -0.002333 0.000000 0.000546 0.000000
# 2 -0.008607 0.026318 -0.005450 0.000000 0.002363 0.000000
# 3 -0.002333 -0.005450 0.012768 0.000000 -0.004994 0.000000
# 4 0.000000 0.000000 0.000000 0.060304 0.000000 0.091939
# 5 0.000546 0.002363 -0.004994 0.000000 0.036983 0.000000
# 6 0.000000 0.000000 0.000000 0.091939 0.000000 0.534482
#
#
# Mechanical properties :
#
#
# Convention : Reuss Voigt Hill
#
# Bulk Modulus (GPa) = 52.41348 58.92302 55.66825
# Shear Modulus (GPa) = 6.91786 21.36836 14.14311
#
# Velocity S-wave (km/s) = 1.90733 3.35216 2.72717
# Velocity P-wave (km/s) = 5.69326 6.78001 6.26026
#
# Compressibility (1/GPa) = 0.01907906
#
# Stress axis : x y z
#
# Youngs Moduli (GPa) = 78.29787 37.99636 78.31781
#
# Poissons Ratio (x) = 0.32703 0.18270
# Poissons Ratio (y) = 0.67390 0.42683
# Poissons Ratio (z) = 0.18266 0.20708
#
# Static dielectric constant tensor:
#      x y z
#    x 1.638120 0.000000 0.016500 
#    y 0.000000 1.684810 0.000000 
#    z 0.016500 0.000000 1.607850 
# 
# From -- ./inp_files/20121.got.cif
#   From: 2010.05.17/outbox.cif.g08.bks.cpg/sg10_11_cif.got.tgz:20121.got - 2010.06.03 11:33:40.
