data_PCOD9151495
_publ_section_title
;
Structure prediction by ZEFSAII (Michael W. Deem and Ramdas Pophale) SiO2 
 PCOD9151495
Probable space group: P 2/M
;
_chemical_formula_sum "Si O2"
_cell_formula_units_Z 24
_cell_length_a 9.339586
_cell_length_b 9.541985
_cell_length_c 14.829077
_cell_angle_alpha 90.000000
_cell_angle_beta 98.483889
_cell_angle_gamma 90.000000
_cell_volume 1307.079388
_symmetry_space_group_name_H-M "P 2/M"
_symmetry_group_IT_number 10
_symmetry_cell_setting 'monoclinic'
loop_
_space_group_symop_operation_xyz
x,y,z
-x,y,-z
-x,-y,-z
x,-y,z
loop_
_atom_site_type_symbol
_atom_site_label
_atom_site_fract_x
_atom_site_fract_y
_atom_site_fract_z
Si Si1 0.637618 0.161409 0.947626
Si Si2 0.967476 0.664425 0.734072
Si Si3 0.358357 0.332977 0.236155
Si Si4 0.881709 0.163939 0.409731
Si Si5 0.127119 0.654340 0.938839
Si Si6 0.411870 0.666871 0.583731
O O1 0.619439 0.249415 0.854247
O O2 0.666549 0.000000 0.926890
O O3 0.500000 0.168286 0.000000
O O4 0.765683 0.227665 0.018037
O O5 0.971778 0.500000 0.706929
O O6 0.044866 0.760370 0.668388
O O7 0.054477 0.677331 0.835642
O O8 0.799718 0.701319 0.737053
O O9 0.356716 0.500000 0.216821
O O10 0.482840 0.305510 0.321333
O O11 0.734258 0.244062 0.422112
O O12 0.000000 0.172945 0.500000
O O13 0.851863 0.000000 0.389194
O O14 0.199547 0.500000 0.944750
O O15 0.000000 0.648905 0.000000
O O16 0.500000 0.697005 0.500000
O O17 0.377623 0.500000 0.580239
#
# Coordination Sequence:
#
# PCOD9151495 Si02
#       6
#     4   4   4   4   4   4
#     4  11  25  40  56  85 125 165 202 243 295 356
#     4  10  21  39  65  92 118 153 200 252 299 349
#     4  10  21  40  64  90 118 154 200 249 302 354
#     4  11  25  42  61  89 125 162 197 238 296 361
#     4  10  20  39  64  89 117 155 203 251 299 348
#     4  10  22  41  67  94 119 153 199 250 300 351
#
# _framework density 18.361547000000002
#
# number of rings (size 3 to 8) (size 9 to 14) (size 15 to 20)
#    0.000    1.667    1.667    2.000    2.333    6.667 
#    0.000    0.000    0.000    0.000    0.000    0.000 
#    0.000    0.000    0.000    0.000    0.000    0.000 
#
# Total GULP energy -134070.679590 kJ/mol
# GULP energy per Si atom -5586.278316 kJ/mol
# Density = 1.831976 g / cm^3
# Si number density = 18.361547 Si / 1000 Ang^3
#
#
#
# Elastic Constant Matrix: (Units=GPa)
#
#
# Indices 1 2 3 4 5 6 
#
# 1 122.0348 93.6412 60.5402 0.0000 1.2783 0.0000
# 2 93.6412 114.4195 76.8664 0.0000 -6.1780 0.0000
# 3 60.5402 76.8664 100.0701 0.0000 -11.1639 0.0000
# 4 0.0000 0.0000 0.0000 15.5916 0.0000 5.4592
# 5 1.2783 -6.1780 -11.1639 0.0000 26.7931 0.0000
# 6 0.0000 0.0000 0.0000 5.4592 0.0000 76.2530
#
#
#
# Elastic Compliance Matrix: (Units=1/GPa)
#
#
# Indices 1 2 3 4 5 6 
#
# 1 0.022794 -0.019171 0.000337 0.000000 -0.005367 0.000000
# 2 -0.019171 0.034255 -0.014401 0.000000 0.002813 0.000000
# 3 0.000337 -0.014401 0.021477 0.000000 0.005612 0.000000
# 4 0.000000 0.000000 0.000000 0.065786 0.000000 -0.004710
# 5 -0.005367 0.002813 0.005612 0.000000 0.040566 0.000000
# 6 0.000000 0.000000 0.000000 -0.004710 0.000000 0.013451
#
#
# Mechanical properties :
#
#
# Convention : Reuss Voigt Hill
#
# Bulk Modulus (GPa) = 82.93947 88.73555 85.83751
# Shear Modulus (GPa) = 18.60000 30.75932 24.67966
#
# Velocity S-wave (km/s) = 3.18620 4.09736 3.67017
# Velocity P-wave (km/s) = 7.66838 8.41524 8.05048
#
# Compressibility (1/GPa) = 0.01205699
#
# Stress axis : x y z
#
# Youngs Moduli (GPa) = 43.87188 29.19258 46.56178
#
# Poissons Ratio (x) = 0.55964 -0.01569
# Poissons Ratio (y) = 0.84105 0.67053
# Poissons Ratio (z) = -0.01478 0.42040
#
# Static dielectric constant tensor:
#      x y z
#    x 1.594020 0.000000 0.017890 
#    y 0.000000 1.625360 0.000000 
#    z 0.017890 0.000000 1.572850 
# 
# From -- ./inp_files/27077.got.cif
#   From: 2010.05.17/outbox.cif.g08.bks.cpg/sg10_14_cif.got.tgz:27077.got - 2010.06.03 11:33:40.
