data_PCOD9151051
_publ_section_title
;
Structure prediction by ZEFSAII (Michael W. Deem and Ramdas Pophale) SiO2 
 PCOD9151051
Probable space group: P 2/M
;
_chemical_formula_sum "Si O2"
_cell_formula_units_Z 32
_cell_length_a 14.699864
_cell_length_b 25.405168
_cell_length_c 8.509498
_cell_angle_alpha 90.000000
_cell_angle_beta 148.041142
_cell_angle_gamma 90.000000
_cell_volume 1682.091326
_symmetry_space_group_name_H-M "P 2/M"
_symmetry_group_IT_number 10
_symmetry_cell_setting 'monoclinic'
loop_
_space_group_symop_operation_xyz
x,y,z
-x,y,-z
-x,-y,-z
x,-y,z
loop_
_atom_site_type_symbol
_atom_site_label
_atom_site_fract_x
_atom_site_fract_y
_atom_site_fract_z
Si Si1 0.305146 0.748851 0.153300
Si Si2 0.307385 0.249969 0.777802
Si Si3 0.014042 0.060806 0.833333
Si Si4 0.695444 0.368017 0.230272
Si Si5 0.163889 0.855038 0.622878
Si Si6 0.689132 0.135453 0.844299
Si Si7 0.000370 0.560791 0.188984
Si Si8 0.694701 0.633315 0.850729
O O1 0.500000 0.748565 0.500000
O O2 0.237562 0.806667 0.100175
O O3 0.235657 0.691508 0.099027
O O4 0.304169 0.748183 0.962696
O O5 0.255297 0.308193 0.646056
O O6 0.194437 0.198984 0.574231
O O7 0.500000 0.241213 0.000000
O O8 0.868682 0.095867 0.536499
O O9 0.007909 0.000000 0.774724
O O10 0.189044 0.089225 0.036133
O O11 0.000000 0.063255 0.000000
O O12 0.835166 0.408139 0.502031
O O13 0.500000 0.378116 0.000000
O O14 0.692214 0.368800 0.036289
O O15 0.000000 0.849653 0.500000
O O16 0.314144 0.864167 0.970308
O O17 0.500000 0.130258 0.500000
O O18 0.004782 0.500000 0.247057
O O19 0.826256 0.589383 0.987287
O O20 0.000000 0.562202 0.000000
O O21 0.500000 0.627236 0.500000
#
# Coordination Sequence:
#
# PCOD9151051 Si02
#       8
#     4   4   4   4   4   4   4   4
#     4   8  16  31  52  81 113 140 168 210 266 323
#     4   9  18  32  54  84 113 139 172 217 266 320
#     4  10  22  38  52  71 103 140 180 225 269 312
#     4  10  21  38  60  86 116 149 184 225 278 335
#     4   9  19  34  54  78 108 142 174 212 265 322
#     4   9  18  34  56  80 105 136 175 214 258 317
#     4  11  25  42  58  80 111 148 194 240 278 325
#     4  10  20  37  62  87 116 149 182 226 279 334
#
# _framework density 19.023935999999999
#
# number of rings (size 3 to 8) (size 9 to 14) (size 15 to 20)
#    0.000    2.500    0.000    1.125    0.000   12.000 
#    0.000    1.250    0.000    1.875    0.000    0.000 
#    0.000    0.000    0.000    0.000    0.000    0.000 
#
# Total GULP energy -178354.273777 kJ/mol
# GULP energy per Si atom -5573.571056 kJ/mol
# Density = 1.898064 g / cm^3
# Si number density = 19.023936 Si / 1000 Ang^3
#
#
#
# Elastic Constant Matrix: (Units=GPa)
#
#
# Indices 1 2 3 4 5 6 
#
# 1 40.4503 52.0376 11.0921 0.0000 8.4992 0.0000
# 2 52.0376 213.7403 77.2017 0.0000 8.5307 0.0000
# 3 11.0921 77.2017 110.4994 0.0000 -6.7476 0.0000
# 4 0.0000 0.0000 0.0000 -49.5680 0.0000 -65.3415
# 5 8.4992 8.5307 -6.7476 0.0000 17.4478 0.0000
# 6 0.0000 0.0000 0.0000 -65.3415 0.0000 -27.1606
#
#
#
# Elastic Compliance Matrix: (Units=1/GPa)
#
#
# Indices 1 2 3 4 5 6 
#
# 1 0.039744 -0.009877 0.002073 0.000000 -0.013730 0.000000
# 2 -0.009877 0.009143 -0.005506 0.000000 -0.001788 0.000000
# 3 0.002073 -0.005506 0.013101 0.000000 0.006749 0.000000
# 4 0.000000 0.000000 0.000000 0.009291 0.000000 -0.022353
# 5 -0.013730 -0.001788 0.006749 0.000000 0.067486 0.000000
# 6 0.000000 0.000000 0.000000 -0.022353 0.000000 0.016957
#
#
# Mechanical properties :
#
#
# Convention : Reuss Voigt Hill
#
# Bulk Modulus (GPa) = 28.27411 71.70587 49.98999
# Shear Modulus (GPa) = 25.75568 3.10108 14.42838
#
# Velocity S-wave (km/s) = 3.68347 1.27814 2.75695
# Velocity P-wave (km/s) = 5.74328 6.32079 6.03894
#
# Compressibility (1/GPa) = 0.03536805
#
# Stress axis : x y z
#
# Youngs Moduli (GPa) = 25.16079 109.37034 76.33264
#
# Poissons Ratio (x) = 1.08024 -0.15821
# Poissons Ratio (y) = 0.24851 0.42027
# Poissons Ratio (z) = -0.05215 0.60217
#
# Static dielectric constant tensor:
#      x y z
#    x 1.647870 0.000000 -0.009660 
#    y 0.000000 1.699420 0.000000 
#    z -0.009660 0.000000 1.675900 
# 
# From -- ./inp_files/30614.got.cif
#   From: 2010.05.17/outbox.cif.g08.bks.cpg/sg10_16_cif.got.tgz:30614.got - 2010.06.03 11:33:40.
