data_PCOD9151033
_publ_section_title
;
Structure prediction by ZEFSAII (Michael W. Deem and Ramdas Pophale) SiO2 
 PCOD9151033
Probable space group: P 2/M
;
_chemical_formula_sum "Si O2"
_cell_formula_units_Z 26
_cell_length_a 8.966830
_cell_length_b 20.268971
_cell_length_c 9.716923
_cell_angle_alpha 90.000000
_cell_angle_beta 133.569867
_cell_angle_gamma 90.000000
_cell_volume 1279.553463
_symmetry_space_group_name_H-M "P 2/M"
_symmetry_group_IT_number 10
_symmetry_cell_setting 'monoclinic'
loop_
_space_group_symop_operation_xyz
x,y,z
-x,y,-z
-x,-y,-z
x,-y,z
loop_
_atom_site_type_symbol
_atom_site_label
_atom_site_fract_x
_atom_site_fract_y
_atom_site_fract_z
Si Si1 0.148889 0.303541 0.297873
Si Si2 0.854685 0.825551 0.535896
Si Si3 0.500000 0.639354 0.000000
Si Si4 0.059697 0.925975 0.879789
Si Si5 0.536707 0.859868 0.864991
Si Si6 0.308082 0.721782 0.112063
Si Si7 0.051158 0.574095 0.693093
O O1 0.213980 0.243248 0.437976
O O2 0.292647 0.306512 0.255549
O O3 0.106658 0.373614 0.341182
O O4 0.918239 0.285219 0.098673
O O5 0.672269 0.867650 0.351249
O O6 0.000000 0.807499 0.500000
O O7 0.967107 0.870877 0.720024
O O8 0.469655 0.685036 0.115666
O O9 0.711621 0.598026 0.140772
O O10 0.993108 0.000000 0.799274
O O11 0.306103 0.919712 0.030622
O O12 0.000000 0.913807 0.000000
O O13 0.645876 0.798923 0.858648
O O14 0.500000 0.839785 0.000000
O O15 0.030122 0.500000 0.736918
O O16 0.000000 0.572638 0.500000
#
# Coordination Sequence:
#
# PCOD9151033 Si02
#       7
#     4   4   2   4   4   4   4
#     4  10  21  38  63  92 127 163 208 263 319 372
#     4  12  24  41  68  99 127 168 220 268 317 379
#     4  10  21  38  62  88 123 158 208 256 313 376
#     4  11  26  47  67  94 136 171 207 263 321 382
#     4  12  23  41  66  97 128 165 215 264 318 375
#     4  10  20  37  61  95 125 161 204 266 316 374
#     4  10  22  40  61  86 122 166 208 255 316 379
#
# _framework density 20.319589000000001
#
# number of rings (size 3 to 8) (size 9 to 14) (size 15 to 20)
#    0.000    1.231    3.846    1.615    4.308    3.692 
#    0.000    8.462    0.000    1.846    0.000    0.000 
#    0.000    0.000    0.000    0.000    0.000    0.000 
#
# Total GULP energy -145242.691308 kJ/mol
# GULP energy per Si atom -5586.257358 kJ/mol
# Density = 2.027334 g / cm^3
# Si number density = 20.319589 Si / 1000 Ang^3
#
#
#
# Elastic Constant Matrix: (Units=GPa)
#
#
# Indices 1 2 3 4 5 6 
#
# 1 102.0355 44.6484 21.2741 0.0000 -26.1783 0.0000
# 2 44.6484 113.7325 28.8358 0.0000 -19.7430 0.0000
# 3 21.2741 28.8358 85.9475 0.0000 -5.0727 0.0000
# 4 0.0000 0.0000 0.0000 -102.9315 0.0000 91.4495
# 5 -26.1783 -19.7430 -5.0727 0.0000 28.9639 0.0000
# 6 0.0000 0.0000 0.0000 91.4495 0.0000 -55.2774
#
#
#
# Elastic Compliance Matrix: (Units=1/GPa)
#
#
# Indices 1 2 3 4 5 6 
#
# 1 0.014293 -0.003365 -0.001800 0.000000 0.010310 0.000000
# 2 -0.003365 0.011579 -0.002795 0.000000 0.004362 0.000000
# 3 -0.001800 -0.002795 0.012944 0.000000 -0.001265 0.000000
# 4 0.000000 0.000000 0.000000 0.020678 0.000000 0.034209
# 5 0.010310 0.004362 -0.001265 0.000000 0.046596 0.000000
# 6 0.000000 0.000000 0.000000 0.034209 0.000000 0.038505
#
#
# Mechanical properties :
#
#
# Convention : Reuss Voigt Hill
#
# Bulk Modulus (GPa) = 43.67536 54.58133 49.12835
# Shear Modulus (GPa) = 29.73587 -12.05185 8.84201
#
# Velocity S-wave (km/s) = 3.82960 -2.43804 2.08828
# Velocity P-wave (km/s) = 6.41057 4.35825 5.48132
#
# Compressibility (1/GPa) = 0.02289620
#
# Stress axis : x y z
#
# Youngs Moduli (GPa) = 69.96217 86.36071 77.25846
#
# Poissons Ratio (x) = 0.29061 0.13910
# Poissons Ratio (y) = 0.23543 0.21590
# Poissons Ratio (z) = 0.12597 0.24134
#
# Static dielectric constant tensor:
#      x y z
#    x 1.784190 0.000000 -0.026490 
#    y 0.000000 1.698520 0.000000 
#    z -0.026490 0.000000 1.780560 
# 
# From -- ./inp_files/20423.got.cif
#   From: 2010.05.17/outbox.cif.g08.bks.cpg/sg10_11_cif.got.tgz:20423.got - 2010.06.03 11:33:40.
