data_PCOD9151929
_publ_section_title
;
Structure prediction by ZEFSAII (Michael W. Deem and Ramdas Pophale) SiO2 
 PCOD9151929
Probable space group: P 2/M
;
_chemical_formula_sum "Si O2"
_cell_formula_units_Z 32
_cell_length_a 27.426719
_cell_length_b 14.541635
_cell_length_c 9.417693
_cell_angle_alpha 90.000000
_cell_angle_beta 149.255188
_cell_angle_gamma 90.000000
_cell_volume 1920.151255
_symmetry_space_group_name_H-M "P 2/M"
_symmetry_group_IT_number 10
_symmetry_cell_setting 'monoclinic'
loop_
_space_group_symop_operation_xyz
x,y,z
-x,y,-z
-x,-y,-z
x,-y,z
loop_
_atom_site_type_symbol
_atom_site_label
_atom_site_fract_x
_atom_site_fract_y
_atom_site_fract_z
Si Si1 0.642868 0.608592 0.748935
Si Si2 0.576061 0.608183 0.895087
Si Si3 0.394910 0.241516 0.801755
Si Si4 0.715315 0.772138 0.762605
Si Si5 0.397825 0.890757 0.307477
Si Si6 0.296089 0.890589 0.763216
Si Si7 0.100166 0.109249 0.830421
Si Si8 0.908771 0.111299 0.857878
O O1 0.665582 0.500000 0.794210
O O2 0.630060 0.632061 0.883419
O O3 0.536969 0.621950 0.416852
O O4 0.713381 0.676585 0.843953
O O5 0.590014 0.500000 0.955406
O O6 0.608115 0.668729 0.106800
O O7 0.319485 0.243726 0.484987
O O8 0.370144 0.157951 0.844386
O O9 0.500000 0.233332 0.000000
O O10 0.635556 0.834817 0.640536
O O11 0.814076 0.828043 0.012385
O O12 0.500000 0.862127 0.500000
O O13 0.402239 0.000000 0.348302
O O14 0.322678 0.874010 0.992884
O O15 0.190755 0.857055 0.458618
O O16 0.300889 0.000000 0.752962
O O17 0.000000 0.123439 0.500000
O O18 0.124882 0.000000 0.878630
O O19 0.087542 0.130606 0.965734
O O20 0.909020 0.000000 0.845831
O O21 0.000000 0.146244 0.000000
#
# Coordination Sequence:
#
# PCOD9151929 Si02
#       8
#     4   4   4   4   4   4   4   4
#     4   9  19  36  58  80 107 146 186 225 266 322
#     4   9  19  36  55  77 109 147 186 224 266 317
#     4  12  22  32  50  79 114 149 177 218 274 322
#     4  12  22  33  56  82 114 142 183 229 276 334
#     4  10  22  36  50  72 107 154 195 221 257 320
#     4  10  21  36  51  72 106 145 189 226 264 320
#     4  10  22  39  57  80 111 144 184 234 284 326
#     4   9  18  34  55  75  98 133 180 230 275 318
#
# _framework density 16.665355000000002
#
# number of rings (size 3 to 8) (size 9 to 14) (size 15 to 20)
#    0.000    1.875    2.500    2.625    3.500    1.500 
#    0.000    0.000    0.000    0.375    0.000    0.000 
#    0.000    3.000    0.000    0.000    0.000    0.000 
#
# Total GULP energy -178631.994937 kJ/mol
# GULP energy per Si atom -5582.249842 kJ/mol
# Density = 1.662742 g / cm^3
# Si number density = 16.665355 Si / 1000 Ang^3
#
#
#
# Elastic Constant Matrix: (Units=GPa)
#
#
# Indices 1 2 3 4 5 6 
#
# 1 86.0594 54.1982 34.4369 0.0000 -4.7002 0.0000
# 2 54.1982 72.5613 37.2240 0.0000 -1.2802 0.0000
# 3 34.4369 37.2240 84.4424 0.0000 -6.7437 0.0000
# 4 0.0000 0.0000 0.0000 -31.5228 0.0000 10.6484
# 5 -4.7002 -1.2802 -6.7437 0.0000 22.3655 0.0000
# 6 0.0000 0.0000 0.0000 10.6484 0.0000 23.4463
#
#
#
# Elastic Compliance Matrix: (Units=1/GPa)
#
#
# Indices 1 2 3 4 5 6 
#
# 1 0.022495 -0.015728 -0.001983 0.000000 0.003229 0.000000
# 2 -0.015728 0.028847 -0.006593 0.000000 -0.003642 0.000000
# 3 -0.001983 -0.006593 0.015876 0.000000 0.003993 0.000000
# 4 0.000000 0.000000 0.000000 -0.027504 0.000000 0.012491
# 5 0.003229 -0.003642 0.003993 0.000000 0.046386 0.000000
# 6 0.000000 0.000000 0.000000 0.012491 0.000000 0.036978
#
#
# Mechanical properties :
#
#
# Convention : Reuss Voigt Hill
#
# Bulk Modulus (GPa) = 53.73266 54.97570 54.35418
# Shear Modulus (GPa) = 28.10746 10.67141 19.38943
#
# Velocity S-wave (km/s) = 4.11125 2.53323 3.41465
# Velocity P-wave (km/s) = 7.40599 6.45104 6.94495
#
# Compressibility (1/GPa) = 0.01861065
#
# Stress axis : x y z
#
# Youngs Moduli (GPa) = 44.45511 34.66553 62.98716
#
# Poissons Ratio (x) = 0.54521 0.12488
# Poissons Ratio (y) = 0.69918 0.41529
# Poissons Ratio (z) = 0.08814 0.22856
#
# Static dielectric constant tensor:
#      x y z
#    x 1.555570 0.000000 -0.006090 
#    y 0.000000 1.563050 0.000000 
#    z -0.006090 0.000000 1.566160 
# 
# From -- ./inp_files/29536.got.cif
#   From: 2010.05.17/outbox.cif.g08.bks.cpg/sg10_15_cif.got.tgz:29536.got - 2010.06.03 11:33:40.
