data_PCOD9151468
_publ_section_title
;
Structure prediction by ZEFSAII (Michael W. Deem and Ramdas Pophale) SiO2 
 PCOD9151468
Probable space group: P 2/M
;
_chemical_formula_sum "Si O2"
_cell_formula_units_Z 28
_cell_length_a 12.788565
_cell_length_b 8.952066
_cell_length_c 13.869019
_cell_angle_alpha 90.000000
_cell_angle_beta 63.808075
_cell_angle_gamma 90.000000
_cell_volume 1424.749340
_symmetry_space_group_name_H-M "P 2/M"
_symmetry_group_IT_number 10
_symmetry_cell_setting 'monoclinic'
loop_
_space_group_symop_operation_xyz
x,y,z
-x,y,-z
-x,-y,-z
x,-y,z
loop_
_atom_site_type_symbol
_atom_site_label
_atom_site_fract_x
_atom_site_fract_y
_atom_site_fract_z
Si Si1 0.620460 0.180394 0.260677
Si Si2 0.983207 0.166826 0.893506
Si Si3 0.186449 0.320791 0.693005
Si Si4 0.369501 0.837255 0.087731
Si Si5 0.642881 0.175164 0.678198
Si Si6 0.254832 0.671480 0.975453
Si Si7 0.123174 0.320340 0.498316
O O1 0.691726 0.247819 0.321982
O O2 0.483569 0.224832 0.311757
O O3 0.685665 0.238305 0.136931
O O4 0.626692 0.000000 0.259234
O O5 0.090025 0.254858 0.804146
O O6 0.974176 0.000000 0.854249
O O7 0.867339 0.263244 0.939138
O O8 0.000000 0.149351 0.000000
O O9 0.194984 0.500000 0.697174
O O10 0.140839 0.282842 0.604240
O O11 0.364733 0.813754 0.203174
O O12 0.310498 0.000000 0.089523
O O13 0.500000 0.854635 0.000000
O O14 0.327326 0.699100 0.042446
O O15 0.759442 0.258743 0.598459
O O16 0.655198 0.000000 0.647858
O O17 0.245749 0.500000 0.949939
O O18 0.123078 0.500000 0.490523
O O19 0.000000 0.268441 0.500000
#
# Coordination Sequence:
#
# PCOD9151468 Si02
#       7
#     4   4   4   4   4   4   4
#     4  11  22  41  65  93 130 167 209 261 316 375
#     4  11  23  39  62  91 126 169 209 251 314 378
#     4  11  24  42  65  95 127 165 214 264 319 375
#     4  10  20  39  62  89 129 169 208 253 309 373
#     4  10  23  42  67  95 123 166 217 263 309 371
#     4  12  24  36  57  92 131 169 209 257 313 377
#     4  10  25  48  68  90 126 166 206 261 321 379
#
# _framework density 19.65258
#
# number of rings (size 3 to 8) (size 9 to 14) (size 15 to 20)
#    0.000    1.286    2.857    2.571    2.000    4.571 
#    0.000    2.857    0.000    0.000    0.000    0.000 
#    0.000    0.000    0.000    0.000    0.000    0.000 
#
# Total GULP energy -156175.771688 kJ/mol
# GULP energy per Si atom -5577.706132 kJ/mol
# Density = 1.960785 g / cm^3
# Si number density = 19.652580 Si / 1000 Ang^3
#
#
#
# Elastic Constant Matrix: (Units=GPa)
#
#
# Indices 1 2 3 4 5 6 
#
# 1 143.5871 42.9577 54.6437 0.0000 -10.1674 0.0000
# 2 42.9577 68.8531 28.0142 0.0000 0.4704 0.0000
# 3 54.6437 28.0142 100.7854 0.0000 -7.0843 0.0000
# 4 0.0000 0.0000 0.0000 229.9449 0.0000 -44.6329
# 5 -10.1674 0.4704 -7.0843 0.0000 30.5301 0.0000
# 6 0.0000 0.0000 0.0000 -44.6329 0.0000 43.4666
#
#
#
# Elastic Compliance Matrix: (Units=1/GPa)
#
#
# Indices 1 2 3 4 5 6 
#
# 1 0.010052 -0.004671 -0.003976 0.000000 0.002497 0.000000
# 2 -0.004671 0.018599 -0.002813 0.000000 -0.002495 0.000000
# 3 -0.003976 -0.002813 0.012981 0.000000 0.001731 0.000000
# 4 0.000000 0.000000 0.000000 0.005431 0.000000 0.005577
# 5 0.002497 -0.002495 0.001731 0.000000 0.034026 0.000000
# 6 0.000000 0.000000 0.000000 0.005577 0.000000 0.028733
#
#
# Mechanical properties :
#
#
# Convention : Reuss Voigt Hill
#
# Bulk Modulus (GPa) = 53.43831 62.71744 58.07788
# Shear Modulus (GPa) = 35.97649 73.29566 54.63607
#
# Velocity S-wave (km/s) = 4.28322 6.11365 5.27838
# Velocity P-wave (km/s) = 7.19109 9.04533 8.17098
#
# Compressibility (1/GPa) = 0.01871317
#
# Stress axis : x y z
#
# Youngs Moduli (GPa) = 99.48589 53.76578 77.03347
#
# Poissons Ratio (x) = 0.25112 0.30629
# Poissons Ratio (y) = 0.46466 0.21669
# Poissons Ratio (z) = 0.39556 0.15124
#
# Static dielectric constant tensor:
#      x y z
#    x 1.706610 0.000000 0.020680 
#    y 0.000000 1.699100 0.000000 
#    z 0.020680 0.000000 1.643940 
# 
# From -- ./inp_files/63676.got.cif
#   From: 2010.05.17/outbox.cif.g08.bks.cpg/sg10_32_cif.got.tgz:63676.got - 2010.06.03 11:33:40.
