data_PCOD9151455
_publ_section_title
;
Structure prediction by ZEFSAII (Michael W. Deem and Ramdas Pophale) SiO2 
 PCOD9151455
Probable space group: P 2/M
;
_chemical_formula_sum "Si O2"
_cell_formula_units_Z 30
_cell_length_a 9.536835
_cell_length_b 23.692205
_cell_length_c 11.596659
_cell_angle_alpha 90.000000
_cell_angle_beta 36.544035
_cell_angle_gamma 90.000000
_cell_volume 1560.202429
_symmetry_space_group_name_H-M "P 2/M"
_symmetry_group_IT_number 10
_symmetry_cell_setting 'monoclinic'
loop_
_space_group_symop_operation_xyz
x,y,z
-x,y,-z
-x,-y,-z
x,-y,z
loop_
_atom_site_type_symbol
_atom_site_label
_atom_site_fract_x
_atom_site_fract_y
_atom_site_fract_z
Si Si1 0.802511 0.063797 0.230531
Si Si2 0.000000 0.116047 0.500000
Si Si3 0.902955 0.435000 0.734189
Si Si4 0.487919 0.435152 0.194138
Si Si5 0.357171 0.359089 0.475422
Si Si6 0.303011 0.771168 0.531215
Si Si7 0.092501 0.150139 0.184642
Si Si8 0.473266 0.874730 0.272078
O O1 0.591332 0.094329 0.303075
O O2 0.914528 0.101793 0.256069
O O3 0.753643 0.000000 0.299571
O O4 0.000000 0.061233 0.000000
O O5 0.101602 0.146746 0.317375
O O6 0.246478 0.089439 0.379719
O O7 0.985537 0.500000 0.674983
O O8 0.755470 0.424107 0.714512
O O9 0.114350 0.394024 0.627588
O O10 0.701867 0.431717 0.964133
O O11 0.482578 0.500000 0.240555
O O12 0.513236 0.388647 0.274642
O O13 0.500000 0.364099 0.500000
O O14 0.303897 0.293276 0.490769
O O15 0.500000 0.776725 0.500000
O O16 0.375359 0.814817 0.382864
O O17 0.049388 0.792005 0.746883
O O18 0.332348 0.138393 0.955575
#
# Coordination Sequence:
#
# PCOD9151455 Si02
#       8
#     4   2   4   4   4   4   4   4
#     4   9  18  35  65  95 112 145 203 250 284 332
#     4  10  22  36  55  84 118 148 189 226 284 362
#     4   9  19  38  61  82 109 149 194 235 281 339
#     4   9  19  38  61  82 109 149 194 235 281 339
#     4  11  23  35  53  83 120 148 180 237 287 335
#     4  10  21  37  55  83 115 151 200 238 279 349
#     4  10  20  39  62  82 115 156 191 240 293 338
#     4  10  20  39  62  82 115 156 191 240 293 338
#
# _framework density 19.228275
#
# number of rings (size 3 to 8) (size 9 to 14) (size 15 to 20)
#    0.000    2.267    1.333    2.000    0.000    3.733 
#    9.600   10.667    0.000    3.200    0.000    0.000 
#    0.000    0.000    0.000    0.000    0.000    0.000 
#
# Total GULP energy -167147.658273 kJ/mol
# GULP energy per Si atom -5571.588609 kJ/mol
# Density = 1.918451 g / cm^3
# Si number density = 19.228275 Si / 1000 Ang^3
#
#
#
# Elastic Constant Matrix: (Units=GPa)
#
#
# Indices 1 2 3 4 5 6 
#
# 1 83.6546 46.9650 22.5585 0.0000 -4.0466 0.0000
# 2 46.9650 113.5649 15.3729 0.0000 5.8593 0.0000
# 3 22.5585 15.3729 92.6424 0.0000 -4.6518 0.0000
# 4 0.0000 0.0000 0.0000 21.3158 0.0000 8.0671
# 5 -4.0466 5.8593 -4.6518 0.0000 35.9521 0.0000
# 6 0.0000 0.0000 0.0000 8.0671 0.0000 -3.3075
#
#
#
# Elastic Compliance Matrix: (Units=1/GPa)
#
#
# Indices 1 2 3 4 5 6 
#
# 1 0.016535 -0.006591 -0.002803 0.000000 0.002573 0.000000
# 2 -0.006591 0.011736 -0.000479 0.000000 -0.002717 0.000000
# 3 -0.002803 -0.000479 0.011620 0.000000 0.001266 0.000000
# 4 0.000000 0.000000 0.000000 0.024395 0.000000 0.059500
# 5 0.002573 -0.002717 0.001266 0.000000 0.028711 0.000000
# 6 0.000000 0.000000 0.000000 0.059500 0.000000 -0.157219
#
#
# Mechanical properties :
#
#
# Convention : Reuss Voigt Hill
#
# Bulk Modulus (GPa) = 49.64267 51.07273 50.35770
# Shear Modulus (GPa) = -132.41513 24.45646 -53.97934
#
# Velocity S-wave (km/s) = -8.30748 3.57024 -5.30413
# Velocity P-wave (km/s) = 8.13299 6.60412 3.35642
#
# Compressibility (1/GPa) = 0.02014396
#
# Stress axis : x y z
#
# Youngs Moduli (GPa) = 60.47883 85.20552 86.05968
#
# Poissons Ratio (x) = 0.56161 0.24125
# Poissons Ratio (y) = 0.39863 0.04122
# Poissons Ratio (z) = 0.16954 0.04081
#
# Static dielectric constant tensor:
#      x y z
#    x 1.695650 0.000000 -0.010920 
#    y 0.000000 1.643680 0.000000 
#    z -0.010920 0.000000 1.723260 
# 
# From -- ./inp_files/43704.got.cif
#   From: 2010.05.17/outbox.cif.g08.bks.cpg/sg10_22_cif.got.tgz:43704.got - 2010.06.03 11:33:40.
