data_PCOD9151104
_publ_section_title
;
Structure prediction by ZEFSAII (Michael W. Deem and Ramdas Pophale) SiO2 
 PCOD9151104
Probable space group: P 2/M
;
_chemical_formula_sum "Si O2"
_cell_formula_units_Z 28
_cell_length_a 24.027477
_cell_length_b 7.783559
_cell_length_c 21.366887
_cell_angle_alpha 90.000000
_cell_angle_beta 18.988651
_cell_angle_gamma 90.000000
_cell_volume 1300.228409
_symmetry_space_group_name_H-M "P 2/M"
_symmetry_group_IT_number 10
_symmetry_cell_setting 'monoclinic'
loop_
_space_group_symop_operation_xyz
x,y,z
-x,y,-z
-x,-y,-z
x,-y,z
loop_
_atom_site_type_symbol
_atom_site_label
_atom_site_fract_x
_atom_site_fract_y
_atom_site_fract_z
Si Si1 0.261578 0.694920 0.080548
Si Si2 0.312750 0.000000 0.121898
Si Si3 0.075417 0.198637 0.723735
Si Si4 0.430007 0.696320 0.638299
Si Si5 0.681518 0.709614 0.115635
Si Si6 0.857987 0.684086 0.478320
Si Si7 0.282401 0.000000 0.294637
Si Si8 0.048279 0.791387 0.019227
O O1 0.313481 0.500000 0.042409
O O2 0.274137 0.831838 0.121989
O O3 0.062277 0.687334 0.272473
O O4 0.360454 0.750658 0.911784
O O5 0.225272 0.000000 0.282990
O O6 0.514402 0.000000 0.918918
O O7 0.166055 0.294287 0.570615
O O8 0.124690 0.000000 0.667209
O O9 0.870308 0.214305 0.928449
O O10 0.087565 0.258916 0.782625
O O11 0.500000 0.781124 0.500000
O O12 0.495710 0.500000 0.569845
O O13 0.443477 0.767088 0.694973
O O14 0.226524 0.700856 0.844274
O O15 0.695127 0.500000 0.104395
O O16 0.789514 0.500000 0.571458
O O17 0.781895 0.835618 0.599401
O O18 0.069920 0.000000 0.001086
O O19 0.000000 0.750810 0.000000
#
# Coordination Sequence:
#
# PCOD9151104 Si02
#       8
#     4   2   4   4   4   4   2   4
#     4   9  19  36  61  90 113 142 188 239 285 325
#     4  11  25  41  61  81 118 157 184 219 268 339
#     4   9  15  27  51  78 105 137 179 227 277 327
#     4   9  17  30  48  70 101 139 179 224 268 317
#     4   8  15  28  48  76 106 134 176 228 278 327
#     4  10  20  37  63  90 115 143 185 240 284 324
#     4  11  25  43  57  85 118 155 188 213 270 343
#     4   9  18  31  47  70 104 141 177 222 269 317
#
# _framework density 21.534678
#
# number of rings (size 3 to 8) (size 9 to 14) (size 15 to 20)
#    0.000    2.714    0.714    1.714    3.000    3.429 
#    0.000    4.286    0.000    1.714    0.000    0.000 
#    0.000    0.000    0.000    0.000    0.000    0.000 
#
# Total GULP energy -156104.937171 kJ/mol
# GULP energy per Si atom -5575.176328 kJ/mol
# Density = 2.148566 g / cm^3
# Si number density = 21.534678 Si / 1000 Ang^3
#
#
#
# Elastic Constant Matrix: (Units=GPa)
#
#
# Indices 1 2 3 4 5 6 
#
# 1 115.3417 56.1860 24.6128 0.0000 51.0945 0.0000
# 2 56.1860 99.8022 24.2888 0.0000 32.7785 0.0000
# 3 24.6128 24.2888 49.4386 0.0000 34.5534 0.0000
# 4 0.0000 0.0000 0.0000 22.9675 0.0000 14.9143
# 5 51.0945 32.7785 34.5534 0.0000 45.3820 0.0000
# 6 0.0000 0.0000 0.0000 14.9143 0.0000 -64.8418
#
#
#
# Elastic Compliance Matrix: (Units=1/GPa)
#
#
# Indices 1 2 3 4 5 6 
#
# 1 0.022569 -0.005595 0.013781 0.000000 -0.031861 0.000000
# 2 -0.005595 0.014526 -0.003037 0.000000 -0.001880 0.000000
# 3 0.013781 -0.003037 0.051660 0.000000 -0.052656 0.000000
# 4 0.000000 0.000000 0.000000 0.037882 0.000000 0.008713
# 5 -0.031861 -0.001880 -0.052656 0.000000 0.099357 0.000000
# 6 0.000000 0.000000 0.000000 0.008713 0.000000 -0.013418
#
#
# Mechanical properties :
#
#
# Convention : Reuss Voigt Hill
#
# Bulk Modulus (GPa) = 10.09550 52.75086 31.42318
# Shear Modulus (GPa) = 21.24986 11.33453 16.29220
#
# Velocity S-wave (km/s) = 3.14470 2.29670 2.75354
# Velocity P-wave (km/s) = 4.22892 5.61979 4.97322
#
# Compressibility (1/GPa) = 0.09905406
#
# Stress axis : x y z
#
# Youngs Moduli (GPa) = 44.30933 68.83997 19.35721
#
# Poissons Ratio (x) = 0.38517 -0.26677
# Poissons Ratio (y) = 0.24792 0.05879
# Poissons Ratio (z) = -0.61065 0.20906
#
# Static dielectric constant tensor:
#      x y z
#    x 1.844730 0.000000 0.031330 
#    y 0.000000 1.906330 0.000000 
#    z 0.031330 0.000000 1.796320 
# 
# From -- ./inp_files/86508.got.cif
#   From: 2010.05.17/outbox.cif.g08.bks.cpg/sg10_44_cif.got.tgz:86508.got - 2010.06.03 11:33:40.
