data_PCOD9151178
_publ_section_title
;
Structure prediction by ZEFSAII (Michael W. Deem and Ramdas Pophale) SiO2 
 PCOD9151178
Probable space group: P 2/M
;
_chemical_formula_sum "Si O2"
_cell_formula_units_Z 32
_cell_length_a 24.257550
_cell_length_b 8.897108
_cell_length_c 12.654328
_cell_angle_alpha 90.000000
_cell_angle_beta 133.574636
_cell_angle_gamma 90.000000
_cell_volume 1978.606959
_symmetry_space_group_name_H-M "P 2/M"
_symmetry_group_IT_number 10
_symmetry_cell_setting 'monoclinic'
loop_
_space_group_symop_operation_xyz
x,y,z
-x,y,-z
-x,-y,-z
x,-y,z
loop_
_atom_site_type_symbol
_atom_site_label
_atom_site_fract_x
_atom_site_fract_y
_atom_site_fract_z
Si Si1 0.079877 0.320265 0.809049
Si Si2 0.917690 0.319597 0.939462
Si Si3 0.177917 0.179238 0.366142
Si Si4 0.662452 0.678335 0.095837
Si Si5 0.185605 0.178871 0.776000
Si Si6 0.339381 0.819214 0.673250
Si Si7 0.904134 0.679977 0.539822
Si Si8 0.505951 0.173250 0.879649
O O1 0.091517 0.500000 0.811924
O O2 0.140648 0.232642 0.819810
O O3 0.994111 0.287143 0.656818
O O4 0.084606 0.284267 0.939559
O O5 0.910147 0.500000 0.917660
O O6 0.853599 0.238986 0.786012
O O7 0.000000 0.277648 0.000000
O O8 0.266655 0.212506 0.505096
O O9 0.130543 0.259161 0.396770
O O10 0.167524 0.000000 0.360390
O O11 0.669930 0.500000 0.105086
O O12 0.729883 0.753562 0.118932
O O13 0.670646 0.738990 0.227105
O O14 0.578676 0.728358 0.947051
O O15 0.139643 0.243956 0.614679
O O16 0.188728 0.000000 0.773041
O O17 0.421558 0.777188 0.733613
O O18 0.342229 0.000000 0.696646
O O19 0.894451 0.500000 0.521983
O O20 0.519064 0.000000 0.865667
O O21 0.500000 0.175903 0.000000
#
# Coordination Sequence:
#
# PCOD9151178 Si02
#       8
#     4   4   4   4   4   4   4   4
#     4  10  22  39  56  73  99 136 178 217 259 309
#     4  10  20  38  57  74  99 136 176 216 264 309
#     4  11  21  32  52  80 107 137 174 214 256 303
#     4  11  20  30  48  73 102 136 172 208 251 305
#     4  12  24  36  51  75 106 137 174 215 259 310
#     4   9  18  32  48  71 105 139 168 206 256 306
#     4  11  21  36  55  75 102 138 175 212 258 309
#     4   8  15  29  47  67  99 138 168 200 250 305
#
# _framework density 16.172993999999999
#
# number of rings (size 3 to 8) (size 9 to 14) (size 15 to 20)
#    0.000    1.750    2.500    4.125    0.000    6.000 
#    0.000    0.000    0.000    0.000    0.000    0.875 
#    0.000    7.000    0.000    0.000    0.000    0.000 
#
# Total GULP energy -178636.799060 kJ/mol
# GULP energy per Si atom -5582.399971 kJ/mol
# Density = 1.613618 g / cm^3
# Si number density = 16.172994 Si / 1000 Ang^3
#
#
#
# Elastic Constant Matrix: (Units=GPa)
#
#
# Indices 1 2 3 4 5 6 
#
# 1 105.1598 60.1700 54.1215 0.0000 23.8721 0.0000
# 2 60.1700 73.3619 42.0663 0.0000 17.2175 0.0000
# 3 54.1215 42.0663 66.1934 0.0000 27.0194 0.0000
# 4 0.0000 0.0000 0.0000 35.6577 0.0000 1.6953
# 5 23.8721 17.2175 27.0194 0.0000 27.8616 0.0000
# 6 0.0000 0.0000 0.0000 1.6953 0.0000 23.4253
#
#
#
# Elastic Compliance Matrix: (Units=1/GPa)
#
#
# Indices 1 2 3 4 5 6 
#
# 1 0.021516 -0.011891 -0.009119 0.000000 -0.002243 0.000000
# 2 -0.011891 0.028018 -0.008565 0.000000 0.001180 0.000000
# 3 -0.009119 -0.008565 0.037502 0.000000 -0.023262 0.000000
# 4 0.000000 0.000000 0.000000 0.028141 0.000000 -0.002037
# 5 -0.002243 0.001180 -0.023262 0.000000 0.059643 0.000000
# 6 0.000000 0.000000 0.000000 -0.002037 0.000000 0.042836
#
#
# Mechanical properties :
#
#
# Convention : Reuss Voigt Hill
#
# Bulk Modulus (GPa) = 35.86210 61.93675 48.89942
# Shear Modulus (GPa) = 17.47628 23.27941 20.37784
#
# Velocity S-wave (km/s) = 3.29079 3.79806 3.55349
# Velocity P-wave (km/s) = 6.05485 7.59034 6.86566
#
# Compressibility (1/GPa) = 0.02788459
#
# Stress axis : x y z
#
# Youngs Moduli (GPa) = 46.47757 35.69102 26.66536
#
# Poissons Ratio (x) = 0.42441 0.24317
# Poissons Ratio (y) = 0.55268 0.22839
# Poissons Ratio (z) = 0.42385 0.30569
#
# Static dielectric constant tensor:
#      x y z
#    x 1.531190 0.000000 0.027170 
#    y 0.000000 1.539510 0.000000 
#    z 0.027170 0.000000 1.541130 
# 
# From -- ./inp_files/55320.got.cif
#   From: 2010.05.17/outbox.cif.g08.bks.cpg/sg10_28_cif.got.tgz:55320.got - 2010.06.03 11:33:40.
