data_PCOD9151518
_publ_section_title
;
Structure prediction by ZEFSAII (Michael W. Deem and Ramdas Pophale) SiO2 
 PCOD9151518
Probable space group: P 2/M
;
_chemical_formula_sum "Si O2"
_cell_formula_units_Z 20
_cell_length_a 10.527785
_cell_length_b 12.239120
_cell_length_c 13.633277
_cell_angle_alpha 90.000000
_cell_angle_beta 31.033476
_cell_angle_gamma 90.000000
_cell_volume 905.625862
_symmetry_space_group_name_H-M "P 2/M"
_symmetry_group_IT_number 10
_symmetry_cell_setting 'monoclinic'
loop_
_space_group_symop_operation_xyz
x,y,z
-x,y,-z
-x,-y,-z
x,-y,z
loop_
_atom_site_type_symbol
_atom_site_label
_atom_site_fract_x
_atom_site_fract_y
_atom_site_fract_z
Si Si1 0.247424 0.625980 0.943414
Si Si2 0.042483 0.232253 0.248062
Si Si3 0.483350 0.232859 0.626515
Si Si4 0.715828 0.000000 0.939963
Si Si5 0.755495 0.619398 0.727774
Si Si6 0.293646 0.000000 0.823389
O O1 0.167293 0.500000 0.988377
O O2 0.307910 0.683727 0.800474
O O3 0.511738 0.626469 0.824432
O O4 0.074673 0.700603 0.125816
O O5 0.119505 0.107915 0.181499
O O6 0.223089 0.286805 0.207027
O O7 0.767461 0.243150 0.471307
O O8 0.500000 0.251746 0.500000
O O9 0.395909 0.110218 0.707306
O O10 0.500000 0.000000 0.000000
O O11 0.635106 0.000000 0.107945
O O12 0.759062 0.500000 0.775973
O O13 0.000000 0.623860 0.500000
O O14 0.000000 0.000000 0.000000
#
# Coordination Sequence:
#
# PCOD9151518 Si02
#       6
#     4   4   4   2   4   2
#     4  11  24  43  69 102 141 184 230 283 350 415
#     4  12  24  43  69 102 144 181 223 291 353 417
#     4  12  27  46  72 100 132 182 242 288 340 418
#     4  12  25  41  73 110 140 176 232 297 360 402
#     4  10  20  39  68 100 138 190 232 269 339 431
#     4  12  26  53  79  97 139 194 235 282 347 444
#
# _framework density 22.084174999999998
#
# number of rings (size 3 to 8) (size 9 to 14) (size 15 to 20)
#    0.000    0.600    4.000    4.500    0.000    2.800 
#    0.000    2.500    0.000    0.000    0.000    0.000 
#    0.000    0.000    0.000    0.000    0.000    0.000 
#
# Total GULP energy -111995.961078 kJ/mol
# GULP energy per Si atom -5599.798054 kJ/mol
# Density = 2.203391 g / cm^3
# Si number density = 22.084175 Si / 1000 Ang^3
#
#
#
# Elastic Constant Matrix: (Units=GPa)
#
#
# Indices 1 2 3 4 5 6 
#
# 1 90.5142 29.1699 11.8154 0.0000 8.3374 0.0000
# 2 29.1699 194.3222 55.6339 0.0000 27.4573 0.0000
# 3 11.8154 55.6339 123.2237 0.0000 4.8187 0.0000
# 4 0.0000 0.0000 0.0000 70.8573 0.0000 33.2076
# 5 8.3374 27.4573 4.8187 0.0000 45.0640 0.0000
# 6 0.0000 0.0000 0.0000 33.2076 0.0000 19.8570
#
#
#
# Elastic Compliance Matrix: (Units=1/GPa)
#
#
# Indices 1 2 3 4 5 6 
#
# 1 0.011686 -0.001463 -0.000412 0.000000 -0.001227 0.000000
# 2 -0.001463 0.006636 -0.002720 0.000000 -0.003482 0.000000
# 3 -0.000412 -0.002720 0.009354 0.000000 0.000733 0.000000
# 4 0.000000 0.000000 0.000000 0.065261 0.000000 -0.109139
# 5 -0.001227 -0.003482 0.000733 0.000000 0.024461 0.000000
# 6 0.000000 0.000000 0.000000 -0.109139 0.000000 0.232878
#
#
# Mechanical properties :
#
#
# Convention : Reuss Voigt Hill
#
# Bulk Modulus (GPa) = 54.09175 66.81097 60.45136
# Shear Modulus (GPa) = 13.67507 47.91838 30.79672
#
# Velocity S-wave (km/s) = 2.49112 4.66317 3.73837
# Velocity P-wave (km/s) = 5.72895 7.70144 6.78723
#
# Compressibility (1/GPa) = 0.01848711
#
# Stress axis : x y z
#
# Youngs Moduli (GPa) = 85.57076 150.68493 106.90483
#
# Poissons Ratio (x) = 0.22044 0.04405
# Poissons Ratio (y) = 0.12518 0.29076
# Poissons Ratio (z) = 0.03526 0.40983
#
# Static dielectric constant tensor:
#      x y z
#    x 1.848270 0.000000 -0.007760 
#    y 0.000000 1.762370 0.000000 
#    z -0.007760 0.000000 1.788340 
# 
# From -- ./inp_files/64597.got.cif
#   From: 2010.05.17/outbox.cif.g08.bks.cpg/sg10_33_cif.got.tgz:64597.got - 2010.06.03 11:33:40.
