data_PCOD9151736
_publ_section_title
;
Structure prediction by ZEFSAII (Michael W. Deem and Ramdas Pophale) SiO2 
 PCOD9151736
Probable space group: P 2/M
;
_chemical_formula_sum "Si O2"
_cell_formula_units_Z 28
_cell_length_a 13.817822
_cell_length_b 23.887596
_cell_length_c 8.753347
_cell_angle_alpha 90.000000
_cell_angle_beta 150.430205
_cell_angle_gamma 90.000000
_cell_volume 1425.800461
_symmetry_space_group_name_H-M "P 2/M"
_symmetry_group_IT_number 10
_symmetry_cell_setting 'monoclinic'
loop_
_space_group_symop_operation_xyz
x,y,z
-x,y,-z
-x,-y,-z
x,-y,z
loop_
_atom_site_type_symbol
_atom_site_label
_atom_site_fract_x
_atom_site_fract_y
_atom_site_fract_z
Si Si1 0.288214 0.361496 0.788214
Si Si2 0.602113 0.934809 0.306338
Si Si3 0.865873 0.436339 0.673295
Si Si4 0.441549 0.436339 0.248971
Si Si5 0.943769 0.847704 0.752799
Si Si6 0.634735 0.847703 0.825704
Si Si7 0.211056 0.769389 0.711054
O O1 0.136663 0.393447 0.469773
O O2 0.255578 0.295666 0.755577
O O3 0.500000 0.368088 0.000000
O O4 0.303553 0.393446 0.970444
O O5 0.809232 0.902638 0.583533
O O6 0.465077 0.902636 0.239380
O O7 0.625275 0.000000 0.375826
O O8 0.500000 0.930459 0.000000
O O9 0.920732 0.500000 0.703225
O O10 0.645412 0.438941 0.436236
O O11 0.000000 0.419254 0.000000
O O12 0.500000 0.419255 0.500000
O O13 0.361760 0.500000 0.144250
O O14 0.814648 0.802413 0.482959
O O15 0.000000 0.828307 0.000000
O O16 0.145837 0.857907 0.937506
O O17 0.500000 0.828305 0.500000
O O18 0.646336 0.802412 0.978027
O O19 0.000000 0.773036 0.500000
#
# Coordination Sequence:
#
# PCOD9151736 Si02
#       7
#     4   4   4   4   4   4   4
#     4  10  21  34  56  82 107 151 195 242 289 353
#     4  11  24  42  68  97 127 165 203 252 303 362
#     4   9  18  34  54  79 112 147 187 236 294 355
#     4   9  18  34  54  79 112 147 187 236 294 355
#     4  11  23  42  65  91 125 166 205 252 308 365
#     4  11  23  42  65  91 125 166 205 252 308 365
#     4  10  24  41  59  84 118 155 203 252 296 353
#
# _framework density 19.638090999999999
#
# number of rings (size 3 to 8) (size 9 to 14) (size 15 to 20)
#    0.000    1.857    2.857    0.429    2.000    5.143 
#    0.000    7.143    0.000    4.286    0.000    0.000 
#    0.000    0.000    0.000    0.000    0.000    0.000 
#
# Total GULP energy -156332.985172 kJ/mol
# GULP energy per Si atom -5583.320899 kJ/mol
# Density = 1.959339 g / cm^3
# Si number density = 19.638091 Si / 1000 Ang^3
#
#
#
# Elastic Constant Matrix: (Units=GPa)
#
#
# Indices 1 2 3 4 5 6 
#
# 1 89.3764 58.9799 53.2711 0.0000 -10.8139 0.0000
# 2 58.9799 163.6169 99.1792 0.0000 -40.8999 0.0000
# 3 53.2711 99.1792 134.8997 0.0000 -35.4987 0.0000
# 4 0.0000 0.0000 0.0000 15.3918 0.0000 -3.2017
# 5 -10.8139 -40.8999 -35.4987 0.0000 48.4850 0.0000
# 6 0.0000 0.0000 0.0000 -3.2017 0.0000 12.2455
#
#
#
# Elastic Compliance Matrix: (Units=1/GPa)
#
#
# Indices 1 2 3 4 5 6 
#
# 1 0.015903 -0.003929 -0.004125 0.000000 -0.002787 0.000000
# 2 -0.003929 0.012721 -0.006451 0.000000 0.005132 0.000000
# 3 -0.004125 -0.006451 0.015000 0.000000 0.004621 0.000000
# 4 0.000000 0.000000 0.000000 0.068706 0.000000 0.017964
# 5 -0.002787 0.005132 0.004621 0.000000 0.027716 0.000000
# 6 0.000000 0.000000 0.000000 0.017964 0.000000 0.086359
#
#
# Mechanical properties :
#
#
# Convention : Reuss Voigt Hill
#
# Bulk Modulus (GPa) = 68.42162 90.08373 79.25268
# Shear Modulus (GPa) = 19.20962 26.98864 23.09913
#
# Velocity S-wave (km/s) = 3.13098 3.71118 3.43336
# Velocity P-wave (km/s) = 6.92731 8.02093 7.49410
#
# Compressibility (1/GPa) = 0.01461526
#
# Stress axis : x y z
#
# Youngs Moduli (GPa) = 62.88269 78.60900 66.66480
#
# Poissons Ratio (x) = 0.30886 0.27497
# Poissons Ratio (y) = 0.24707 0.43004
# Poissons Ratio (z) = 0.25937 0.50708
#
# Static dielectric constant tensor:
#      x y z
#    x 1.714800 0.000000 0.010060 
#    y 0.000000 1.661550 0.000000 
#    z 0.010060 0.000000 1.704920 
# 
# From -- ./inp_files/30426.got.cif
#   From: 2010.05.17/outbox.cif.g08.bks.cpg/sg10_16_cif.got.tgz:30426.got - 2010.06.03 11:33:40.
