data_PCOD9151150
_publ_section_title
;
Structure prediction by ZEFSAII (Michael W. Deem and Ramdas Pophale) SiO2 
 PCOD9151150
Probable space group: P 2/M
;
_chemical_formula_sum "Si O2"
_cell_formula_units_Z 24
_cell_length_a 9.285292
_cell_length_b 19.501929
_cell_length_c 9.157591
_cell_angle_alpha 90.000000
_cell_angle_beta 48.607737
_cell_angle_gamma 90.000000
_cell_volume 1244.032282
_symmetry_space_group_name_H-M "P 2/M"
_symmetry_group_IT_number 10
_symmetry_cell_setting 'monoclinic'
loop_
_space_group_symop_operation_xyz
x,y,z
-x,y,-z
-x,-y,-z
x,-y,z
loop_
_atom_site_type_symbol
_atom_site_label
_atom_site_fract_x
_atom_site_fract_y
_atom_site_fract_z
Si Si1 0.376202 0.076547 0.935895
Si Si2 0.222749 0.578831 0.292163
Si Si3 0.038400 0.077435 0.648272
Si Si4 0.999252 0.580555 0.826114
Si Si5 0.650817 0.664384 0.533477
Si Si6 0.389519 0.177294 0.423695
O O1 0.473088 0.136432 0.779001
O O2 0.387081 0.000000 0.858604
O O3 0.500000 0.072522 0.000000
O O4 0.157487 0.089155 0.131437
O O5 0.281421 0.500000 0.265342
O O6 0.358179 0.622052 0.308396
O O7 0.000000 0.584731 0.500000
O O8 0.193123 0.595055 0.139886
O O9 0.196641 0.133834 0.571354
O O10 0.000000 0.079096 0.500000
O O11 0.106401 0.000000 0.637010
O O12 0.049333 0.500000 0.758077
O O13 0.154915 0.634788 0.667128
O O14 0.000000 0.585153 0.000000
O O15 0.500000 0.655575 0.500000
O O16 0.655166 0.743598 0.578707
O O17 0.500000 0.178060 0.500000
#
# Coordination Sequence:
#
# PCOD9151150 Si02
#       6
#     4   4   4   4   4   4
#     4  10  20  39  65  89 117 154 202 258 304 359
#     4   8  15  31  57  83 108 146 194 236 285 353
#     4  10  20  37  65  92 113 155 207 247 305 369
#     4   9  18  36  61  87 114 149 195 246 298 354
#     4  10  21  37  52  80 119 158 197 241 301 352
#     4  11  24  40  55  88 130 161 199 252 307 359
#
# _framework density 19.292103000000001
#
# number of rings (size 3 to 8) (size 9 to 14) (size 15 to 20)
#    0.000    2.333    1.667    2.000    0.000    5.333 
#    6.000    2.500    0.000    3.000    0.000    0.000 
#    0.000    0.000    0.000    0.000    0.000    0.667 
#
# Total GULP energy -133692.099322 kJ/mol
# GULP energy per Si atom -5570.504138 kJ/mol
# Density = 1.924819 g / cm^3
# Si number density = 19.292103 Si / 1000 Ang^3
#
#
#
# Elastic Constant Matrix: (Units=GPa)
#
#
# Indices 1 2 3 4 5 6 
#
# 1 103.8368 86.4557 29.5375 0.0000 7.9409 0.0000
# 2 86.4557 164.8891 68.3117 0.0000 -0.4014 0.0000
# 3 29.5375 68.3117 82.3286 0.0000 1.6614 0.0000
# 4 0.0000 0.0000 0.0000 45.2190 0.0000 6.1144
# 5 7.9409 -0.4014 1.6614 0.0000 29.9899 0.0000
# 6 0.0000 0.0000 0.0000 6.1144 0.0000 33.5821
#
#
#
# Elastic Compliance Matrix: (Units=1/GPa)
#
#
# Indices 1 2 3 4 5 6 
#
# 1 0.018038 -0.010409 0.002267 0.000000 -0.005041 0.000000
# 2 -0.010409 0.015258 -0.008995 0.000000 0.003459 0.000000
# 3 0.002267 -0.008995 0.018832 0.000000 -0.001764 0.000000
# 4 0.000000 0.000000 0.000000 0.022673 0.000000 -0.004128
# 5 -0.005041 0.003459 -0.001764 0.000000 0.034823 0.000000
# 6 0.000000 0.000000 0.000000 -0.004128 0.000000 0.030529
#
#
# Mechanical properties :
#
#
# Convention : Reuss Voigt Hill
#
# Bulk Modulus (GPa) = 56.01157 79.96271 67.98714
# Shear Modulus (GPa) = 27.71941 32.87484 30.29712
#
# Velocity S-wave (km/s) = 3.79466 4.13250 3.96718
# Velocity P-wave (km/s) = 6.94951 8.01926 7.50347
#
# Compressibility (1/GPa) = 0.01785345
#
# Stress axis : x y z
#
# Youngs Moduli (GPa) = 55.43830 65.54117 53.10049
#
# Poissons Ratio (x) = 0.68225 -0.12039
# Poissons Ratio (y) = 0.57708 0.47764
# Poissons Ratio (z) = -0.12569 0.58955
#
# Static dielectric constant tensor:
#      x y z
#    x 1.694040 0.000000 0.024170 
#    y 0.000000 1.679440 0.000000 
#    z 0.024170 0.000000 1.716920 
# 
# From -- ./inp_files/20122.got.cif
#   From: 2010.05.17/outbox.cif.g08.bks.cpg/sg10_11_cif.got.tgz:20122.got - 2010.06.03 11:33:40.
