data_PCOD9151395
_publ_section_title
;
Structure prediction by ZEFSAII (Michael W. Deem and Ramdas Pophale) SiO2 
 PCOD9151395
Probable space group: P 2/M
;
_chemical_formula_sum "Si O2"
_cell_formula_units_Z 20
_cell_length_a 12.545565
_cell_length_b 11.488410
_cell_length_c 16.540810
_cell_angle_alpha 90.000000
_cell_angle_beta 24.668528
_cell_angle_gamma 90.000000
_cell_volume 995.006798
_symmetry_space_group_name_H-M "P 2/M"
_symmetry_group_IT_number 10
_symmetry_cell_setting 'monoclinic'
loop_
_space_group_symop_operation_xyz
x,y,z
-x,y,-z
-x,-y,-z
x,-y,z
loop_
_atom_site_type_symbol
_atom_site_label
_atom_site_fract_x
_atom_site_fract_y
_atom_site_fract_z
Si Si1 0.177235 0.754103 0.457468
Si Si2 0.831156 0.500000 0.856573
Si Si3 0.299089 0.867382 0.911720
Si Si4 0.000000 0.695394 0.000000
Si Si5 0.176913 0.500000 0.457515
Si Si6 0.773603 0.500000 0.267488
Si Si7 0.735835 0.756671 0.892294
O O1 0.397328 0.848467 0.306365
O O2 0.309608 0.625377 0.365874
O O3 0.000000 0.762965 0.500000
O O4 0.989851 0.760352 0.663067
O O5 0.682106 0.621812 0.954740
O O6 0.003420 0.500000 0.657056
O O7 0.010076 0.500000 0.811926
O O8 0.160892 0.777955 0.947658
O O9 0.227069 0.000000 0.944800
O O10 0.235832 0.831621 0.047120
O O11 0.178734 0.611659 0.822336
O O12 0.000000 0.500000 0.500000
O O13 0.500000 0.500000 0.500000
O O14 0.500000 0.796699 0.000000
#
# Coordination Sequence:
#
# PCOD9151395 Si02
#       7
#     4   2   4   2   2   2   4
#     4  10  21  40  64 100 133 170 214 268 336 397
#     4  10  20  38  65  98 135 166 206 261 340 411
#     4  12  27  45  66  90 131 184 232 273 313 380
#     4  11  27  48  70  98 129 173 228 272 332 389
#     4   8  18  32  60  98 132 162 195 254 327 405
#     4  11  25  44  72 105 130 163 208 283 345 397
#     4  11  22  41  65 101 137 170 212 270 336 402
#
# _framework density 20.100363999999999
#
# number of rings (size 3 to 8) (size 9 to 14) (size 15 to 20)
#    0.000    1.400    4.000    0.600    5.600    3.200 
#    0.000    0.000    0.000    3.600    0.000    0.000 
#    0.000    0.000    0.000    0.000    0.000    0.000 
#
# Total GULP energy -111786.502003 kJ/mol
# GULP energy per Si atom -5589.325100 kJ/mol
# Density = 2.005461 g / cm^3
# Si number density = 20.100364 Si / 1000 Ang^3
#
#
#
# Elastic Constant Matrix: (Units=GPa)
#
#
# Indices 1 2 3 4 5 6 
#
# 1 138.5607 54.5721 42.6048 0.0000 14.7878 0.0000
# 2 54.5721 128.9878 44.4793 0.0000 10.0074 0.0000
# 3 42.6048 44.4793 124.5651 0.0000 26.0080 0.0000
# 4 0.0000 0.0000 0.0000 -2.7193 0.0000 -19.7133
# 5 14.7878 10.0074 26.0080 0.0000 28.8010 0.0000
# 6 0.0000 0.0000 0.0000 -19.7133 0.0000 -13.1143
#
#
#
# Elastic Compliance Matrix: (Units=1/GPa)
#
#
# Indices 1 2 3 4 5 6 
#
# 1 0.009180 -0.003180 -0.001541 0.000000 -0.002216 0.000000
# 2 -0.003180 0.009945 -0.002567 0.000000 0.000495 0.000000
# 3 -0.001541 -0.002567 0.011239 0.000000 -0.008466 0.000000
# 4 0.000000 0.000000 0.000000 0.037156 0.000000 -0.055853
# 5 -0.002216 0.000495 -0.008466 0.000000 0.043332 0.000000
# 6 0.000000 0.000000 0.000000 -0.055853 0.000000 0.007704
#
#
# Mechanical properties :
#
#
# Convention : Reuss Voigt Hill
#
# Bulk Modulus (GPa) = 63.34237 75.04733 69.19485
# Shear Modulus (GPa) = 36.12808 19.29063 27.70936
#
# Velocity S-wave (km/s) = 4.24416 3.10129 3.71691
# Velocity P-wave (km/s) = 7.45645 7.08811 7.27461
#
# Compressibility (1/GPa) = 0.01578722
#
# Stress axis : x y z
#
# Youngs Moduli (GPa) = 108.93018 100.55393 88.97365
#
# Poissons Ratio (x) = 0.31981 0.13715
# Poissons Ratio (y) = 0.34645 0.22837
# Poissons Ratio (z) = 0.16791 0.25809
#
# Static dielectric constant tensor:
#      x y z
#    x 1.676430 0.000000 0.001850 
#    y 0.000000 1.729910 0.000000 
#    z 0.001850 0.000000 1.697020 
# 
# From -- ./inp_files/64619.got.cif
#   From: 2010.05.17/outbox.cif.g08.bks.cpg/sg10_33_cif.got.tgz:64619.got - 2010.06.03 11:33:40.
