data_PCOD9151719
_publ_section_title
;
Structure prediction by ZEFSAII (Michael W. Deem and Ramdas Pophale) SiO2 
 PCOD9151719
Probable space group: P 2/M
;
_chemical_formula_sum "Si O2"
_cell_formula_units_Z 28
_cell_length_a 28.005916
_cell_length_b 8.088759
_cell_length_c 9.662913
_cell_angle_alpha 90.000000
_cell_angle_beta 41.510977
_cell_angle_gamma 90.000000
_cell_volume 1450.769264
_symmetry_space_group_name_H-M "P 2/M"
_symmetry_group_IT_number 10
_symmetry_cell_setting 'monoclinic'
loop_
_space_group_symop_operation_xyz
x,y,z
-x,y,-z
-x,-y,-z
x,-y,z
loop_
_atom_site_type_symbol
_atom_site_label
_atom_site_fract_x
_atom_site_fract_y
_atom_site_fract_z
Si Si1 0.735098 0.197810 0.541263
Si Si2 0.820052 0.687498 0.624961
Si Si3 0.920300 0.698527 0.639074
Si Si4 0.569760 0.804204 0.932099
Si Si5 0.564948 0.303907 0.252920
Si Si6 0.195929 0.191305 0.885677
Si Si7 0.300116 0.311092 0.876520
O O1 0.779966 0.228890 0.583850
O O2 0.651798 0.261378 0.726708
O O3 0.782243 0.264052 0.310259
O O4 0.729540 0.000000 0.534890
O O5 0.838404 0.500000 0.541321
O O6 0.886948 0.764030 0.566037
O O7 0.761346 0.677953 0.874413
O O8 0.923622 0.500000 0.614458
O O9 0.000000 0.761101 0.500000
O O10 0.866724 0.730133 0.884440
O O11 0.572714 0.000000 0.895129
O O12 0.500000 0.735805 0.000000
O O13 0.555155 0.778475 0.126354
O O14 0.500000 0.288812 0.500000
O O15 0.578042 0.500000 0.198276
O O16 0.632826 0.235853 0.189505
O O17 0.268453 0.209773 0.818977
O O18 0.176473 0.000000 0.911330
O O19 0.316973 0.500000 0.794095
#
# Coordination Sequence:
#
# PCOD9151719 Si02
#       7
#     4   4   4   4   4   4   4
#     4  10  21  36  52  76 110 145 181 223 266 313
#     4   9  17  32  56  80 101 134 177 216 259 315
#     4   9  19  38  61  84 111 140 173 216 264 317
#     4  10  22  38  54  74 106 147 188 228 271 319
#     4  10  21  36  53  76 105 135 177 231 280 324
#     4  10  21  34  53  81 110 140 179 219 262 317
#     4   9  18  34  52  74 103 136 178 225 269 318
#
# _framework density 19.300104999999999
#
# number of rings (size 3 to 8) (size 9 to 14) (size 15 to 20)
#    0.000    2.429    1.429    1.286    2.000    4.857 
#    0.000    0.714    0.000    4.286    0.000    0.000 
#    0.000    0.000    0.000    0.000    0.000    0.000 
#
# Total GULP energy -155926.394973 kJ/mol
# GULP energy per Si atom -5568.799820 kJ/mol
# Density = 1.925618 g / cm^3
# Si number density = 19.300105 Si / 1000 Ang^3
#
#
#
# Elastic Constant Matrix: (Units=GPa)
#
#
# Indices 1 2 3 4 5 6 
#
# 1 143.7095 2.5201 57.7674 0.0000 -17.0952 0.0000
# 2 2.5201 7.2802 5.6290 0.0000 -4.0233 0.0000
# 3 57.7674 5.6290 67.1001 0.0000 6.9864 0.0000
# 4 0.0000 0.0000 0.0000 13.0757 0.0000 -1.4363
# 5 -17.0952 -4.0233 6.9864 0.0000 28.3627 0.0000
# 6 0.0000 0.0000 0.0000 -1.4363 0.0000 20.8622
#
#
#
# Elastic Compliance Matrix: (Units=1/GPa)
#
#
# Indices 1 2 3 4 5 6 
#
# 1 0.014636 0.014979 -0.015391 0.000000 0.014737 0.000000
# 2 0.014979 0.180917 -0.032519 0.000000 0.042702 0.000000
# 3 -0.015391 -0.032519 0.033179 0.000000 -0.022062 0.000000
# 4 0.000000 0.000000 0.000000 0.077061 0.000000 0.005306
# 5 0.014737 0.042702 -0.022062 0.000000 0.055632 0.000000
# 6 0.000000 0.000000 0.000000 0.005306 0.000000 0.048299
#
#
# Mechanical properties :
#
#
# Convention : Reuss Voigt Hill
#
# Bulk Modulus (GPa) = 6.13990 38.88032 22.51011
# Shear Modulus (GPa) = 9.43620 22.60500 16.02060
#
# Velocity S-wave (km/s) = 2.21355 3.42605 2.88423
# Velocity P-wave (km/s) = 3.11789 5.98659 4.77287
#
# Compressibility (1/GPa) = 0.16286914
#
# Stress axis : x y z
#
# Youngs Moduli (GPa) = 68.32577 5.52741 30.13991
#
# Poissons Ratio (x) = -0.08279 0.46389
# Poissons Ratio (y) = -1.02343 0.98010
# Poissons Ratio (z) = 1.05161 0.17974
#
# Static dielectric constant tensor:
#      x y z
#    x 1.718870 0.000000 -0.043220 
#    y 0.000000 1.719990 0.000000 
#    z -0.043220 0.000000 1.697000 
# 
# From -- ./inp_files/36900.got.cif
#   From: 2010.05.17/outbox.cif.g08.bks.cpg/sg10_19_cif.got.tgz:36900.got - 2010.06.03 11:33:40.
