data_PCOD9151447
_publ_section_title
;
Structure prediction by ZEFSAII (Michael W. Deem and Ramdas Pophale) SiO2 
 PCOD9151447
Probable space group: P 2/M
;
_chemical_formula_sum "Si O2"
_cell_formula_units_Z 32
_cell_length_a 12.679383
_cell_length_b 9.297372
_cell_length_c 33.581135
_cell_angle_alpha 90.000000
_cell_angle_beta 24.321511
_cell_angle_gamma 90.000000
_cell_volume 1630.420506
_symmetry_space_group_name_H-M "P 2/M"
_symmetry_group_IT_number 10
_symmetry_cell_setting 'monoclinic'
loop_
_space_group_symop_operation_xyz
x,y,z
-x,y,-z
-x,-y,-z
x,-y,z
loop_
_atom_site_type_symbol
_atom_site_label
_atom_site_fract_x
_atom_site_fract_y
_atom_site_fract_z
Si Si1 0.254922 0.830191 0.385620
Si Si2 0.739343 0.837485 0.116006
Si Si3 0.029181 0.671266 0.082582
Si Si4 0.032987 0.166683 0.594730
Si Si5 0.088734 0.331087 0.657410
Si Si6 0.378365 0.833051 0.622985
Si Si7 0.733129 0.671385 0.259954
Si Si8 0.480301 0.330481 0.136497
O O1 0.481705 0.732806 0.324228
O O2 0.000000 0.810493 0.500000
O O3 0.174634 0.798381 0.367664
O O4 0.324893 0.000000 0.364360
O O5 0.541530 0.757709 0.155396
O O6 0.821247 0.752261 0.126982
O O7 0.659933 0.000000 0.152397
O O8 0.000000 0.842072 0.000000
O O9 0.996618 0.500000 0.088043
O O10 0.969527 0.702285 0.148957
O O11 0.309827 0.709608 0.969064
O O12 0.314741 0.174004 0.477904
O O13 0.045763 0.270013 0.628078
O O14 0.996794 0.000000 0.619907
O O15 0.150210 0.500000 0.635297
O O16 0.814042 0.310690 0.773678
O O17 0.297981 0.242610 0.609673
O O18 0.251793 0.749944 0.703145
O O19 0.304666 0.000000 0.647598
O O20 0.712283 0.500000 0.272626
O O21 0.516511 0.500000 0.132903
#
# Coordination Sequence:
#
# PCOD9151447 Si02
#       8
#     4   4   4   4   4   4   4   4
#     4  10  20  39  61  85 119 158 194 229 283 352
#     4   9  17  29  49  78 109 142 184 234 280 324
#     4   9  19  36  56  79 113 156 192 226 280 347
#     4  10  22  40  62  86 116 156 194 229 284 357
#     4  11  24  39  60  89 116 147 195 248 291 331
#     4  11  23  43  64  82 112 155 196 234 290 355
#     4  11  23  37  59  90 119 150 195 243 288 335
#     4   9  19  37  56  77 113 155 191 230 282 343
#
# _framework density 19.626836999999998
#
# number of rings (size 3 to 8) (size 9 to 14) (size 15 to 20)
#    0.000    2.000    1.250    1.875    1.750    6.750 
#    0.000    0.625    0.000    3.750    0.000    0.000 
#    0.000    0.000    0.000    0.000    0.000    0.000 
#
# Total GULP energy -178763.658579 kJ/mol
# GULP energy per Si atom -5586.364331 kJ/mol
# Density = 1.958217 g / cm^3
# Si number density = 19.626837 Si / 1000 Ang^3
#
#
#
# Elastic Constant Matrix: (Units=GPa)
#
#
# Indices 1 2 3 4 5 6 
#
# 1 70.6959 34.8828 9.4261 0.0000 14.6427 0.0000
# 2 34.8828 67.2359 26.8780 0.0000 12.7814 0.0000
# 3 9.4261 26.8780 61.5588 0.0000 16.3772 0.0000
# 4 0.0000 0.0000 0.0000 16.3835 0.0000 7.8836
# 5 14.6427 12.7814 16.3772 0.0000 30.6458 0.0000
# 6 0.0000 0.0000 0.0000 7.8836 0.0000 27.2061
#
#
#
# Elastic Compliance Matrix: (Units=1/GPa)
#
#
# Indices 1 2 3 4 5 6 
#
# 1 0.020393 -0.010580 0.003398 0.000000 -0.007147 0.000000
# 2 -0.010580 0.023907 -0.008755 0.000000 -0.000237 0.000000
# 3 0.003398 -0.008755 0.022158 0.000000 -0.009813 0.000000
# 4 0.000000 0.000000 0.000000 0.070927 0.000000 -0.020553
# 5 -0.007147 -0.000237 -0.009813 0.000000 0.041389 0.000000
# 6 0.000000 0.000000 0.000000 -0.020553 0.000000 0.042712
#
#
# Mechanical properties :
#
#
# Convention : Reuss Voigt Hill
#
# Bulk Modulus (GPa) = 28.91533 37.98495 33.45014
# Shear Modulus (GPa) = 18.87598 23.40066 21.13832
#
# Velocity S-wave (km/s) = 3.10456 3.45669 3.28534
# Velocity P-wave (km/s) = 5.25506 5.94367 5.60994
#
# Compressibility (1/GPa) = 0.03458373
#
# Stress axis : x y z
#
# Youngs Moduli (GPa) = 49.03737 41.82888 45.13087
#
# Poissons Ratio (x) = 0.44254 -0.15337
# Poissons Ratio (y) = 0.51880 0.39513
# Poissons Ratio (z) = -0.16664 0.36622
#
# Static dielectric constant tensor:
#      x y z
#    x 1.655050 0.000000 0.006410 
#    y 0.000000 1.655430 0.000000 
#    z 0.006410 0.000000 1.739220 
# 
# From -- ./inp_files/94989.got.cif
#   From: 2010.05.17/outbox.cif.g08.bks.cpg/sg10_48_cif.got.tgz:94989.got - 2010.06.03 11:33:40.
