data_PCOD9151502
_publ_section_title
;
Structure prediction by ZEFSAII (Michael W. Deem and Ramdas Pophale) SiO2 
 PCOD9151502
Probable space group: P 2/M
;
_chemical_formula_sum "Si O2"
_cell_formula_units_Z 24
_cell_length_a 13.676631
_cell_length_b 9.028397
_cell_length_c 17.072257
_cell_angle_alpha 90.000000
_cell_angle_beta 143.524832
_cell_angle_gamma 90.000000
_cell_volume 1253.181082
_symmetry_space_group_name_H-M "P 2/M"
_symmetry_group_IT_number 10
_symmetry_cell_setting 'monoclinic'
loop_
_space_group_symop_operation_xyz
x,y,z
-x,y,-z
-x,-y,-z
x,-y,z
loop_
_atom_site_type_symbol
_atom_site_label
_atom_site_fract_x
_atom_site_fract_y
_atom_site_fract_z
Si Si1 0.874556 0.323874 0.794630
Si Si2 0.765895 0.323574 0.546848
Si Si3 0.959654 0.176480 0.384137
Si Si4 0.694059 0.674070 0.112033
Si Si5 0.600001 0.322933 0.747673
Si Si6 0.220167 0.823769 0.997435
O O1 0.911421 0.500000 0.823725
O O2 0.800468 0.295068 0.660636
O O3 0.739224 0.288695 0.772820
O O4 0.042810 0.234714 0.911985
O O5 0.790788 0.500000 0.550367
O O6 0.894282 0.234418 0.577126
O O7 0.579582 0.288076 0.402190
O O8 0.000000 0.211750 0.500000
O O9 0.795442 0.256172 0.248541
O O10 0.942179 0.000000 0.364991
O O11 0.733262 0.500000 0.130275
O O12 0.748836 0.755145 0.068044
O O13 0.500000 0.690710 0.000000
O O14 0.606107 0.500000 0.766582
O O15 0.644150 0.236864 0.854884
O O16 0.222278 0.000000 0.995050
#
# Coordination Sequence:
#
# PCOD9151502 Si02
#       6
#     4   4   4   4   4   4
#     4  10  20  39  65  91 123 164 211 261 307 359
#     4  10  21  39  65  93 123 162 210 258 305 359
#     4  11  25  43  64  94 130 164 198 244 310 376
#     4  11  25  45  69  94 119 157 210 259 306 364
#     4  10  22  39  62  93 126 165 213 259 303 358
#     4  12  25  40  61  91 129 167 204 252 314 372
#
# _framework density 19.151261999999999
#
# number of rings (size 3 to 8) (size 9 to 14) (size 15 to 20)
#    0.000    1.333    1.667    3.500    2.333    8.000 
#    0.000    0.000    0.000    3.000    0.000    0.000 
#    0.000    0.000    0.000    0.000    0.000    0.000 
#
# Total GULP energy -134257.147608 kJ/mol
# GULP energy per Si atom -5594.047817 kJ/mol
# Density = 1.910767 g / cm^3
# Si number density = 19.151262 Si / 1000 Ang^3
#
#
#
# Elastic Constant Matrix: (Units=GPa)
#
#
# Indices 1 2 3 4 5 6 
#
# 1 55.2394 39.9401 27.3511 0.0000 -9.6817 0.0000
# 2 39.9401 66.1144 57.9011 0.0000 -6.6774 0.0000
# 3 27.3511 57.9011 115.1046 0.0000 -8.0326 0.0000
# 4 0.0000 0.0000 0.0000 8.9355 0.0000 -6.5151
# 5 -9.6817 -6.6774 -8.0326 0.0000 31.1209 0.0000
# 6 0.0000 0.0000 0.0000 -6.5151 0.0000 -38.9882
#
#
#
# Elastic Compliance Matrix: (Units=1/GPa)
#
#
# Indices 1 2 3 4 5 6 
#
# 1 0.034412 -0.023881 0.004303 0.000000 0.006692 0.000000
# 2 -0.023881 0.043776 -0.016506 0.000000 -0.002297 0.000000
# 3 0.004303 -0.016506 0.016105 0.000000 0.001954 0.000000
# 4 0.000000 0.000000 0.000000 0.099759 0.000000 -0.016670
# 5 0.006692 -0.002297 0.001954 0.000000 0.034226 0.000000
# 6 0.000000 0.000000 0.000000 -0.016670 0.000000 -0.022863
#
#
# Mechanical properties :
#
#
# Convention : Reuss Voigt Hill
#
# Bulk Modulus (GPa) = 45.19988 54.09367 49.64678
# Shear Modulus (GPa) = 17.54641 7.63138 12.58889
#
# Velocity S-wave (km/s) = 3.03017 1.99836 2.56665
# Velocity P-wave (km/s) = 5.99127 5.79926 5.89604
#
# Compressibility (1/GPa) = 0.02212395
#
# Stress axis : x y z
#
# Youngs Moduli (GPa) = 29.05924 22.84366 62.09342
#
# Poissons Ratio (x) = 0.54554 -0.26719
# Poissons Ratio (y) = 0.69397 1.02493
# Poissons Ratio (z) = -0.12504 0.37706
#
# Static dielectric constant tensor:
#      x y z
#    x 1.635400 0.000000 -0.001690 
#    y 0.000000 1.638200 0.000000 
#    z -0.001690 0.000000 1.653570 
# 
# From -- ./inp_files/77864.got.cif
#   From: 2010.05.17/outbox.cif.g08.bks.cpg/sg10_39_cif.got.tgz:77864.got - 2010.06.03 11:33:40.
