data_PCOD9151202
_publ_section_title
;
Structure prediction by ZEFSAII (Michael W. Deem and Ramdas Pophale) SiO2 
 PCOD9151202
Probable space group: P 2/M
;
_chemical_formula_sum "Si O2"
_cell_formula_units_Z 32
_cell_length_a 16.158482
_cell_length_b 13.199844
_cell_length_c 19.257873
_cell_angle_alpha 90.000000
_cell_angle_beta 156.139032
_cell_angle_gamma 90.000000
_cell_volume 1661.560830
_symmetry_space_group_name_H-M "P 2/M"
_symmetry_group_IT_number 10
_symmetry_cell_setting 'monoclinic'
loop_
_space_group_symop_operation_xyz
x,y,z
-x,y,-z
-x,-y,-z
x,-y,z
loop_
_atom_site_type_symbol
_atom_site_label
_atom_site_fract_x
_atom_site_fract_y
_atom_site_fract_z
Si Si1 0.406011 0.315833 0.724285
Si Si2 0.935120 0.770870 0.021446
Si Si3 0.350616 0.608618 0.821574
Si Si4 0.581295 0.618176 0.712541
Si Si5 0.335110 0.116436 0.076968
Si Si6 0.052097 0.882562 0.319597
Si Si7 0.015176 0.226180 0.586520
Si Si8 0.674293 0.236310 0.581976
O O1 0.475630 0.374413 0.846185
O O2 0.469528 0.364937 0.700858
O O3 0.163901 0.309449 0.545978
O O4 0.489761 0.200770 0.793706
O O5 0.794121 0.848188 0.955486
O O6 0.129359 0.740132 0.218080
O O7 0.795270 0.676633 0.889463
O O8 0.000000 0.822568 0.000000
O O9 0.238153 0.500000 0.729204
O O10 0.218485 0.707775 0.736863
O O11 0.500000 0.601033 0.000000
O O12 0.608222 0.500000 0.718625
O O13 0.446511 0.672634 0.549318
O O14 0.167948 0.126513 0.887423
O O15 0.404422 0.000000 0.133971
O O16 0.018820 0.838975 0.370911
O O17 0.223698 0.827767 0.403149
O O18 0.107620 0.000000 0.365621
O O19 0.000000 0.170937 0.500000
O O20 0.500000 0.189416 0.500000
#
# Coordination Sequence:
#
# PCOD9151202 Si02
#       8
#     4   4   4   4   4   4   4   4
#     4  10  20  38  59  85 120 153 195 249 295 354
#     4  10  21  39  58  84 121 154 197 256 302 362
#     4  10  21  37  60  87 117 157 201 245 297 354
#     4  11  23  39  61  87 119 162 203 247 307 363
#     4   9  20  37  61  85 112 155 196 241 304 358
#     4  10  21  40  61  86 121 156 197 246 300 359
#     4  10  21  36  58  87 119 154 192 243 292 347
#     4  11  22  41  63  87 122 157 204 254 305 360
#
# _framework density 19.258998999999999
#
# number of rings (size 3 to 8) (size 9 to 14) (size 15 to 20)
#    0.000    1.875    2.500    1.125    0.000    5.000 
#    0.000    1.875    0.000    6.750    0.000    0.000 
#    0.000    0.000    0.000    0.000    0.000    0.000 
#
# Total GULP energy -178257.247210 kJ/mol
# GULP energy per Si atom -5570.538975 kJ/mol
# Density = 1.921516 g / cm^3
# Si number density = 19.258999 Si / 1000 Ang^3
#
#
#
# Elastic Constant Matrix: (Units=GPa)
#
#
# Indices 1 2 3 4 5 6 
#
# 1 130.1767 22.6792 26.7732 0.0000 -23.3411 0.0000
# 2 22.6792 91.7856 29.3666 0.0000 -17.4192 0.0000
# 3 26.7732 29.3666 67.4394 0.0000 -11.3777 0.0000
# 4 0.0000 0.0000 0.0000 -3.3625 0.0000 18.7206
# 5 -23.3411 -17.4192 -11.3777 0.0000 32.0053 0.0000
# 6 0.0000 0.0000 0.0000 18.7206 0.0000 -23.1782
#
#
#
# Elastic Compliance Matrix: (Units=1/GPa)
#
#
# Indices 1 2 3 4 5 6 
#
# 1 0.009291 -0.000405 -0.002560 0.000000 0.005645 0.000000
# 2 -0.000405 0.013562 -0.004839 0.000000 0.005365 0.000000
# 3 -0.002560 -0.004839 0.018289 0.000000 0.002001 0.000000
# 4 0.000000 0.000000 0.000000 0.085051 0.000000 0.068694
# 5 0.005645 0.005365 0.002001 0.000000 0.038993 0.000000
# 6 0.000000 0.000000 0.000000 0.068694 0.000000 0.012339
#
#
# Mechanical properties :
#
#
# Convention : Reuss Voigt Hill
#
# Bulk Modulus (GPa) = 39.16462 49.67109 44.41785
# Shear Modulus (GPa) = 24.79615 15.13176 19.96395
#
# Velocity S-wave (km/s) = 3.59208 2.80607 3.22313
# Velocity P-wave (km/s) = 6.13058 6.02875 6.07988
#
# Compressibility (1/GPa) = 0.02553325
#
# Stress axis : x y z
#
# Youngs Moduli (GPa) = 107.62928 73.73733 54.67706
#
# Poissons Ratio (x) = 0.02990 0.13995
# Poissons Ratio (y) = 0.04364 0.26460
# Poissons Ratio (z) = 0.27549 0.35684
#
# Static dielectric constant tensor:
#      x y z
#    x 1.710870 0.000000 -0.018830 
#    y 0.000000 1.658880 0.000000 
#    z -0.018830 0.000000 1.706310 
# 
# From -- ./inp_files/78204.got.cif
#   From: 2010.05.17/outbox.cif.g08.bks.cpg/sg10_40_cif.got.tgz:78204.got - 2010.06.03 11:33:40.
