data_PCOD9151370
_publ_section_title
;
Structure prediction by ZEFSAII (Michael W. Deem and Ramdas Pophale) SiO2 
 PCOD9151370
Probable space group: P 2/M
;
_chemical_formula_sum "Si O2"
_cell_formula_units_Z 18
_cell_length_a 11.846732
_cell_length_b 9.762105
_cell_length_c 16.093233
_cell_angle_alpha 90.000000
_cell_angle_beta 25.683670
_cell_angle_gamma 90.000000
_cell_volume 806.633952
_symmetry_space_group_name_H-M "P 2/M"
_symmetry_group_IT_number 10
_symmetry_cell_setting 'monoclinic'
loop_
_space_group_symop_operation_xyz
x,y,z
-x,y,-z
-x,-y,-z
x,-y,z
loop_
_atom_site_type_symbol
_atom_site_label
_atom_site_fract_x
_atom_site_fract_y
_atom_site_fract_z
Si Si1 0.497374 0.150132 0.758746
Si Si2 0.190325 0.652319 0.701418
Si Si3 0.270461 0.343406 0.267053
Si Si4 0.981266 0.842008 0.699824
Si Si5 0.000000 0.745425 0.000000
O O1 0.524982 0.268236 0.808785
O O2 0.749814 0.158109 0.531929
O O3 0.501697 0.000000 0.796363
O O4 0.243439 0.167651 0.871286
O O5 0.500000 0.676848 0.500000
O O6 0.147218 0.500000 0.693695
O O7 0.051904 0.767650 0.738588
O O8 0.090721 0.658589 0.861224
O O9 0.339868 0.500000 0.202131
O O10 0.000000 0.345564 0.500000
O O11 0.213703 0.250908 0.224555
O O12 0.899232 0.000000 0.763606
#
# Coordination Sequence:
#
# PCOD9151370 Si02
#       5
#     4   4   4   4   2
#     4  10  21  37  61  93 130 169 211 260 314 375
#     4  11  24  42  64  92 128 169 213 262 314 375
#     4   9  18  34  60  92 126 166 212 262 316 374
#     4  10  20  38  64  93 126 167 213 261 316 377
#     4  12  24  42  64  96 128 170 212 262 312 380
#
# _framework density 22.314954
#
# number of rings (size 3 to 8) (size 9 to 14) (size 15 to 20)
#    0.000    1.778    2.222    2.000    0.000    7.556 
#    0.000    1.111    0.000    5.333    0.000    0.000 
#    0.000    0.000    0.000    0.000    0.000    0.000 
#
# Total GULP energy -100726.874991 kJ/mol
# GULP energy per Si atom -5595.937499 kJ/mol
# Density = 2.226416 g / cm^3
# Si number density = 22.314954 Si / 1000 Ang^3
#
#
#
# Elastic Constant Matrix: (Units=GPa)
#
#
# Indices 1 2 3 4 5 6 
#
# 1 146.0810 103.4635 26.7241 0.0000 -4.8409 0.0000
# 2 103.4635 209.2521 30.3188 0.0000 -7.9578 0.0000
# 3 26.7241 30.3188 78.1999 0.0000 -2.5851 0.0000
# 4 0.0000 0.0000 0.0000 14.8122 0.0000 63.4842
# 5 -4.8409 -7.9578 -2.5851 0.0000 35.6981 0.0000
# 6 0.0000 0.0000 0.0000 63.4842 0.0000 9.4219
#
#
#
# Elastic Compliance Matrix: (Units=1/GPa)
#
#
# Indices 1 2 3 4 5 6 
#
# 1 0.010747 -0.005059 -0.001705 0.000000 0.000206 0.000000
# 2 -0.005059 0.007480 -0.001141 0.000000 0.000899 0.000000
# 3 -0.001705 -0.001141 0.013830 0.000000 0.000516 0.000000
# 4 0.000000 0.000000 0.000000 -0.002422 0.000000 0.016317
# 5 0.000206 0.000899 0.000516 0.000000 0.028278 0.000000
# 6 0.000000 0.000000 0.000000 0.016317 0.000000 -0.003807
#
#
# Mechanical properties :
#
#
# Convention : Reuss Voigt Hill
#
# Bulk Modulus (GPa) = 61.54992 83.83843 72.69417
# Shear Modulus (GPa) = 66.37224 30.18820 48.28022
#
# Velocity S-wave (km/s) = 5.45967 3.68207 4.65648
# Velocity P-wave (km/s) = 8.20891 7.46518 7.84586
#
# Compressibility (1/GPa) = 0.01624698
#
# Stress axis : x y z
#
# Youngs Moduli (GPa) = 93.04579 133.69046 72.30747
#
# Poissons Ratio (x) = 0.67636 0.12325
# Poissons Ratio (y) = 0.47074 0.08253
# Poissons Ratio (z) = 0.15860 0.15260
#
# Static dielectric constant tensor:
#      x y z
#    x 1.763760 0.000000 0.016670 
#    y 0.000000 1.795090 0.000000 
#    z 0.016670 0.000000 1.842360 
# 
# From -- ./inp_files/75842.got.cif
#   From: 2010.05.17/outbox.cif.g08.bks.cpg/sg10_38_cif.got.tgz:75842.got - 2010.06.03 11:33:40.
