data_PCOD9151778
_publ_section_title
;
Structure prediction by ZEFSAII (Michael W. Deem and Ramdas Pophale) SiO2 
 PCOD9151778
Probable space group: P 2/M
;
_chemical_formula_sum "Si O2"
_cell_formula_units_Z 32
_cell_length_a 23.340819
_cell_length_b 8.122778
_cell_length_c 29.309652
_cell_angle_alpha 90.000000
_cell_angle_beta 161.709435
_cell_angle_gamma 90.000000
_cell_volume 1743.950871
_symmetry_space_group_name_H-M "P 2/M"
_symmetry_group_IT_number 10
_symmetry_cell_setting 'monoclinic'
loop_
_space_group_symop_operation_xyz
x,y,z
-x,y,-z
-x,-y,-z
x,-y,z
loop_
_atom_site_type_symbol
_atom_site_label
_atom_site_fract_x
_atom_site_fract_y
_atom_site_fract_z
Si Si1 0.289598 0.803647 0.469158
Si Si2 0.995372 0.298912 0.422884
Si Si3 0.007765 0.196352 0.828225
Si Si4 0.004160 0.698600 0.076447
Si Si5 0.293311 0.698601 0.221006
Si Si6 0.290971 0.301880 0.969923
Si Si7 0.993296 0.301880 0.672229
Si Si8 0.705420 0.701086 0.277925
O O1 0.164106 0.741932 0.332063
O O2 0.498925 0.753636 0.623161
O O3 0.191949 0.740664 0.441183
O O4 0.279595 0.000000 0.461894
O O5 0.995854 0.500000 0.422484
O O6 0.999014 0.240180 0.373715
O O7 0.171647 0.248685 0.585814
O O8 0.817155 0.249360 0.317165
O O9 0.995762 0.246377 0.871552
O O10 0.188840 0.259324 0.939628
O O11 0.008710 0.000000 0.826436
O O12 0.004015 0.500000 0.075836
O O13 0.180580 0.753586 0.180569
O O14 0.826211 0.753320 0.913116
O O15 0.291313 0.500000 0.219471
O O16 0.297455 0.500000 0.971336
O O17 0.159657 0.240326 0.829838
O O18 0.497818 0.240179 0.123143
O O19 0.007109 0.500000 0.680967
O O20 0.702372 0.500000 0.275760
#
# Coordination Sequence:
#
# PCOD9151778 Si02
#       8
#     4   4   4   4   4   4   4   4
#     4  10  21  35  50  71 101 134 166 201 241 287
#     4   8  14  25  42  66  94 120 149 191 242 290
#     4  10  21  35  50  71 101 134 166 201 241 287
#     4   9  19  36  56  77 100 126 159 200 244 290
#     4   9  19  36  56  77 100 126 159 200 244 290
#     4   9  17  29  46  68  93 122 158 199 240 283
#     4   9  17  29  46  68  93 122 158 199 240 283
#     4   8  14  25  42  66  94 120 149 191 242 290
#
# _framework density 18.349139999999998
#
# number of rings (size 3 to 8) (size 9 to 14) (size 15 to 20)
#    0.000    3.000    0.000    2.250    0.000    4.500 
#    0.000    8.750    0.000    0.750    0.000    5.250 
#    0.000    0.000    0.000    0.000    0.000    0.000 
#
# Total GULP energy -178383.208230 kJ/mol
# GULP energy per Si atom -5574.475257 kJ/mol
# Density = 1.830738 g / cm^3
# Si number density = 18.349140 Si / 1000 Ang^3
#
#
#
# Elastic Constant Matrix: (Units=GPa)
#
#
# Indices 1 2 3 4 5 6 
#
# 1 193.0084 9.7962 111.6640 0.0000 -3.3183 0.0000
# 2 9.7962 9.3619 10.1156 0.0000 -0.2236 0.0000
# 3 111.6640 10.1156 156.5606 0.0000 28.6305 0.0000
# 4 0.0000 0.0000 0.0000 4.0508 0.0000 -17.6483
# 5 -3.3183 -0.2236 28.6305 0.0000 20.9338 0.0000
# 6 0.0000 0.0000 0.0000 -17.6483 0.0000 -21.3996
#
#
#
# Elastic Compliance Matrix: (Units=1/GPa)
#
#
# Indices 1 2 3 4 5 6 
#
# 1 0.012914 0.000848 -0.012858 0.000000 0.019641 0.000000
# 2 0.000848 0.118617 -0.011369 0.000000 0.016950 0.000000
# 3 -0.012858 -0.011369 0.022253 0.000000 -0.032594 0.000000
# 4 0.000000 0.000000 0.000000 0.053748 0.000000 -0.044326
# 5 0.019641 0.016950 -0.032594 0.000000 0.095642 0.000000
# 6 0.000000 0.000000 0.000000 -0.044326 0.000000 -0.010174
#
#
# Mechanical properties :
#
#
# Convention : Reuss Voigt Hill
#
# Bulk Modulus (GPa) = 9.34336 69.12030 39.23183
# Shear Modulus (GPa) = 13.31802 15.87402 14.59602
#
# Velocity S-wave (km/s) = 2.69701 2.94447 2.82345
# Velocity P-wave (km/s) = 3.84728 7.02219 5.66183
#
# Compressibility (1/GPa) = 0.10702789
#
# Stress axis : x y z
#
# Youngs Moduli (GPa) = 77.43272 8.43052 44.93810
#
# Poissons Ratio (x) = -0.00715 0.57780
# Poissons Ratio (y) = -0.06569 0.51089
# Poissons Ratio (z) = 0.99560 0.09584
#
# Static dielectric constant tensor:
#      x y z
#    x 1.612050 0.000000 -0.011530 
#    y 0.000000 1.641530 0.000000 
#    z -0.011530 0.000000 1.628670 
# 
# From -- ./inp_files/86830.got.cif
#   From: 2010.05.17/outbox.cif.g08.bks.cpg/sg10_44_cif.got.tgz:86830.got - 2010.06.03 11:33:40.
