data_PCOD9151726
_publ_section_title
;
Structure prediction by ZEFSAII (Michael W. Deem and Ramdas Pophale) SiO2 
 PCOD9151726
Probable space group: P 2/M
;
_chemical_formula_sum "Si O2"
_cell_formula_units_Z 32
_cell_length_a 14.728099
_cell_length_b 15.308998
_cell_length_c 20.159665
_cell_angle_alpha 90.000000
_cell_angle_beta 19.544775
_cell_angle_gamma 90.000000
_cell_volume 1520.649923
_symmetry_space_group_name_H-M "P 2/M"
_symmetry_group_IT_number 10
_symmetry_cell_setting 'monoclinic'
loop_
_space_group_symop_operation_xyz
x,y,z
-x,y,-z
-x,-y,-z
x,-y,z
loop_
_atom_site_type_symbol
_atom_site_label
_atom_site_fract_x
_atom_site_fract_y
_atom_site_fract_z
Si Si1 0.765669 0.596345 0.981120
Si Si2 0.966846 0.096401 0.693509
Si Si3 0.390894 0.597907 0.509601
Si Si4 0.274697 0.100548 0.282477
Si Si5 0.108574 0.097694 0.818851
Si Si6 0.585229 0.135090 0.260369
Si Si7 0.703315 0.665749 0.170556
Si Si8 0.196787 0.792594 0.073661
O O1 0.643729 0.500000 0.048293
O O2 0.697423 0.693196 0.001034
O O3 0.073822 0.591885 0.742165
O O4 0.732080 0.609948 0.083626
O O5 0.283300 0.101573 0.455495
O O6 0.772693 0.101681 0.763730
O O7 0.908543 0.175738 0.782600
O O8 0.920538 0.000000 0.756906
O O9 0.500000 0.646299 0.500000
O O10 0.512794 0.500000 0.425513
O O11 0.485954 0.634946 0.374581
O O12 0.000000 0.141179 0.500000
O O13 0.289321 0.000000 0.294354
O O14 0.542123 0.148435 0.120211
O O15 0.039811 0.174729 0.813864
O O16 0.339195 0.124342 0.713416
O O17 0.165610 0.000000 0.751792
O O18 0.830673 0.090623 0.052412
O O19 0.616406 0.235336 0.216638
O O20 0.000000 0.666703 0.000000
#
# Coordination Sequence:
#
# PCOD9151726 Si02
#       8
#     4   4   4   4   4   4   4   4
#     4  11  24  41  60  88 125 165 214 272 328 381
#     4  11  23  39  64  96 126 163 207 265 322 371
#     4  10  21  34  54  83 115 157 212 273 326 372
#     4  10  22  41  68  97 124 158 205 262 316 375
#     4  11  21  35  55  81 125 174 204 244 297 377
#     4  11  21  37  54  86 127 167 215 246 300 382
#     4  12  20  36  58  87 121 171 222 264 317 375
#     4  12  23  41  61  91 125 162 212 260 320 386
#
# _framework density 21.043633
#
# number of rings (size 3 to 8) (size 9 to 14) (size 15 to 20)
#    0.000    1.000    3.750    4.875    0.000    3.000 
#    0.000    1.250    0.000    1.875    0.000    0.000 
#    0.000    0.000    0.000    0.000    0.000    0.000 
#
# Total GULP energy -178583.235308 kJ/mol
# GULP energy per Si atom -5580.726103 kJ/mol
# Density = 2.099574 g / cm^3
# Si number density = 21.043633 Si / 1000 Ang^3
#
#
#
# Elastic Constant Matrix: (Units=GPa)
#
#
# Indices 1 2 3 4 5 6 
#
# 1 65.8549 21.4985 11.2535 0.0000 6.4396 0.0000
# 2 21.4985 126.1283 10.8971 0.0000 5.1854 0.0000
# 3 11.2535 10.8971 73.2483 0.0000 13.3294 0.0000
# 4 0.0000 0.0000 0.0000 14.8968 0.0000 -3.1204
# 5 6.4396 5.1854 13.3294 0.0000 38.4351 0.0000
# 6 0.0000 0.0000 0.0000 -3.1204 0.0000 29.1532
#
#
#
# Elastic Compliance Matrix: (Units=1/GPa)
#
#
# Indices 1 2 3 4 5 6 
#
# 1 0.016515 -0.002584 -0.001828 0.000000 -0.001784 0.000000
# 2 -0.002584 0.008454 -0.000781 0.000000 -0.000437 0.000000
# 3 -0.001828 -0.000781 0.014916 0.000000 -0.004761 0.000000
# 4 0.000000 0.000000 0.000000 0.068668 0.000000 0.007350
# 5 -0.001784 -0.000437 -0.004761 0.000000 0.028027 0.000000
# 6 0.000000 0.000000 0.000000 0.007350 0.000000 0.035088
#
#
# Mechanical properties :
#
#
# Convention : Reuss Voigt Hill
#
# Bulk Modulus (GPa) = 33.89968 39.16994 36.53481
# Shear Modulus (GPa) = 26.05689 31.26919 28.66304
#
# Velocity S-wave (km/s) = 3.52267 3.85895 3.69464
# Velocity P-wave (km/s) = 5.71750 6.20559 5.96654
#
# Compressibility (1/GPa) = 0.02949881
#
# Stress axis : x y z
#
# Youngs Moduli (GPa) = 60.55003 118.28329 67.04336
#
# Poissons Ratio (x) = 0.30561 0.12257
# Poissons Ratio (y) = 0.15644 0.05238
# Poissons Ratio (z) = 0.11070 0.09242
#
# Static dielectric constant tensor:
#      x y z
#    x 1.817940 0.000000 0.057850 
#    y 0.000000 1.834200 0.000000 
#    z 0.057850 0.000000 1.755720 
# 
# From -- ./inp_files/85386.got.cif
#   From: 2010.05.17/outbox.cif.g08.bks.cpg/sg10_43_cif.got.tgz:85386.got - 2010.06.03 11:33:40.
