data_PCOD9151323
_publ_section_title
;
Structure prediction by ZEFSAII (Michael W. Deem and Ramdas Pophale) SiO2 
 PCOD9151323
Probable space group: P 2/M
;
_chemical_formula_sum "Si O2"
_cell_formula_units_Z 24
_cell_length_a 23.345376
_cell_length_b 8.211933
_cell_length_c 11.033201
_cell_angle_alpha 90.000000
_cell_angle_beta 148.609142
_cell_angle_gamma 90.000000
_cell_volume 1101.742261
_symmetry_space_group_name_H-M "P 2/M"
_symmetry_group_IT_number 10
_symmetry_cell_setting 'monoclinic'
loop_
_space_group_symop_operation_xyz
x,y,z
-x,y,-z
-x,-y,-z
x,-y,z
loop_
_atom_site_type_symbol
_atom_site_label
_atom_site_fract_x
_atom_site_fract_y
_atom_site_fract_z
Si Si1 0.512458 0.189186 0.382347
Si Si2 0.819135 0.695876 0.423087
Si Si3 0.043393 0.184604 0.942923
Si Si4 0.751208 0.309476 0.798313
Si Si5 0.416250 0.696149 0.953172
Si Si6 0.874559 0.302127 0.262065
O O1 0.500000 0.254696 0.500000
O O2 0.640537 0.211358 0.580371
O O3 0.450757 0.265979 0.154600
O O4 0.480710 0.000000 0.330003
O O5 0.822364 0.500000 0.437879
O O6 0.938662 0.756127 0.677986
O O7 0.808952 0.741371 0.263735
O O8 0.709670 0.755037 0.293137
O O9 0.071551 0.000000 0.959511
O O10 0.000000 0.188207 0.000000
O O11 0.152979 0.289845 0.126957
O O12 0.721694 0.500000 0.756497
O O13 0.811534 0.249239 0.029140
O O14 0.414894 0.500000 0.940563
O O15 0.500000 0.757249 0.000000
O O16 0.880129 0.500000 0.265000
O O17 0.000000 0.243551 0.500000
#
# Coordination Sequence:
#
# PCOD9151323 Si02
#       6
#     4   4   4   4   4   4
#     4  11  25  44  65  93 133 175 215 260 319 388
#     4  10  20  38  63  88 120 157 202 256 306 368
#     4  11  25  41  57  86 127 166 205 250 310 379
#     4  11  22  39  67  94 122 160 207 261 313 367
#     4  10  23  42  65  96 126 162 218 272 318 374
#     4   9  16  31  56  88 118 147 189 243 304 359
#
# _framework density 21.78368
#
# number of rings (size 3 to 8) (size 9 to 14) (size 15 to 20)
#    0.000    1.667    1.667    2.500    2.333    5.000 
#    0.000    2.500    0.000    0.000    0.000    0.000 
#    0.000    0.000    0.000    0.000    0.000    0.000 
#
# Total GULP energy -133978.097792 kJ/mol
# GULP energy per Si atom -5582.420741 kJ/mol
# Density = 2.173410 g / cm^3
# Si number density = 21.783680 Si / 1000 Ang^3
#
#
#
# Elastic Constant Matrix: (Units=GPa)
#
#
# Indices 1 2 3 4 5 6 
#
# 1 83.5119 8.7571 10.9081 0.0000 10.1668 0.0000
# 2 8.7571 13.2414 -10.7532 0.0000 -2.4406 0.0000
# 3 10.9081 -10.7532 63.5873 0.0000 19.5658 0.0000
# 4 0.0000 0.0000 0.0000 19.4605 0.0000 -3.0448
# 5 10.1668 -2.4406 19.5658 0.0000 30.2115 0.0000
# 6 0.0000 0.0000 0.0000 -3.0448 0.0000 22.4995
#
#
#
# Elastic Compliance Matrix: (Units=1/GPa)
#
#
# Indices 1 2 3 4 5 6 
#
# 1 0.014223 -0.012932 -0.003538 0.000000 -0.003540 0.000000
# 2 -0.012932 0.099540 0.019031 0.000000 0.000068 0.000000
# 3 -0.003538 0.019031 0.023369 0.000000 -0.012407 0.000000
# 4 0.000000 0.000000 0.000000 0.052498 0.000000 0.007104
# 5 -0.003540 0.000068 -0.012407 0.000000 0.042332 0.000000
# 6 0.000000 0.000000 0.000000 0.007104 0.000000 0.045407
#
#
# Mechanical properties :
#
#
# Convention : Reuss Voigt Hill
#
# Bulk Modulus (GPa) = 7.02964 19.79607 13.41286
# Shear Modulus (GPa) = 15.64139 24.52953 20.08546
#
# Velocity S-wave (km/s) = 2.68252 3.35931 3.03981
# Velocity P-wave (km/s) = 3.58170 4.91466 4.30014
#
# Compressibility (1/GPa) = 0.14225471
#
# Stress axis : x y z
#
# Youngs Moduli (GPa) = 70.30647 10.04621 42.79166
#
# Poissons Ratio (x) = 0.12992 0.15138
# Poissons Ratio (y) = 0.90920 -0.81435
# Poissons Ratio (z) = 0.24871 -0.19119
#
# Static dielectric constant tensor:
#      x y z
#    x 1.848260 0.000000 -0.009390 
#    y 0.000000 1.791180 0.000000 
#    z -0.009390 0.000000 1.827820 
# 
# From -- ./inp_files/56699.got.cif
#   From: 2010.05.17/outbox.cif.g08.bks.cpg/sg10_29_cif.got.tgz:56699.got - 2010.06.03 11:33:40.
