data_PCOD9151242
_publ_section_title
;
Structure prediction by ZEFSAII (Michael W. Deem and Ramdas Pophale) SiO2 
 PCOD9151242
Probable space group: P 2/M
;
_chemical_formula_sum "Si O2"
_cell_formula_units_Z 24
_cell_length_a 9.322616
_cell_length_b 8.597607
_cell_length_c 21.130002
_cell_angle_alpha 90.000000
_cell_angle_beta 48.425645
_cell_angle_gamma 90.000000
_cell_volume 1266.985899
_symmetry_space_group_name_H-M "P 2/M"
_symmetry_group_IT_number 10
_symmetry_cell_setting 'monoclinic'
loop_
_space_group_symop_operation_xyz
x,y,z
-x,y,-z
-x,-y,-z
x,-y,z
loop_
_atom_site_type_symbol
_atom_site_label
_atom_site_fract_x
_atom_site_fract_y
_atom_site_fract_z
Si Si1 0.958895 0.812149 0.083700
Si Si2 0.546620 0.312355 0.245002
Si Si3 0.711783 0.811829 0.914239
Si Si4 0.790141 0.686652 0.751499
Si Si5 0.798272 0.185282 0.406102
Si Si6 0.530060 0.686760 0.588746
O O1 0.754134 0.753348 0.167204
O O2 0.127858 0.763076 0.081829
O O3 0.956222 0.000000 0.084112
O O4 0.000000 0.759070 0.000000
O O5 0.557447 0.500000 0.240950
O O6 0.388139 0.263619 0.240172
O O7 0.484677 0.265777 0.333913
O O8 0.756049 0.741529 0.833004
O O9 0.717259 0.000000 0.907652
O O10 0.500000 0.767532 0.000000
O O11 0.803598 0.500000 0.745582
O O12 0.987254 0.757211 0.667784
O O13 0.659245 0.257769 0.393259
O O14 0.708740 0.241363 0.498713
O O15 0.787427 0.000000 0.405103
O O16 0.541812 0.500000 0.581485
#
# Coordination Sequence:
#
# PCOD9151242 Si02
#       6
#     4   4   4   4   4   4
#     4  10  21  37  59  85 113 147 185 228 279 332
#     4  10  23  39  57  82 112 148 189 232 277 330
#     4  10  21  38  60  86 115 147 186 231 280 335
#     4  11  23  39  57  81 114 151 190 231 279 332
#     4  11  22  37  58  86 115 146 187 232 281 335
#     4  10  20  38  61  84 112 148 188 231 281 333
#
# _framework density 18.942594
#
# number of rings (size 3 to 8) (size 9 to 14) (size 15 to 20)
#    0.000    1.667    0.000    5.500    0.000    8.667 
#    0.000    3.333    0.000    0.000    0.000    0.000 
#    0.000    0.000    0.000    0.000    0.000    0.000 
#
# Total GULP energy -134167.650008 kJ/mol
# GULP energy per Si atom -5590.318750 kJ/mol
# Density = 1.889948 g / cm^3
# Si number density = 18.942594 Si / 1000 Ang^3
#
#
#
# Elastic Constant Matrix: (Units=GPa)
#
#
# Indices 1 2 3 4 5 6 
#
# 1 163.3828 29.8735 116.7946 0.0000 3.3665 0.0000
# 2 29.8735 32.5998 28.8162 0.0000 0.7916 0.0000
# 3 116.7946 28.8162 167.1776 0.0000 2.1896 0.0000
# 4 0.0000 0.0000 0.0000 39.1493 0.0000 -4.4138
# 5 3.3665 0.7916 2.1896 0.0000 42.8968 0.0000
# 6 0.0000 0.0000 0.0000 -4.4138 0.0000 23.7030
#
#
#
# Elastic Compliance Matrix: (Units=1/GPa)
#
#
# Indices 1 2 3 4 5 6 
#
# 1 0.012774 -0.004496 -0.008143 0.000000 -0.000504 0.000000
# 2 -0.004496 0.037776 -0.003368 0.000000 -0.000172 0.000000
# 3 -0.008143 -0.003368 0.012250 0.000000 0.000076 0.000000
# 4 0.000000 0.000000 0.000000 0.026091 0.000000 0.004858
# 5 -0.000504 -0.000172 0.000076 0.000000 0.023351 0.000000
# 6 0.000000 0.000000 0.000000 0.004858 0.000000 0.043093
#
#
# Mechanical properties :
#
#
# Convention : Reuss Voigt Hill
#
# Bulk Modulus (GPa) = 32.48151 79.34763 55.91457
# Shear Modulus (GPa) = 25.30231 33.66157 29.48194
#
# Velocity S-wave (km/s) = 3.65874 4.22006 3.94938
# Velocity P-wave (km/s) = 5.91887 8.10707 7.09780
#
# Compressibility (1/GPa) = 0.03078675
#
# Stress axis : x y z
#
# Youngs Moduli (GPa) = 78.28596 26.47150 81.63374
#
# Poissons Ratio (x) = 0.11901 0.66470
# Poissons Ratio (y) = 0.35195 0.27497
# Poissons Ratio (z) = 0.63744 0.08917
#
# Static dielectric constant tensor:
#      x y z
#    x 1.637070 0.000000 0.010530 
#    y 0.000000 1.646540 0.000000 
#    z 0.010530 0.000000 1.622120 
# 
# From -- ./inp_files/33745.got.cif
#   From: 2010.05.17/outbox.cif.g08.bks.cpg/sg10_17_cif.got.tgz:33745.got - 2010.06.03 11:33:40.
