data_PCOD9151026
_publ_section_title
;
Structure prediction by ZEFSAII (Michael W. Deem and Ramdas Pophale) SiO2 
 PCOD9151026
Probable space group: P 2/M
;
_chemical_formula_sum "Si O2"
_cell_formula_units_Z 28
_cell_length_a 13.858582
_cell_length_b 14.198846
_cell_length_c 9.222262
_cell_angle_alpha 90.000000
_cell_angle_beta 131.680622
_cell_angle_gamma 90.000000
_cell_volume 1355.346441
_symmetry_space_group_name_H-M "P 2/M"
_symmetry_group_IT_number 10
_symmetry_cell_setting 'monoclinic'
loop_
_space_group_symop_operation_xyz
x,y,z
-x,y,-z
-x,-y,-z
x,-y,z
loop_
_atom_site_type_symbol
_atom_site_label
_atom_site_fract_x
_atom_site_fract_y
_atom_site_fract_z
Si Si1 0.360561 0.815503 0.791391
Si Si2 0.729127 0.755311 0.027678
Si Si3 0.115729 0.395642 0.235900
Si Si4 0.018264 0.000000 0.297788
Si Si5 0.629791 0.609073 0.705597
Si Si6 0.493705 0.112600 0.320110
Si Si7 0.219571 0.000000 0.755922
Si Si8 0.988951 0.793829 0.816338
O O1 0.389967 0.834786 0.651925
O O2 0.305973 0.911645 0.803516
O O3 0.500000 0.796136 0.000000
O O4 0.274033 0.744548 0.800276
O O5 0.672498 0.664713 0.890123
O O6 0.636436 0.837807 0.868378
O O7 0.873327 0.776665 0.120666
O O8 0.112682 0.500000 0.304259
O O9 0.250760 0.386305 0.286347
O O10 0.095160 0.299197 0.304739
O O11 0.000000 0.398030 0.000000
O O12 0.105818 0.000000 0.526151
O O13 0.863890 0.000000 0.179593
O O14 0.053444 0.099983 0.261831
O O15 0.500000 0.647380 0.500000
O O16 0.605732 0.500000 0.716936
O O17 0.500000 0.121632 0.500000
O O18 0.496217 0.000000 0.287775
O O19 0.000000 0.793128 0.000000
#
# Coordination Sequence:
#
# PCOD9151026 Si02
#       8
#     4   4   4   2   4   4   2   4
#     4  10  21  37  62  80 112 157 208 253 305 373
#     4  11  21  34  60  86 120 157 204 249 305 371
#     4   9  17  34  59  85 119 163 210 255 304 371
#     4  11  25  36  52  80 121 168 207 263 310 363
#     4  10  20  37  61  91 128 163 204 265 322 367
#     4  10  22  37  56  86 115 155 201 255 309 365
#     4  11  21  40  57  74 111 162 217 255 304 373
#     4  11  21  36  54  85 122 167 203 256 306 365
#
# _framework density 20.658925
#
# number of rings (size 3 to 8) (size 9 to 14) (size 15 to 20)
#    0.000    1.714    5.000    0.857    4.000    1.143 
#    5.143    0.000    0.000    3.857    0.000    3.000 
#    0.000    0.000    0.000    0.000    0.000    0.000 
#
# Total GULP energy -155908.334458 kJ/mol
# GULP energy per Si atom -5568.154802 kJ/mol
# Density = 2.061190 g / cm^3
# Si number density = 20.658925 Si / 1000 Ang^3
#
#
#
# Elastic Constant Matrix: (Units=GPa)
#
#
# Indices 1 2 3 4 5 6 
#
# 1 109.6923 30.3482 23.7765 0.0000 -15.1904 0.0000
# 2 30.3482 146.9592 23.4646 0.0000 -16.1569 0.0000
# 3 23.7765 23.4646 39.3296 0.0000 -13.9686 0.0000
# 4 0.0000 0.0000 0.0000 18.7911 0.0000 -3.5537
# 5 -15.1904 -16.1569 -13.9686 0.0000 28.6867 0.0000
# 6 0.0000 0.0000 0.0000 -3.5537 0.0000 37.4766
#
#
#
# Elastic Compliance Matrix: (Units=1/GPa)
#
#
# Indices 1 2 3 4 5 6 
#
# 1 0.010880 -0.001163 -0.004921 0.000000 0.002710 0.000000
# 2 -0.001163 0.007794 -0.003152 0.000000 0.002239 0.000000
# 3 -0.004921 -0.003152 0.034732 0.000000 0.012531 0.000000
# 4 0.000000 0.000000 0.000000 0.054189 0.000000 0.005138
# 5 0.002710 0.002239 0.012531 0.000000 0.043658 0.000000
# 6 0.000000 0.000000 0.000000 0.005138 0.000000 0.027171
#
#
# Mechanical properties :
#
#
# Convention : Reuss Voigt Hill
#
# Bulk Modulus (GPa) = 28.62475 50.12884 39.37679
# Shear Modulus (GPa) = 23.97624 31.55035 27.76330
#
# Velocity S-wave (km/s) = 3.41042 3.91218 3.66989
# Velocity P-wave (km/s) = 5.42161 6.68764 6.08763
#
# Compressibility (1/GPa) = 0.03493481
#
# Stress axis : x y z
#
# Youngs Moduli (GPa) = 91.91032 128.30034 28.79175
#
# Poissons Ratio (x) = 0.14923 0.14169
# Poissons Ratio (y) = 0.10691 0.09074
# Poissons Ratio (z) = 0.45230 0.40436
#
# Static dielectric constant tensor:
#      x y z
#    x 1.793660 0.000000 -0.012770 
#    y 0.000000 1.828330 0.000000 
#    z -0.012770 0.000000 1.749280 
# 
# From -- ./inp_files/25450.got.cif
#   From: 2010.05.17/outbox.cif.g08.bks.cpg/sg10_13_cif.got.tgz:25450.got - 2010.06.03 11:33:40.
