data_PCOD9151728
_publ_section_title
;
Structure prediction by ZEFSAII (Michael W. Deem and Ramdas Pophale) SiO2 
 PCOD9151728
Probable space group: P 2/M
;
_chemical_formula_sum "Si O2"
_cell_formula_units_Z 28
_cell_length_a 17.665328
_cell_length_b 15.713089
_cell_length_c 8.364868
_cell_angle_alpha 90.000000
_cell_angle_beta 144.344439
_cell_angle_gamma 90.000000
_cell_volume 1353.457901
_symmetry_space_group_name_H-M "P 2/M"
_symmetry_group_IT_number 10
_symmetry_cell_setting 'monoclinic'
loop_
_space_group_symop_operation_xyz
x,y,z
-x,y,-z
-x,-y,-z
x,-y,z
loop_
_atom_site_type_symbol
_atom_site_label
_atom_site_fract_x
_atom_site_fract_y
_atom_site_fract_z
Si Si1 0.475938 0.406431 0.648540
Si Si2 0.630130 0.735038 0.322847
Si Si3 0.293718 0.903913 0.078329
Si Si4 0.457843 0.904451 0.683795
Si Si5 0.021516 0.593374 0.846809
Si Si6 0.131670 0.260239 0.826009
Si Si7 0.749076 0.357131 0.250320
O O1 0.500000 0.398013 0.500000
O O2 0.416919 0.500000 0.577007
O O3 0.386604 0.329279 0.557441
O O4 0.612910 0.403990 0.981695
O O5 0.619157 0.833054 0.351700
O O6 0.738566 0.705175 0.385781
O O7 0.500000 0.720460 0.000000
O O8 0.384201 0.908761 0.389115
O O9 0.392885 0.879470 0.103513
O O10 0.244613 0.000000 0.961752
O O11 0.188103 0.833819 0.943224
O O12 0.457272 0.000000 0.750344
O O13 0.082885 0.500000 0.918955
O O14 0.881908 0.593566 0.516263
O O15 0.099544 0.675143 0.914992
O O16 0.000000 0.599730 0.000000
O O17 0.231652 0.306173 0.879777
O O18 0.000000 0.252385 0.500000
#
# Coordination Sequence:
#
# PCOD9151728 Si02
#       7
#     4   4   4   4   4   4   4
#     4  10  22  36  53  82 115 153 193 229 285 353
#     4  10  21  34  54  84 117 151 187 232 285 339
#     4   9  18  34  59  87 115 150 190 235 288 343
#     4   9  19  34  57  88 118 150 190 233 285 347
#     4  10  23  41  61  86 111 148 199 246 292 340
#     4  10  22  39  59  84 113 150 194 239 288 341
#     4  10  22  37  56  83 117 156 187 239 288 341
#
# _framework density 20.687750999999999
#
# number of rings (size 3 to 8) (size 9 to 14) (size 15 to 20)
#    0.000    2.286    0.000    3.000    6.000    6.857 
#    0.000    3.571    0.000    1.286    0.000    0.000 
#    0.000    0.000    0.000    0.000    0.000    0.000 
#
# Total GULP energy -156068.243073 kJ/mol
# GULP energy per Si atom -5573.865824 kJ/mol
# Density = 2.064066 g / cm^3
# Si number density = 20.687751 Si / 1000 Ang^3
#
#
#
# Elastic Constant Matrix: (Units=GPa)
#
#
# Indices 1 2 3 4 5 6 
#
# 1 76.8659 69.2913 -2.1698 0.0000 -7.3280 0.0000
# 2 69.2913 162.4327 20.8966 0.0000 6.5017 0.0000
# 3 -2.1698 20.8966 55.4881 0.0000 -1.9813 0.0000
# 4 0.0000 0.0000 0.0000 21.2410 0.0000 15.1391
# 5 -7.3280 6.5017 -1.9813 0.0000 26.5834 0.0000
# 6 0.0000 0.0000 0.0000 15.1391 0.0000 46.3437
#
#
#
# Elastic Compliance Matrix: (Units=1/GPa)
#
#
# Indices 1 2 3 4 5 6 
#
# 1 0.024623 -0.011641 0.005706 0.000000 0.010060 0.000000
# 2 -0.011641 0.012057 -0.005230 0.000000 -0.006547 0.000000
# 3 0.005706 -0.005230 0.020370 0.000000 0.004370 0.000000
# 4 0.000000 0.000000 0.000000 0.061367 0.000000 -0.020047
# 5 0.010060 -0.006547 0.004370 0.000000 0.042318 0.000000
# 6 0.000000 0.000000 0.000000 -0.020047 0.000000 0.028127
#
#
# Mechanical properties :
#
#
# Convention : Reuss Voigt Hill
#
# Bulk Modulus (GPa) = 28.80010 52.31365 40.55687
# Shear Modulus (GPa) = 22.44524 32.61820 27.53172
#
# Velocity S-wave (km/s) = 3.29744 3.97507 3.65200
# Velocity P-wave (km/s) = 5.33376 6.81251 6.11798
#
# Compressibility (1/GPa) = 0.03472211
#
# Stress axis : x y z
#
# Youngs Moduli (GPa) = 40.61184 82.93960 49.09063
#
# Poissons Ratio (x) = 0.96547 -0.28011
# Poissons Ratio (y) = 0.47275 0.25672
# Poissons Ratio (z) = -0.23173 0.43374
#
# Static dielectric constant tensor:
#      x y z
#    x 1.794650 0.000000 0.003210 
#    y 0.000000 1.783410 0.000000 
#    z 0.003210 0.000000 1.754940 
# 
# From -- ./inp_files/32839.got.cif
#   From: 2010.05.17/outbox.cif.g08.bks.cpg/sg10_17_cif.got.tgz:32839.got - 2010.06.03 11:33:40.
