data_PCOD9151361
_publ_section_title
;
Structure prediction by ZEFSAII (Michael W. Deem and Ramdas Pophale) SiO2 
 PCOD9151361
Probable space group: P 2/M
;
_chemical_formula_sum "Si O2"
_cell_formula_units_Z 30
_cell_length_a 12.182291
_cell_length_b 13.072148
_cell_length_c 12.112828
_cell_angle_alpha 90.000000
_cell_angle_beta 132.076549
_cell_angle_gamma 90.000000
_cell_volume 1431.765156
_symmetry_space_group_name_H-M "P 2/M"
_symmetry_group_IT_number 10
_symmetry_cell_setting 'monoclinic'
loop_
_space_group_symop_operation_xyz
x,y,z
-x,y,-z
-x,-y,-z
x,-y,z
loop_
_atom_site_type_symbol
_atom_site_label
_atom_site_fract_x
_atom_site_fract_y
_atom_site_fract_z
Si Si1 0.619798 0.116475 0.677661
Si Si2 0.145163 0.295213 0.166682
Si Si3 0.409076 0.668648 0.826396
Si Si4 0.298890 0.614600 0.071637
Si Si5 0.155591 0.500000 0.687725
Si Si6 0.061406 0.110921 0.416726
Si Si7 0.961999 0.678255 0.249727
Si Si8 0.388453 0.884406 0.716840
O O1 0.500000 0.128379 0.500000
O O2 0.747330 0.199081 0.747890
O O3 0.530245 0.128462 0.732645
O O4 0.676695 0.000000 0.711300
O O5 0.230417 0.374350 0.145774
O O6 0.084893 0.342526 0.238953
O O7 0.000000 0.262754 0.000000
O O8 0.530580 0.643063 0.815249
O O9 0.273391 0.591287 0.731056
O O10 0.374284 0.788808 0.789897
O O11 0.500000 0.649358 0.000000
O O12 0.280848 0.500000 0.014345
O O13 0.196962 0.679124 0.919737
O O14 0.044293 0.590318 0.662958
O O15 0.238987 0.119181 0.543173
O O16 0.000000 0.110275 0.500000
O O17 0.995160 0.209493 0.315367
O O18 0.023449 0.000000 0.340870
O O19 0.393549 0.000000 0.768734
#
# Coordination Sequence:
#
# PCOD9151361 Si02
#       8
#     4   4   4   4   2   4   4   4
#     4  10  20  38  64  91 123 167 215 261 317 381
#     4  10  23  37  61  94 129 167 210 266 322 383
#     4  12  21  37  64  90 124 158 206 261 312 373
#     4  11  21  39  64  92 122 166 209 254 322 383
#     4  12  23  38  62  94 119 163 207 254 310 371
#     4  10  22  42  64  89 125 171 215 257 314 381
#     4  11  22  38  61  92 127 162 205 256 314 380
#     4  10  22  40  63  90 121 162 211 259 310 377
#
# _framework density 20.953157000000001
#
# number of rings (size 3 to 8) (size 9 to 14) (size 15 to 20)
#    0.000    1.333    4.000    1.800    0.933    2.933 
#    0.000    5.667    0.000    0.400    0.000    0.000 
#    0.000    0.000    0.000    0.000    0.000    0.000 
#
# Total GULP energy -167079.725221 kJ/mol
# GULP energy per Si atom -5569.324174 kJ/mol
# Density = 2.090547 g / cm^3
# Si number density = 20.953157 Si / 1000 Ang^3
#
#
#
# Elastic Constant Matrix: (Units=GPa)
#
#
# Indices 1 2 3 4 5 6 
#
# 1 103.0051 38.3003 16.4802 0.0000 24.7076 0.0000
# 2 38.3003 128.4855 34.8892 0.0000 15.9531 0.0000
# 3 16.4802 34.8892 22.7344 0.0000 12.7162 0.0000
# 4 0.0000 0.0000 0.0000 116.6378 0.0000 87.8679
# 5 24.7076 15.9531 12.7162 0.0000 26.1282 0.0000
# 6 0.0000 0.0000 0.0000 87.8679 0.0000 117.2208
#
#
#
# Elastic Compliance Matrix: (Units=1/GPa)
#
#
# Indices 1 2 3 4 5 6 
#
# 1 0.013327 -0.002855 0.001091 0.000000 -0.011391 0.000000
# 2 -0.002855 0.014075 -0.022306 0.000000 0.004962 0.000000
# 3 0.001091 -0.022306 0.096713 0.000000 -0.034482 0.000000
# 4 0.000000 0.000000 0.000000 0.019696 0.000000 -0.014764
# 5 -0.011391 0.004962 -0.034482 0.000000 0.062797 0.000000
# 6 0.000000 0.000000 0.000000 -0.014764 0.000000 0.019598
#
#
# Mechanical properties :
#
#
# Convention : Reuss Voigt Hill
#
# Bulk Modulus (GPa) = 13.16185 48.17382 30.66783
# Shear Modulus (GPa) = 16.68506 62.96771 39.82639
#
# Velocity S-wave (km/s) = 2.82495 5.48789 4.36447
# Velocity P-wave (km/s) = 4.11529 7.94965 6.32979
#
# Compressibility (1/GPa) = 0.07597716
#
# Stress axis : x y z
#
# Youngs Moduli (GPa) = 75.03299 71.04870 10.33986
#
# Poissons Ratio (x) = 0.20283 -0.01128
# Poissons Ratio (y) = 0.21421 0.23064
# Poissons Ratio (z) = -0.08189 1.58479
#
# Static dielectric constant tensor:
#      x y z
#    x 1.810900 0.000000 -0.038180 
#    y 0.000000 1.748390 0.000000 
#    z -0.038180 0.000000 1.813360 
# 
# From -- ./inp_files/64681.got.cif
#   From: 2010.05.17/outbox.cif.g08.bks.cpg/sg10_33_cif.got.tgz:64681.got - 2010.06.03 11:33:40.
