data_PCOD9151845
_publ_section_title
;
Structure prediction by ZEFSAII (Michael W. Deem and Ramdas Pophale) SiO2 
 PCOD9151845
Probable space group: P 2/M
;
_chemical_formula_sum "Si O2"
_cell_formula_units_Z 21
_cell_length_a 12.529838
_cell_length_b 7.052550
_cell_length_c 11.018410
_cell_angle_alpha 90.000000
_cell_angle_beta 51.808362
_cell_angle_gamma 90.000000
_cell_volume 765.250982
_symmetry_space_group_name_H-M "P 2/M"
_symmetry_group_IT_number 10
_symmetry_cell_setting 'monoclinic'
loop_
_space_group_symop_operation_xyz
x,y,z
-x,y,-z
-x,-y,-z
x,-y,z
loop_
_atom_site_type_symbol
_atom_site_label
_atom_site_fract_x
_atom_site_fract_y
_atom_site_fract_z
Si Si1 0.906706 0.229549 0.676878
Si Si2 0.569098 0.770366 0.677180
Si Si3 0.500000 0.500000 0.500000
Si Si4 0.665453 0.229275 0.997034
Si Si5 0.158043 0.229496 0.892921
Si Si6 0.165971 0.227255 0.625595
O O1 0.757086 0.293012 0.819578
O O2 0.000000 0.293493 0.500000
O O3 0.010472 0.277863 0.713152
O O4 0.898304 0.000000 0.670698
O O5 0.509671 0.664652 0.602011
O O6 0.729107 0.722173 0.553989
O O7 0.556505 0.000000 0.673522
O O8 0.486641 0.717677 0.856720
O O9 0.662940 0.000000 0.989172
O O10 0.754134 0.284517 0.053546
O O11 0.215456 0.293808 0.722105
O O12 0.160127 0.000000 0.894074
O O13 0.000000 0.284070 0.000000
O O14 0.165685 0.000000 0.628517
#
# Coordination Sequence:
#
# PCOD9151845 Si02
#       6
#     4   4   1   4   4   4
#     4   9  16  27  47  77 110 143 186 237 281 324
#     4  10  21  35  54  80 113 150 186 223 270 330
#     4  12  22  36  56  84 118 152 182 222 276 332
#     4   9  16  28  46  73 107 144 183 223 273 330
#     4   9  13  19  36  62  91 127 172 211 254 324
#     4   9  16  28  46  73 107 144 183 223 273 330
#
# _framework density 27.441980000000001
#
# number of rings (size 3 to 8) (size 9 to 14) (size 15 to 20)
#    0.000    2.667    1.905    1.429    0.000    3.048 
#    0.000    0.952    0.000    8.000    0.000    4.000 
#    0.000    0.000    0.000    0.000    0.000    1.143 
#
# Total GULP energy -117120.130846 kJ/mol
# GULP energy per Si atom -5577.149088 kJ/mol
# Density = 2.737952 g / cm^3
# Si number density = 27.441980 Si / 1000 Ang^3
#
#
#
# Elastic Constant Matrix: (Units=GPa)
#
#
# Indices 1 2 3 4 5 6 
#
# 1 80.6182 -7.9120 51.1202 0.0000 -28.0212 0.0000
# 2 -7.9120 186.7657 6.1361 0.0000 -4.7898 0.0000
# 3 51.1202 6.1361 264.4172 0.0000 -38.1459 0.0000
# 4 0.0000 0.0000 0.0000 -52.9505 0.0000 -4.4679
# 5 -28.0212 -4.7898 -38.1459 0.0000 52.2449 0.0000
# 6 0.0000 0.0000 0.0000 -4.4679 0.0000 4.1252
#
#
#
# Elastic Compliance Matrix: (Units=1/GPa)
#
#
# Indices 1 2 3 4 5 6 
#
# 1 0.016397 0.000953 -0.002136 0.000000 0.007322 0.000000
# 2 0.000953 0.005423 -0.000184 0.000000 0.000874 0.000000
# 3 -0.002136 -0.000184 0.004506 0.000000 0.002128 0.000000
# 4 0.000000 0.000000 0.000000 -0.017304 0.000000 -0.018742
# 5 0.007322 0.000874 0.002128 0.000000 0.024701 0.000000
# 6 0.000000 0.000000 0.000000 -0.018742 0.000000 0.222114
#
#
# Mechanical properties :
#
#
# Convention : Reuss Voigt Hill
#
# Bulk Modulus (GPa) = 42.38755 70.05441 56.22098
# Shear Modulus (GPa) = 18.76626 32.84770 25.80698
#
# Velocity S-wave (km/s) = 2.61789 3.46350 3.06995
# Velocity P-wave (km/s) = 4.96161 6.44811 5.75307
#
# Compressibility (1/GPa) = 0.02359183
#
# Stress axis : x y z
#
# Youngs Moduli (GPa) = 60.98650 184.39607 221.92474
#
# Poissons Ratio (x) = -0.17565 0.47399
# Poissons Ratio (y) = -0.05810 0.04082
# Poissons Ratio (z) = 0.13026 0.03392
#
# Static dielectric constant tensor:
#      x y z
#    x 2.126750 0.000000 -0.000480 
#    y 0.000000 2.106080 0.000000 
#    z -0.000480 0.000000 2.152150 
# 
# From -- ./inp_files/48618.got.cif
#   From: 2010.05.17/outbox.cif.g08.bks.cpg/sg10_25_cif.got.tgz:48618.got - 2010.06.03 11:33:40.
