data_PCOD9151542
_publ_section_title
;
Structure prediction by ZEFSAII (Michael W. Deem and Ramdas Pophale) SiO2 
 PCOD9151542
Probable space group: P 2/M
;
_chemical_formula_sum "Si O2"
_cell_formula_units_Z 32
_cell_length_a 29.876153
_cell_length_b 8.171100
_cell_length_c 11.956851
_cell_angle_alpha 90.000000
_cell_angle_beta 30.079227
_cell_angle_gamma 90.000000
_cell_volume 1462.953468
_symmetry_space_group_name_H-M "P 2/M"
_symmetry_group_IT_number 10
_symmetry_cell_setting 'monoclinic'
loop_
_space_group_symop_operation_xyz
x,y,z
-x,y,-z
-x,-y,-z
x,-y,z
loop_
_atom_site_type_symbol
_atom_site_label
_atom_site_fract_x
_atom_site_fract_y
_atom_site_fract_z
Si Si1 0.605522 0.315984 0.760767
Si Si2 0.625932 0.814336 0.954075
Si Si3 0.962347 0.697655 0.263250
Si Si4 0.203750 0.195449 0.508431
Si Si5 0.167141 0.304141 0.829107
Si Si6 0.427533 0.801623 0.413401
Si Si7 0.915372 0.696047 0.610421
Si Si8 0.752702 0.193442 0.108424
O O1 0.643515 0.500000 0.695041
O O2 0.620035 0.190408 0.831161
O O3 0.612800 0.252761 0.618860
O O4 0.500000 0.338351 0.000000
O O5 0.725721 0.738359 0.738858
O O6 0.630150 0.000000 0.988295
O O7 0.530913 0.742211 0.200998
O O8 0.963243 0.500000 0.258176
O O9 0.895311 0.754673 0.313217
O O10 0.924667 0.756496 0.464038
O O11 0.064835 0.751587 0.034611
O O12 0.217695 0.257628 0.605458
O O13 0.209994 0.000000 0.494200
O O14 0.167837 0.500000 0.841500
O O15 0.206036 0.229287 0.858269
O O16 0.350894 0.748432 0.666376
O O17 0.432532 0.000000 0.402265
O O18 0.924707 0.500000 0.586074
O O19 0.000000 0.758451 0.500000
O O20 0.821591 0.733787 0.871026
O O21 0.750391 0.000000 0.095950
#
# Coordination Sequence:
#
# PCOD9151542 Si02
#       8
#     4   4   4   4   4   4   4   4
#     4   9  16  25  41  68  98 130 174 223 263 302
#     4   9  18  33  49  66 100 147 183 214 260 320
#     4  10  22  40  60  79 105 146 187 220 266 335
#     4  11  23  36  54  83 113 144 187 233 273 313
#     4  11  22  38  57  79 113 153 186 218 270 338
#     4   9  18  32  48  69 103 144 179 213 263 325
#     4  10  20  40  63  82 107 142 182 219 270 338
#     4  11  22  34  55  88 116 140 179 231 280 319
#
# _framework density 21.873560000000001
#
# number of rings (size 3 to 8) (size 9 to 14) (size 15 to 20)
#    0.000    2.000    1.250    2.625    0.000    9.750 
#    0.000    0.000    0.000    0.750    0.000    5.250 
#    0.000    0.000    0.000    0.000    0.000    0.000 
#
# Total GULP energy -178368.150998 kJ/mol
# GULP energy per Si atom -5574.004719 kJ/mol
# Density = 2.182377 g / cm^3
# Si number density = 21.873560 Si / 1000 Ang^3
#
#
#
# Elastic Constant Matrix: (Units=GPa)
#
#
# Indices 1 2 3 4 5 6 
#
# 1 15.5003 -5.1618 1.2497 0.0000 4.5448 0.0000
# 2 -5.1618 24.8463 -1.0955 0.0000 -0.8010 0.0000
# 3 1.2497 -1.0955 145.7546 0.0000 -1.8962 0.0000
# 4 0.0000 0.0000 0.0000 24.7177 0.0000 1.1140
# 5 4.5448 -0.8010 -1.8962 0.0000 30.1274 0.0000
# 6 0.0000 0.0000 0.0000 1.1140 0.0000 13.4615
#
#
#
# Elastic Compliance Matrix: (Units=1/GPa)
#
#
# Indices 1 2 3 4 5 6 
#
# 1 0.072572 0.014706 -0.000650 0.000000 -0.010597 0.000000
# 2 0.014706 0.043277 0.000185 0.000000 -0.001056 0.000000
# 3 -0.000650 0.000185 0.006875 0.000000 0.000536 0.000000
# 4 0.000000 0.000000 0.000000 0.040608 0.000000 -0.003361
# 5 -0.010597 -0.001056 0.000536 0.000000 0.034797 0.000000
# 6 0.000000 0.000000 0.000000 -0.003361 0.000000 0.074564
#
#
# Mechanical properties :
#
#
# Convention : Reuss Voigt Hill
#
# Bulk Modulus (GPa) = 6.61341 19.56510 13.08926
# Shear Modulus (GPa) = 16.97158 26.40192 21.68675
#
# Velocity S-wave (km/s) = 2.78851 3.47799 3.15216
# Velocity P-wave (km/s) = 3.66029 5.00926 4.38694
#
# Compressibility (1/GPa) = 0.15120797
#
# Stress axis : x y z
#
# Youngs Moduli (GPa) = 13.77947 23.10705 145.45921
#
# Poissons Ratio (x) = -0.33982 0.09448
# Poissons Ratio (y) = -0.20265 -0.02697
# Poissons Ratio (z) = 0.00895 -0.00429
#
# Static dielectric constant tensor:
#      x y z
#    x 1.845740 0.000000 -0.078180 
#    y 0.000000 1.797430 0.000000 
#    z -0.078180 0.000000 1.911570 
# 
# From -- ./inp_files/58092.got.cif
#   From: 2010.05.17/outbox.cif.g08.bks.cpg/sg10_30_cif.got.tgz:58092.got - 2010.06.03 11:33:40.
