data_PCOD9151226
_publ_section_title
;
Structure prediction by ZEFSAII (Michael W. Deem and Ramdas Pophale) SiO2 
 PCOD9151226
Probable space group: P 2/M
;
_chemical_formula_sum "Si O2"
_cell_formula_units_Z 28
_cell_length_a 5.292055
_cell_length_b 17.956292
_cell_length_c 12.906516
_cell_angle_alpha 90.000000
_cell_angle_beta 78.214543
_cell_angle_gamma 90.000000
_cell_volume 1200.596041
_symmetry_space_group_name_H-M "P 2/M"
_symmetry_group_IT_number 10
_symmetry_cell_setting 'monoclinic'
loop_
_space_group_symop_operation_xyz
x,y,z
-x,y,-z
-x,-y,-z
x,-y,z
loop_
_atom_site_type_symbol
_atom_site_label
_atom_site_fract_x
_atom_site_fract_y
_atom_site_fract_z
Si Si1 0.760163 0.713698 0.593201
Si Si2 0.719793 0.582426 0.895175
Si Si3 0.473606 0.583793 0.684299
Si Si4 0.223825 0.912048 0.049370
Si Si5 0.046654 0.699552 0.779059
Si Si6 0.850629 0.085560 0.699624
Si Si7 0.346667 0.825988 0.679964
O O1 0.670674 0.628235 0.594802
O O2 0.511769 0.765793 0.602596
O O3 0.000000 0.729489 0.500000
O O4 0.848294 0.724425 0.705791
O O5 0.848459 0.500000 0.895700
O O6 0.591829 0.582900 0.791243
O O7 0.903194 0.654658 0.881200
O O8 0.500000 0.587499 0.000000
O O9 0.420868 0.500000 0.656822
O O10 0.221568 0.634843 0.713346
O O11 0.153213 0.910443 0.175165
O O12 0.241235 0.000000 0.017910
O O13 0.500000 0.878159 0.000000
O O14 0.000000 0.877561 0.000000
O O15 0.222044 0.772655 0.779979
O O16 0.569182 0.115987 0.692011
O O17 0.106133 0.131928 0.646643
O O18 0.877824 0.000000 0.664732
#
# Coordination Sequence:
#
# PCOD9151226 Si02
#       7
#     4   4   4   4   4   4   4
#     4  10  22  41  65  89 120 168 209 255 319 384
#     4   9  18  34  59  90 127 175 222 259 301 355
#     4   9  19  34  59  92 126 165 209 264 309 359
#     4   9  17  31  54  84 116 151 193 242 295 360
#     4  10  20  38  60  87 128 168 208 261 308 380
#     4  11  22  39  66  92 121 161 207 262 323 379
#     4  11  22  40  63  91 124 160 209 251 315 388
#
# _framework density 23.321749000000001
#
# number of rings (size 3 to 8) (size 9 to 14) (size 15 to 20)
#    0.000    2.143    1.429    1.714    0.000    6.000 
#    0.000    3.571   15.714    2.571    0.000    0.000 
#    0.000    0.000    0.000    0.000    0.000    0.000 
#
# Total GULP energy -156322.649148 kJ/mol
# GULP energy per Si atom -5582.951755 kJ/mol
# Density = 2.326867 g / cm^3
# Si number density = 23.321749 Si / 1000 Ang^3
#
#
#
# Elastic Constant Matrix: (Units=GPa)
#
#
# Indices 1 2 3 4 5 6 
#
# 1 111.5323 53.7230 24.7416 0.0000 -19.1386 0.0000
# 2 53.7230 166.1149 35.3268 0.0000 -27.6044 0.0000
# 3 24.7416 35.3268 62.6697 0.0000 -20.9197 0.0000
# 4 0.0000 0.0000 0.0000 -3.0078 0.0000 -11.0741
# 5 -19.1386 -27.6044 -20.9197 0.0000 36.3378 0.0000
# 6 0.0000 0.0000 0.0000 -11.0741 0.0000 32.1342
#
#
#
# Elastic Compliance Matrix: (Units=1/GPa)
#
#
# Indices 1 2 3 4 5 6 
#
# 1 0.011188 -0.002756 -0.001975 0.000000 0.002662 0.000000
# 2 -0.002756 0.007942 -0.002302 0.000000 0.003256 0.000000
# 3 -0.001975 -0.002302 0.021172 0.000000 0.009400 0.000000
# 4 0.000000 0.000000 0.000000 -0.146537 0.000000 -0.050500
# 5 0.002662 0.003256 0.009400 0.000000 0.036807 0.000000
# 6 0.000000 0.000000 0.000000 -0.050500 0.000000 0.013716
#
#
# Mechanical properties :
#
#
# Convention : Reuss Voigt Hill
#
# Bulk Modulus (GPa) = 38.11472 63.09999 50.60736
# Shear Modulus (GPa) = -151.97249 28.19453 -61.88898
#
# Velocity S-wave (km/s) = -8.08114 3.48075 -5.15700
# Velocity P-wave (km/s) = 8.40801 6.57793 3.70307
#
# Compressibility (1/GPa) = 0.02623658
#
# Stress axis : x y z
#
# Youngs Moduli (GPa) = 89.37768 125.91436 47.23320
#
# Poissons Ratio (x) = 0.34703 0.09328
# Poissons Ratio (y) = 0.24633 0.10872
# Poissons Ratio (z) = 0.17651 0.28982
#
# Static dielectric constant tensor:
#      x y z
#    x 1.918970 0.000000 0.026790 
#    y 0.000000 1.917660 0.000000 
#    z 0.026790 0.000000 1.850490 
# 
# From -- ./inp_files/59385.got.cif
#   From: 2010.05.17/outbox.cif.g08.bks.cpg/sg10_30_cif.got.tgz:59385.got - 2010.06.03 11:33:40.
