data_PCOD9151940
_publ_section_title
;
Structure prediction by ZEFSAII (Michael W. Deem and Ramdas Pophale) SiO2 
 PCOD9151940
Probable space group: P 2/M
;
_chemical_formula_sum "Si O2"
_cell_formula_units_Z 32
_cell_length_a 10.372093
_cell_length_b 7.783933
_cell_length_c 24.027386
_cell_angle_alpha 90.000000
_cell_angle_beta 50.810551
_cell_angle_gamma 90.000000
_cell_volume 1503.515205
_symmetry_space_group_name_H-M "P 2/M"
_symmetry_group_IT_number 10
_symmetry_cell_setting 'monoclinic'
loop_
_space_group_symop_operation_xyz
x,y,z
-x,y,-z
-x,-y,-z
x,-y,z
loop_
_atom_site_type_symbol
_atom_site_label
_atom_site_fract_x
_atom_site_fract_y
_atom_site_fract_z
Si Si1 0.254633 0.709180 0.603594
Si Si2 0.076685 0.293475 0.244759
Si Si3 0.853392 0.801103 0.578529
Si Si4 0.612592 0.291761 0.551041
Si Si5 0.818489 0.196816 0.019787
Si Si6 0.683637 0.203057 0.167756
Si Si7 0.981988 0.791916 0.866234
Si Si8 0.679130 0.302031 0.732999
O O1 0.252601 0.500000 0.603964
O O2 0.279122 0.760662 0.532648
O O3 0.423073 0.759050 0.589923
O O4 0.089917 0.771649 0.679015
O O5 0.077625 0.500000 0.251535
O O6 0.237359 0.226538 0.234249
O O7 0.067364 0.256999 0.182239
O O8 0.690045 0.785823 0.584962
O O9 0.815278 0.712313 0.647075
O O10 0.000000 0.726473 0.500000
O O11 0.892108 0.000000 0.579327
O O12 0.617903 0.500000 0.553853
O O13 0.856767 0.272965 0.948763
O O14 0.761873 0.000000 0.025744
O O15 0.704731 0.276571 0.099136
O O16 0.000000 0.190956 0.000000
O O17 0.831108 0.268411 0.167607
O O18 0.495049 0.222441 0.237992
O O19 0.716410 0.000000 0.153376
O O20 0.980820 0.000000 0.869319
O O21 0.639989 0.500000 0.753143
#
# Coordination Sequence:
#
# PCOD9151940 Si02
#       8
#     4   4   4   4   4   4   4   4
#     4   8  16  32  54  77 103 136 176 221 268 320
#     4  10  21  36  52  75 110 147 184 226 272 322
#     4  11  24  39  55  77 108 142 181 229 279 325
#     4   9  17  33  57  80 100 132 179 224 270 327
#     4   7  12  28  54  81 109 141 178 220 267 323
#     4   9  18  35  59  85 113 142 178 229 277 321
#     4   9  18  33  57  86 110 141 184 224 272 331
#     4  11  24  39  56  79 110 150 190 225 269 328
#
# _framework density 21.283456000000001
#
# number of rings (size 3 to 8) (size 9 to 14) (size 15 to 20)
#    0.000    2.750    0.000    3.750    1.750    3.500 
#    0.000    3.125    0.000    6.000    0.000    0.000 
#    0.000    0.000    0.000    0.000    0.000    0.000 
#
# Total GULP energy -178486.042467 kJ/mol
# GULP energy per Si atom -5577.688827 kJ/mol
# Density = 2.123501 g / cm^3
# Si number density = 21.283456 Si / 1000 Ang^3
#
#
#
# Elastic Constant Matrix: (Units=GPa)
#
#
# Indices 1 2 3 4 5 6 
#
# 1 80.4159 0.7511 31.1193 0.0000 25.2966 0.0000
# 2 0.7511 28.2782 -2.7584 0.0000 -2.0179 0.0000
# 3 31.1193 -2.7584 72.2964 0.0000 11.4043 0.0000
# 4 0.0000 0.0000 0.0000 50.0488 0.0000 -44.5057
# 5 25.2966 -2.0179 11.4043 0.0000 29.8307 0.0000
# 6 0.0000 0.0000 0.0000 -44.5057 0.0000 99.5987
#
#
#
# Elastic Compliance Matrix: (Units=1/GPa)
#
#
# Indices 1 2 3 4 5 6 
#
# 1 0.019285 -0.002122 -0.006151 0.000000 -0.014146 0.000000
# 2 -0.002122 0.035841 0.001718 0.000000 0.003567 0.000000
# 3 -0.006151 0.001718 0.016712 0.000000 -0.001057 0.000000
# 4 0.000000 0.000000 0.000000 0.033155 0.000000 0.014815
# 5 -0.014146 0.003567 -0.001057 0.000000 0.046164 0.000000
# 6 0.000000 0.000000 0.000000 0.014815 0.000000 0.016660
#
#
# Mechanical properties :
#
#
# Convention : Reuss Voigt Hill
#
# Bulk Modulus (GPa) = 17.02706 26.57937 21.80322
# Shear Modulus (GPa) = 24.93728 46.02088 35.47908
#
# Velocity S-wave (km/s) = 3.42669 4.65508 4.08730
# Velocity P-wave (km/s) = 4.86557 6.43494 5.70448
#
# Compressibility (1/GPa) = 0.05873003
#
# Stress axis : x y z
#
# Youngs Moduli (GPa) = 51.85285 27.90065 59.83827
#
# Poissons Ratio (x) = 0.05920 0.36804
# Poissons Ratio (y) = 0.11001 -0.10281
# Poissons Ratio (z) = 0.31893 -0.04794
#
# Static dielectric constant tensor:
#      x y z
#    x 1.761300 0.000000 -0.004990 
#    y 0.000000 1.783320 0.000000 
#    z -0.004990 0.000000 1.797920 
# 
# From -- ./inp_files/88537.got.cif
#   From: 2010.05.17/outbox.cif.g08.bks.cpg/sg10_45_cif.got.tgz:88537.got - 2010.06.03 11:33:40.
