data_PCOD9151860
_publ_section_title
;
Structure prediction by ZEFSAII (Michael W. Deem and Ramdas Pophale) SiO2 
 PCOD9151860
Probable space group: P 2/M
;
_chemical_formula_sum "Si O2"
_cell_formula_units_Z 32
_cell_length_a 22.975381
_cell_length_b 9.930511
_cell_length_c 14.182082
_cell_angle_alpha 90.000000
_cell_angle_beta 149.315951
_cell_angle_gamma 90.000000
_cell_volume 1651.212139
_symmetry_space_group_name_H-M "P 2/M"
_symmetry_group_IT_number 10
_symmetry_cell_setting 'monoclinic'
loop_
_space_group_symop_operation_xyz
x,y,z
-x,y,-z
-x,-y,-z
x,-y,z
loop_
_atom_site_type_symbol
_atom_site_label
_atom_site_fract_x
_atom_site_fract_y
_atom_site_fract_z
Si Si1 0.531179 0.641324 0.434443
Si Si2 0.471502 0.151803 0.123151
Si Si3 0.679822 0.777889 0.916604
Si Si4 0.870686 0.341998 0.848903
Si Si5 0.872503 0.658012 0.304406
Si Si6 0.686244 0.343246 0.426417
Si Si7 0.285112 0.844062 0.253213
Si Si8 0.690428 0.655402 0.215731
O O1 0.500000 0.632053 0.500000
O O2 0.589766 0.500000 0.489782
O O3 0.410151 0.654787 0.215556
O O4 0.610522 0.772285 0.545866
O O5 0.386708 0.141055 0.095113
O O6 0.582002 0.242164 0.300485
O O7 0.501616 0.000000 0.135600
O O8 0.402780 0.238095 0.949598
O O9 0.691050 0.834238 0.826261
O O10 0.801645 0.735226 0.125992
O O11 0.867548 0.500000 0.872910
O O12 0.787898 0.325530 0.642771
O O13 0.821836 0.246008 0.862830
O O14 0.000000 0.309735 0.000000
O O15 0.879277 0.500000 0.287723
O O16 0.797542 0.667777 0.294912
O O17 0.000000 0.708131 0.500000
O O18 0.648840 0.500000 0.377240
O O19 0.722790 0.320103 0.369048
O O20 0.273940 0.000000 0.263272
O O21 0.648150 0.500000 0.148054
#
# Coordination Sequence:
#
# PCOD9151860 Si02
#       8
#     4   4   4   4   4   4   4   4
#     4   9  18  32  52  80 111 143 182 226 273 328
#     4  11  22  35  55  85 117 147 184 228 273 329
#     4  10  21  35  55  81 117 154 185 224 281 337
#     4  10  23  42  62  84 110 144 190 239 282 329
#     4   9  18  33  56  86 114 143 187 237 279 326
#     4  10  21  38  59  82 112 148 183 226 283 338
#     4  11  23  38  58  84 115 151 188 229 282 341
#     4   9  19  36  57  82 113 147 182 225 280 337
#
# _framework density 19.379702000000002
#
# number of rings (size 3 to 8) (size 9 to 14) (size 15 to 20)
#    0.000    2.125    0.000    2.625    0.000   11.500 
#    0.000    2.500    0.000   12.375    0.000    0.000 
#    0.000    0.000    0.000    0.000    0.000    0.000 
#
# Total GULP energy -178433.501730 kJ/mol
# GULP energy per Si atom -5576.046929 kJ/mol
# Density = 1.933559 g / cm^3
# Si number density = 19.379702 Si / 1000 Ang^3
#
#
#
# Elastic Constant Matrix: (Units=GPa)
#
#
# Indices 1 2 3 4 5 6 
#
# 1 78.8784 38.4101 26.7053 0.0000 -9.8165 0.0000
# 2 38.4101 123.0534 51.5126 0.0000 9.1403 0.0000
# 3 26.7053 51.5126 114.0971 0.0000 11.1479 0.0000
# 4 0.0000 0.0000 0.0000 -117.1057 0.0000 208.8577
# 5 -9.8165 9.1403 11.1479 0.0000 35.0284 0.0000
# 6 0.0000 0.0000 0.0000 208.8577 0.0000 -475.3687
#
#
#
# Elastic Compliance Matrix: (Units=1/GPa)
#
#
# Indices 1 2 3 4 5 6 
#
# 1 0.016594 -0.004655 -0.002431 0.000000 0.006639 0.000000
# 2 -0.004655 0.011376 -0.003746 0.000000 -0.003081 0.000000
# 3 -0.002431 -0.003746 0.011348 0.000000 -0.003316 0.000000
# 4 0.000000 0.000000 0.000000 -0.039460 0.000000 -0.017337
# 5 0.006639 -0.003081 -0.003316 0.000000 0.032268 0.000000
# 6 0.000000 0.000000 0.000000 -0.017337 0.000000 -0.009721
#
#
# Mechanical properties :
#
#
# Convention : Reuss Voigt Hill
#
# Bulk Modulus (GPa) = 56.63968 61.03166 58.83567
# Shear Modulus (GPa) = 100.09230 -98.19579 0.94825
#
# Velocity S-wave (km/s) = 7.19445 -7.12597 0.70026
# Velocity P-wave (km/s) = 9.91480 6.01207 5.57487
#
# Compressibility (1/GPa) = 0.01765547
#
# Stress axis : x y z
#
# Youngs Moduli (GPa) = 60.26372 87.90071 88.11780
#
# Poissons Ratio (x) = 0.40919 0.21420
# Poissons Ratio (y) = 0.28053 0.33006
# Poissons Ratio (z) = 0.14649 0.32925
#
# Static dielectric constant tensor:
#      x y z
#    x 1.716570 0.000000 -0.010240 
#    y 0.000000 1.686800 0.000000 
#    z -0.010240 0.000000 1.657240 
# 
# From -- ./inp_files/71602.got.cif
#   From: 2010.05.17/outbox.cif.g08.bks.cpg/sg10_36_cif.got.tgz:71602.got - 2010.06.03 11:33:40.
