data_PCOD9151205
_publ_section_title
;
Structure prediction by ZEFSAII (Michael W. Deem and Ramdas Pophale) SiO2 
 PCOD9151205
Probable space group: P 2/M
;
_chemical_formula_sum "Si O2"
_cell_formula_units_Z 18
_cell_length_a 8.444136
_cell_length_b 21.659791
_cell_length_c 9.827498
_cell_angle_alpha 90.000000
_cell_angle_beta 148.842184
_cell_angle_gamma 90.000000
_cell_volume 929.986066
_symmetry_space_group_name_H-M "P 2/M"
_symmetry_group_IT_number 10
_symmetry_cell_setting 'monoclinic'
loop_
_space_group_symop_operation_xyz
x,y,z
-x,y,-z
-x,-y,-z
x,-y,z
loop_
_atom_site_type_symbol
_atom_site_label
_atom_site_fract_x
_atom_site_fract_y
_atom_site_fract_z
Si Si1 0.284280 0.192809 0.106862
Si Si2 0.068186 0.133101 0.388688
Si Si3 0.357247 0.331007 0.245625
Si Si4 0.134091 0.000000 0.749620
Si Si5 0.636180 0.571263 0.246624
O O1 0.577607 0.152056 0.363684
O O2 0.379092 0.264214 0.190184
O O3 0.000000 0.182642 0.000000
O O4 0.152973 0.176847 0.861625
O O5 0.000000 0.136668 0.500000
O O6 0.986833 0.063949 0.277489
O O7 0.500000 0.325726 0.500000
O O8 0.519760 0.383011 0.276409
O O9 0.000000 0.345907 0.000000
O O10 0.000000 0.000000 0.500000
O O11 0.500000 0.000000 0.000000
O O12 0.546891 0.500000 0.209885
O O13 0.000000 0.573895 0.500000
O O14 0.500000 0.588618 0.000000
#
# Coordination Sequence:
#
# PCOD9151205 Si02
#       5
#     4   4   4   2   4
#     4  11  23  40  57  85 124 154 187 243 298 339
#     4  11  22  39  63  87 112 153 199 238 287 351
#     4  11  23  40  61  86 118 160 199 236 287 349
#     4  10  20  38  59  86 117 146 189 246 291 338
#     4  10  22  40  61  89 123 154 191 246 297 336
#
# _framework density 19.355129000000002
#
# number of rings (size 3 to 8) (size 9 to 14) (size 15 to 20)
#    0.000    1.333    0.000    8.000    0.000    3.556 
#    0.000    3.333    0.000    0.000    0.000    0.000 
#    0.000    0.000    0.000    0.000    0.000    0.000 
#
# Total GULP energy -100588.158015 kJ/mol
# GULP energy per Si atom -5588.231001 kJ/mol
# Density = 1.931108 g / cm^3
# Si number density = 19.355129 Si / 1000 Ang^3
#
#
#
# Elastic Constant Matrix: (Units=GPa)
#
#
# Indices 1 2 3 4 5 6 
#
# 1 55.3491 73.1912 27.6670 0.0000 -1.7940 0.0000
# 2 73.1912 131.8538 51.4371 0.0000 -11.9673 0.0000
# 3 27.6670 51.4371 151.1179 0.0000 -10.6580 0.0000
# 4 0.0000 0.0000 0.0000 72.2922 0.0000 -42.2244
# 5 -1.7940 -11.9673 -10.6580 0.0000 43.7637 0.0000
# 6 0.0000 0.0000 0.0000 -42.2244 0.0000 102.1202
#
#
#
# Elastic Compliance Matrix: (Units=1/GPa)
#
#
# Indices 1 2 3 4 5 6 
#
# 1 0.070572 -0.039944 0.000111 0.000000 -0.008003 0.000000
# 2 -0.039944 0.031479 -0.002961 0.000000 0.006249 0.000000
# 3 0.000111 -0.002961 0.007680 0.000000 0.001065 0.000000
# 4 0.000000 0.000000 0.000000 0.018237 0.000000 0.007541
# 5 -0.008003 0.006249 0.001065 0.000000 0.024490 0.000000
# 6 0.000000 0.000000 0.000000 0.007541 0.000000 0.012910
#
#
# Mechanical properties :
#
#
# Convention : Reuss Voigt Hill
#
# Bulk Modulus (GPa) = 41.41870 71.43460 56.42665
# Shear Modulus (GPa) = 19.30473 56.03693 37.67083
#
# Velocity S-wave (km/s) = 3.16158 5.38654 4.41647
# Velocity P-wave (km/s) = 5.89689 8.69907 7.43126
#
# Compressibility (1/GPa) = 0.02414369
#
# Stress axis : x y z
#
# Youngs Moduli (GPa) = 14.16992 31.76724 130.20843
#
# Poissons Ratio (x) = 1.26890 -0.01446
# Poissons Ratio (y) = 0.56600 0.38555
# Poissons Ratio (z) = -0.00157 0.09406
#
# Static dielectric constant tensor:
#      x y z
#    x 1.652860 0.000000 -0.001880 
#    y 0.000000 1.700350 0.000000 
#    z -0.001880 0.000000 1.648660 
# 
# From -- ./inp_files/20658.got.cif
#   From: 2010.05.17/outbox.cif.g08.bks.cpg/sg10_11_cif.got.tgz:20658.got - 2010.06.03 11:33:40.
