data_PCOD9151045
_publ_section_title
;
Structure prediction by ZEFSAII (Michael W. Deem and Ramdas Pophale) SiO2 
 PCOD9151045
Probable space group: P 2/M
;
_chemical_formula_sum "Si O2"
_cell_formula_units_Z 26
_cell_length_a 16.577696
_cell_length_b 14.269084
_cell_length_c 9.772919
_cell_angle_alpha 90.000000
_cell_angle_beta 143.551756
_cell_angle_gamma 90.000000
_cell_volume 1373.414073
_symmetry_space_group_name_H-M "P 2/M"
_symmetry_group_IT_number 10
_symmetry_cell_setting 'monoclinic'
loop_
_space_group_symop_operation_xyz
x,y,z
-x,y,-z
-x,-y,-z
x,-y,z
loop_
_atom_site_type_symbol
_atom_site_label
_atom_site_fract_x
_atom_site_fract_y
_atom_site_fract_z
Si Si1 0.120293 0.281224 0.056519
Si Si2 0.095186 0.390324 0.749992
Si Si3 0.500000 0.762167 0.000000
Si Si4 0.602202 0.609884 0.517516
Si Si5 0.623951 0.606285 0.018929
Si Si6 0.718851 0.109317 0.806048
Si Si7 0.504213 0.889753 0.738988
O O1 0.261039 0.329964 0.298820
O O2 0.158834 0.177488 0.059634
O O3 0.074689 0.338752 0.862498
O O4 0.000000 0.281608 0.000000
O O5 0.064097 0.500000 0.725863
O O6 0.250127 0.382536 0.911323
O O7 0.000000 0.353130 0.500000
O O8 0.380528 0.688894 0.876845
O O9 0.480666 0.826848 0.840104
O O10 0.500000 0.640874 0.500000
O O11 0.635925 0.500000 0.589975
O O12 0.512606 0.614472 0.258034
O O13 0.632388 0.500000 0.087281
O O14 0.614790 0.117928 0.536146
O O15 0.638587 0.137288 0.835250
O O16 0.754489 0.000000 0.866879
O O17 0.515218 0.000000 0.790954
#
# Coordination Sequence:
#
# PCOD9151045 Si02
#       7
#     4   4   2   4   4   4   4
#     4  12  24  36  60  94 119 151 201 254 300 348
#     4  10  22  40  58  79 119 165 198 235 289 357
#     4  12  20  30  52  86 122 152 180 250 294 336
#     4  10  20  37  62  86 116 156 204 250 287 341
#     4  10  21  36  56  84 115 159 204 235 288 351
#     4   9  20  40  61  82 112 154 196 245 302 361
#     4   9  19  35  59  87 112 146 196 243 297 357
#
# _framework density 18.930925999999999
#
# number of rings (size 3 to 8) (size 9 to 14) (size 15 to 20)
#    0.000    1.846    1.538    3.692    2.154    4.000 
#    0.000    3.077    0.000    0.462    0.000    0.000 
#    0.000    0.000    0.000    0.000    0.000    0.000 
#
# Total GULP energy -145209.976324 kJ/mol
# GULP energy per Si atom -5584.999089 kJ/mol
# Density = 1.888784 g / cm^3
# Si number density = 18.930926 Si / 1000 Ang^3
#
#
#
# Elastic Constant Matrix: (Units=GPa)
#
#
# Indices 1 2 3 4 5 6 
#
# 1 150.0189 79.9100 35.2160 0.0000 -12.4817 0.0000
# 2 79.9100 107.6807 32.4876 0.0000 -10.6153 0.0000
# 3 35.2160 32.4876 62.9534 0.0000 -6.4313 0.0000
# 4 0.0000 0.0000 0.0000 38.5189 0.0000 11.9891
# 5 -12.4817 -10.6153 -6.4313 0.0000 24.2073 0.0000
# 6 0.0000 0.0000 0.0000 11.9891 0.0000 61.8452
#
#
#
# Elastic Compliance Matrix: (Units=1/GPa)
#
#
# Indices 1 2 3 4 5 6 
#
# 1 0.011399 -0.007584 -0.002264 0.000000 0.001950 0.000000
# 2 -0.007584 0.016326 -0.003958 0.000000 0.002197 0.000000
# 3 -0.002264 -0.003958 0.019424 0.000000 0.002258 0.000000
# 4 0.000000 0.000000 0.000000 0.027628 0.000000 -0.005356
# 5 0.001950 0.002197 0.002258 0.000000 0.043879 0.000000
# 6 0.000000 0.000000 0.000000 -0.005356 0.000000 0.017208
#
#
# Mechanical properties :
#
#
# Convention : Reuss Voigt Hill
#
# Bulk Modulus (GPa) = 51.18321 68.43115 59.80718
# Shear Modulus (GPa) = 29.41380 36.45024 32.93202
#
# Velocity S-wave (km/s) = 3.94603 4.39274 4.17536
# Velocity P-wave (km/s) = 6.91788 7.87112 7.40984
#
# Compressibility (1/GPa) = 0.01953766
#
# Stress axis : x y z
#
# Youngs Moduli (GPa) = 87.72425 61.25305 51.48215
#
# Poissons Ratio (x) = 0.46456 0.11654
# Poissons Ratio (y) = 0.66532 0.20376
# Poissons Ratio (z) = 0.19857 0.24244
#
# Static dielectric constant tensor:
#      x y z
#    x 1.663020 0.000000 -0.006510 
#    y 0.000000 1.689820 0.000000 
#    z -0.006510 0.000000 1.657290 
# 
# From -- ./inp_files/29845.got.cif
#   From: 2010.05.17/outbox.cif.g08.bks.cpg/sg10_15_cif.got.tgz:29845.got - 2010.06.03 11:33:40.
