data_PCOD9151397
_publ_section_title
;
Structure prediction by ZEFSAII (Michael W. Deem and Ramdas Pophale) SiO2 
 PCOD9151397
Probable space group: P 2/M
;
_chemical_formula_sum "Si O2"
_cell_formula_units_Z 32
_cell_length_a 13.918778
_cell_length_b 13.543893
_cell_length_c 13.214127
_cell_angle_alpha 90.000000
_cell_angle_beta 137.337268
_cell_angle_gamma 90.000000
_cell_volume 1688.141047
_symmetry_space_group_name_H-M "P 2/M"
_symmetry_group_IT_number 10
_symmetry_cell_setting 'monoclinic'
loop_
_space_group_symop_operation_xyz
x,y,z
-x,y,-z
-x,-y,-z
x,-y,z
loop_
_atom_site_type_symbol
_atom_site_label
_atom_site_fract_x
_atom_site_fract_y
_atom_site_fract_z
Si Si1 0.416726 0.267731 0.528671
Si Si2 0.132664 0.299924 0.978579
Si Si3 0.941377 0.114671 0.203400
Si Si4 0.843508 0.207495 0.335322
Si Si5 0.577645 0.385699 0.808859
Si Si6 0.742496 0.113446 0.461769
Si Si7 0.365167 0.612615 0.822954
Si Si8 0.839313 0.382457 0.772293
O O1 0.500000 0.219276 0.500000
O O2 0.529135 0.341897 0.665223
O O3 0.366296 0.187432 0.570133
O O4 0.282343 0.331215 0.387574
O O5 0.097233 0.188582 0.917680
O O6 0.993705 0.363247 0.841755
O O7 0.281542 0.330900 0.043791
O O8 0.154020 0.326405 0.113857
O O9 0.860804 0.150555 0.242784
O O10 0.107663 0.123173 0.362261
O O11 0.911035 0.000000 0.158429
O O12 0.770550 0.142959 0.367113
O O13 0.754055 0.306776 0.252722
O O14 0.000000 0.230034 0.500000
O O15 0.615045 0.500000 0.830867
O O16 0.438898 0.376254 0.770890
O O17 0.697340 0.000000 0.432987
O O18 0.313590 0.500000 0.795356
O O19 0.500000 0.626073 0.000000
O O20 0.818219 0.500000 0.769974
#
# Coordination Sequence:
#
# PCOD9151397 Si02
#       8
#     4   4   4   4   4   4   4   4
#     4  12  23  39  62  89 122 161 204 253 300 364
#     4  11  21  38  60  88 122 155 201 255 299 357
#     4  10  21  39  65  93 119 157 206 255 307 359
#     4  10  20  38  66  91 118 154 204 257 297 360
#     4  11  22  37  60  87 121 162 198 242 303 364
#     4  10  21  41  64  89 120 159 204 258 312 351
#     4  10  21  37  57  85 126 165 193 234 304 370
#     4  11  23  39  61  89 122 160 208 254 304 359
#
# _framework density 18.955762
#
# number of rings (size 3 to 8) (size 9 to 14) (size 15 to 20)
#    0.000    1.375    3.750    3.000    0.000    2.500 
#    0.000    3.750    0.000    1.500    0.000    0.000 
#    0.000    0.000    0.000    0.000    0.000    0.000 
#
# Total GULP energy -178601.767872 kJ/mol
# GULP energy per Si atom -5581.305246 kJ/mol
# Density = 1.891262 g / cm^3
# Si number density = 18.955762 Si / 1000 Ang^3
#
#
#
# Elastic Constant Matrix: (Units=GPa)
#
#
# Indices 1 2 3 4 5 6 
#
# 1 33.4668 11.6284 7.0072 0.0000 1.3674 0.0000
# 2 11.6284 128.0013 37.1802 0.0000 -3.0530 0.0000
# 3 7.0072 37.1802 58.4325 0.0000 5.7468 0.0000
# 4 0.0000 0.0000 0.0000 26.5088 0.0000 -0.0757
# 5 1.3674 -3.0530 5.7468 0.0000 23.2160 0.0000
# 6 0.0000 0.0000 0.0000 -0.0757 0.0000 -11.4123
#
#
#
# Elastic Compliance Matrix: (Units=1/GPa)
#
#
# Indices 1 2 3 4 5 6 
#
# 1 0.031176 -0.002245 -0.002153 0.000000 -0.001599 0.000000
# 2 -0.002245 0.009931 -0.006346 0.000000 0.003009 0.000000
# 3 -0.002153 -0.006346 0.022015 0.000000 -0.006157 0.000000
# 4 0.000000 0.000000 0.000000 0.037723 0.000000 -0.000250
# 5 -0.001599 0.003009 -0.006157 0.000000 0.045088 0.000000
# 6 0.000000 0.000000 0.000000 -0.000250 0.000000 -0.087623
#
#
# Mechanical properties :
#
#
# Convention : Reuss Voigt Hill
#
# Bulk Modulus (GPa) = 24.01806 36.83692 30.42749
# Shear Modulus (GPa) = 53.37495 18.60150 35.98823
#
# Velocity S-wave (km/s) = 5.31213 3.13599 4.36195
# Velocity P-wave (km/s) = 7.09388 5.70858 6.43859
#
# Compressibility (1/GPa) = 0.04163533
#
# Stress axis : x y z
#
# Youngs Moduli (GPa) = 32.07545 100.69021 45.42265
#
# Poissons Ratio (x) = 0.22605 0.09779
# Poissons Ratio (y) = 0.07201 0.28825
# Poissons Ratio (z) = 0.06906 0.63898
#
# Static dielectric constant tensor:
#      x y z
#    x 1.756700 0.000000 -0.032480 
#    y 0.000000 1.617180 0.000000 
#    z -0.032480 0.000000 1.657080 
# 
# From -- ./inp_files/67353.got.cif
#   From: 2010.05.17/outbox.cif.g08.bks.cpg/sg10_34_cif.got.tgz:67353.got - 2010.06.03 11:33:40.
