data_PCOD9151272
_publ_section_title
;
Structure prediction by ZEFSAII (Michael W. Deem and Ramdas Pophale) SiO2 
 PCOD9151272
Probable space group: P 2/M
;
_chemical_formula_sum "Si O2"
_cell_formula_units_Z 24
_cell_length_a 9.442241
_cell_length_b 15.116711
_cell_length_c 15.520174
_cell_angle_alpha 90.000000
_cell_angle_beta 36.681449
_cell_angle_gamma 90.000000
_cell_volume 1323.332957
_symmetry_space_group_name_H-M "P 2/M"
_symmetry_group_IT_number 10
_symmetry_cell_setting 'monoclinic'
loop_
_space_group_symop_operation_xyz
x,y,z
-x,y,-z
-x,-y,-z
x,-y,z
loop_
_atom_site_type_symbol
_atom_site_label
_atom_site_fract_x
_atom_site_fract_y
_atom_site_fract_z
Si Si1 0.637612 0.398824 0.741346
Si Si2 0.585785 0.230411 0.548921
Si Si3 0.717771 0.244368 0.127369
Si Si4 0.018564 0.095129 0.592604
Si Si5 0.144970 0.399861 0.558255
Si Si6 0.521433 0.103880 0.088449
O O1 0.563441 0.500000 0.797180
O O2 0.425935 0.328452 0.842098
O O3 0.752037 0.400072 0.589648
O O4 0.865558 0.375682 0.689439
O O5 0.500000 0.193092 0.500000
O O6 0.401176 0.230031 0.719273
O O7 0.808971 0.173210 0.468649
O O8 0.692558 0.327418 0.476855
O O9 0.666217 0.163560 0.085882
O O10 0.000000 0.258032 0.000000
O O11 0.000000 0.091429 0.500000
O O12 0.751165 0.107303 0.751333
O O13 0.107718 0.000000 0.582456
O O14 0.163939 0.500000 0.582436
O O15 0.600083 0.000000 0.051088
O O16 0.500000 0.135057 0.000000
#
# Coordination Sequence:
#
# PCOD9151272 Si02
#       6
#     4   4   4   4   4   4
#     4   8  15  31  56  82 105 142 190 230 272 324
#     4  11  23  35  55  86 117 148 185 228 277 331
#     4  11  23  37  54  83 119 152 180 225 285 333
#     4  10  20  38  62  82 105 142 188 235 277 322
#     4   8  15  30  55  82 108 140 186 235 272 317
#     4  10  22  40  62  84 107 144 190 232 277 331
#
# _framework density 18.136025
#
# number of rings (size 3 to 8) (size 9 to 14) (size 15 to 20)
#    0.000    2.333    1.667    2.000    4.667    1.333 
#    0.000    0.000    0.000    0.500    0.000    0.000 
#    0.000    0.000    0.000    0.000    0.000    0.000 
#
# Total GULP energy -133616.177126 kJ/mol
# GULP energy per Si atom -5567.340714 kJ/mol
# Density = 1.809475 g / cm^3
# Si number density = 18.136025 Si / 1000 Ang^3
#
#
#
# Elastic Constant Matrix: (Units=GPa)
#
#
# Indices 1 2 3 4 5 6 
#
# 1 86.3726 50.4382 36.5561 0.0000 -7.3617 0.0000
# 2 50.4382 86.2792 33.1581 0.0000 -21.3931 0.0000
# 3 36.5561 33.1581 60.8359 0.0000 -1.2698 0.0000
# 4 0.0000 0.0000 0.0000 16.2387 0.0000 -11.1597
# 5 -7.3617 -21.3931 -1.2698 0.0000 25.9395 0.0000
# 6 0.0000 0.0000 0.0000 -11.1597 0.0000 98.4156
#
#
#
# Elastic Compliance Matrix: (Units=1/GPa)
#
#
# Indices 1 2 3 4 5 6 
#
# 1 0.019844 -0.009694 -0.006696 0.000000 -0.002691 0.000000
# 2 -0.009694 0.024090 -0.006955 0.000000 0.016776 0.000000
# 3 -0.006696 -0.006955 0.024117 0.000000 -0.006456 0.000000
# 4 0.000000 0.000000 0.000000 0.066786 0.000000 0.007573
# 5 -0.002691 0.016776 -0.006456 0.000000 0.051307 0.000000
# 6 0.000000 0.000000 0.000000 0.007573 0.000000 0.011020
#
#
# Mechanical properties :
#
#
# Convention : Reuss Voigt Hill
#
# Bulk Modulus (GPa) = 46.81572 52.64360 49.72966
# Shear Modulus (GPa) = 19.92244 35.67444 27.79844
#
# Velocity S-wave (km/s) = 3.31796 4.43995 3.91931
# Velocity P-wave (km/s) = 6.36775 7.44139 6.92541
#
# Compressibility (1/GPa) = 0.02136035
#
# Stress axis : x y z
#
# Youngs Moduli (GPa) = 50.39427 41.51147 41.46405
#
# Poissons Ratio (x) = 0.40242 0.27766
# Poissons Ratio (y) = 0.48853 0.28836
# Poissons Ratio (z) = 0.33746 0.28869
#
# Static dielectric constant tensor:
#      x y z
#    x 1.606940 0.000000 0.006490 
#    y 0.000000 1.697180 0.000000 
#    z 0.006490 0.000000 1.586030 
# 
# From -- ./inp_files/61669.got.cif
#   From: 2010.05.17/outbox.cif.g08.bks.cpg/sg10_31_cif.got.tgz:61669.got - 2010.06.03 11:33:40.
