data_PCOD9151312
_publ_section_title
;
Structure prediction by ZEFSAII (Michael W. Deem and Ramdas Pophale) SiO2 
 PCOD9151312
Probable space group: P 2/M
;
_chemical_formula_sum "Si O2"
_cell_formula_units_Z 26
_cell_length_a 11.580606
_cell_length_b 12.645954
_cell_length_c 8.597880
_cell_angle_alpha 90.000000
_cell_angle_beta 79.144086
_cell_angle_gamma 90.000000
_cell_volume 1236.607021
_symmetry_space_group_name_H-M "P 2/M"
_symmetry_group_IT_number 10
_symmetry_cell_setting 'monoclinic'
loop_
_space_group_symop_operation_xyz
x,y,z
-x,y,-z
-x,-y,-z
x,-y,z
loop_
_atom_site_type_symbol
_atom_site_label
_atom_site_fract_x
_atom_site_fract_y
_atom_site_fract_z
Si Si1 0.213883 0.881390 0.255218
Si Si2 0.308015 0.676812 0.387440
Si Si3 0.862372 0.500000 0.526911
Si Si4 0.742804 0.723826 0.249878
Si Si5 0.239504 0.500000 0.799509
Si Si6 0.038540 0.876161 0.810299
Si Si7 0.384544 0.881919 0.926285
Si Si8 0.488734 0.500000 0.316578
O O1 0.285138 0.792122 0.327142
O O2 0.076250 0.857022 0.266949
O O3 0.225556 0.000000 0.319247
O O4 0.272925 0.884667 0.069954
O O5 0.194149 0.603856 0.383306
O O6 0.313345 0.686767 0.572978
O O7 0.414923 0.605782 0.296907
O O8 0.816990 0.500000 0.359890
O O9 0.000000 0.500000 0.500000
O O10 0.788058 0.620440 0.142442
O O11 0.853573 0.799663 0.254182
O O12 0.644836 0.790902 0.186165
O O13 0.380697 0.500000 0.779313
O O14 0.071832 0.000000 0.784797
O O15 0.000000 0.861049 0.000000
O O16 0.397080 0.000000 0.853286
O O17 0.500000 0.862668 0.000000
O O18 0.500000 0.500000 0.500000
#
# Coordination Sequence:
#
# PCOD9151312 Si02
#       8
#     4   4   2   4   2   4   4   2
#     4  10  22  39  58  90 125 153 194 244 301 355
#     4  10  23  35  64  91 116 153 196 251 295 347
#     4   9  19  36  55  81 118 155 192 232 295 351
#     4  11  21  38  61  88 115 155 199 247 293 352
#     4  10  23  37  60  90 119 156 199 248 292 355
#     4  10  20  38  63  83 115 167 204 233 290 367
#     4  10  22  40  61  84 116 158 199 242 295 357
#     4  11  18  44  61  83 118 165 201 229 300 370
#
# _framework density 21.025274
#
# number of rings (size 3 to 8) (size 9 to 14) (size 15 to 20)
#    0.000    1.846    4.615    0.462    6.462    1.231 
#    0.000    3.846    0.000    3.231    0.000    0.000 
#    0.000    0.000    0.000    0.000    0.000    0.000 
#
# Total GULP energy -145054.210638 kJ/mol
# GULP energy per Si atom -5579.008101 kJ/mol
# Density = 2.097742 g / cm^3
# Si number density = 21.025274 Si / 1000 Ang^3
#
#
#
# Elastic Constant Matrix: (Units=GPa)
#
#
# Indices 1 2 3 4 5 6 
#
# 1 122.9644 54.0772 -1.8535 0.0000 7.1022 0.0000
# 2 54.0772 155.1187 23.2387 0.0000 26.5292 0.0000
# 3 -1.8535 23.2387 14.1384 0.0000 7.4732 0.0000
# 4 0.0000 0.0000 0.0000 45.2100 0.0000 12.1362
# 5 7.1022 26.5292 7.4732 0.0000 21.2924 0.0000
# 6 0.0000 0.0000 0.0000 12.1362 0.0000 37.4831
#
#
#
# Elastic Compliance Matrix: (Units=1/GPa)
#
#
# Indices 1 2 3 4 5 6 
#
# 1 0.010556 -0.005065 0.010110 0.000000 -0.000759 0.000000
# 2 -0.005065 0.011934 -0.016345 0.000000 -0.007443 0.000000
# 3 0.010110 -0.016345 0.110424 0.000000 -0.021764 0.000000
# 4 0.000000 0.000000 0.000000 0.024225 0.000000 -0.007843
# 5 -0.000759 -0.007443 -0.021764 0.000000 0.064131 0.000000
# 6 0.000000 0.000000 0.000000 -0.007843 0.000000 0.029218
#
#
# Mechanical properties :
#
#
# Convention : Reuss Voigt Hill
#
# Bulk Modulus (GPa) = 9.06503 49.23849 29.15176
# Shear Modulus (GPa) = 16.13634 35.24769 25.69201
#
# Velocity S-wave (km/s) = 2.77334 4.09888 3.49944
# Velocity P-wave (km/s) = 3.81786 6.77279 5.49758
#
# Compressibility (1/GPa) = 0.11031406
#
# Stress axis : x y z
#
# Youngs Moduli (GPa) = 94.73227 83.79410 9.05596
#
# Poissons Ratio (x) = 0.42440 -0.09155
# Poissons Ratio (y) = 0.47980 0.14802
# Poissons Ratio (z) = -0.95773 1.36964
#
# Static dielectric constant tensor:
#      x y z
#    x 1.751210 0.000000 -0.005570 
#    y 0.000000 1.813980 0.000000 
#    z -0.005570 0.000000 1.773560 
# 
# From -- ./inp_files/24121.got.cif
#   From: 2010.05.17/outbox.cif.g08.bks.cpg/sg10_13_cif.got.tgz:24121.got - 2010.06.03 11:33:40.
