data_PCOD9151343
_publ_section_title
;
Structure prediction by ZEFSAII (Michael W. Deem and Ramdas Pophale) SiO2 
 PCOD9151343
Probable space group: P 2/M
;
_chemical_formula_sum "Si O2"
_cell_formula_units_Z 26
_cell_length_a 30.691477
_cell_length_b 7.644125
_cell_length_c 30.560017
_cell_angle_alpha 90.000000
_cell_angle_beta 170.366961
_cell_angle_gamma 90.000000
_cell_volume 1199.753081
_symmetry_space_group_name_H-M "P 2/M"
_symmetry_group_IT_number 10
_symmetry_cell_setting 'monoclinic'
loop_
_space_group_symop_operation_xyz
x,y,z
-x,y,-z
-x,-y,-z
x,-y,z
loop_
_atom_site_type_symbol
_atom_site_label
_atom_site_fract_x
_atom_site_fract_y
_atom_site_fract_z
Si Si1 0.233415 0.696168 0.396313
Si Si2 0.107269 0.713824 0.559336
Si Si3 0.012949 0.713610 0.757744
Si Si4 0.739090 0.000000 0.769518
Si Si5 0.529116 0.286483 0.223613
Si Si6 0.769921 0.809710 0.885724
Si Si7 0.625165 0.713763 0.026175
O O1 0.318761 0.500000 0.492681
O O2 0.491234 0.780477 0.631717
O O3 0.106570 0.773525 0.314640
O O4 0.000563 0.688711 0.130471
O O5 0.109147 0.500000 0.562169
O O6 0.397705 0.767627 0.834365
O O7 0.000000 0.771963 0.500000
O O8 0.904637 0.767965 0.321083
O O9 0.021383 0.500000 0.767506
O O10 0.812257 0.765931 0.520935
O O11 0.304294 0.770077 0.034790
O O12 0.500000 0.000000 0.500000
O O13 0.733684 0.835305 0.797821
O O14 0.000000 0.000000 0.000000
O O15 0.530506 0.500000 0.224172
O O16 0.450170 0.228080 0.097016
O O17 0.870907 0.000000 0.000181
O O18 0.628209 0.500000 0.028204
#
# Coordination Sequence:
#
# PCOD9151343 Si02
#       7
#     4   4   4   2   4   4   4
#     4  11  20  35  55  82 114 143 175 220 276 319
#     4   9  15  21  27  37  52  76 115 168 233 289
#     4   9  17  26  41  61  88 120 149 187 239 299
#     4  10  20  38  64  84 106 144 190 222 256 314
#     4   9  15  24  34  51  74 104 144 180 228 292
#     4  10  22  36  59  85 108 144 185 221 260 314
#     4   9  15  21  30  40  57  85 121 171 224 280
#
# _framework density 21.671126000000001
#
# number of rings (size 3 to 8) (size 9 to 14) (size 15 to 20)
#    0.462    2.000    0.000    4.154    0.000    8.000 
#    0.000    0.000    0.000    9.231    0.000    0.000 
#    0.000    0.000    0.000    0.000    0.000    0.000 
#
# Total GULP energy -145069.271040 kJ/mol
# GULP energy per Si atom -5579.587348 kJ/mol
# Density = 2.162180 g / cm^3
# Si number density = 21.671126 Si / 1000 Ang^3
#
#
#
# Elastic Constant Matrix: (Units=GPa)
#
#
# Indices 1 2 3 4 5 6 
#
# 1 60.3331 -2.6334 -23.9330 0.0000 1.6472 0.0000
# 2 -2.6334 38.8158 -7.4409 0.0000 2.5402 0.0000
# 3 -23.9330 -7.4409 60.9503 0.0000 2.1711 0.0000
# 4 0.0000 0.0000 0.0000 12.1315 0.0000 -11.8666
# 5 1.6472 2.5402 2.1711 0.0000 43.9935 0.0000
# 6 0.0000 0.0000 0.0000 -11.8666 0.0000 62.1575
#
#
#
# Elastic Compliance Matrix: (Units=1/GPa)
#
#
# Indices 1 2 3 4 5 6 
#
# 1 0.020029 0.003034 0.008283 0.000000 -0.001334 0.000000
# 2 0.003034 0.026965 0.004551 0.000000 -0.001895 0.000000
# 3 0.008283 0.004551 0.020271 0.000000 -0.001573 0.000000
# 4 0.000000 0.000000 0.000000 0.101358 0.000000 0.019351
# 5 -0.001334 -0.001895 -0.001573 0.000000 0.022968 0.000000
# 6 0.000000 0.000000 0.000000 0.019351 0.000000 0.019782
#
#
# Mechanical properties :
#
#
# Convention : Reuss Voigt Hill
#
# Bulk Modulus (GPa) = 10.10112 10.23163 10.16637
# Shear Modulus (GPa) = 23.51411 36.59693 30.05552
#
# Velocity S-wave (km/s) = 3.29757 4.11389 3.72814
# Velocity P-wave (km/s) = 4.37834 5.22465 4.82011
#
# Compressibility (1/GPa) = 0.09899892
#
# Stress axis : x y z
#
# Youngs Moduli (GPa) = 49.92755 37.08520 49.33235
#
# Poissons Ratio (x) = -0.11251 -0.40860
# Poissons Ratio (y) = -0.15147 -0.22450
# Poissons Ratio (z) = -0.41353 -0.16876
#
# Static dielectric constant tensor:
#      x y z
#    x 1.775620 0.000000 -0.007490 
#    y 0.000000 1.810570 0.000000 
#    z -0.007490 0.000000 1.723830 
# 
# From -- ./inp_files/95944.got.cif
#   From: 2010.05.17/outbox.cif.g08.bks.cpg/sg10_48_cif.got.tgz:95944.got - 2010.06.03 11:33:40.
