data_PCOD9151527
_publ_section_title
;
Structure prediction by ZEFSAII (Michael W. Deem and Ramdas Pophale) SiO2 
 PCOD9151527
Probable space group: P 2/M
;
_chemical_formula_sum "Si O2"
_cell_formula_units_Z 19
_cell_length_a 13.728677
_cell_length_b 13.344724
_cell_length_c 10.324063
_cell_angle_alpha 90.000000
_cell_angle_beta 29.101893
_cell_angle_gamma 90.000000
_cell_volume 919.921085
_symmetry_space_group_name_H-M "P 2/M"
_symmetry_group_IT_number 10
_symmetry_cell_setting 'monoclinic'
loop_
_space_group_symop_operation_xyz
x,y,z
-x,y,-z
-x,-y,-z
x,-y,z
loop_
_atom_site_type_symbol
_atom_site_label
_atom_site_fract_x
_atom_site_fract_y
_atom_site_fract_z
Si Si1 0.562661 0.500000 0.651419
Si Si2 0.000000 0.500000 0.500000
Si Si3 0.290337 0.342460 0.309479
Si Si4 0.832603 0.000000 0.041607
Si Si5 0.000000 0.322689 0.000000
Si Si6 0.841403 0.827261 0.371354
Si Si7 0.585990 0.000000 0.599533
Si Si8 0.204296 0.500000 0.893069
O O1 0.633955 0.406215 0.652688
O O2 0.328134 0.500000 0.882260
O O3 0.666877 0.500000 0.389509
O O4 0.152934 0.413539 0.382188
O O5 0.165691 0.246476 0.499794
O O6 0.500000 0.313907 0.000000
O O7 0.729009 0.000000 0.303971
O O8 0.644124 0.000000 0.167009
O O9 0.969404 0.098154 0.861209
O O10 0.159025 0.247074 0.752408
O O11 0.078647 0.398184 0.020215
O O12 0.651360 0.899581 0.594999
#
# Coordination Sequence:
#
# PCOD9151527 Si02
#       8
#     2   1   4   2   2   4   2   2
#     4  10  20  40  55  88 130 166 210 261 315 378
#     4  10  24  46  68  88 128 178 226 278 306 362
#     4  11  25  43  66  93 126 180 227 263 316 387
#     4  10  21  39  64  96 130 170 205 259 343 388
#     4  11  20  35  56  92 130 171 202 251 328 378
#     4  11  21  40  63  91 131 163 211 268 316 389
#     4  10  21  39  64  95 130 163 208 267 326 404
#     4  10  22  34  57  92 136 163 198 269 321 383
#
# _framework density 20.653946000000001
#
# number of rings (size 3 to 8) (size 9 to 14) (size 15 to 20)
#    0.000    1.474    4.211    1.895    0.000    6.737 
#    0.000    2.105    0.000    3.789    0.000    0.000 
#    0.000    0.000    0.000    0.000    0.000    0.000 
#
# Total GULP energy -105790.112434 kJ/mol
# GULP energy per Si atom -5567.900654 kJ/mol
# Density = 2.060694 g / cm^3
# Si number density = 20.653946 Si / 1000 Ang^3
#
#
#
# Elastic Constant Matrix: (Units=GPa)
#
#
# Indices 1 2 3 4 5 6 
#
# 1 92.2747 37.7670 34.9071 0.0000 -32.5065 0.0000
# 2 37.7670 147.8114 43.9495 0.0000 -13.2952 0.0000
# 3 34.9071 43.9495 61.4181 0.0000 -14.1448 0.0000
# 4 0.0000 0.0000 0.0000 7.0397 0.0000 2.0340
# 5 -32.5065 -13.2952 -14.1448 0.0000 39.7543 0.0000
# 6 0.0000 0.0000 0.0000 2.0340 0.0000 3.4374
#
#
#
# Elastic Compliance Matrix: (Units=1/GPa)
#
#
# Indices 1 2 3 4 5 6 
#
# 1 0.018164 -0.001668 -0.006359 0.000000 0.012032 0.000000
# 2 -0.001668 0.008767 -0.005408 0.000000 -0.000356 0.000000
# 3 -0.006359 -0.005408 0.024129 0.000000 0.001577 0.000000
# 4 0.000000 0.000000 0.000000 0.171347 0.000000 -0.101389
# 5 0.012032 -0.000356 0.001577 0.000000 0.035435 0.000000
# 6 0.000000 0.000000 0.000000 -0.101389 0.000000 0.350911
#
#
# Mechanical properties :
#
#
# Convention : Reuss Voigt Hill
#
# Bulk Modulus (GPa) = 41.33780 59.41683 50.37731
# Shear Modulus (GPa) = 7.76776 22.37165 15.06970
#
# Velocity S-wave (km/s) = 1.94141 3.29472 2.70409
# Velocity P-wave (km/s) = 5.00833 6.58056 5.84753
#
# Compressibility (1/GPa) = 0.02419093
#
# Stress axis : x y z
#
# Youngs Moduli (GPa) = 55.05329 114.05780 41.44424
#
# Poissons Ratio (x) = 0.19026 0.26354
# Poissons Ratio (y) = 0.09183 0.22412
# Poissons Ratio (z) = 0.35008 0.61679
#
# Static dielectric constant tensor:
#      x y z
#    x 1.754790 0.000000 0.043700 
#    y 0.000000 1.707210 0.000000 
#    z 0.043700 0.000000 1.874690 
# 
# From -- ./inp_files/50580.got.cif
#   From: 2010.05.17/outbox.cif.g08.bks.cpg/sg10_26_cif.got.tgz:50580.got - 2010.06.03 11:33:40.
