data_PCOD9151714
_publ_section_title
;
Structure prediction by ZEFSAII (Michael W. Deem and Ramdas Pophale) SiO2 
 PCOD9151714
Probable space group: P 2/M
;
_chemical_formula_sum "Si O2"
_cell_formula_units_Z 30
_cell_length_a 9.374307
_cell_length_b 19.652980
_cell_length_c 7.611759
_cell_angle_alpha 90.000000
_cell_angle_beta 100.365079
_cell_angle_gamma 90.000000
_cell_volume 1379.453402
_symmetry_space_group_name_H-M "P 2/M"
_symmetry_group_IT_number 10
_symmetry_cell_setting 'monoclinic'
loop_
_space_group_symop_operation_xyz
x,y,z
-x,y,-z
-x,-y,-z
x,-y,z
loop_
_atom_site_type_symbol
_atom_site_label
_atom_site_fract_x
_atom_site_fract_y
_atom_site_fract_z
Si Si1 0.268424 0.076842 0.836625
Si Si2 0.933823 0.575964 0.767042
Si Si3 0.690951 0.287747 0.431265
Si Si4 0.178254 0.281254 0.164680
Si Si5 0.766398 0.574842 0.355581
Si Si6 0.876014 0.219248 0.204051
Si Si7 0.594666 0.924640 0.753665
Si Si8 0.500000 0.182329 0.500000
O O1 0.165814 0.140737 0.774661
O O2 0.425713 0.081113 0.776283
O O3 0.211517 0.000000 0.790282
O O4 0.308496 0.081712 0.052255
O O5 0.905888 0.500000 0.832686
O O6 0.876280 0.640553 0.860193
O O7 0.850352 0.577573 0.561346
O O8 0.103994 0.582672 0.756396
O O9 0.713626 0.284941 0.646134
O O10 0.658518 0.361866 0.347102
O O11 0.834378 0.263143 0.364499
O O12 0.573225 0.230105 0.371706
O O13 0.042114 0.234906 0.195935
O O14 0.215463 0.250100 0.982839
O O15 0.700721 0.500000 0.319803
O O16 0.616921 0.866427 0.617014
O O17 0.617070 0.000000 0.684143
#
# Coordination Sequence:
#
# PCOD9151714 Si02
#       8
#     4   4   4   4   4   4   4   2
#     4   9  18  35  55  74 102 139 173 210 261 310
#     4   8  13  26  49  75 101 133 174 215 259 303
#     4  11  21  35  52  78 110 137 175 219 260 309
#     4  10  21  34  53  78 106 144 173 210 268 310
#     4   8  14  27  49  72 101 140 172 210 259 302
#     4  11  20  35  54  77 107 138 171 213 262 317
#     4   9  18  33  54  78 103 131 170 223 265 299
#     4  12  21  32  53  84 104 134 176 218 263 316
#
# _framework density 21.747745999999999
#
# number of rings (size 3 to 8) (size 9 to 14) (size 15 to 20)
#    0.000    2.400    2.667    3.000    0.000    0.000 
#    0.000    3.667    0.000    3.200    0.000    0.000 
#    0.000    6.400    0.000    0.000    0.000    0.000 
#
# Total GULP energy -167304.639307 kJ/mol
# GULP energy per Si atom -5576.821310 kJ/mol
# Density = 2.169825 g / cm^3
# Si number density = 21.747746 Si / 1000 Ang^3
#
#
#
# Elastic Constant Matrix: (Units=GPa)
#
#
# Indices 1 2 3 4 5 6 
#
# 1 17.0091 19.3895 -9.7058 0.0000 -4.2797 0.0000
# 2 19.3895 197.3655 5.2020 0.0000 -5.4049 0.0000
# 3 -9.7058 5.2020 55.7645 0.0000 -4.7628 0.0000
# 4 0.0000 0.0000 0.0000 4.0310 0.0000 4.9675
# 5 -4.2797 -5.4049 -4.7628 0.0000 12.5476 0.0000
# 6 0.0000 0.0000 0.0000 4.9675 0.0000 17.7418
#
#
#
# Elastic Compliance Matrix: (Units=1/GPa)
#
#
# Indices 1 2 3 4 5 6 
#
# 1 0.087193 -0.008148 0.018785 0.000000 0.033361 0.000000
# 2 -0.008148 0.005893 -0.002055 0.000000 -0.001020 0.000000
# 3 0.018785 -0.002055 0.022598 0.000000 0.014100 0.000000
# 4 0.000000 0.000000 0.000000 0.378767 0.000000 -0.106050
# 5 0.033361 -0.001020 0.014100 0.000000 0.095988 0.000000
# 6 0.000000 0.000000 0.000000 -0.106050 0.000000 0.086056
#
#
# Mechanical properties :
#
#
# Convention : Reuss Voigt Hill
#
# Bulk Modulus (GPa) = 7.52727 33.32339 20.42533
# Shear Modulus (GPa) = 7.10617 23.88097 15.49357
#
# Velocity S-wave (km/s) = 1.80960 3.31734 2.67202
# Velocity P-wave (km/s) = 2.79908 5.47987 4.35108
#
# Compressibility (1/GPa) = 0.13285032
#
# Stress axis : x y z
#
# Youngs Moduli (GPa) = 11.46879 169.68173 44.25146
#
# Poissons Ratio (x) = 1.38248 -0.83128
# Poissons Ratio (y) = 0.09344 0.09094
# Poissons Ratio (z) = -0.21545 0.34870
#
# Static dielectric constant tensor:
#      x y z
#    x 1.787590 0.000000 0.017650 
#    y 0.000000 1.851150 0.000000 
#    z 0.017650 0.000000 1.833090 
# 
# From -- ./inp_files/20239.got.cif
#   From: 2010.05.17/outbox.cif.g08.bks.cpg/sg10_11_cif.got.tgz:20239.got - 2010.06.03 11:33:40.
