data_PCOD9151691
_publ_section_title
;
Structure prediction by ZEFSAII (Michael W. Deem and Ramdas Pophale) SiO2 
 PCOD9151691
Probable space group: P 2/M
;
_chemical_formula_sum "Si O2"
_cell_formula_units_Z 30
_cell_length_a 15.318875
_cell_length_b 13.931135
_cell_length_c 22.355275
_cell_angle_alpha 90.000000
_cell_angle_beta 160.743048
_cell_angle_gamma 90.000000
_cell_volume 1573.442516
_symmetry_space_group_name_H-M "P 2/M"
_symmetry_group_IT_number 10
_symmetry_cell_setting 'monoclinic'
loop_
_space_group_symop_operation_xyz
x,y,z
-x,y,-z
-x,-y,-z
x,-y,z
loop_
_atom_site_type_symbol
_atom_site_label
_atom_site_fract_x
_atom_site_fract_y
_atom_site_fract_z
Si Si1 0.830861 0.112260 0.785126
Si Si2 0.593674 0.384133 0.262558
Si Si3 0.606515 0.386186 0.688299
Si Si4 0.196329 0.111431 0.372919
Si Si5 0.032203 0.385423 0.864684
Si Si6 0.894869 0.384376 0.336792
Si Si7 0.982434 0.304841 0.703053
Si Si8 0.000000 0.753257 0.000000
O O1 0.512812 0.124992 0.586151
O O2 0.874676 0.130910 0.742846
O O3 0.985193 0.177870 0.932148
O O4 0.889671 0.000000 0.834067
O O5 0.603258 0.500000 0.272403
O O6 0.811896 0.351523 0.451406
O O7 0.701485 0.358673 0.266170
O O8 0.288442 0.357202 0.069111
O O9 0.634105 0.500000 0.719633
O O10 0.303021 0.357195 0.487728
O O11 0.754065 0.318513 0.830776
O O12 0.762898 0.366542 0.726953
O O13 0.055397 0.190804 0.321457
O O14 0.136847 0.000000 0.346764
O O15 0.039509 0.500000 0.859840
O O16 0.066136 0.336410 0.823070
O O17 0.893609 0.500000 0.330784
O O18 0.841842 0.340309 0.238094
#
# Coordination Sequence:
#
# PCOD9151691 Si02
#       8
#     4   4   4   4   4   4   4   2
#     4   9  18  33  53  71  92 127 176 227 266 301
#     4   8  17  35  53  73 103 139 176 219 262 291
#     4  11  24  34  44  71 115 154 177 202 249 309
#     4   9  19  36  52  70  99 134 168 214 274 317
#     4  10  21  34  50  72 104 143 180 215 248 298
#     4   9  18  33  54  77 105 137 173 217 260 305
#     4  12  21  33  53  77 102 139 180 213 257 311
#     4  12  20  32  48  72  98 140 184 214 250 298
#
# _framework density 19.066472000000001
#
# number of rings (size 3 to 8) (size 9 to 14) (size 15 to 20)
#    0.000    2.133    1.333    4.400    3.733    1.600 
#    0.000    2.000    0.000    0.000    0.000    3.733 
#    0.000    0.000    0.000    0.000    0.000    0.000 
#
# Total GULP energy -167449.915239 kJ/mol
# GULP energy per Si atom -5581.663841 kJ/mol
# Density = 1.902308 g / cm^3
# Si number density = 19.066472 Si / 1000 Ang^3
#
#
#
# Elastic Constant Matrix: (Units=GPa)
#
#
# Indices 1 2 3 4 5 6 
#
# 1 78.6588 30.4630 3.1789 0.0000 -18.0555 0.0000
# 2 30.4630 83.1273 13.1034 0.0000 -20.3319 0.0000
# 3 3.1789 13.1034 48.2831 0.0000 -10.9537 0.0000
# 4 0.0000 0.0000 0.0000 23.6278 0.0000 -13.4810
# 5 -18.0555 -20.3319 -10.9537 0.0000 21.0120 0.0000
# 6 0.0000 0.0000 0.0000 -13.4810 0.0000 23.2924
#
#
#
# Elastic Compliance Matrix: (Units=1/GPa)
#
#
# Indices 1 2 3 4 5 6 
#
# 1 0.016832 -0.003552 0.002673 0.000000 0.012420 0.000000
# 2 -0.003552 0.016546 -0.001493 0.000000 0.012180 0.000000
# 3 0.002673 -0.001493 0.023968 0.000000 0.013347 0.000000
# 4 0.000000 0.000000 0.000000 0.063190 0.000000 0.036573
# 5 0.012420 0.012180 0.013347 0.000000 0.077008 0.000000
# 6 0.000000 0.000000 0.000000 0.036573 0.000000 0.064100
#
#
# Mechanical properties :
#
#
# Convention : Reuss Voigt Hill
#
# Bulk Modulus (GPa) = 19.01050 33.72887 26.36969
# Shear Modulus (GPa) = 17.61056 24.47470 21.04263
#
# Velocity S-wave (km/s) = 3.04244 3.58669 3.32572
# Velocity P-wave (km/s) = 4.72591 5.90602 5.34861
#
# Compressibility (1/GPa) = 0.05260251
#
# Stress axis : x y z
#
# Youngs Moduli (GPa) = 59.41222 60.43861 41.72155
#
# Poissons Ratio (x) = 0.21466 -0.11154
# Poissons Ratio (y) = 0.21101 0.06230
# Poissons Ratio (z) = -0.15883 0.09025
#
# Static dielectric constant tensor:
#      x y z
#    x 1.684760 0.000000 -0.017760 
#    y 0.000000 1.656440 0.000000 
#    z -0.017760 0.000000 1.698710 
# 
# From -- ./inp_files/85360.got.cif
#   From: 2010.05.17/outbox.cif.g08.bks.cpg/sg10_43_cif.got.tgz:85360.got - 2010.06.03 11:33:40.
