data_PCOD9151074
_publ_section_title
;
Structure prediction by ZEFSAII (Michael W. Deem and Ramdas Pophale) SiO2 
 PCOD9151074
Probable space group: P 2/M
;
_chemical_formula_sum "Si O2"
_cell_formula_units_Z 28
_cell_length_a 9.609064
_cell_length_b 8.235465
_cell_length_c 25.150298
_cell_angle_alpha 90.000000
_cell_angle_beta 138.355354
_cell_angle_gamma 90.000000
_cell_volume 1322.552817
_symmetry_space_group_name_H-M "P 2/M"
_symmetry_group_IT_number 10
_symmetry_cell_setting 'monoclinic'
loop_
_space_group_symop_operation_xyz
x,y,z
-x,y,-z
-x,-y,-z
x,-y,z
loop_
_atom_site_type_symbol
_atom_site_label
_atom_site_fract_x
_atom_site_fract_y
_atom_site_fract_z
Si Si1 0.369472 0.696593 0.350548
Si Si2 0.825360 0.304716 0.816551
Si Si3 0.778035 0.808641 0.915670
Si Si4 0.962307 0.303513 0.654366
Si Si5 0.726656 0.689009 0.074243
Si Si6 0.643590 0.687534 0.171153
Si Si7 0.845780 0.805537 0.503124
O O1 0.365520 0.500000 0.349526
O O2 0.282385 0.753225 0.268361
O O3 0.218491 0.750839 0.355840
O O4 0.607452 0.750899 0.425818
O O5 0.840105 0.500000 0.816319
O O6 0.717362 0.262138 0.840820
O O7 0.062916 0.237910 0.889271
O O8 0.580122 0.772525 0.896194
O O9 0.802840 0.000000 0.916820
O O10 0.000000 0.739685 0.000000
O O11 0.968072 0.500000 0.659221
O O12 0.916515 0.254540 0.581254
O O13 0.188749 0.243611 0.739461
O O14 0.712525 0.500000 0.051180
O O15 0.755531 0.687395 0.145938
O O16 0.500000 0.765033 0.000000
O O17 0.598832 0.500000 0.171807
O O18 0.000000 0.746287 0.500000
O O19 0.852535 0.000000 0.504977
#
# Coordination Sequence:
#
# PCOD9151074 Si02
#       7
#     4   4   4   4   4   4   4
#     4  10  21  40  65  93 122 151 192 246 302 355
#     4  10  20  37  62  91 118 151 197 246 297 352
#     4  11  25  41  55  80 123 168 205 245 294 347
#     4  10  21  40  65  93 122 151 192 246 302 355
#     4   9  16  30  57  90 119 146 186 243 295 341
#     4  10  20  37  62  91 118 151 197 246 297 352
#     4  11  26  43  60  88 124 161 200 237 284 350
#
# _framework density 21.171177
#
# number of rings (size 3 to 8) (size 9 to 14) (size 15 to 20)
#    0.000    1.857    1.429    2.143    2.000    6.857 
#    0.000    0.714    0.000    2.571    0.000    0.000 
#    0.000    0.000    0.000    0.000    0.000    0.000 
#
# Total GULP energy -156358.449723 kJ/mol
# GULP energy per Si atom -5584.230347 kJ/mol
# Density = 2.112299 g / cm^3
# Si number density = 21.171177 Si / 1000 Ang^3
#
#
#
# Elastic Constant Matrix: (Units=GPa)
#
#
# Indices 1 2 3 4 5 6 
#
# 1 92.7938 4.6754 23.7250 0.0000 -1.8892 0.0000
# 2 4.6754 12.9968 10.1219 0.0000 0.3276 0.0000
# 3 23.7250 10.1219 108.8889 0.0000 4.8762 0.0000
# 4 0.0000 0.0000 0.0000 -182.3217 0.0000 97.1423
# 5 -1.8892 0.3276 4.8762 0.0000 35.9881 0.0000
# 6 0.0000 0.0000 0.0000 97.1423 0.0000 -43.6522
#
#
#
# Elastic Compliance Matrix: (Units=1/GPa)
#
#
# Indices 1 2 3 4 5 6 
#
# 1 0.011510 -0.002348 -0.002332 0.000000 0.000942 0.000000
# 2 -0.002348 0.083429 -0.007248 0.000000 0.000099 0.000000
# 3 -0.002332 -0.007248 0.010431 0.000000 -0.001470 0.000000
# 4 0.000000 0.000000 0.000000 0.029537 0.000000 0.065731
# 5 0.000942 0.000099 -0.001470 0.000000 0.028035 0.000000
# 6 0.000000 0.000000 0.000000 0.065731 0.000000 0.123367
#
#
# Mechanical properties :
#
#
# Convention : Reuss Voigt Hill
#
# Bulk Modulus (GPa) = 12.26778 32.41381 22.34079
# Shear Modulus (GPa) = 14.82194 -26.25335 -5.71570
#
# Velocity S-wave (km/s) = 2.64881 -3.52526 -1.64488
# Velocity P-wave (km/s) = 3.89385 1.10740 2.63967
#
# Compressibility (1/GPa) = 0.08151435
#
# Stress axis : x y z
#
# Youngs Moduli (GPa) = 86.87914 11.98620 95.86542
#
# Poissons Ratio (x) = 0.02815 0.22353
# Poissons Ratio (y) = 0.20403 0.69484
# Poissons Ratio (z) = 0.20258 0.08688
#
# Static dielectric constant tensor:
#      x y z
#    x 1.733080 0.000000 0.006700 
#    y 0.000000 1.752080 0.000000 
#    z 0.006700 0.000000 1.769710 
# 
# From -- ./inp_files/92094.got.cif
#   From: 2010.05.17/outbox.cif.g08.bks.cpg/sg10_47_cif.got.tgz:92094.got - 2010.06.03 11:33:40.
