data_PCOD9151705
_publ_section_title
;
Structure prediction by ZEFSAII (Michael W. Deem and Ramdas Pophale) SiO2 
 PCOD9151705
Probable space group: P 2/M
;
_chemical_formula_sum "Si O2"
_cell_formula_units_Z 30
_cell_length_a 20.064920
_cell_length_b 14.962173
_cell_length_c 5.259784
_cell_angle_alpha 90.000000
_cell_angle_beta 96.526850
_cell_angle_gamma 90.000000
_cell_volume 1568.830625
_symmetry_space_group_name_H-M "P 2/M"
_symmetry_group_IT_number 10
_symmetry_cell_setting 'monoclinic'
loop_
_space_group_symop_operation_xyz
x,y,z
-x,y,-z
-x,-y,-z
x,-y,z
loop_
_atom_site_type_symbol
_atom_site_label
_atom_site_fract_x
_atom_site_fract_y
_atom_site_fract_z
Si Si1 0.231538 0.814984 0.911221
Si Si2 0.344337 0.685615 0.078655
Si Si3 0.756883 0.600648 0.627675
Si Si4 0.436737 0.403588 0.782550
Si Si5 0.426706 0.782185 0.466271
Si Si6 0.840554 0.352976 0.164052
Si Si7 0.045495 0.500000 0.769700
Si Si8 0.291577 0.895371 0.454691
O O1 0.289365 0.739993 0.903060
O O2 0.251707 0.858838 0.188911
O O3 0.164009 0.754868 0.880267
O O4 0.244386 0.878769 0.679252
O O5 0.307764 0.658114 0.324199
O O6 0.405591 0.749970 0.175032
O O7 0.371465 0.603472 0.933280
O O8 0.735544 0.500000 0.573238
O O9 0.801665 0.630397 0.411558
O O10 0.801345 0.607284 0.903374
O O11 0.436780 0.500000 0.644598
O O12 0.435681 0.312185 0.621130
O O13 0.500000 0.402889 0.000000
O O14 0.500000 0.826411 0.500000
O O15 0.363307 0.843857 0.516073
O O16 0.908120 0.410818 0.209891
O O17 0.000000 0.500000 0.500000
O O18 0.000000 0.500000 0.000000
O O19 0.304847 0.000000 0.428488
#
# Coordination Sequence:
#
# PCOD9151705 Si02
#       8
#     4   4   4   4   4   4   2   4
#     4  10  21  39  62  86 117 152 188 254 315 363
#     4  10  21  34  52  75 104 148 198 250 311 364
#     4  11  20  33  53  79 113 155 209 261 292 333
#     4  11  22  35  50  72 106 149 200 252 304 377
#     4  11  22  38  54  72 111 149 193 254 324 391
#     4  11  21  39  57  86 128 168 211 242 280 333
#     4  12  24  38  62  94 140 188 220 238 258 314
#     4  11  23  41  64  90 113 144 199 265 334 395
#
# _framework density 19.122522
#
# number of rings (size 3 to 8) (size 9 to 14) (size 15 to 20)
#    0.000    1.200    4.000    4.000    1.867    1.600 
#    0.000    0.000    0.000    2.800    0.000    0.000 
#    0.000   10.667    0.000    0.000    0.000    0.000 
#
# Total GULP energy -167318.711576 kJ/mol
# GULP energy per Si atom -5577.290386 kJ/mol
# Density = 1.907900 g / cm^3
# Si number density = 19.122522 Si / 1000 Ang^3
#
#
#
# Elastic Constant Matrix: (Units=GPa)
#
#
# Indices 1 2 3 4 5 6 
#
# 1 84.6959 32.6236 42.4601 0.0000 4.0143 0.0000
# 2 32.6236 114.9976 20.8732 0.0000 0.5509 0.0000
# 3 42.4601 20.8732 105.6811 0.0000 -5.8429 0.0000
# 4 0.0000 0.0000 0.0000 13.0801 0.0000 3.9397
# 5 4.0143 0.5509 -5.8429 0.0000 35.9631 0.0000
# 6 0.0000 0.0000 0.0000 3.9397 0.0000 20.1364
#
#
#
# Elastic Compliance Matrix: (Units=1/GPa)
#
#
# Indices 1 2 3 4 5 6 
#
# 1 0.016305 -0.003522 -0.006007 0.000000 -0.002742 0.000000
# 2 -0.003522 0.009787 -0.000509 0.000000 0.000161 0.000000
# 3 -0.006007 -0.000509 0.012123 0.000000 0.002648 0.000000
# 4 0.000000 0.000000 0.000000 0.081239 0.000000 -0.015894
# 5 -0.002742 0.000161 0.002648 0.000000 0.028540 0.000000
# 6 0.000000 0.000000 0.000000 -0.015894 0.000000 0.052771
#
#
# Mechanical properties :
#
#
# Convention : Reuss Voigt Hill
#
# Bulk Modulus (GPa) = 55.13161 55.25425 55.19293
# Shear Modulus (GPa) = 22.03741 27.79711 24.91726
#
# Velocity S-wave (km/s) = 3.39843 3.81679 3.61367
# Velocity P-wave (km/s) = 6.65526 6.95568 6.80712
#
# Compressibility (1/GPa) = 0.01813842
#
# Stress axis : x y z
#
# Youngs Moduli (GPa) = 61.33103 102.18020 82.48940
#
# Poissons Ratio (x) = 0.35989 0.49550
# Poissons Ratio (y) = 0.21601 0.04199
# Poissons Ratio (z) = 0.36841 0.05201
#
# Static dielectric constant tensor:
#      x y z
#    x 1.687310 0.000000 -0.009340 
#    y 0.000000 1.712870 0.000000 
#    z -0.009340 0.000000 1.729290 
# 
# From -- ./inp_files/11306.got.cif
#   From: 2010.05.17/outbox.cif.g08.bks.cpg/sg10_6_cif.got.tgz:11306.got - 2010.06.03 11:33:40.
