data_PCOD9151423
_publ_section_title
;
Structure prediction by ZEFSAII (Michael W. Deem and Ramdas Pophale) SiO2 
 PCOD9151423
Probable space group: P 2/M
;
_chemical_formula_sum "Si O2"
_cell_formula_units_Z 32
_cell_length_a 12.977790
_cell_length_b 18.700858
_cell_length_c 10.515386
_cell_angle_alpha 90.000000
_cell_angle_beta 144.121575
_cell_angle_gamma 90.000000
_cell_volume 1495.667226
_symmetry_space_group_name_H-M "P 2/M"
_symmetry_group_IT_number 10
_symmetry_cell_setting 'monoclinic'
loop_
_space_group_symop_operation_xyz
x,y,z
-x,y,-z
-x,-y,-z
x,-y,z
loop_
_atom_site_type_symbol
_atom_site_label
_atom_site_fract_x
_atom_site_fract_y
_atom_site_fract_z
Si Si1 0.790948 0.083398 0.784143
Si Si2 0.709053 0.416602 0.202249
Si Si3 0.456207 0.690160 0.317134
Si Si4 0.824739 0.663507 0.562746
Si Si5 0.043793 0.190160 0.404721
Si Si6 0.835581 0.583873 0.037395
Si Si7 0.675262 0.836494 0.913269
Si Si8 0.664418 0.916127 0.366231
O O1 0.695052 0.131313 0.791830
O O2 0.721439 0.092815 0.571845
O O3 0.764127 0.000000 0.792096
O O4 0.000000 0.097952 0.000000
O O5 0.735877 0.500000 0.263847
O O6 0.804947 0.368686 0.401725
O O7 0.778561 0.407185 0.128968
O O8 0.500000 0.402049 0.000000
O O9 0.500000 0.719439 0.500000
O O10 0.634310 0.659684 0.435620
O O11 0.383804 0.754234 0.157650
O O12 0.309369 0.629135 0.182272
O O13 0.883805 0.745767 0.609959
O O14 0.973193 0.618860 0.784024
O O15 0.190633 0.129135 0.563536
O O16 0.000000 0.219438 0.500000
O O17 0.865691 0.159683 0.167000
O O18 0.835169 0.500000 0.007035
O O19 0.526808 0.881141 0.837640
O O20 0.664830 0.000000 0.336696
#
# Coordination Sequence:
#
# PCOD9151423 Si02
#       8
#     4   4   4   4   4   4   4   4
#     4  10  20  38  71 104 131 167 219 280 333 384
#     4  10  20  38  71 104 131 167 219 280 333 384
#     4  12  27  44  67  99 134 177 225 271 331 399
#     4  12  24  44  69  96 134 178 221 279 330 390
#     4  12  27  44  67  99 134 177 225 271 331 399
#     4  11  24  44  69 102 134 174 224 274 333 392
#     4  12  24  44  69  96 134 178 221 279 330 390
#     4  11  24  44  69 102 134 174 224 274 333 392
#
# _framework density 21.395133000000001
#
# number of rings (size 3 to 8) (size 9 to 14) (size 15 to 20)
#    0.000    0.750    5.000    3.000    0.000    4.500 
#    0.000    1.250    0.000    0.000    0.000    0.000 
#    0.000    0.000    0.000    0.000    0.000    0.000 
#
# Total GULP energy -179166.716325 kJ/mol
# GULP energy per Si atom -5598.959885 kJ/mol
# Density = 2.134644 g / cm^3
# Si number density = 21.395133 Si / 1000 Ang^3
#
#
#
# Elastic Constant Matrix: (Units=GPa)
#
#
# Indices 1 2 3 4 5 6 
#
# 1 27.0170 12.2618 4.8613 0.0000 14.0650 0.0000
# 2 12.2618 97.7863 35.4789 0.0000 27.3564 0.0000
# 3 4.8613 35.4789 61.0914 0.0000 26.0840 0.0000
# 4 0.0000 0.0000 0.0000 32.9583 0.0000 9.6771
# 5 14.0650 27.3564 26.0840 0.0000 31.2085 0.0000
# 6 0.0000 0.0000 0.0000 9.6771 0.0000 24.7448
#
#
#
# Elastic Compliance Matrix: (Units=1/GPa)
#
#
# Indices 1 2 3 4 5 6 
#
# 1 0.051540 -0.001586 0.009553 0.000000 -0.029822 0.000000
# 2 -0.001586 0.014384 -0.004896 0.000000 -0.007802 0.000000
# 3 0.009553 -0.004896 0.028700 0.000000 -0.024000 0.000000
# 4 0.000000 0.000000 0.000000 0.034277 0.000000 -0.013405
# 5 -0.029822 -0.007802 -0.024000 0.000000 0.072381 0.000000
# 6 0.000000 0.000000 0.000000 -0.013405 0.000000 0.045655
#
#
# Mechanical properties :
#
#
# Convention : Reuss Voigt Hill
#
# Bulk Modulus (GPa) = 9.92411 32.34430 21.13420
# Shear Modulus (GPa) = 18.22263 26.66851 22.44557
#
# Velocity S-wave (km/s) = 2.92159 3.53438 3.24249
# Velocity P-wave (km/s) = 4.00368 5.63970 4.89058
#
# Compressibility (1/GPa) = 0.10076472
#
# Stress axis : x y z
#
# Youngs Moduli (GPa) = 19.40246 69.51994 34.84360
#
# Poissons Ratio (x) = 0.11024 -0.33285
# Poissons Ratio (y) = 0.03077 0.17061
# Poissons Ratio (z) = -0.18535 0.34040
#
# Static dielectric constant tensor:
#      x y z
#    x 1.755010 0.000000 0.003890 
#    y 0.000000 1.739800 0.000000 
#    z 0.003890 0.000000 1.758310 
# 
# From -- ./inp_files/51990.got.cif
#   From: 2010.05.17/outbox.cif.g08.bks.cpg/sg10_26_cif.got.tgz:51990.got - 2010.06.03 11:33:40.
