data_PCOD9151078
_publ_section_title
;
Structure prediction by ZEFSAII (Michael W. Deem and Ramdas Pophale) SiO2 
 PCOD9151078
Probable space group: P 2/M
;
_chemical_formula_sum "Si O2"
_cell_formula_units_Z 28
_cell_length_a 10.150012
_cell_length_b 7.865404
_cell_length_c 25.636407
_cell_angle_alpha 90.000000
_cell_angle_beta 34.801644
_cell_angle_gamma 90.000000
_cell_volume 1168.102287
_symmetry_space_group_name_H-M "P 2/M"
_symmetry_group_IT_number 10
_symmetry_cell_setting 'monoclinic'
loop_
_space_group_symop_operation_xyz
x,y,z
-x,y,-z
-x,-y,-z
x,-y,z
loop_
_atom_site_type_symbol
_atom_site_label
_atom_site_fract_x
_atom_site_fract_y
_atom_site_fract_z
Si Si1 0.313591 0.697609 0.601297
Si Si2 0.341947 0.691814 0.951141
Si Si3 0.025663 0.194166 0.853019
Si Si4 0.168099 0.793984 0.371117
Si Si5 0.626185 0.793148 0.173614
Si Si6 0.678033 0.794550 0.561312
Si Si7 0.860766 0.200291 0.796446
O O1 0.500000 0.773168 0.500000
O O2 0.281265 0.500000 0.599494
O O3 0.448157 0.717967 0.612359
O O4 0.062594 0.779165 0.688301
O O5 0.278730 0.500000 0.984969
O O6 0.278536 0.732414 0.912290
O O7 0.616337 0.715590 0.865151
O O8 0.203673 0.805592 0.036938
O O9 0.961826 0.270907 0.818156
O O10 0.222739 0.267731 0.826474
O O11 0.100895 0.000000 0.817247
O O12 0.361050 0.737251 0.267834
O O13 0.266642 0.752907 0.396742
O O14 0.903992 0.735066 0.455306
O O15 0.157771 0.000000 0.371824
O O16 0.631871 0.000000 0.171301
O O17 0.660634 0.000000 0.563894
O O18 0.812849 0.000000 0.817821
#
# Coordination Sequence:
#
# PCOD9151078 Si02
#       7
#     4   4   4   4   4   4   4
#     4  11  25  41  57  85 128 164 196 244 302 363
#     4  12  26  41  60  92 132 168 203 249 311 376
#     4  10  22  42  68  95 122 157 210 266 308 360
#     4   8  16  32  58  89 117 149 198 258 301 343
#     4  10  20  37  62  91 124 162 206 256 308 358
#     4   9  17  34  59  86 115 152 205 254 296 351
#     4  11  24  44  70  94 118 158 213 262 308 363
#
# _framework density 23.970503000000001
#
# number of rings (size 3 to 8) (size 9 to 14) (size 15 to 20)
#    0.000    1.857    0.000    4.714    2.000    8.571 
#    0.000    3.571    0.000    0.000    0.000    0.000 
#    0.000    0.000    0.000    0.000    0.000    0.000 
#
# Total GULP energy -156622.113437 kJ/mol
# GULP energy per Si atom -5593.646908 kJ/mol
# Density = 2.391594 g / cm^3
# Si number density = 23.970503 Si / 1000 Ang^3
#
#
#
# Elastic Constant Matrix: (Units=GPa)
#
#
# Indices 1 2 3 4 5 6 
#
# 1 69.4355 0.3681 15.5874 0.0000 -11.1619 0.0000
# 2 0.3681 45.9963 -8.0493 0.0000 -0.4635 0.0000
# 3 15.5874 -8.0493 123.9448 0.0000 -10.3110 0.0000
# 4 0.0000 0.0000 0.0000 12.9206 0.0000 2.5712
# 5 -11.1619 -0.4635 -10.3110 0.0000 39.7232 0.0000
# 6 0.0000 0.0000 0.0000 2.5712 0.0000 27.9807
#
#
#
# Elastic Compliance Matrix: (Units=1/GPa)
#
#
# Indices 1 2 3 4 5 6 
#
# 1 0.015398 -0.000370 -0.001636 0.000000 0.003898 0.000000
# 2 -0.000370 0.022016 0.001522 0.000000 0.000548 0.000000
# 3 -0.001636 0.001522 0.008520 0.000000 0.001770 0.000000
# 4 0.000000 0.000000 0.000000 0.078837 0.000000 -0.007245
# 5 0.003898 0.000548 0.001770 0.000000 0.026735 0.000000
# 6 0.000000 0.000000 0.000000 -0.007245 0.000000 0.036405
#
#
# Mechanical properties :
#
#
# Convention : Reuss Voigt Hill
#
# Bulk Modulus (GPa) = 22.24001 28.35433 25.29717
# Shear Modulus (GPa) = 24.52571 31.55626 28.04098
#
# Velocity S-wave (km/s) = 3.20216 3.63224 3.42396
# Velocity P-wave (km/s) = 4.79270 5.42637 5.11935
#
# Compressibility (1/GPa) = 0.04496401
#
# Stress axis : x y z
#
# Youngs Moduli (GPa) = 64.94485 45.42219 117.37195
#
# Poissons Ratio (x) = 0.01682 0.19205
# Poissons Ratio (y) = 0.02405 -0.17863
# Poissons Ratio (z) = 0.10626 -0.06913
#
# Static dielectric constant tensor:
#      x y z
#    x 1.910800 0.000000 0.009520 
#    y 0.000000 1.876470 0.000000 
#    z 0.009520 0.000000 1.909820 
# 
# From -- ./inp_files/91945.got.cif
#   From: 2010.05.17/outbox.cif.g08.bks.cpg/sg10_46_cif.got.tgz:91945.got - 2010.06.03 11:33:40.
