data_PCOD9151039
_publ_section_title
;
Structure prediction by ZEFSAII (Michael W. Deem and Ramdas Pophale) SiO2 
 PCOD9151039
Probable space group: P 2/M
;
_chemical_formula_sum "Si O2"
_cell_formula_units_Z 28
_cell_length_a 5.290345
_cell_length_b 28.214269
_cell_length_c 10.333818
_cell_angle_alpha 90.000000
_cell_angle_beta 59.030969
_cell_angle_gamma 90.000000
_cell_volume 1322.574549
_symmetry_space_group_name_H-M "P 2/M"
_symmetry_group_IT_number 10
_symmetry_cell_setting 'monoclinic'
loop_
_space_group_symop_operation_xyz
x,y,z
-x,y,-z
-x,-y,-z
x,-y,z
loop_
_atom_site_type_symbol
_atom_site_label
_atom_site_fract_x
_atom_site_fract_y
_atom_site_fract_z
Si Si1 0.666185 0.442669 0.082068
Si Si2 0.852174 0.807099 0.900903
Si Si3 0.810609 0.683442 0.440618
Si Si4 0.604545 0.944127 0.326970
Si Si5 0.320992 0.422287 0.429149
Si Si6 0.752251 0.096013 0.821391
Si Si7 0.143718 0.301762 0.100692
O O1 0.666872 0.500000 0.077266
O O2 0.497263 0.427338 0.252670
O O3 0.500000 0.424483 0.000000
O O4 0.000000 0.426353 0.000000
O O5 0.885910 0.850525 0.793668
O O6 0.948106 0.753378 0.847630
O O7 0.500000 0.802443 0.000000
O O8 0.000000 0.820449 0.000000
O O9 0.500000 0.708613 0.500000
O O10 0.722196 0.633161 0.528017
O O11 0.000000 0.709317 0.500000
O O12 0.995739 0.672747 0.262427
O O13 0.500000 0.931438 0.500000
O O14 0.415244 0.916630 0.267632
O O15 0.957477 0.935344 0.227025
O O16 0.546109 0.000000 0.322931
O O17 0.500000 0.443741 0.500000
O O18 0.000000 0.443883 0.500000
O O19 0.500000 0.091863 0.000000
O O20 0.500000 0.306379 0.000000
O O21 0.000000 0.314170 0.000000
#
# Coordination Sequence:
#
# PCOD9151039 Si02
#       7
#     4   4   4   4   4   4   4
#     4  10  21  38  60  86 115 151 200 249 289 341
#     4   9  18  34  57  85 113 141 178 233 290 332
#     4  10  21  39  56  82 121 151 186 236 287 339
#     4  11  24  40  56  79 117 156 187 228 283 339
#     4  10  21  38  57  83 118 154 189 234 292 345
#     4  11  21  37  61  85 110 143 191 240 277 330
#     4  10  20  37  62  85 109 148 192 228 277 345
#
# _framework density 21.170829999999999
#
# number of rings (size 3 to 8) (size 9 to 14) (size 15 to 20)
#    0.000    1.857    0.000    4.714    0.000    3.429 
#    0.000   19.286    0.000    0.000    0.000    0.000 
#    0.000    0.000    0.000    0.000    0.000    0.000 
#
# Total GULP energy -156308.494138 kJ/mol
# GULP energy per Si atom -5582.446219 kJ/mol
# Density = 2.112264 g / cm^3
# Si number density = 21.170830 Si / 1000 Ang^3
#
#
#
# Elastic Constant Matrix: (Units=GPa)
#
#
# Indices 1 2 3 4 5 6 
#
# 1 218.2657 16.8558 96.5864 0.0000 17.0595 0.0000
# 2 16.8558 56.9966 7.9126 0.0000 8.0030 0.0000
# 3 96.5864 7.9126 154.4130 0.0000 3.4311 0.0000
# 4 0.0000 0.0000 0.0000 -4.6041 0.0000 1.6488
# 5 17.0595 8.0030 3.4311 0.0000 40.8728 0.0000
# 6 0.0000 0.0000 0.0000 1.6488 0.0000 0.4785
#
#
#
# Elastic Compliance Matrix: (Units=1/GPa)
#
#
# Indices 1 2 3 4 5 6 
#
# 1 0.006626 -0.001088 -0.004040 0.000000 -0.002214 0.000000
# 2 -0.001088 0.018331 -0.000189 0.000000 -0.003119 0.000000
# 3 -0.004040 -0.000189 0.008991 0.000000 0.000968 0.000000
# 4 0.000000 0.000000 0.000000 -0.097225 0.000000 0.335018
# 5 -0.002214 -0.003119 0.000968 0.000000 0.025919 0.000000
# 6 0.000000 0.000000 0.000000 0.335018 0.000000 0.935508
#
#
# Mechanical properties :
#
#
# Convention : Reuss Voigt Hill
#
# Bulk Modulus (GPa) = 42.89289 74.70942 58.80116
# Shear Modulus (GPa) = 5.45520 27.90416 16.67968
#
# Velocity S-wave (km/s) = 1.60697 3.63443 2.80993
# Velocity P-wave (km/s) = 4.87314 7.27857 6.19375
#
# Compressibility (1/GPa) = 0.02331389
#
# Stress axis : x y z
#
# Youngs Moduli (GPa) = 150.91362 54.55258 111.21872
#
# Poissons Ratio (x) = 0.05935 0.44931
# Poissons Ratio (y) = 0.16419 0.02107
# Poissons Ratio (z) = 0.60967 0.01034
#
# Static dielectric constant tensor:
#      x y z
#    x 2.927100 0.000000 0.080900 
#    y 0.000000 1.934050 0.000000 
#    z 0.080900 0.000000 1.726740 
# 
# From -- ./inp_files/15874.got.cif
#   From: 2010.05.17/outbox.cif.g08.bks.cpg/sg10_8_cif.got.tgz:15874.got - 2010.06.03 11:33:40.
