data_PCOD9151366
_publ_section_title
;
Structure prediction by ZEFSAII (Michael W. Deem and Ramdas Pophale) SiO2 
 PCOD9151366
Probable space group: P 2/M
;
_chemical_formula_sum "Si O2"
_cell_formula_units_Z 32
_cell_length_a 20.231681
_cell_length_b 14.206089
_cell_length_c 12.999632
_cell_angle_alpha 90.000000
_cell_angle_beta 153.177512
_cell_angle_gamma 90.000000
_cell_volume 1685.906333
_symmetry_space_group_name_H-M "P 2/M"
_symmetry_group_IT_number 10
_symmetry_cell_setting 'monoclinic'
loop_
_space_group_symop_operation_xyz
x,y,z
-x,y,-z
-x,-y,-z
x,-y,z
loop_
_atom_site_type_symbol
_atom_site_label
_atom_site_fract_x
_atom_site_fract_y
_atom_site_fract_z
Si Si1 0.657498 0.110622 0.671048
Si Si2 0.834097 0.899363 0.233704
Si Si3 0.669794 0.612136 0.717165
Si Si4 0.610003 0.832693 0.073091
Si Si5 0.854448 0.238177 0.080359
Si Si6 0.637392 0.111774 0.400566
Si Si7 0.808130 0.248433 0.508422
Si Si8 0.167394 0.612545 0.268196
O O1 0.500000 0.139372 0.500000
O O2 0.659474 0.124244 0.551836
O O3 0.673962 0.000000 0.714907
O O4 0.788003 0.168013 0.903135
O O5 0.739702 0.891071 0.205130
O O6 0.812955 0.811204 0.129893
O O7 0.000000 0.899692 0.500000
O O8 0.798189 0.000000 0.132391
O O9 0.500000 0.636490 0.500000
O O10 0.685411 0.500000 0.749407
O O11 0.727245 0.636423 0.681962
O O12 0.772492 0.664917 0.941510
O O13 0.687723 0.751218 0.248602
O O14 0.500000 0.882124 0.000000
O O15 0.499285 0.822284 0.823878
O O16 0.028735 0.247774 0.310501
O O17 0.771213 0.151744 0.518792
O O18 0.609628 0.000000 0.345185
O O19 0.797177 0.329583 0.579413
O O20 0.176330 0.500000 0.298827
O O21 0.000000 0.633737 0.000000
#
# Coordination Sequence:
#
# PCOD9151366 Si02
#       8
#     4   4   4   4   4   4   4   4
#     4  10  21  36  53  79 113 152 194 241 302 362
#     4  11  23  38  57  85 121 163 208 249 293 355
#     4  10  22  39  63  95 126 157 196 244 302 369
#     4  10  22  41  59  82 115 160 209 252 289 348
#     4  12  22  37  60  88 122 153 192 253 308 354
#     4  10  22  37  56  80 115 160 204 246 294 354
#     4  11  23  36  58  89 118 151 203 251 293 352
#     4  10  20  38  64  92 123 158 194 239 303 373
#
# _framework density 18.980889000000001
#
# number of rings (size 3 to 8) (size 9 to 14) (size 15 to 20)
#    0.000    1.500    2.500    2.625    0.000    8.500 
#    0.000    1.250    0.000    4.500    0.000    0.000 
#    0.000    0.000    0.000    0.000    0.000    0.000 
#
# Total GULP energy -178427.245509 kJ/mol
# GULP energy per Si atom -5575.851422 kJ/mol
# Density = 1.893769 g / cm^3
# Si number density = 18.980889 Si / 1000 Ang^3
#
#
#
# Elastic Constant Matrix: (Units=GPa)
#
#
# Indices 1 2 3 4 5 6 
#
# 1 104.3148 30.3361 41.6700 0.0000 18.5074 0.0000
# 2 30.3361 81.5757 35.7137 0.0000 -6.0087 0.0000
# 3 41.6700 35.7137 94.8815 0.0000 5.8212 0.0000
# 4 0.0000 0.0000 0.0000 -22.3921 0.0000 -35.1014
# 5 18.5074 -6.0087 5.8212 0.0000 42.7484 0.0000
# 6 0.0000 0.0000 0.0000 -35.1014 0.0000 7.3052
#
#
#
# Elastic Compliance Matrix: (Units=1/GPa)
#
#
# Indices 1 2 3 4 5 6 
#
# 1 0.013283 -0.003540 -0.004152 0.000000 -0.005683 0.000000
# 2 -0.003540 0.015971 -0.004728 0.000000 0.004421 0.000000
# 3 -0.004152 -0.004728 0.014192 0.000000 -0.000799 0.000000
# 4 0.000000 0.000000 0.000000 -0.005234 0.000000 -0.025150
# 5 -0.005683 0.004421 -0.000799 0.000000 0.026583 0.000000
# 6 0.000000 0.000000 0.000000 -0.025150 0.000000 0.016044
#
#
# Mechanical properties :
#
#
# Convention : Reuss Voigt Hill
#
# Bulk Modulus (GPa) = 53.75106 55.13460 54.44283
# Shear Modulus (GPa) = 44.69057 17.06912 30.87985
#
# Velocity S-wave (km/s) = 4.85759 3.00205 4.03785
# Velocity P-wave (km/s) = 7.73573 6.41303 7.10522
#
# Compressibility (1/GPa) = 0.01860428
#
# Stress axis : x y z
#
# Youngs Moduli (GPa) = 75.28494 62.61501 70.46381
#
# Poissons Ratio (x) = 0.22168 0.29259
# Poissons Ratio (y) = 0.26653 0.33314
# Poissons Ratio (z) = 0.31261 0.29603
#
# Static dielectric constant tensor:
#      x y z
#    x 1.697670 0.000000 0.011590 
#    y 0.000000 1.660390 0.000000 
#    z 0.011590 0.000000 1.694220 
# 
# From -- ./inp_files/54053.got.cif
#   From: 2010.05.17/outbox.cif.g08.bks.cpg/sg10_28_cif.got.tgz:54053.got - 2010.06.03 11:33:40.
