data_PCOD9151145
_publ_section_title
;
Structure prediction by ZEFSAII (Michael W. Deem and Ramdas Pophale) SiO2 
 PCOD9151145
Probable space group: P 2/M
;
_chemical_formula_sum "Si O2"
_cell_formula_units_Z 28
_cell_length_a 9.146193
_cell_length_b 13.689847
_cell_length_c 11.235133
_cell_angle_alpha 90.000000
_cell_angle_beta 125.214709
_cell_angle_gamma 90.000000
_cell_volume 1149.311036
_symmetry_space_group_name_H-M "P 2/M"
_symmetry_group_IT_number 10
_symmetry_cell_setting 'monoclinic'
loop_
_space_group_symop_operation_xyz
x,y,z
-x,y,-z
-x,-y,-z
x,-y,z
loop_
_atom_site_type_symbol
_atom_site_label
_atom_site_fract_x
_atom_site_fract_y
_atom_site_fract_z
Si Si1 0.913943 0.732015 0.644350
Si Si2 0.366587 0.678958 0.084440
Si Si3 0.341143 0.386222 0.337674
Si Si4 0.788995 0.892570 0.432131
Si Si5 0.425566 0.107587 0.141869
Si Si6 0.233211 0.388714 0.782386
Si Si7 0.882638 0.108839 0.826635
O O1 0.830946 0.636055 0.664001
O O2 0.774737 0.793875 0.500741
O O3 0.942286 0.810162 0.762533
O O4 0.094804 0.692314 0.671252
O O5 0.319245 0.665812 0.200350
O O6 0.366649 0.793573 0.050663
O O7 0.566964 0.636864 0.166173
O O8 0.244722 0.623561 0.931589
O O9 0.500000 0.352474 0.500000
O O10 0.368514 0.500000 0.325771
O O11 0.638664 0.887741 0.260312
O O12 0.000000 0.893901 0.500000
O O13 0.752763 0.000000 0.472128
O O14 0.321940 0.112680 0.221164
O O15 0.378352 0.000000 0.069691
O O16 0.190349 0.500000 0.729108
O O17 0.916219 0.000000 0.795171
O O18 0.000000 0.120129 0.000000
#
# Coordination Sequence:
#
# PCOD9151145 Si02
#       7
#     4   4   4   4   4   4   4
#     4  12  23  37  62  91 121 162 207 265 316 370
#     4  11  21  44  67  90 127 168 212 264 326 387
#     4  11  24  40  61  89 123 162 210 266 321 375
#     4  10  22  40  62  93 130 170 216 261 315 390
#     4  10  20  37  64  93 127 166 207 256 317 392
#     4  11  25  42  65  92 122 171 223 268 319 382
#     4  10  21  37  57  89 127 161 202 252 313 381
#
# _framework density 24.362421999999999
#
# number of rings (size 3 to 8) (size 9 to 14) (size 15 to 20)
#    0.000    1.286    1.429    5.143    0.000    0.000 
#    0.000    6.429    0.000    4.286    0.000    0.000 
#    0.000    0.000    0.000    0.000    0.000    0.000 
#
# Total GULP energy -156472.124038 kJ/mol
# GULP energy per Si atom -5588.290144 kJ/mol
# Density = 2.430697 g / cm^3
# Si number density = 24.362422 Si / 1000 Ang^3
#
#
#
# Elastic Constant Matrix: (Units=GPa)
#
#
# Indices 1 2 3 4 5 6 
#
# 1 56.2638 11.7448 1.0633 0.0000 15.9163 0.0000
# 2 11.7448 134.6988 -4.2879 0.0000 -1.5315 0.0000
# 3 1.0633 -4.2879 41.4928 0.0000 -0.0082 0.0000
# 4 0.0000 0.0000 0.0000 24.3079 0.0000 -1.3017
# 5 15.9163 -1.5315 -0.0082 0.0000 32.4866 0.0000
# 6 0.0000 0.0000 0.0000 -1.3017 0.0000 16.7439
#
#
#
# Elastic Compliance Matrix: (Units=1/GPa)
#
#
# Indices 1 2 3 4 5 6 
#
# 1 0.021162 -0.001988 -0.000750 0.000000 -0.010462 0.000000
# 2 -0.001988 0.007639 0.000841 0.000000 0.001334 0.000000
# 3 -0.000750 0.000841 0.024207 0.000000 0.000413 0.000000
# 4 0.000000 0.000000 0.000000 0.041311 0.000000 0.003212
# 5 -0.010462 0.001334 0.000413 0.000000 0.035971 0.000000
# 6 0.000000 0.000000 0.000000 0.003212 0.000000 0.059973
#
#
# Mechanical properties :
#
#
# Convention : Reuss Voigt Hill
#
# Bulk Modulus (GPa) = 20.31954 27.72177 24.02065
# Shear Modulus (GPa) = 23.75734 29.63671 26.69702
#
# Velocity S-wave (km/s) = 3.12615 3.49161 3.31392
# Velocity P-wave (km/s) = 4.62483 5.25916 4.95216
#
# Compressibility (1/GPa) = 0.04921372
#
# Stress axis : x y z
#
# Youngs Moduli (GPa) = 47.25424 130.90307 41.31084
#
# Poissons Ratio (x) = 0.26024 0.03098
# Poissons Ratio (y) = 0.09394 -0.03473
# Poissons Ratio (z) = 0.03543 -0.11004
#
# Static dielectric constant tensor:
#      x y z
#    x 1.982700 0.000000 -0.008460 
#    y 0.000000 1.904290 0.000000 
#    z -0.008460 0.000000 1.937560 
# 
# From -- ./inp_files/43023.got.cif
#   From: 2010.05.17/outbox.cif.g08.bks.cpg/sg10_22_cif.got.tgz:43023.got - 2010.06.03 11:33:40.
