data_PCOD9151102
_publ_section_title
;
Structure prediction by ZEFSAII (Michael W. Deem and Ramdas Pophale) SiO2 
 PCOD9151102
Probable space group: P 2/M
;
_chemical_formula_sum "Si O2"
_cell_formula_units_Z 28
_cell_length_a 15.417942
_cell_length_b 9.038343
_cell_length_c 14.518037
_cell_angle_alpha 90.000000
_cell_angle_beta 43.946561
_cell_angle_gamma 90.000000
_cell_volume 1404.024073
_symmetry_space_group_name_H-M "P 2/M"
_symmetry_group_IT_number 10
_symmetry_cell_setting 'monoclinic'
loop_
_space_group_symop_operation_xyz
x,y,z
-x,y,-z
-x,-y,-z
x,-y,z
loop_
_atom_site_type_symbol
_atom_site_label
_atom_site_fract_x
_atom_site_fract_y
_atom_site_fract_z
Si Si1 0.940189 0.326909 0.365555
Si Si2 0.256721 0.328264 0.650735
Si Si3 0.819865 0.822946 0.903210
Si Si4 0.449602 0.823161 0.373592
Si Si5 0.257243 0.822834 0.356418
Si Si6 0.647959 0.326939 0.900515
Si Si7 0.740036 0.177751 0.162261
O O1 0.955254 0.500000 0.377051
O O2 0.850450 0.315903 0.344585
O O3 0.867960 0.240707 0.501309
O O4 0.069332 0.252441 0.238154
O O5 0.281984 0.500000 0.648443
O O6 0.378253 0.252370 0.512910
O O7 0.218847 0.250256 0.774128
O O8 0.692966 0.764665 0.954216
O O9 0.827586 0.000000 0.890720
O O10 0.818320 0.780598 0.011997
O O11 0.370119 0.788926 0.342244
O O12 0.594401 0.780326 0.257563
O O13 0.443586 0.000000 0.391032
O O14 0.285863 0.743183 0.239062
O O15 0.249973 0.000000 0.350796
O O16 0.680461 0.500000 0.885638
O O17 0.500000 0.314976 0.000000
O O18 0.744935 0.000000 0.167134
#
# Coordination Sequence:
#
# PCOD9151102 Si02
#       7
#     4   4   4   4   4   4   4
#     4  10  22  41  60  83 117 152 191 238 289 342
#     4  10  21  35  55  83 114 150 190 234 283 339
#     4  11  24  41  61  85 113 149 196 242 283 334
#     4   9  18  34  56  83 115 149 186 232 286 338
#     4  10  20  37  63  89 115 151 194 239 284 334
#     4  11  24  41  62  90 122 153 184 225 284 346
#     4  10  21  36  55  81 114 151 190 236 287 336
#
# _framework density 19.942678000000001
#
# number of rings (size 3 to 8) (size 9 to 14) (size 15 to 20)
#    0.000    1.857    0.000    3.429    0.000    9.143 
#    0.000    5.714    0.000    0.000    0.000    0.000 
#    0.000    0.000    0.000    0.000    0.000    0.000 
#
# Total GULP energy -156539.627562 kJ/mol
# GULP energy per Si atom -5590.700984 kJ/mol
# Density = 1.989729 g / cm^3
# Si number density = 19.942678 Si / 1000 Ang^3
#
#
#
# Elastic Constant Matrix: (Units=GPa)
#
#
# Indices 1 2 3 4 5 6 
#
# 1 13.6674 12.4408 9.7195 0.0000 7.2875 0.0000
# 2 12.4408 42.1053 25.3076 0.0000 2.3165 0.0000
# 3 9.7195 25.3076 84.1081 0.0000 15.0980 0.0000
# 4 0.0000 0.0000 0.0000 13.5485 0.0000 7.4844
# 5 7.2875 2.3165 15.0980 0.0000 33.9148 0.0000
# 6 0.0000 0.0000 0.0000 7.4844 0.0000 28.4620
#
#
#
# Elastic Compliance Matrix: (Units=1/GPa)
#
#
# Indices 1 2 3 4 5 6 
#
# 1 0.114967 -0.033192 0.000793 0.000000 -0.022789 0.000000
# 2 -0.033192 0.038710 -0.009366 0.000000 0.008658 0.000000
# 3 0.000793 -0.009366 0.015794 0.000000 -0.006562 0.000000
# 4 0.000000 0.000000 0.000000 0.086353 0.000000 -0.022707
# 5 -0.022789 0.008658 -0.006562 0.000000 0.036712 0.000000
# 6 0.000000 0.000000 0.000000 -0.022707 0.000000 0.041106
#
#
# Mechanical properties :
#
#
# Convention : Reuss Voigt Hill
#
# Bulk Modulus (GPa) = 11.63594 26.09072 18.86333
# Shear Modulus (GPa) = 11.21531 21.34592 16.28062
#
# Velocity S-wave (km/s) = 2.37402 3.27519 2.86032
# Velocity P-wave (km/s) = 3.65541 5.23582 4.51529
#
# Compressibility (1/GPa) = 0.08594063
#
# Stress axis : x y z
#
# Youngs Moduli (GPa) = 8.69817 25.83291 63.31525
#
# Poissons Ratio (x) = 0.85743 -0.05018
# Poissons Ratio (y) = 0.28871 0.59302
# Poissons Ratio (z) = -0.00689 0.24196
#
# Static dielectric constant tensor:
#      x y z
#    x 1.730310 0.000000 -0.006370 
#    y 0.000000 1.662190 0.000000 
#    z -0.006370 0.000000 1.674630 
# 
# From -- ./inp_files/68605.got.cif
#   From: 2010.05.17/outbox.cif.g08.bks.cpg/sg10_35_cif.got.tgz:68605.got - 2010.06.03 11:33:40.
