data_PCOD9151732
_publ_section_title
;
Structure prediction by ZEFSAII (Michael W. Deem and Ramdas Pophale) SiO2 
 PCOD9151732
Probable space group: P 2/M
;
_chemical_formula_sum "Si O2"
_cell_formula_units_Z 24
_cell_length_a 18.381511
_cell_length_b 7.630183
_cell_length_c 24.655922
_cell_angle_alpha 90.000000
_cell_angle_beta 159.817735
_cell_angle_gamma 90.000000
_cell_volume 1193.070703
_symmetry_space_group_name_H-M "P 2/M"
_symmetry_group_IT_number 10
_symmetry_cell_setting 'monoclinic'
loop_
_space_group_symop_operation_xyz
x,y,z
-x,y,-z
-x,-y,-z
x,-y,z
loop_
_atom_site_type_symbol
_atom_site_label
_atom_site_fract_x
_atom_site_fract_y
_atom_site_fract_z
Si Si1 0.313278 0.000000 0.325900
Si Si2 0.866110 0.704023 0.620389
Si Si3 0.752984 0.000000 0.841201
Si Si4 0.655301 0.798641 0.063762
Si Si5 0.486668 0.286542 0.710627
Si Si6 0.419828 0.706054 0.107081
Si Si7 0.922690 0.707660 0.779920
O O1 0.500000 0.000000 0.500000
O O2 0.176576 0.172762 0.243660
O O3 0.367355 0.000000 0.300749
O O4 0.815089 0.500000 0.590392
O O5 0.711775 0.767348 0.465441
O O6 0.839581 0.774294 0.662912
O O7 0.112550 0.717182 0.778064
O O8 0.680260 0.827418 0.823116
O O9 0.000000 0.000000 0.000000
O O10 0.693005 0.000000 0.105268
O O11 0.500000 0.719901 0.000000
O O12 0.552988 0.792257 0.932309
O O13 0.520394 0.500000 0.731753
O O14 0.453859 0.240425 0.750973
O O15 0.454597 0.500000 0.122364
O O16 0.174389 0.728696 0.951929
O O17 0.878216 0.500000 0.755757
#
# Coordination Sequence:
#
# PCOD9151732 Si02
#       7
#     2   4   2   4   4   4   4
#     4  12  24  34  52  80 105 141 184 227 287 336
#     4   9  19  36  59  83 109 152 195 230 282 332
#     4  12  26  38  56  86 113 151 192 229 301 344
#     4  10  21  34  55  89 120 147 182 231 284 330
#     4  10  22  40  60  84 114 150 195 238 278 339
#     4   9  19  36  59  81 104 147 191 225 275 330
#     4   9  19  35  54  77 105 142 187 230 273 329
#
# _framework density 20.116160000000001
#
# number of rings (size 3 to 8) (size 9 to 14) (size 15 to 20)
#    0.000    2.167    0.000    3.500    7.000    2.667 
#    0.000    0.833    0.000    5.000    0.000    0.000 
#    0.000    0.000    0.000    0.000    0.000    0.000 
#
# Total GULP energy -133879.524892 kJ/mol
# GULP energy per Si atom -5578.313537 kJ/mol
# Density = 2.007037 g / cm^3
# Si number density = 20.116160 Si / 1000 Ang^3
#
#
#
# Elastic Constant Matrix: (Units=GPa)
#
#
# Indices 1 2 3 4 5 6 
#
# 1 110.8327 29.5083 27.2673 0.0000 -12.2916 0.0000
# 2 29.5083 50.1424 6.0258 0.0000 -4.7573 0.0000
# 3 27.2673 6.0258 62.7489 0.0000 -26.8320 0.0000
# 4 0.0000 0.0000 0.0000 14.9011 0.0000 3.8045
# 5 -12.2916 -4.7573 -26.8320 0.0000 29.5984 0.0000
# 6 0.0000 0.0000 0.0000 3.8045 0.0000 34.0020
#
#
#
# Elastic Compliance Matrix: (Units=1/GPa)
#
#
# Indices 1 2 3 4 5 6 
#
# 1 0.011851 -0.006446 -0.004686 0.000000 -0.000362 0.000000
# 2 -0.006446 0.023789 0.001644 0.000000 0.002637 0.000000
# 3 -0.004686 0.001644 0.027918 0.000000 0.023627 0.000000
# 4 0.000000 0.000000 0.000000 0.069083 0.000000 -0.007730
# 5 -0.000362 0.002637 0.023627 0.000000 0.055478 0.000000
# 6 0.000000 0.000000 0.000000 -0.007730 0.000000 0.030275
#
#
# Mechanical properties :
#
#
# Convention : Reuss Voigt Hill
#
# Bulk Modulus (GPa) = 22.42974 38.81410 30.62192
# Shear Modulus (GPa) = 19.82319 26.42845 23.12582
#
# Velocity S-wave (km/s) = 3.14257 3.62856 3.39427
# Velocity P-wave (km/s) = 4.93376 6.07389 5.53327
#
# Compressibility (1/GPa) = 0.04458366
#
# Stress axis : x y z
#
# Youngs Moduli (GPa) = 84.37840 42.03614 35.81920
#
# Poissons Ratio (x) = 0.27095 0.16785
# Poissons Ratio (y) = 0.54388 -0.05890
# Poissons Ratio (z) = 0.39539 -0.06912
#
# Static dielectric constant tensor:
#      x y z
#    x 1.719840 0.000000 -0.034500 
#    y 0.000000 1.728530 0.000000 
#    z -0.034500 0.000000 1.748740 
# 
# From -- ./inp_files/33811.got.cif
#   From: 2010.05.17/outbox.cif.g08.bks.cpg/sg10_17_cif.got.tgz:33811.got - 2010.06.03 11:33:40.
