data_PCOD9151984
_publ_section_title
;
Structure prediction by ZEFSAII (Michael W. Deem and Ramdas Pophale) SiO2 
 PCOD9151984
Probable space group: P 2/M
;
_chemical_formula_sum "Si O2"
_cell_formula_units_Z 28
_cell_length_a 9.443917
_cell_length_b 9.375536
_cell_length_c 29.749908
_cell_angle_alpha 90.000000
_cell_angle_beta 142.524029
_cell_angle_gamma 90.000000
_cell_volume 1602.667957
_symmetry_space_group_name_H-M "P 2/M"
_symmetry_group_IT_number 10
_symmetry_cell_setting 'monoclinic'
loop_
_space_group_symop_operation_xyz
x,y,z
-x,y,-z
-x,-y,-z
x,-y,z
loop_
_atom_site_type_symbol
_atom_site_label
_atom_site_fract_x
_atom_site_fract_y
_atom_site_fract_z
Si Si1 0.586248 0.829444 0.700715
Si Si2 0.082671 0.170557 0.299284
Si Si3 0.898999 0.328718 0.425846
Si Si4 0.769769 0.328718 0.574155
Si Si5 0.013960 0.169306 0.872625
Si Si6 0.832208 0.330513 0.000000
Si Si7 0.349165 0.830694 0.872626
O O1 0.718355 0.793971 0.687342
O O2 0.346159 0.746957 0.644133
O O3 0.769755 0.797217 0.786657
O O4 0.547905 0.000000 0.691433
O O5 0.125495 0.253042 0.355867
O O6 0.836470 0.202785 0.213342
O O7 0.090739 0.000000 0.308565
O O8 0.866927 0.500000 0.417776
O O9 0.000000 0.287605 0.500000
O O10 0.081886 0.292766 0.432754
O O11 0.500000 0.287606 0.500000
O O12 0.778047 0.500000 0.582225
O O13 0.214103 0.194001 0.885642
O O14 0.016603 0.000000 0.883656
O O15 0.061353 0.259762 0.928599
O O16 0.808725 0.500000 0.999999
O O17 0.581643 0.259759 0.928601
O O18 0.000000 0.303533 0.000000
O O19 0.401672 0.000000 0.883656
#
# Coordination Sequence:
#
# PCOD9151984 Si02
#       7
#     4   4   4   4   4   4   4
#     4   9  19  36  57  81 107 135 171 216 264 313
#     4   9  19  36  57  81 107 135 171 216 264 313
#     4  10  21  36  54  77 106 141 179 217 259 309
#     4  10  21  36  54  77 106 141 179 217 259 309
#     4   9  19  37  59  80 103 135 176 218 260 311
#     4  11  24  37  50  76 112 143 174 215 260 308
#     4   9  19  37  59  80 103 135 176 218 260 311
#
# _framework density 17.470867999999999
#
# number of rings (size 3 to 8) (size 9 to 14) (size 15 to 20)
#    0.000    2.429    0.000    3.429    0.000    8.571 
#    0.000    8.571    0.000    0.000    0.000    0.000 
#    0.000    0.000    0.000    0.000    0.000    0.000 
#
# Total GULP energy -156311.991967 kJ/mol
# GULP energy per Si atom -5582.571142 kJ/mol
# Density = 1.743110 g / cm^3
# Si number density = 17.470868 Si / 1000 Ang^3
#
#
#
# Elastic Constant Matrix: (Units=GPa)
#
#
# Indices 1 2 3 4 5 6 
#
# 1 145.9093 83.4085 129.2221 0.0000 3.0583 0.0000
# 2 83.4085 56.5075 83.9404 0.0000 0.0280 0.0000
# 3 129.2221 83.9404 154.2624 0.0000 -2.6189 0.0000
# 4 0.0000 0.0000 0.0000 49.3408 0.0000 0.7757
# 5 3.0583 0.0280 -2.6189 0.0000 37.0916 0.0000
# 6 0.0000 0.0000 0.0000 0.7757 0.0000 34.6145
#
#
#
# Elastic Compliance Matrix: (Units=1/GPa)
#
#
# Indices 1 2 3 4 5 6 
#
# 1 0.046502 -0.055619 -0.008765 0.000000 -0.004411 0.000000
# 2 -0.055619 0.159328 -0.040078 0.000000 0.001636 0.000000
# 3 -0.008765 -0.040078 0.035688 0.000000 0.003273 0.000000
# 4 0.000000 0.000000 0.000000 0.020274 0.000000 -0.000454
# 5 -0.004411 0.001636 0.003273 0.000000 0.027554 0.000000
# 6 0.000000 0.000000 0.000000 -0.000454 0.000000 0.028900
#
#
# Mechanical properties :
#
#
# Convention : Reuss Voigt Hill
#
# Bulk Modulus (GPa) = 30.67942 105.53566 68.10754
# Shear Modulus (GPa) = 9.29309 28.21661 18.75485
#
# Velocity S-wave (km/s) = 2.30884 4.02315 3.27997
# Velocity P-wave (km/s) = 4.97052 9.06194 7.30838
#
# Compressibility (1/GPa) = 0.03259514
#
# Stress axis : x y z
#
# Youngs Moduli (GPa) = 21.50429 6.27637 28.02047
#
# Poissons Ratio (x) = 0.34908 0.24559
# Poissons Ratio (y) = 1.19604 1.12302
# Poissons Ratio (z) = 0.18848 0.25155
#
# Static dielectric constant tensor:
#      x y z
#    x 1.575650 0.000000 -0.000200 
#    y 0.000000 1.574020 0.000000 
#    z -0.000200 0.000000 1.571840 
# 
# From -- ./inp_files/36935.got.cif
#   From: 2010.05.17/outbox.cif.g08.bks.cpg/sg10_19_cif.got.tgz:36935.got - 2010.06.03 11:33:40.
