data_PCOD9151734
_publ_section_title
;
Structure prediction by ZEFSAII (Michael W. Deem and Ramdas Pophale) SiO2 
 PCOD9151734
Probable space group: P 2/M
;
_chemical_formula_sum "Si O2"
_cell_formula_units_Z 22
_cell_length_a 7.691964
_cell_length_b 16.806216
_cell_length_c 12.575509
_cell_angle_alpha 90.000000
_cell_angle_beta 42.339363
_cell_angle_gamma 90.000000
_cell_volume 1094.922978
_symmetry_space_group_name_H-M "P 2/M"
_symmetry_group_IT_number 10
_symmetry_cell_setting 'monoclinic'
loop_
_space_group_symop_operation_xyz
x,y,z
-x,y,-z
-x,-y,-z
x,-y,z
loop_
_atom_site_type_symbol
_atom_site_label
_atom_site_fract_x
_atom_site_fract_y
_atom_site_fract_z
Si Si1 0.417815 0.591480 0.855149
Si Si2 0.242825 0.000000 0.054229
Si Si3 0.695502 0.738956 0.640512
Si Si4 0.071344 0.409246 0.796533
Si Si5 0.500000 0.694536 0.500000
Si Si6 0.696742 0.000000 0.316689
Si Si7 0.722036 0.138143 0.130535
O O1 0.504702 0.500000 0.834050
O O2 0.635248 0.655445 0.727725
O O3 0.238653 0.590023 0.830023
O O4 0.219217 0.615321 0.039387
O O5 0.242304 0.923594 0.980191
O O6 0.500000 0.000000 0.000000
O O7 0.981961 0.000000 0.237761
O O8 0.573851 0.738316 0.575931
O O9 0.520613 0.805458 0.775590
O O10 0.000000 0.754178 0.500000
O O11 0.057911 0.500000 0.763690
O O12 0.242924 0.356815 0.640902
O O13 0.500000 0.000000 0.500000
O O14 0.678504 0.920720 0.251378
O O15 0.000000 0.183625 0.000000
#
# Coordination Sequence:
#
# PCOD9151734 Si02
#       7
#     4   2   4   4   2   2   4
#     4   8  16  32  55  79 112 157 200 244 300 353
#     4   9  19  41  64  94 116 153 196 230 290 357
#     4  11  24  39  56  87 122 153 203 248 295 350
#     4   8  14  29  54  81 104 145 202 244 296 360
#     4  10  21  34  56  79 116 154 190 244 306 339
#     4   9  19  37  64  90 116 152 189 229 288 355
#     4   9  21  40  61  84 122 158 190 236 292 352
#
# _framework density 20.092737
#
# number of rings (size 3 to 8) (size 9 to 14) (size 15 to 20)
#    0.000    2.909    0.000    2.455    6.364    2.545 
#    3.273    2.727    0.000    2.182    0.000    0.000 
#    0.000    0.000    0.000    0.000    0.000    0.000 
#
# Total GULP energy -122583.881752 kJ/mol
# GULP energy per Si atom -5571.994625 kJ/mol
# Density = 2.004701 g / cm^3
# Si number density = 20.092737 Si / 1000 Ang^3
#
#
#
# Elastic Constant Matrix: (Units=GPa)
#
#
# Indices 1 2 3 4 5 6 
#
# 1 29.0771 1.6425 27.0036 0.0000 -17.8387 0.0000
# 2 1.6425 68.4256 53.2528 0.0000 -20.7326 0.0000
# 3 27.0036 53.2528 158.0890 0.0000 -27.3427 0.0000
# 4 0.0000 0.0000 0.0000 63.1401 0.0000 3.1649
# 5 -17.8387 -20.7326 -27.3427 0.0000 36.4907 0.0000
# 6 0.0000 0.0000 0.0000 3.1649 0.0000 5.8669
#
#
#
# Elastic Compliance Matrix: (Units=1/GPa)
#
#
# Indices 1 2 3 4 5 6 
#
# 1 0.063393 0.016744 -0.010872 0.000000 0.032356 0.000000
# 2 0.016744 0.026017 -0.008791 0.000000 0.016380 0.000000
# 3 -0.010872 -0.008791 0.010755 0.000000 -0.002251 0.000000
# 4 0.000000 0.000000 0.000000 0.016278 0.000000 -0.008781
# 5 0.032356 0.016380 -0.002251 0.000000 0.050842 0.000000
# 6 0.000000 0.000000 0.000000 -0.008781 0.000000 0.175183
#
#
# Mechanical properties :
#
#
# Convention : Reuss Voigt Hill
#
# Bulk Modulus (GPa) = 10.60158 46.59883 28.60020
# Shear Modulus (GPa) = 13.16661 32.67907 22.92284
#
# Velocity S-wave (km/s) = 2.56264 4.03726 3.38131
# Velocity P-wave (km/s) = 3.74753 6.70633 5.43225
#
# Compressibility (1/GPa) = 0.09432560
#
# Stress axis : x y z
#
# Youngs Moduli (GPa) = 15.77461 38.43614 92.98379
#
# Poissons Ratio (x) = -0.64356 1.01093
# Poissons Ratio (y) = -0.26412 0.81741
# Poissons Ratio (z) = 0.17150 0.33789
#
# Static dielectric constant tensor:
#      x y z
#    x 1.767340 0.000000 -0.033720 
#    y 0.000000 1.706090 0.000000 
#    z -0.033720 0.000000 1.749380 
# 
# From -- ./inp_files/62208.got.cif
#   From: 2010.05.17/outbox.cif.g08.bks.cpg/sg10_32_cif.got.tgz:62208.got - 2010.06.03 11:33:40.
