data_PCOD9151292
_publ_section_title
;
Structure prediction by ZEFSAII (Michael W. Deem and Ramdas Pophale) SiO2 
 PCOD9151292
Probable space group: P 2/M
;
_chemical_formula_sum "Si O2"
_cell_formula_units_Z 28
_cell_length_a 29.548005
_cell_length_b 7.745938
_cell_length_c 9.680365
_cell_angle_alpha 90.000000
_cell_angle_beta 147.399105
_cell_angle_gamma 90.000000
_cell_volume 1193.736735
_symmetry_space_group_name_H-M "P 2/M"
_symmetry_group_IT_number 10
_symmetry_cell_setting 'monoclinic'
loop_
_space_group_symop_operation_xyz
x,y,z
-x,y,-z
-x,-y,-z
x,-y,z
loop_
_atom_site_type_symbol
_atom_site_label
_atom_site_fract_x
_atom_site_fract_y
_atom_site_fract_z
Si Si1 0.664561 0.296468 0.562220
Si Si2 0.146903 0.703574 0.926121
Si Si3 0.120353 0.791121 0.542257
Si Si4 0.776511 0.790164 0.447619
Si Si5 0.938942 0.198593 0.030081
Si Si6 0.462095 0.196811 0.542257
Si Si7 0.401997 0.300133 0.892438
O O1 0.672185 0.500000 0.554800
O O2 0.618720 0.274338 0.590010
O O3 0.609148 0.229015 0.291674
O O4 0.758994 0.226186 0.804048
O O5 0.143595 0.500000 0.949635
O O6 0.128976 0.726556 0.719199
O O7 0.081549 0.793183 0.859827
O O8 0.197868 0.745961 0.642943
O O9 0.031956 0.727841 0.250138
O O10 0.115972 0.000000 0.535214
O O11 0.690696 0.710446 0.280228
O O12 0.768722 0.000000 0.439284
O O13 0.856335 0.729127 0.743599
O O14 0.942438 0.000000 0.991904
O O15 0.500000 0.277869 0.500000
O O16 0.439313 0.000000 0.449504
O O17 0.534660 0.204078 0.844045
O O18 0.430970 0.500000 0.961571
#
# Coordination Sequence:
#
# PCOD9151292 Si02
#       7
#     4   4   4   4   4   4   4
#     4  10  23  43  64  89 122 162 203 244 295 358
#     4  11  23  39  59  88 124 161 205 251 299 356
#     4  10  22  38  58  87 123 161 205 255 305 358
#     4  10  21  38  62  90 121 158 204 254 303 355
#     4  10  20  38  62  87 118 161 207 252 306 359
#     4  11  26  44  65  96 127 154 193 245 297 354
#     4  11  23  42  66  91 123 160 201 245 296 358
#
# _framework density 23.455756999999998
#
# number of rings (size 3 to 8) (size 9 to 14) (size 15 to 20)
#    0.000    1.571    1.429    2.571    2.000    9.714 
#    0.000    0.000    0.000    2.571    0.000    0.000 
#    0.000    0.000    0.000    0.000    0.000    0.000 
#
# Total GULP energy -156600.345494 kJ/mol
# GULP energy per Si atom -5592.869482 kJ/mol
# Density = 2.340237 g / cm^3
# Si number density = 23.455757 Si / 1000 Ang^3
#
#
#
# Elastic Constant Matrix: (Units=GPa)
#
#
# Indices 1 2 3 4 5 6 
#
# 1 129.6352 -1.2008 1.4187 0.0000 4.9964 0.0000
# 2 -1.2008 43.7561 -5.5517 0.0000 -1.8749 0.0000
# 3 1.4187 -5.5517 44.7607 0.0000 3.7994 0.0000
# 4 0.0000 0.0000 0.0000 62.9187 0.0000 80.7235
# 5 4.9964 -1.8749 3.7994 0.0000 30.1099 0.0000
# 6 0.0000 0.0000 0.0000 80.7235 0.0000 168.2281
#
#
#
# Elastic Compliance Matrix: (Units=1/GPa)
#
#
# Indices 1 2 3 4 5 6 
#
# 1 0.007765 0.000144 -0.000121 0.000000 -0.001264 0.000000
# 2 0.000144 0.023258 0.002789 0.000000 0.001072 0.000000
# 3 -0.000121 0.002789 0.022920 0.000000 -0.002698 0.000000
# 4 0.000000 0.000000 0.000000 0.041350 0.000000 -0.019842
# 5 -0.001264 0.001072 -0.002698 0.000000 0.033829 0.000000
# 6 0.000000 0.000000 0.000000 -0.019842 0.000000 0.015465
#
#
# Mechanical properties :
#
#
# Convention : Reuss Voigt Hill
#
# Bulk Modulus (GPa) = 16.78804 23.05383 19.92094
# Shear Modulus (GPa) = 31.48244 67.15040 49.31642
#
# Velocity S-wave (km/s) = 3.66759 5.35637 4.59031
# Velocity P-wave (km/s) = 5.01077 6.93572 6.05029
#
# Compressibility (1/GPa) = 0.05956621
#
# Stress axis : x y z
#
# Youngs Moduli (GPa) = 128.77738 42.99651 43.63035
#
# Poissons Ratio (x) = -0.00617 0.00528
# Poissons Ratio (y) = -0.01849 -0.12169
# Poissons Ratio (z) = 0.01558 -0.11992
#
# Static dielectric constant tensor:
#      x y z
#    x 1.864820 0.000000 -0.016050 
#    y 0.000000 1.885800 0.000000 
#    z -0.016050 0.000000 1.886520 
# 
# From -- ./inp_files/36993.got.cif
#   From: 2010.05.17/outbox.cif.g08.bks.cpg/sg10_19_cif.got.tgz:36993.got - 2010.06.03 11:33:40.
