data_PCOD9151066
_publ_section_title
;
Structure prediction by ZEFSAII (Michael W. Deem and Ramdas Pophale) SiO2 
 PCOD9151066
Probable space group: P 2/M
;
_chemical_formula_sum "Si O2"
_cell_formula_units_Z 28
_cell_length_a 9.619363
_cell_length_b 8.864218
_cell_length_c 27.237287
_cell_angle_alpha 90.000000
_cell_angle_beta 40.759268
_cell_angle_gamma 90.000000
_cell_volume 1516.301184
_symmetry_space_group_name_H-M "P 2/M"
_symmetry_group_IT_number 10
_symmetry_cell_setting 'monoclinic'
loop_
_space_group_symop_operation_xyz
x,y,z
-x,y,-z
-x,-y,-z
x,-y,z
loop_
_atom_site_type_symbol
_atom_site_label
_atom_site_fract_x
_atom_site_fract_y
_atom_site_fract_z
Si Si1 0.155111 0.179034 0.912616
Si Si2 0.389152 0.334455 0.311746
Si Si3 0.243552 0.174769 0.440934
Si Si4 0.974934 0.819863 0.259447
Si Si5 0.100766 0.329030 0.825936
Si Si6 0.426281 0.320013 0.574756
Si Si7 0.377598 0.322428 0.203041
O O1 0.052988 0.246077 0.889993
O O2 0.384509 0.254639 0.862065
O O3 0.186848 0.000000 0.897543
O O4 0.000000 0.204765 0.000000
O O5 0.314824 0.500000 0.349980
O O6 0.335798 0.200833 0.362286
O O7 0.643280 0.340781 0.241237
O O8 0.306347 0.312043 0.279113
O O9 0.380777 0.273988 0.441136
O O10 0.000000 0.221147 0.500000
O O11 0.254849 0.000000 0.452898
O O12 0.952147 0.756798 0.210142
O O13 0.785735 0.754967 0.345085
O O14 0.202994 0.764678 0.218310
O O15 0.959372 0.000000 0.263476
O O16 0.014076 0.500000 0.848140
O O17 0.500000 0.274660 0.500000
O O18 0.393260 0.500000 0.583828
O O19 0.383676 0.500000 0.188617
#
# Coordination Sequence:
#
# PCOD9151066 Si02
#       7
#     4   4   4   4   4   4   4
#     4  10  21  39  64  95 129 160 195 243 297 352
#     4   9  19  36  58  81 108 149 196 242 290 347
#     4  11  24  38  55  83 115 148 193 248 303 356
#     4  12  24  39  62  89 122 159 199 253 308 360
#     4  10  20  37  62  89 118 156 200 242 289 355
#     4  11  25  43  61  83 115 159 206 251 304 362
#     4  10  22  39  61  89 121 158 202 246 292 355
#
# _framework density 18.465986999999998
#
# number of rings (size 3 to 8) (size 9 to 14) (size 15 to 20)
#    0.000    1.571    1.429    4.286    2.000    6.286 
#    0.000    0.714    0.000    4.286    0.000    0.000 
#    0.000    0.000    0.000    0.000    0.000    0.000 
#
# Total GULP energy -156248.184185 kJ/mol
# GULP energy per Si atom -5580.292292 kJ/mol
# Density = 1.842396 g / cm^3
# Si number density = 18.465987 Si / 1000 Ang^3
#
#
#
# Elastic Constant Matrix: (Units=GPa)
#
#
# Indices 1 2 3 4 5 6 
#
# 1 126.6218 67.4861 49.2936 0.0000 12.3546 0.0000
# 2 67.4861 115.2342 56.1343 0.0000 13.1193 0.0000
# 3 49.2936 56.1343 80.8594 0.0000 15.8868 0.0000
# 4 0.0000 0.0000 0.0000 37.3023 0.0000 -16.3263
# 5 12.3546 13.1193 15.8868 0.0000 20.3331 0.0000
# 6 0.0000 0.0000 0.0000 -16.3263 0.0000 47.1987
#
#
#
# Elastic Compliance Matrix: (Units=1/GPa)
#
#
# Indices 1 2 3 4 5 6 
#
# 1 0.012213 -0.005293 -0.003525 0.000000 -0.001252 0.000000
# 2 -0.005293 0.015450 -0.007292 0.000000 -0.001055 0.000000
# 3 -0.003525 -0.007292 0.021539 0.000000 -0.009983 0.000000
# 4 0.000000 0.000000 0.000000 0.031591 0.000000 0.010927
# 5 -0.001252 -0.001055 -0.009983 0.000000 0.058422 0.000000
# 6 0.000000 0.000000 0.000000 0.010927 0.000000 0.024967
#
#
# Mechanical properties :
#
#
# Convention : Reuss Voigt Hill
#
# Bulk Modulus (GPa) = 58.88125 74.28259 66.58192
# Shear Modulus (GPa) = 24.74493 30.95357 27.84925
#
# Velocity S-wave (km/s) = 3.66461 4.09864 3.88769
# Velocity P-wave (km/s) = 7.06126 7.91912 7.50246
#
# Compressibility (1/GPa) = 0.01698334
#
# Stress axis : x y z
#
# Youngs Moduli (GPa) = 81.88136 64.72583 46.42655
#
# Poissons Ratio (x) = 0.34258 0.16365
# Poissons Ratio (y) = 0.43338 0.33853
# Poissons Ratio (z) = 0.28863 0.47196
#
# Static dielectric constant tensor:
#      x y z
#    x 1.611250 0.000000 0.035950 
#    y 0.000000 1.647440 0.000000 
#    z 0.035950 0.000000 1.607250 
# 
# From -- ./inp_files/91948.got.cif
#   From: 2010.05.17/outbox.cif.g08.bks.cpg/sg10_46_cif.got.tgz:91948.got - 2010.06.03 11:33:40.
