data_PCOD9151369
_publ_section_title
;
Structure prediction by ZEFSAII (Michael W. Deem and Ramdas Pophale) SiO2 
 PCOD9151369
Probable space group: P 2/M
;
_chemical_formula_sum "Si O2"
_cell_formula_units_Z 28
_cell_length_a 8.306397
_cell_length_b 32.081838
_cell_length_c 5.122388
_cell_angle_alpha 90.000000
_cell_angle_beta 66.816472
_cell_angle_gamma 90.000000
_cell_volume 1254.808215
_symmetry_space_group_name_H-M "P 2/M"
_symmetry_group_IT_number 10
_symmetry_cell_setting 'monoclinic'
loop_
_space_group_symop_operation_xyz
x,y,z
-x,y,-z
-x,-y,-z
x,-y,z
loop_
_atom_site_type_symbol
_atom_site_label
_atom_site_fract_x
_atom_site_fract_y
_atom_site_fract_z
Si Si1 0.801668 0.215586 0.191034
Si Si2 0.694977 0.131046 0.498646
Si Si3 0.625118 0.590591 0.168555
Si Si4 0.373372 0.500000 0.828993
Si Si5 0.106505 0.339767 0.187481
Si Si6 0.317161 0.740082 0.218633
Si Si7 0.500000 0.912910 0.000000
Si Si8 0.789494 0.953776 0.189856
O O1 0.798598 0.170035 0.324442
O O2 0.707773 0.244035 0.470902
O O3 0.711333 0.221948 0.968395
O O4 0.000000 0.227289 0.000000
O O5 0.500000 0.134143 0.500000
O O6 0.775041 0.086607 0.377230
O O7 0.649141 0.121589 0.824864
O O8 0.500000 0.597517 0.500000
O O9 0.718704 0.545078 0.126430
O O10 0.500000 0.588182 0.000000
O O11 0.755981 0.627639 0.019465
O O12 0.500000 0.500000 0.500000
O O13 0.500000 0.500000 0.000000
O O14 0.186464 0.297713 0.254375
O O15 0.000000 0.359154 0.500000
O O16 0.000000 0.327210 0.000000
O O17 0.500000 0.722433 0.000000
O O18 0.372334 0.943192 0.909439
O O19 0.750517 0.000000 0.323073
O O20 0.000000 0.955047 0.000000
#
# Coordination Sequence:
#
# PCOD9151369 Si02
#       8
#     4   4   4   2   4   4   2   4
#     4  12  26  45  70  99 132 169 215 273 335 395
#     4  10  23  41  65  92 129 166 216 261 323 389
#     4  10  20  38  64  92 127 171 226 269 326 388
#     4   8  16  32  58  90 122 166 218 276 316 382
#     4  12  25  42  63  92 133 168 213 270 337 394
#     4  12  26  45  69  94 126 171 219 271 327 401
#     4  10  23  40  66  92 130 174 216 268 332 395
#     4  10  22  41  64  94 130 169 220 273 330 398
#
# _framework density 22.314167000000001
#
# number of rings (size 3 to 8) (size 9 to 14) (size 15 to 20)
#    0.000    1.286    0.000    5.786    5.000    4.857 
#    2.571    2.143    0.000    0.000    0.000    0.000 
#    0.000    0.000    0.000    0.000    0.000    0.000 
#
# Total GULP energy -155877.186409 kJ/mol
# GULP energy per Si atom -5567.042372 kJ/mol
# Density = 2.226338 g / cm^3
# Si number density = 22.314167 Si / 1000 Ang^3
#
#
#
# Elastic Constant Matrix: (Units=GPa)
#
#
# Indices 1 2 3 4 5 6 
#
# 1 48.6769 1.3841 22.5707 0.0000 -12.6707 0.0000
# 2 1.3841 136.7930 34.8609 0.0000 -14.2102 0.0000
# 3 22.5707 34.8609 137.5237 0.0000 -8.2341 0.0000
# 4 0.0000 0.0000 0.0000 9.8642 0.0000 19.6248
# 5 -12.6707 -14.2102 -8.2341 0.0000 27.7713 0.0000
# 6 0.0000 0.0000 0.0000 19.6248 0.0000 -43.6916
#
#
#
# Elastic Compliance Matrix: (Units=1/GPa)
#
#
# Indices 1 2 3 4 5 6 
#
# 1 0.025278 0.001932 -0.003959 0.000000 0.011348 0.000000
# 2 0.001932 0.008306 -0.002154 0.000000 0.004493 0.000000
# 3 -0.003959 -0.002154 0.008443 0.000000 -0.000405 0.000000
# 4 0.000000 0.000000 0.000000 0.053536 0.000000 0.024047
# 5 0.011348 0.004493 -0.000405 0.000000 0.043365 0.000000
# 6 0.000000 0.000000 0.000000 0.024047 0.000000 -0.012087
#
#
# Mechanical properties :
#
#
# Convention : Reuss Voigt Hill
#
# Bulk Modulus (GPa) = 29.70327 48.95834 39.33080
# Shear Modulus (GPa) = 34.14707 16.40063 25.27385
#
# Velocity S-wave (km/s) = 3.91613 2.71401 3.36912
# Velocity P-wave (km/s) = 5.81278 5.63997 5.72702
#
# Compressibility (1/GPa) = 0.03366633
#
# Stress axis : x y z
#
# Youngs Moduli (GPa) = 39.55951 120.38951 118.44251
#
# Poissons Ratio (x) = -0.23259 0.46892
# Poissons Ratio (y) = -0.07643 0.25508
# Poissons Ratio (z) = 0.15662 0.25928
#
# Static dielectric constant tensor:
#      x y z
#    x 2.337140 0.000000 -0.364080 
#    y 0.000000 1.846680 0.000000 
#    z -0.364080 0.000000 2.205250 
# 
# From -- ./inp_files/5518.got.cif
#   From: 2010.05.17/outbox.cif.g08.bks.cpg/sg10_3_cif.got.tgz:5518.got - 2010.06.03 11:33:40.
