data_PCOD9151939
_publ_section_title
;
Structure prediction by ZEFSAII (Michael W. Deem and Ramdas Pophale) SiO2 
 PCOD9151939
Probable space group: P 2/M
;
_chemical_formula_sum "Si O2"
_cell_formula_units_Z 30
_cell_length_a 14.111554
_cell_length_b 7.370592
_cell_length_c 11.694397
_cell_angle_alpha 90.000000
_cell_angle_beta 98.637752
_cell_angle_gamma 90.000000
_cell_volume 1202.543991
_symmetry_space_group_name_H-M "P 2/M"
_symmetry_group_IT_number 10
_symmetry_cell_setting 'monoclinic'
loop_
_space_group_symop_operation_xyz
x,y,z
-x,y,-z
-x,-y,-z
x,-y,z
loop_
_atom_site_type_symbol
_atom_site_label
_atom_site_fract_x
_atom_site_fract_y
_atom_site_fract_z
Si Si1 0.886984 0.782523 0.445019
Si Si2 0.968971 0.217647 0.232262
Si Si3 0.356973 0.279664 0.946497
Si Si4 0.629510 0.790160 0.606280
Si Si5 0.173844 0.204893 0.253613
Si Si6 0.157964 0.288202 0.992897
Si Si7 0.278510 0.500000 0.507279
Si Si8 0.517215 0.718536 0.809162
O O1 0.892084 0.727118 0.312169
O O2 0.805072 0.660391 0.486636
O O3 0.000000 0.757982 0.500000
O O4 0.868401 0.000000 0.452988
O O5 0.935383 0.266282 0.100172
O O6 0.074989 0.291426 0.276831
O O7 0.976257 0.000000 0.239654
O O8 0.359878 0.500000 0.944141
O O9 0.247691 0.221383 0.934470
O O10 0.416689 0.220228 0.846690
O O11 0.407796 0.227482 0.075856
O O12 0.724615 0.715291 0.693240
O O13 0.637870 0.658062 0.501056
O O14 0.548831 0.780696 0.689966
O O15 0.635678 0.000000 0.573909
O O16 0.177174 0.000000 0.298639
O O17 0.161889 0.197378 0.115787
O O18 0.171730 0.500000 0.019987
O O19 0.517560 0.500000 0.805311
#
# Coordination Sequence:
#
# PCOD9151939 Si02
#       8
#     4   4   4   4   4   4   2   4
#     4  10  22  42  62  84 109 142 192 248 297 342
#     4  10  22  39  56  75 109 151 190 231 281 336
#     4   8  16  29  52  78 113 153 189 226 271 325
#     4  11  22  35  55  88 119 149 191 234 280 343
#     4  10  21  36  52  74 114 158 191 225 270 322
#     4  11  21  33  52  83 115 151 193 229 266 327
#     4  12  23  36  60  83 111 146 184 235 304 346
#     4   9  15  32  54  78 111 155 189 224 277 330
#
# _framework density 24.947111
#
# number of rings (size 3 to 8) (size 9 to 14) (size 15 to 20)
#    0.000    2.000    2.000    3.000    1.867    4.267 
#    0.000    2.667    0.000    0.000    0.000    1.867 
#    0.000    3.200    0.000    0.000    0.000    0.000 
#
# Total GULP energy -167117.025081 kJ/mol
# GULP energy per Si atom -5570.567503 kJ/mol
# Density = 2.489033 g / cm^3
# Si number density = 24.947111 Si / 1000 Ang^3
#
#
#
# Elastic Constant Matrix: (Units=GPa)
#
#
# Indices 1 2 3 4 5 6 
#
# 1 90.5258 15.7064 32.2012 0.0000 -35.5007 0.0000
# 2 15.7064 152.1644 8.7892 0.0000 -22.4982 0.0000
# 3 32.2012 8.7892 72.9259 0.0000 -26.5025 0.0000
# 4 0.0000 0.0000 0.0000 1.7308 0.0000 -17.2233
# 5 -35.5007 -22.4982 -26.5025 0.0000 43.8191 0.0000
# 6 0.0000 0.0000 0.0000 -17.2233 0.0000 28.4249
#
#
#
# Elastic Compliance Matrix: (Units=1/GPa)
#
#
# Indices 1 2 3 4 5 6 
#
# 1 0.016744 0.000193 -0.003141 0.000000 0.011764 0.000000
# 2 0.000193 0.007135 0.000568 0.000000 0.004163 0.000000
# 3 -0.003141 0.000568 0.018216 0.000000 0.008764 0.000000
# 4 0.000000 0.000000 0.000000 -0.114874 0.000000 -0.069605
# 5 0.011764 0.004163 0.008764 0.000000 0.039790 0.000000
# 6 0.000000 0.000000 0.000000 -0.069605 0.000000 -0.006995
#
#
# Mechanical properties :
#
#
# Convention : Reuss Voigt Hill
#
# Bulk Modulus (GPa) = 26.78589 47.66773 37.22681
# Shear Modulus (GPa) = -219.51671 32.05624 -93.73024
#
# Velocity S-wave (km/s) = -9.39063 3.58853 -6.13622
# Velocity P-wave (km/s) = 10.33528 6.02653 5.93713
#
# Compressibility (1/GPa) = 0.03733309
#
# Stress axis : x y z
#
# Youngs Moduli (GPa) = 59.72236 140.16146 54.89621
#
# Poissons Ratio (x) = -0.02699 0.17245
# Poissons Ratio (y) = -0.01150 -0.03117
# Poissons Ratio (z) = 0.18761 -0.07959
#
# Static dielectric constant tensor:
#      x y z
#    x 1.998390 0.000000 -0.012690 
#    y 0.000000 1.985610 0.000000 
#    z -0.012690 0.000000 2.028570 
# 
# From -- ./inp_files/49272.got.cif
#   From: 2010.05.17/outbox.cif.g08.bks.cpg/sg10_25_cif.got.tgz:49272.got - 2010.06.03 11:33:40.
