data_PCOD9151281
_publ_section_title
;
Structure prediction by ZEFSAII (Michael W. Deem and Ramdas Pophale) SiO2 
 PCOD9151281
Probable space group: P 2/M
;
_chemical_formula_sum "Si O2"
_cell_formula_units_Z 24
_cell_length_a 13.142449
_cell_length_b 14.622738
_cell_length_c 8.693677
_cell_angle_alpha 90.000000
_cell_angle_beta 45.282416
_cell_angle_gamma 90.000000
_cell_volume 1187.199380
_symmetry_space_group_name_H-M "P 2/M"
_symmetry_group_IT_number 10
_symmetry_cell_setting 'monoclinic'
loop_
_space_group_symop_operation_xyz
x,y,z
-x,y,-z
-x,-y,-z
x,-y,z
loop_
_atom_site_type_symbol
_atom_site_label
_atom_site_fract_x
_atom_site_fract_y
_atom_site_fract_z
Si Si1 0.635936 0.603340 0.764547
Si Si2 0.855893 0.728872 0.360995
Si Si3 0.577177 0.601509 0.280322
Si Si4 0.812402 0.733239 0.042089
Si Si5 0.682421 0.107387 0.657851
Si Si6 0.641404 0.891680 0.067063
O O1 0.666788 0.500000 0.795715
O O2 0.772672 0.662901 0.570567
O O3 0.553086 0.590455 0.694454
O O4 0.500000 0.647336 0.000000
O O5 0.802528 0.829989 0.457962
O O6 0.026693 0.724159 0.189485
O O7 0.817076 0.714269 0.221387
O O8 0.500000 0.654593 0.500000
O O9 0.626318 0.500000 0.277098
O O10 0.710041 0.656942 0.076345
O O11 0.738931 0.828788 0.071542
O O12 0.527553 0.133112 0.750641
O O13 0.703035 0.000000 0.608354
O O14 0.680048 0.120663 0.845201
O O15 0.655020 0.000000 0.087622
#
# Coordination Sequence:
#
# PCOD9151281 Si02
#       6
#     4   4   4   4   4   4
#     4  10  22  40  62  87 115 152 198 244 289 340
#     4  11  24  38  57  87 124 160 190 235 294 347
#     4  10  20  38  62  85 112 152 200 241 281 340
#     4  11  24  38  56  89 125 156 192 236 291 349
#     4   9  20  39  62  87 114 151 197 242 291 346
#     4   9  20  39  63  88 114 150 198 245 289 343
#
# _framework density 20.215644999999999
#
# number of rings (size 3 to 8) (size 9 to 14) (size 15 to 20)
#    0.000    2.000    1.667    2.000    4.667    2.667 
#    0.000    6.667    0.000    3.000    0.000    0.000 
#    0.000    0.000    0.000    0.000    0.000    0.000 
#
# Total GULP energy -133717.576597 kJ/mol
# GULP energy per Si atom -5571.565692 kJ/mol
# Density = 2.016963 g / cm^3
# Si number density = 20.215645 Si / 1000 Ang^3
#
#
#
# Elastic Constant Matrix: (Units=GPa)
#
#
# Indices 1 2 3 4 5 6 
#
# 1 42.4490 20.3157 7.0526 0.0000 -25.3962 0.0000
# 2 20.3157 70.5084 40.7518 0.0000 -26.3708 0.0000
# 3 7.0526 40.7518 109.6541 0.0000 -34.0195 0.0000
# 4 0.0000 0.0000 0.0000 19.2361 0.0000 18.8917
# 5 -25.3962 -26.3708 -34.0195 0.0000 31.5197 0.0000
# 6 0.0000 0.0000 0.0000 18.8917 0.0000 -3.7527
#
#
#
# Elastic Compliance Matrix: (Units=1/GPa)
#
#
# Indices 1 2 3 4 5 6 
#
# 1 0.061843 -0.003332 0.017823 0.000000 0.066278 0.000000
# 2 -0.003332 0.021743 -0.004594 0.000000 0.010549 0.000000
# 3 0.017823 -0.004594 0.019459 0.000000 0.031520 0.000000
# 4 0.000000 0.000000 0.000000 0.008746 0.000000 0.044028
# 5 0.066278 0.010549 0.031520 0.000000 0.127973 0.000000
# 6 0.000000 0.000000 0.000000 0.044028 0.000000 -0.044831
#
#
# Mechanical properties :
#
#
# Convention : Reuss Voigt Hill
#
# Bulk Modulus (GPa) = 8.14061 39.87241 24.00651
# Shear Modulus (GPa) = 23.13900 19.70005 21.41953
#
# Velocity S-wave (km/s) = 3.38688 3.12508 3.25861
# Velocity P-wave (km/s) = 4.39661 5.72607 5.10480
#
# Compressibility (1/GPa) = 0.12284096
#
# Stress axis : x y z
#
# Youngs Moduli (GPa) = 16.16988 45.99187 51.38952
#
# Poissons Ratio (x) = 0.15323 -0.91591
# Poissons Ratio (y) = 0.05387 0.23606
# Poissons Ratio (z) = -0.28819 0.21127
#
# Static dielectric constant tensor:
#      x y z
#    x 1.745110 0.000000 0.067580 
#    y 0.000000 1.776370 0.000000 
#    z 0.067580 0.000000 1.771240 
# 
# From -- ./inp_files/29238.got.cif
#   From: 2010.05.17/outbox.cif.g08.bks.cpg/sg10_15_cif.got.tgz:29238.got - 2010.06.03 11:33:40.
