data_PCOD9151218
_publ_section_title
;
Structure prediction by ZEFSAII (Michael W. Deem and Ramdas Pophale) SiO2 
 PCOD9151218
Probable space group: P 2/M
;
_chemical_formula_sum "Si O2"
_cell_formula_units_Z 28
_cell_length_a 10.192753
_cell_length_b 7.620718
_cell_length_c 26.941708
_cell_angle_alpha 90.000000
_cell_angle_beta 141.466062
_cell_angle_gamma 90.000000
_cell_volume 1303.722884
_symmetry_space_group_name_H-M "P 2/M"
_symmetry_group_IT_number 10
_symmetry_cell_setting 'monoclinic'
loop_
_space_group_symop_operation_xyz
x,y,z
-x,y,-z
-x,-y,-z
x,-y,z
loop_
_atom_site_type_symbol
_atom_site_label
_atom_site_fract_x
_atom_site_fract_y
_atom_site_fract_z
Si Si1 0.456357 0.207649 0.432460
Si Si2 0.358852 0.287353 0.803138
Si Si3 0.950972 0.205614 0.744841
Si Si4 0.502514 0.712418 0.738061
Si Si5 0.760354 0.712379 0.435408
Si Si6 0.014935 0.204490 0.134513
Si Si7 0.194587 0.296733 0.026492
O O1 0.500000 0.281842 0.500000
O O2 0.253088 0.282236 0.343344
O O3 0.655061 0.230074 0.455412
O O4 0.414479 0.000000 0.426607
O O5 0.347557 0.500000 0.802249
O O6 0.379706 0.236625 0.751616
O O7 0.575104 0.224660 0.893218
O O8 0.153323 0.219881 0.769951
O O9 0.995460 0.280067 0.812832
O O10 0.903520 0.000000 0.739966
O O11 0.512418 0.500000 0.740278
O O12 0.384171 0.772095 0.653383
O O13 0.741777 0.777643 0.809885
O O14 0.760757 0.500000 0.434794
O O15 0.000000 0.772098 0.500000
O O16 0.955745 0.000000 0.117864
O O17 0.868888 0.289707 0.049652
O O18 0.207800 0.500000 0.046820
O O19 0.000000 0.216380 0.000000
#
# Coordination Sequence:
#
# PCOD9151218 Si02
#       7
#     4   4   4   4   4   4   4
#     4  10  22  41  61  83 117 159 196 233 285 345
#     4  10  22  38  60  87 113 151 196 237 286 346
#     4  10  23  41  57  82 120 154 191 239 286 339
#     4  10  20  38  60  84 117 154 192 236 287 341
#     4  10  22  38  60  91 121 149 189 243 291 337
#     4  11  22  37  60  86 115 153 194 236 286 342
#     4  10  20  38  60  84 117 150 190 241 289 340
#
# _framework density 21.476956999999999
#
# number of rings (size 3 to 8) (size 9 to 14) (size 15 to 20)
#    0.000    1.857    2.857    0.429    2.000    4.286 
#    0.000    2.857    0.000    0.000    0.000    0.000 
#    0.000    0.000    0.000    0.000    0.000    0.000 
#
# Total GULP energy -156453.176859 kJ/mol
# GULP energy per Si atom -5587.613459 kJ/mol
# Density = 2.142807 g / cm^3
# Si number density = 21.476957 Si / 1000 Ang^3
#
#
#
# Elastic Constant Matrix: (Units=GPa)
#
#
# Indices 1 2 3 4 5 6 
#
# 1 136.3901 -20.0811 48.1196 0.0000 -15.6095 0.0000
# 2 -20.0811 39.7282 -6.5018 0.0000 -3.9706 0.0000
# 3 48.1196 -6.5018 104.6301 0.0000 -14.7945 0.0000
# 4 0.0000 0.0000 0.0000 2.7072 0.0000 8.1517
# 5 -15.6095 -3.9706 -14.7945 0.0000 41.1041 0.0000
# 6 0.0000 0.0000 0.0000 8.1517 0.0000 22.0599
#
#
#
# Elastic Compliance Matrix: (Units=1/GPa)
#
#
# Indices 1 2 3 4 5 6 
#
# 1 0.009641 0.004531 -0.003764 0.000000 0.002744 0.000000
# 2 0.004531 0.027962 0.000294 0.000000 0.004528 0.000000
# 3 -0.003764 0.000294 0.011705 0.000000 0.002812 0.000000
# 4 0.000000 0.000000 0.000000 -3.277720 0.000000 1.211200
# 5 0.002744 0.004528 0.002812 0.000000 0.026820 0.000000
# 6 0.000000 0.000000 0.000000 1.211200 0.000000 -0.402238
#
#
# Mechanical properties :
#
#
# Convention : Reuss Voigt Hill
#
# Bulk Modulus (GPa) = 19.44407 35.98020 27.71213
# Shear Modulus (GPa) = -1.39322 30.45502 14.53090
#
# Velocity S-wave (km/s) = -0.80630 3.76976 2.60394
# Velocity P-wave (km/s) = 2.86466 5.97808 4.68742
#
# Compressibility (1/GPa) = 0.05142956
#
# Stress axis : x y z
#
# Youngs Moduli (GPa) = 103.72071 35.76268 85.43681
#
# Poissons Ratio (x) = -0.16206 0.32162
# Poissons Ratio (y) = -0.47001 -0.02510
# Poissons Ratio (z) = 0.39045 -0.01051
#
# Static dielectric constant tensor:
#      x y z
#    x 1.737350 0.000000 -0.025500 
#    y 0.000000 1.832900 0.000000 
#    z -0.025500 0.000000 1.768450 
# 
# From -- ./inp_files/37004.got.cif
#   From: 2010.05.17/outbox.cif.g08.bks.cpg/sg10_19_cif.got.tgz:37004.got - 2010.06.03 11:33:40.
