data_PCOD9151515
_publ_section_title
;
Structure prediction by ZEFSAII (Michael W. Deem and Ramdas Pophale) SiO2 
 PCOD9151515
Probable space group: P 2/M
;
_chemical_formula_sum "Si O2"
_cell_formula_units_Z 22
_cell_length_a 11.522207
_cell_length_b 12.533984
_cell_length_c 7.826481
_cell_angle_alpha 90.000000
_cell_angle_beta 114.907843
_cell_angle_gamma 90.000000
_cell_volume 1025.161071
_symmetry_space_group_name_H-M "P 2/M"
_symmetry_group_IT_number 10
_symmetry_cell_setting 'monoclinic'
loop_
_space_group_symop_operation_xyz
x,y,z
-x,y,-z
-x,-y,-z
x,-y,z
loop_
_atom_site_type_symbol
_atom_site_label
_atom_site_fract_x
_atom_site_fract_y
_atom_site_fract_z
Si Si1 0.731077 0.614486 0.239026
Si Si2 0.450319 0.000000 0.274063
Si Si3 0.313026 0.623814 0.195520
Si Si4 0.900288 0.769165 0.780945
Si Si5 0.153222 0.000000 0.161990
Si Si6 0.000000 0.319805 0.500000
Si Si7 0.467224 0.767277 0.781519
O O1 0.665287 0.500000 0.235706
O O2 0.670851 0.712591 0.306939
O O3 0.876321 0.612094 0.384010
O O4 0.726908 0.627985 0.030927
O O5 0.500000 0.000000 0.500000
O O6 0.509679 0.108678 0.235629
O O7 0.293696 0.000000 0.150606
O O8 0.333593 0.500000 0.252840
O O9 0.203892 0.679097 0.240124
O O10 0.437983 0.698069 0.276278
O O11 0.839325 0.886968 0.739103
O O12 0.972862 0.749067 0.650910
O O13 0.000000 0.766244 0.000000
O O14 0.000000 0.000000 0.000000
O O15 0.500000 0.746143 0.000000
#
# Coordination Sequence:
#
# PCOD9151515 Si02
#       7
#     4   2   4   4   2   2   4
#     4  10  22  40  63  98 136 172 218 274 330 401
#     4  12  25  41  65  98 134 171 221 282 340 396
#     4  10  20  39  67  93 128 172 219 271 330 393
#     4  11  23  44  65  97 131 175 225 273 333 396
#     4  10  24  44  73  91 131 183 227 279 334 409
#     4  12  25  39  68  96 138 175 221 274 338 406
#     4  10  22  41  67  96 128 172 223 268 334 397
#
# _framework density 21.460044
#
# number of rings (size 3 to 8) (size 9 to 14) (size 15 to 20)
#    0.000    1.455    3.636    1.091    2.545    4.364 
#    0.000    0.909    0.000    3.273    0.000    0.000 
#    0.000    0.000    0.000    0.000    0.000    0.000 
#
# Total GULP energy -122713.640754 kJ/mol
# GULP energy per Si atom -5577.892762 kJ/mol
# Density = 2.141120 g / cm^3
# Si number density = 21.460044 Si / 1000 Ang^3
#
#
#
# Elastic Constant Matrix: (Units=GPa)
#
#
# Indices 1 2 3 4 5 6 
#
# 1 127.6977 80.0671 25.7463 0.0000 -6.8210 0.0000
# 2 80.0671 190.8038 12.1494 0.0000 -14.5450 0.0000
# 3 25.7463 12.1494 73.9434 0.0000 -9.9486 0.0000
# 4 0.0000 0.0000 0.0000 -35.0597 0.0000 -5.8923
# 5 -6.8210 -14.5450 -9.9486 0.0000 35.8198 0.0000
# 6 0.0000 0.0000 0.0000 -5.8923 0.0000 35.4444
#
#
#
# Elastic Compliance Matrix: (Units=1/GPa)
#
#
# Indices 1 2 3 4 5 6 
#
# 1 0.011341 -0.004598 -0.003277 0.000000 -0.000617 0.000000
# 2 -0.004598 0.007299 0.000709 0.000000 0.002285 0.000000
# 3 -0.003277 0.000709 0.015066 0.000000 0.003848 0.000000
# 4 0.000000 0.000000 0.000000 -0.027748 0.000000 -0.004613
# 5 -0.000617 0.002285 0.003848 0.000000 0.029797 0.000000
# 6 0.000000 0.000000 0.000000 -0.004613 0.000000 0.027446
#
#
# Mechanical properties :
#
#
# Convention : Reuss Voigt Hill
#
# Bulk Modulus (GPa) = 51.60934 69.81896 60.71415
# Shear Modulus (GPa) = 59.52980 25.53970 42.53475
#
# Velocity S-wave (km/s) = 5.27258 3.45353 4.45684
# Velocity P-wave (km/s) = 7.82100 6.96474 7.40525
#
# Compressibility (1/GPa) = 0.01937634
#
# Stress axis : x y z
#
# Youngs Moduli (GPa) = 88.17290 136.99854 66.37463
#
# Poissons Ratio (x) = 0.62986 0.21748
# Poissons Ratio (y) = 0.40538 -0.04706
# Poissons Ratio (z) = 0.28890 -0.09713
#
# Static dielectric constant tensor:
#      x y z
#    x 1.801960 0.000000 0.037920 
#    y 0.000000 1.801310 0.000000 
#    z 0.037920 0.000000 1.814860 
# 
# From -- ./inp_files/24192.got.cif
#   From: 2010.05.17/outbox.cif.g08.bks.cpg/sg10_13_cif.got.tgz:24192.got - 2010.06.03 11:33:40.
