data_PCOD9151539
_publ_section_title
;
Structure prediction by ZEFSAII (Michael W. Deem and Ramdas Pophale) SiO2 
 PCOD9151539
Probable space group: P 2/M
;
_chemical_formula_sum "Si O2"
_cell_formula_units_Z 24
_cell_length_a 12.542874
_cell_length_b 9.796377
_cell_length_c 9.301278
_cell_angle_alpha 90.000000
_cell_angle_beta 79.678435
_cell_angle_gamma 90.000000
_cell_volume 1124.397298
_symmetry_space_group_name_H-M "P 2/M"
_symmetry_group_IT_number 10
_symmetry_cell_setting 'monoclinic'
loop_
_space_group_symop_operation_xyz
x,y,z
-x,y,-z
-x,-y,-z
x,-y,z
loop_
_atom_site_type_symbol
_atom_site_label
_atom_site_fract_x
_atom_site_fract_y
_atom_site_fract_z
Si Si1 0.447327 0.846182 0.244225
Si Si2 0.897929 0.658750 0.633529
Si Si3 0.786674 0.338677 0.207886
Si Si4 0.669659 0.656994 0.523541
Si Si5 0.325499 0.844273 0.980128
Si Si6 0.007021 0.840868 0.825317
O O1 0.420202 0.746843 0.379176
O O2 0.564655 0.839707 0.141825
O O3 0.430863 0.000000 0.299532
O O4 0.363536 0.820769 0.133254
O O5 0.901314 0.500000 0.682905
O O6 0.785446 0.678621 0.576021
O O7 0.000000 0.676006 0.500000
O O8 0.912594 0.765982 0.759186
O O9 0.811213 0.500000 0.192356
O O10 0.694091 0.319674 0.350363
O O11 0.749444 0.271540 0.068082
O O12 0.888261 0.250399 0.235218
O O13 0.639934 0.500000 0.550090
O O14 0.280208 0.000000 0.978468
O O15 0.016204 0.000000 0.781908
O O16 0.000000 0.835199 0.000000
#
# Coordination Sequence:
#
# PCOD9151539 Si02
#       6
#     4   4   4   4   4   4
#     4   9  20  39  62  85 115 153 190 234 290 343
#     4  10  20  40  62  82 116 156 192 234 281 338
#     4  11  23  40  60  85 117 154 191 235 289 341
#     4  10  22  38  58  86 118 151 192 238 284 337
#     4   9  20  40  61  85 117 151 190 238 286 339
#     4  11  25  41  58  86 119 151 192 240 285 338
#
# _framework density 21.344768999999999
#
# number of rings (size 3 to 8) (size 9 to 14) (size 15 to 20)
#    0.000    2.000    1.667    2.000    2.333    5.667 
#    0.000    5.000    0.000    0.000    0.000    0.000 
#    0.000    0.000    0.000    0.000    0.000    0.000 
#
# Total GULP energy -134137.897667 kJ/mol
# GULP energy per Si atom -5589.079069 kJ/mol
# Density = 2.129619 g / cm^3
# Si number density = 21.344769 Si / 1000 Ang^3
#
#
#
# Elastic Constant Matrix: (Units=GPa)
#
#
# Indices 1 2 3 4 5 6 
#
# 1 33.0046 27.2230 8.4666 0.0000 4.5296 0.0000
# 2 27.2230 111.5399 71.6869 0.0000 7.6440 0.0000
# 3 8.4666 71.6869 65.8351 0.0000 -1.6696 0.0000
# 4 0.0000 0.0000 0.0000 -32.1662 0.0000 -62.1239
# 5 4.5296 7.6440 -1.6696 0.0000 33.4724 0.0000
# 6 0.0000 0.0000 0.0000 -62.1239 0.0000 -138.6614
#
#
#
# Elastic Compliance Matrix: (Units=1/GPa)
#
#
# Indices 1 2 3 4 5 6 
#
# 1 0.044983 -0.024331 0.020721 0.000000 0.000503 0.000000
# 2 -0.024331 0.045625 -0.046791 0.000000 -0.009461 0.000000
# 3 0.020721 -0.046791 0.063755 0.000000 0.011062 0.000000
# 4 0.000000 0.000000 0.000000 -0.230784 0.000000 0.103397
# 5 0.000503 -0.009461 0.011062 0.000000 0.032520 0.000000
# 6 0.000000 0.000000 0.000000 0.103397 0.000000 -0.053537
#
#
# Mechanical properties :
#
#
# Convention : Reuss Voigt Hill
#
# Bulk Modulus (GPa) = 18.67011 47.23696 32.95353
# Shear Modulus (GPa) = 235.66691 -20.60418 107.53137
#
# Velocity S-wave (km/s) = 10.51900 -3.11030 7.10547
# Velocity P-wave (km/s) = 12.50194 3.04628 9.09885
#
# Compressibility (1/GPa) = 0.05356155
#
# Stress axis : x y z
#
# Youngs Moduli (GPa) = 22.23078 21.91795 15.68497
#
# Poissons Ratio (x) = 0.53328 -0.32501
# Poissons Ratio (y) = 0.54089 0.73392
# Poissons Ratio (z) = -0.46065 1.02556
#
# Static dielectric constant tensor:
#      x y z
#    x 1.828590 0.000000 0.000840 
#    y 0.000000 1.723320 0.000000 
#    z 0.000840 0.000000 1.757990 
# 
# From -- ./inp_files/27066.got.cif
#   From: 2010.05.17/outbox.cif.g08.bks.cpg/sg10_14_cif.got.tgz:27066.got - 2010.06.03 11:33:40.
