data_PCOD9151410
_publ_section_title
;
Structure prediction by ZEFSAII (Michael W. Deem and Ramdas Pophale) SiO2 
 PCOD9151410
Probable space group: P 2/M
;
_chemical_formula_sum "Si O2"
_cell_formula_units_Z 20
_cell_length_a 16.337384
_cell_length_b 11.531504
_cell_length_c 7.845020
_cell_angle_alpha 90.000000
_cell_angle_beta 146.413591
_cell_angle_gamma 90.000000
_cell_volume 817.598252
_symmetry_space_group_name_H-M "P 2/M"
_symmetry_group_IT_number 10
_symmetry_cell_setting 'monoclinic'
loop_
_space_group_symop_operation_xyz
x,y,z
-x,y,-z
-x,-y,-z
x,-y,z
loop_
_atom_site_type_symbol
_atom_site_label
_atom_site_fract_x
_atom_site_fract_y
_atom_site_fract_z
Si Si1 0.076765 0.287852 0.812215
Si Si2 0.841016 0.871898 0.572914
Si Si3 0.595314 0.500000 0.899596
Si Si4 0.730758 0.500000 0.757623
Si Si5 0.682165 0.133875 0.667364
Si Si6 0.414542 0.753977 0.029633
O O1 0.000000 0.322570 0.500000
O O2 0.956227 0.226506 0.722077
O O3 0.162105 0.389848 0.058579
O O4 0.207706 0.194390 0.008993
O O5 0.771419 0.863446 0.640852
O O6 0.907389 0.000000 0.667354
O O7 0.705933 0.852385 0.209606
O O8 0.651611 0.500000 0.803981
O O9 0.415360 0.500000 0.614185
O O10 0.649271 0.624722 0.058143
O O11 0.534713 0.208532 0.377890
O O12 0.650416 0.000000 0.649699
O O13 0.500000 0.748300 0.000000
#
# Coordination Sequence:
#
# PCOD9151410 Si02
#       6
#     4   4   2   2   4   4
#     4  12  24  41  61  89 123 163 208 251 304 360
#     4  10  22  40  64  94 129 162 196 246 309 367
#     4  11  21  42  65  89 119 158 206 256 307 358
#     4  11  25  42  64  82 120 168 206 248 310 366
#     4  10  21  40  64  91 125 165 203 247 303 363
#     4  10  20  38  67  95 122 156 205 253 300 360
#
# _framework density 24.461894000000001
#
# number of rings (size 3 to 8) (size 9 to 14) (size 15 to 20)
#    0.000    1.400    2.000    3.600    0.000    6.400 
#    0.000    3.000    0.000    3.600    0.000    0.000 
#    0.000    0.000    0.000    0.000    0.000    0.000 
#
# Total GULP energy -111921.814852 kJ/mol
# GULP energy per Si atom -5596.090743 kJ/mol
# Density = 2.440622 g / cm^3
# Si number density = 24.461894 Si / 1000 Ang^3
#
#
#
# Elastic Constant Matrix: (Units=GPa)
#
#
# Indices 1 2 3 4 5 6 
#
# 1 63.5888 12.9457 -1.0584 0.0000 3.4467 0.0000
# 2 12.9457 138.4563 10.5040 0.0000 13.1564 0.0000
# 3 -1.0584 10.5040 89.9137 0.0000 6.3037 0.0000
# 4 0.0000 0.0000 0.0000 -18.3859 0.0000 -43.4191
# 5 3.4467 13.1564 6.3037 0.0000 29.5508 0.0000
# 6 0.0000 0.0000 0.0000 -43.4191 0.0000 -34.5820
#
#
#
# Elastic Compliance Matrix: (Units=1/GPa)
#
#
# Indices 1 2 3 4 5 6 
#
# 1 0.016094 -0.001411 0.000449 0.000000 -0.001345 0.000000
# 2 -0.001411 0.007703 -0.000698 0.000000 -0.003116 0.000000
# 3 0.000449 -0.000698 0.011360 0.000000 -0.002165 0.000000
# 4 0.000000 0.000000 0.000000 0.027679 0.000000 -0.034752
# 5 -0.001345 -0.003116 -0.002165 0.000000 0.035846 0.000000
# 6 0.000000 0.000000 0.000000 -0.034752 0.000000 0.014716
#
#
# Mechanical properties :
#
#
# Convention : Reuss Voigt Hill
#
# Bulk Modulus (GPa) = 31.41060 37.41572 34.41316
# Shear Modulus (GPa) = 39.26758 13.28777 26.27767
#
# Velocity S-wave (km/s) = 4.01091 2.33320 3.28110
# Velocity P-wave (km/s) = 5.85819 4.75259 5.33411
#
# Compressibility (1/GPa) = 0.03183639
#
# Stress axis : x y z
#
# Youngs Moduli (GPa) = 62.13635 129.81116 88.02525
#
# Poissons Ratio (x) = 0.18317 -0.03948
# Poissons Ratio (y) = 0.08768 0.06145
# Poissons Ratio (z) = -0.02787 0.09062
#
# Static dielectric constant tensor:
#      x y z
#    x 1.941330 0.000000 0.009200 
#    y 0.000000 1.908610 0.000000 
#    z 0.009200 0.000000 1.973870 
# 
# From -- ./inp_files/32482.got.cif
#   From: 2010.05.17/outbox.cif.g08.bks.cpg/sg10_17_cif.got.tgz:32482.got - 2010.06.03 11:33:40.
