data_PCOD9151464
_publ_section_title
;
Structure prediction by ZEFSAII (Michael W. Deem and Ramdas Pophale) SiO2 
 PCOD9151464
Probable space group: P 2/M
;
_chemical_formula_sum "Si O2"
_cell_formula_units_Z 18
_cell_length_a 15.746773
_cell_length_b 8.049250
_cell_length_c 22.780195
_cell_angle_alpha 90.000000
_cell_angle_beta 163.296829
_cell_angle_gamma 90.000000
_cell_volume 829.872988
_symmetry_space_group_name_H-M "P 2/M"
_symmetry_group_IT_number 10
_symmetry_cell_setting 'monoclinic'
loop_
_space_group_symop_operation_xyz
x,y,z
-x,y,-z
-x,-y,-z
x,-y,z
loop_
_atom_site_type_symbol
_atom_site_label
_atom_site_fract_x
_atom_site_fract_y
_atom_site_fract_z
Si Si1 0.793334 0.189259 0.622453
Si Si2 0.823980 0.813576 0.242869
Si Si3 0.899955 0.500000 0.114475
Si Si4 0.352129 0.818123 0.240186
Si Si5 0.733523 0.500000 0.870986
Si Si6 0.208200 0.500000 0.694958
O O1 0.457235 0.212346 0.376755
O O2 0.963087 0.199378 0.672440
O O3 0.924217 0.336221 0.747738
O O4 0.827515 0.000000 0.668366
O O5 0.856314 0.664977 0.309877
O O6 0.850362 0.000000 0.286107
O O7 0.500000 0.799591 0.000000
O O8 0.866311 0.500000 0.022683
O O9 0.561555 0.500000 0.914523
O O10 0.446993 0.666050 0.262287
O O11 0.465858 0.000000 0.298195
O O12 0.000000 0.827251 0.000000
O O13 0.000000 0.500000 0.000000
O O14 0.000000 0.500000 0.500000
#
# Coordination Sequence:
#
# PCOD9151464 Si02
#       6
#     4   4   2   4   2   2
#     4  10  21  38  64  93 120 161 205 247 301 358
#     4  10  20  39  62  86 125 164 200 246 298 361
#     4  12  24  39  61  89 124 160 203 257 298 359
#     4   9  19  39  64  88 116 153 199 249 303 361
#     4  10  23  41  60  85 119 159 199 248 310 364
#     4  12  26  37  56  93 129 163 202 249 301 353
#
# _framework density 21.690066000000002
#
# number of rings (size 3 to 8) (size 9 to 14) (size 15 to 20)
#    0.000    1.778    2.222    1.667    3.111    1.333 
#    0.000    8.889    0.000   12.000    0.000    0.000 
#    0.000    0.000    0.000    0.000    0.000    0.000 
#
# Total GULP energy -100501.404336 kJ/mol
# GULP energy per Si atom -5583.411352 kJ/mol
# Density = 2.164070 g / cm^3
# Si number density = 21.690066 Si / 1000 Ang^3
#
#
#
# Elastic Constant Matrix: (Units=GPa)
#
#
# Indices 1 2 3 4 5 6 
#
# 1 76.4335 71.4517 21.3788 0.0000 -14.2377 0.0000
# 2 71.4517 260.4486 69.7136 0.0000 -59.5140 0.0000
# 3 21.3788 69.7136 115.7360 0.0000 -11.0122 0.0000
# 4 0.0000 0.0000 0.0000 23.3170 0.0000 -3.7068
# 5 -14.2377 -59.5140 -11.0122 0.0000 39.8986 0.0000
# 6 0.0000 0.0000 0.0000 -3.7068 0.0000 -3.3897
#
#
#
# Elastic Compliance Matrix: (Units=1/GPa)
#
#
# Indices 1 2 3 4 5 6 
#
# 1 0.017659 -0.005059 -0.000342 0.000000 -0.001339 0.000000
# 2 -0.005059 0.008276 -0.003130 0.000000 0.009676 0.000000
# 3 -0.000342 -0.003130 0.010406 0.000000 -0.001919 0.000000
# 4 0.000000 0.000000 0.000000 0.036535 0.000000 -0.039953
# 5 -0.001339 0.009676 -0.001919 0.000000 0.038489 0.000000
# 6 0.000000 0.000000 0.000000 -0.039953 0.000000 -0.251317
#
#
# Mechanical properties :
#
#
# Convention : Reuss Voigt Hill
#
# Bulk Modulus (GPa) = 51.86943 86.41182 69.14063
# Shear Modulus (GPa) = -42.93221 31.30345 -5.81438
#
# Velocity S-wave (km/s) = -4.45381 3.80309 -1.63905
# Velocity P-wave (km/s) = 1.57569 7.69484 5.32577
#
# Compressibility (1/GPa) = 0.01927918
#
# Stress axis : x y z
#
# Youngs Moduli (GPa) = 56.62930 120.82841 96.09511
#
# Poissons Ratio (x) = 0.61126 0.03287
# Poissons Ratio (y) = 0.28648 0.30078
# Poissons Ratio (z) = 0.01937 0.37820
#
# Static dielectric constant tensor:
#      x y z
#    x 2.239570 0.000000 0.460580 
#    y 0.000000 1.897950 0.000000 
#    z 0.460580 0.000000 2.242390 
# 
# From -- ./inp_files/84561.got.cif
#   From: 2010.05.17/outbox.cif.g08.bks.cpg/sg10_43_cif.got.tgz:84561.got - 2010.06.03 11:33:40.
