data_PCOD9151572
_publ_section_title
;
Structure prediction by ZEFSAII (Michael W. Deem and Ramdas Pophale) SiO2 
 PCOD9151572
Probable space group: P 2/M
;
_chemical_formula_sum "Si O2"
_cell_formula_units_Z 24
_cell_length_a 13.842559
_cell_length_b 8.909823
_cell_length_c 12.149474
_cell_angle_alpha 90.000000
_cell_angle_beta 43.372545
_cell_angle_gamma 90.000000
_cell_volume 1029.046072
_symmetry_space_group_name_H-M "P 2/M"
_symmetry_group_IT_number 10
_symmetry_cell_setting 'monoclinic'
loop_
_space_group_symop_operation_xyz
x,y,z
-x,y,-z
-x,-y,-z
x,-y,z
loop_
_atom_site_type_symbol
_atom_site_label
_atom_site_fract_x
_atom_site_fract_y
_atom_site_fract_z
Si Si1 0.844105 0.833145 0.082513
Si Si2 0.168706 0.000000 0.337041
Si Si3 0.195648 0.830720 0.515721
Si Si4 0.347849 0.678108 0.578690
Si Si5 0.597683 0.667008 0.026283
Si Si6 0.092378 0.669334 0.193627
Si Si7 0.398343 0.000000 0.976535
O O1 0.757604 0.755912 0.249825
O O2 0.790216 0.000000 0.099570
O O3 0.855499 0.730997 0.966240
O O4 0.000000 0.847191 0.000000
O O5 0.224870 0.859669 0.363147
O O6 0.238390 0.000000 0.160002
O O7 0.000000 0.000000 0.500000
O O8 0.306803 0.735288 0.491502
O O9 0.038821 0.765338 0.656683
O O10 0.194462 0.000000 0.565340
O O11 0.500000 0.717224 0.500000
O O12 0.331834 0.500000 0.594945
O O13 0.576634 0.500000 0.100332
O O14 0.763464 0.667101 0.857291
O O15 0.576751 0.834580 0.097685
O O16 0.500000 0.665026 0.000000
O O17 0.039789 0.500000 0.225931
O O18 0.500000 0.000000 0.000000
#
# Coordination Sequence:
#
# PCOD9151572 Si02
#       7
#     4   2   4   4   4   4   2
#     4  11  23  38  64  96 127 165 218 266 317 383
#     4  10  22  40  65  93 125 163 200 265 320 382
#     4  10  22  38  64  89 125 163 215 257 324 389
#     4  11  24  44  64  90 132 177 216 270 333 391
#     4   9  20  38  59  89 129 165 207 267 326 382
#     4  11  21  36  63  95 127 168 214 270 322 378
#     4  10  20  40  66  88 120 164 208 255 325 381
#
# _framework density 23.322569000000001
#
# number of rings (size 3 to 8) (size 9 to 14) (size 15 to 20)
#    0.500    1.167    1.667    3.000    2.333    2.000 
#    6.000    1.667    0.000    4.500    0.000    0.000 
#    0.000    0.000    0.000    0.000    0.000    0.000 
#
# Total GULP energy -133993.156267 kJ/mol
# GULP energy per Si atom -5583.048178 kJ/mol
# Density = 2.326949 g / cm^3
# Si number density = 23.322569 Si / 1000 Ang^3
#
#
#
# Elastic Constant Matrix: (Units=GPa)
#
#
# Indices 1 2 3 4 5 6 
#
# 1 121.8910 -4.3287 21.8780 0.0000 -23.2080 0.0000
# 2 -4.3287 196.2403 37.6194 0.0000 0.2276 0.0000
# 3 21.8780 37.6194 69.2693 0.0000 -3.6235 0.0000
# 4 0.0000 0.0000 0.0000 -22.1730 0.0000 -13.5176
# 5 -23.2080 0.2276 -3.6235 0.0000 41.4066 0.0000
# 6 0.0000 0.0000 0.0000 -13.5176 0.0000 41.1345
#
#
#
# Elastic Compliance Matrix: (Units=1/GPa)
#
#
# Indices 1 2 3 4 5 6 
#
# 1 0.009815 0.000840 -0.003284 0.000000 0.005209 0.000000
# 2 0.000840 0.005764 -0.003388 0.000000 0.000143 0.000000
# 3 -0.003284 -0.003388 0.017297 0.000000 -0.000308 0.000000
# 4 0.000000 0.000000 0.000000 -0.037573 0.000000 -0.012347
# 5 0.005209 0.000143 -0.000308 0.000000 0.027043 0.000000
# 6 0.000000 0.000000 0.000000 -0.012347 0.000000 0.020253
#
#
# Mechanical properties :
#
#
# Convention : Reuss Voigt Hill
#
# Bulk Modulus (GPa) = 47.14158 55.30423 51.22291
# Shear Modulus (GPa) = 81.52138 34.22241 57.87190
#
# Velocity S-wave (km/s) = 5.91859 3.83476 4.98674
# Velocity P-wave (km/s) = 8.18310 6.58570 7.42746
#
# Compressibility (1/GPa) = 0.02121269
#
# Stress axis : x y z
#
# Youngs Moduli (GPa) = 101.88377 173.50166 57.81228
#
# Poissons Ratio (x) = -0.14573 0.18984
# Poissons Ratio (y) = -0.08558 0.19587
# Poissons Ratio (z) = 0.33455 0.58782
#
# Static dielectric constant tensor:
#      x y z
#    x 1.906430 0.000000 -0.030230 
#    y 0.000000 1.934540 0.000000 
#    z -0.030230 0.000000 1.841550 
# 
# From -- ./inp_files/66364.got.cif
#   From: 2010.05.17/outbox.cif.g08.bks.cpg/sg10_34_cif.got.tgz:66364.got - 2010.06.03 11:33:40.
