data_PCOD9151132
_publ_section_title
;
Structure prediction by ZEFSAII (Michael W. Deem and Ramdas Pophale) SiO2 
 PCOD9151132
Probable space group: P 2/M
;
_chemical_formula_sum "Si O2"
_cell_formula_units_Z 28
_cell_length_a 8.129041
_cell_length_b 15.674864
_cell_length_c 11.460901
_cell_angle_alpha 90.000000
_cell_angle_beta 67.125763
_cell_angle_gamma 90.000000
_cell_volume 1345.523673
_symmetry_space_group_name_H-M "P 2/M"
_symmetry_group_IT_number 10
_symmetry_cell_setting 'monoclinic'
loop_
_space_group_symop_operation_xyz
x,y,z
-x,y,-z
-x,-y,-z
x,-y,z
loop_
_atom_site_type_symbol
_atom_site_label
_atom_site_fract_x
_atom_site_fract_y
_atom_site_fract_z
Si Si1 0.873315 0.224756 0.635253
Si Si2 0.866088 0.162543 0.895446
Si Si3 0.831112 0.408746 0.714228
Si Si4 0.297714 0.342081 0.012243
Si Si5 0.575651 0.593972 0.268380
Si Si6 0.260823 0.902725 0.849615
Si Si7 0.484315 0.772559 0.635195
O O1 0.853695 0.171771 0.759763
O O2 0.931857 0.321882 0.652126
O O3 0.680162 0.234164 0.633385
O O4 0.000000 0.188655 0.500000
O O5 0.822951 0.257505 0.956081
O O6 0.060777 0.125123 0.868240
O O7 0.732496 0.107120 0.011696
O O8 0.918974 0.500000 0.665229
O O9 0.784863 0.400533 0.864160
O O10 0.635456 0.408687 0.706828
O O11 0.500000 0.318405 0.000000
O O12 0.321583 0.386420 0.881235
O O13 0.624615 0.500000 0.300658
O O14 0.602455 0.677775 0.339459
O O15 0.382093 0.835895 0.748727
O O16 0.295944 0.000000 0.806856
O O17 0.500000 0.805110 0.500000
#
# Coordination Sequence:
#
# PCOD9151132 Si02
#       7
#     4   4   4   4   4   4   4
#     4  10  21  37  60  89 119 160 202 244 299 353
#     4  10  20  37  64  88 121 150 193 247 296 357
#     4   8  15  26  47  81 118 156 199 245 288 340
#     4   9  15  27  53  86 120 156 196 240 296 350
#     4   9  16  29  51  83 121 159 200 240 286 346
#     4  11  24  43  66  91 118 154 196 244 308 367
#     4  11  23  40  63  88 122 164 203 245 299 354
#
# _framework density 20.809740999999999
#
# number of rings (size 3 to 8) (size 9 to 14) (size 15 to 20)
#    0.000    2.286    1.429    3.000    0.000    2.571 
#    0.000    2.143    0.000   11.571    0.000    0.000 
#    0.000    0.000    0.000    0.000    0.000    0.000 
#
# Total GULP energy -156153.376459 kJ/mol
# GULP energy per Si atom -5576.906302 kJ/mol
# Density = 2.076238 g / cm^3
# Si number density = 20.809741 Si / 1000 Ang^3
#
#
#
# Elastic Constant Matrix: (Units=GPa)
#
#
# Indices 1 2 3 4 5 6 
#
# 1 18.9151 14.4215 20.1311 0.0000 4.4092 0.0000
# 2 14.4215 106.8358 27.7411 0.0000 -8.8432 0.0000
# 3 20.1311 27.7411 131.3012 0.0000 3.8038 0.0000
# 4 0.0000 0.0000 0.0000 -1.1557 0.0000 -2.0372
# 5 4.4092 -8.8432 3.8038 0.0000 20.3288 0.0000
# 6 0.0000 0.0000 0.0000 -2.0372 0.0000 14.4840
#
#
#
# Elastic Compliance Matrix: (Units=1/GPa)
#
#
# Indices 1 2 3 4 5 6 
#
# 1 0.073465 -0.009143 -0.008803 0.000000 -0.018264 0.000000
# 2 -0.009143 0.011514 -0.001240 0.000000 0.007224 0.000000
# 3 -0.008803 -0.001240 0.009238 0.000000 -0.000359 0.000000
# 4 0.000000 0.000000 0.000000 -0.693380 0.000000 -0.097526
# 5 -0.018264 0.007224 -0.000359 0.000000 0.056362 0.000000
# 6 0.000000 0.000000 0.000000 -0.097526 0.000000 0.055325
#
#
# Mechanical properties :
#
#
# Convention : Reuss Voigt Hill
#
# Bulk Modulus (GPa) = 17.90651 42.40439 30.15545
# Shear Modulus (GPa) = -11.61472 19.71532 4.05030
#
# Velocity S-wave (km/s) = -2.36506 3.08134 1.39663
# Velocity P-wave (km/s) = 1.07961 5.75160 4.13802
#
# Compressibility (1/GPa) = 0.05584560
#
# Stress axis : x y z
#
# Youngs Moduli (GPa) = 13.61193 86.84845 108.24673
#
# Poissons Ratio (x) = 0.79404 0.95288
# Poissons Ratio (y) = 0.12445 0.13425
# Poissons Ratio (z) = 0.11982 0.10771
#
# Static dielectric constant tensor:
#      x y z
#    x 1.777340 0.000000 -0.005220 
#    y 0.000000 1.758280 0.000000 
#    z -0.005220 0.000000 1.777700 
# 
# From -- ./inp_files/42863.got.cif
#   From: 2010.05.17/outbox.cif.g08.bks.cpg/sg10_22_cif.got.tgz:42863.got - 2010.06.03 11:33:40.
