data_PCOD9151338
_publ_section_title
;
Structure prediction by ZEFSAII (Michael W. Deem and Ramdas Pophale) SiO2 
 PCOD9151338
Probable space group: P 2/M
;
_chemical_formula_sum "Si O2"
_cell_formula_units_Z 21
_cell_length_a 11.215672
_cell_length_b 11.193707
_cell_length_c 12.520504
_cell_angle_alpha 90.000000
_cell_angle_beta 43.884947
_cell_angle_gamma 90.000000
_cell_volume 1089.651021
_symmetry_space_group_name_H-M "P 2/M"
_symmetry_group_IT_number 10
_symmetry_cell_setting 'monoclinic'
loop_
_space_group_symop_operation_xyz
x,y,z
-x,y,-z
-x,-y,-z
x,-y,z
loop_
_atom_site_type_symbol
_atom_site_label
_atom_site_fract_x
_atom_site_fract_y
_atom_site_fract_z
Si Si1 0.110765 0.864454 0.819249
Si Si2 0.499270 0.308092 0.190721
Si Si3 0.346632 0.369460 0.683948
Si Si4 0.226624 0.133821 0.090014
Si Si5 0.799148 0.137495 0.640722
Si Si6 0.500000 0.500000 0.000000
O O1 0.234194 0.750235 0.742132
O O2 0.971742 0.849092 0.814485
O O3 0.186481 0.000000 0.761914
O O4 0.000000 0.862739 0.000000
O O5 0.572064 0.366557 0.250633
O O6 0.331538 0.229714 0.327482
O O7 0.464689 0.397276 0.115487
O O8 0.650166 0.222618 0.050355
O O9 0.500000 0.365098 0.500000
O O10 0.256379 0.500000 0.728863
O O11 0.245578 0.141699 0.204553
O O12 0.274259 0.000000 0.025073
O O13 0.000000 0.168434 0.500000
O O14 0.777638 0.000000 0.617364
#
# Coordination Sequence:
#
# PCOD9151338 Si02
#       6
#     4   4   4   4   4   1
#     4  10  21  39  63  94 124 156 206 258 301 359
#     4  12  22  41  65  87 122 162 208 252 299 361
#     4  11  26  44  61  88 129 169 206 248 305 371
#     4  10  20  38  63  91 123 158 201 255 309 364
#     4  10  22  38  61  94 125 154 196 254 317 369
#     4  12  24  40  62  90 116 156 214 258 286 354
#
# _framework density 19.272224999999999
#
# number of rings (size 3 to 8) (size 9 to 14) (size 15 to 20)
#    0.000    1.333    4.762    0.571    2.667    3.048 
#    1.714    0.476    0.000    0.000    0.000    0.000 
#    0.000    0.000    0.000    0.000    0.000    0.000 
#
# Total GULP energy -116937.914938 kJ/mol
# GULP energy per Si atom -5568.472140 kJ/mol
# Density = 1.922836 g / cm^3
# Si number density = 19.272225 Si / 1000 Ang^3
#
#
#
# Elastic Constant Matrix: (Units=GPa)
#
#
# Indices 1 2 3 4 5 6 
#
# 1 30.0771 44.4894 -7.2031 0.0000 -8.4679 0.0000
# 2 44.4894 178.4989 47.1207 0.0000 -28.1169 0.0000
# 3 -7.2031 47.1207 60.9227 0.0000 -7.5402 0.0000
# 4 0.0000 0.0000 0.0000 17.8958 0.0000 6.0211
# 5 -8.4679 -28.1169 -7.5402 0.0000 19.5766 0.0000
# 6 0.0000 0.0000 0.0000 6.0211 0.0000 10.1826
#
#
#
# Elastic Compliance Matrix: (Units=1/GPa)
#
#
# Indices 1 2 3 4 5 6 
#
# 1 0.087459 -0.029457 0.034200 0.000000 0.008696 0.000000
# 2 -0.029457 0.018586 -0.016939 0.000000 0.007428 0.000000
# 3 0.034200 -0.016939 0.034000 0.000000 0.003561 0.000000
# 4 0.000000 0.000000 0.000000 0.069758 0.000000 -0.041249
# 5 0.008696 0.007428 0.003561 0.000000 0.066883 0.000000
# 6 0.000000 0.000000 0.000000 -0.041249 0.000000 0.122597
#
#
# Mechanical properties :
#
#
# Convention : Reuss Voigt Hill
#
# Bulk Modulus (GPa) = 8.64651 48.70140 28.67396
# Shear Modulus (GPa) = 10.81728 21.87043 16.34386
#
# Velocity S-wave (km/s) = 2.37172 3.37236 2.91529
# Velocity P-wave (km/s) = 3.46357 6.36308 5.12275
#
# Compressibility (1/GPa) = 0.11565354
#
# Stress axis : x y z
#
# Youngs Moduli (GPa) = 11.43397 53.80471 29.41201
#
# Poissons Ratio (x) = 1.58492 -1.00590
# Poissons Ratio (y) = 0.33681 0.49820
# Poissons Ratio (z) = -0.39104 0.91138
#
# Static dielectric constant tensor:
#      x y z
#    x 1.713060 0.000000 0.014290 
#    y 0.000000 1.695200 0.000000 
#    z 0.014290 0.000000 1.648340 
# 
# From -- ./inp_files/46444.got.cif
#   From: 2010.05.17/outbox.cif.g08.bks.cpg/sg10_24_cif.got.tgz:46444.got - 2010.06.03 11:33:40.
