data_PCOD9151434
_publ_section_title
;
Structure prediction by ZEFSAII (Michael W. Deem and Ramdas Pophale) SiO2 
 PCOD9151434
Probable space group: P 2/M
;
_chemical_formula_sum "Si O2"
_cell_formula_units_Z 28
_cell_length_a 12.244015
_cell_length_b 7.498388
_cell_length_c 16.131226
_cell_angle_alpha 90.000000
_cell_angle_beta 58.898795
_cell_angle_gamma 90.000000
_cell_volume 1268.127375
_symmetry_space_group_name_H-M "P 2/M"
_symmetry_group_IT_number 10
_symmetry_cell_setting 'monoclinic'
loop_
_space_group_symop_operation_xyz
x,y,z
-x,y,-z
-x,-y,-z
x,-y,z
loop_
_atom_site_type_symbol
_atom_site_label
_atom_site_fract_x
_atom_site_fract_y
_atom_site_fract_z
Si Si1 0.860161 0.287767 0.798449
Si Si2 0.411255 0.217521 0.657768
Si Si3 0.428482 0.715366 0.112085
Si Si4 0.043551 0.215247 0.572608
Si Si5 0.340469 0.208380 0.863552
Si Si6 0.679438 0.782518 0.486428
Si Si7 0.919275 0.703588 0.954590
O O1 0.845934 0.500000 0.817738
O O2 0.717358 0.219889 0.834370
O O3 0.950344 0.260547 0.684577
O O4 0.918900 0.215666 0.862020
O O5 0.348236 0.279846 0.767093
O O6 0.342776 0.271913 0.599940
O O7 0.558382 0.272827 0.588643
O O8 0.410026 0.000000 0.661052
O O9 0.426645 0.500000 0.115536
O O10 0.519898 0.774746 0.150668
O O11 0.500000 0.770637 0.000000
O O12 0.000000 0.280489 0.500000
O O13 0.185649 0.280461 0.534748
O O14 0.047995 0.000000 0.567371
O O15 0.306651 0.000000 0.874586
O O16 0.229269 0.297526 0.960401
O O17 0.678598 0.000000 0.487034
O O18 0.967464 0.500000 0.927793
O O19 0.000000 0.783673 0.000000
#
# Coordination Sequence:
#
# PCOD9151434 Si02
#       7
#     4   4   4   4   4   4   4
#     4  10  22  40  60  81 108 151 195 234 280 331
#     4   8  16  30  51  77 107 143 178 218 271 333
#     4  10  20  39  60  76 107 150 189 225 271 338
#     4  10  22  36  56  84 113 146 184 231 284 337
#     4  11  22  33  56  91 117 139 180 239 289 331
#     4   8  15  32  52  72 106 148 181 213 270 337
#     4  10  22  41  61  81 113 158 197 227 275 345
#
# _framework density 22.079801
#
# number of rings (size 3 to 8) (size 9 to 14) (size 15 to 20)
#    0.000    2.429    1.429    1.286    4.000    2.000 
#    0.000    0.000    0.000    0.000    0.000    5.000 
#    0.000    0.000    0.000    0.000    0.000    0.000 
#
# Total GULP energy -156378.109980 kJ/mol
# GULP energy per Si atom -5584.932499 kJ/mol
# Density = 2.202955 g / cm^3
# Si number density = 22.079801 Si / 1000 Ang^3
#
#
#
# Elastic Constant Matrix: (Units=GPa)
#
#
# Indices 1 2 3 4 5 6 
#
# 1 147.9639 -1.6765 57.1602 0.0000 -0.7011 0.0000
# 2 -1.6765 62.9938 -2.4405 0.0000 0.2767 0.0000
# 3 57.1602 -2.4405 139.4299 0.0000 20.6095 0.0000
# 4 0.0000 0.0000 0.0000 13.1258 0.0000 -1.0586
# 5 -0.7011 0.2767 20.6095 0.0000 20.7432 0.0000
# 6 0.0000 0.0000 0.0000 -1.0586 0.0000 0.7402
#
#
#
# Elastic Compliance Matrix: (Units=1/GPa)
#
#
# Indices 1 2 3 4 5 6 
#
# 1 0.008347 0.000046 -0.004059 0.000000 0.004314 0.000000
# 2 0.000046 0.015891 0.000340 0.000000 -0.000549 0.000000
# 3 -0.004059 0.000340 0.010389 0.000000 -0.010463 0.000000
# 4 0.000000 0.000000 0.000000 0.086119 0.000000 0.123168
# 5 0.004314 -0.000549 -0.010463 0.000000 0.058758 0.000000
# 6 0.000000 0.000000 0.000000 0.123168 0.000000 1.527212
#
#
# Mechanical properties :
#
#
# Convention : Reuss Voigt Hill
#
# Bulk Modulus (GPa) = 36.65390 50.71933 43.68661
# Shear Modulus (GPa) = 2.90165 26.74480 14.82322
#
# Velocity S-wave (km/s) = 1.14761 3.48412 2.59385
# Velocity P-wave (km/s) = 4.28867 6.26149 5.36651
#
# Compressibility (1/GPa) = 0.02728222
#
# Stress axis : x y z
#
# Youngs Moduli (GPa) = 119.79779 62.92708 96.25895
#
# Poissons Ratio (x) = -0.00289 0.39071
# Poissons Ratio (y) = -0.00551 -0.03277
# Poissons Ratio (z) = 0.48626 -0.02142
#
# Static dielectric constant tensor:
#      x y z
#    x 1.805070 0.000000 0.023910 
#    y 0.000000 1.849050 0.000000 
#    z 0.023910 0.000000 1.762530 
# 
# From -- ./inp_files/49406.got.cif
#   From: 2010.05.17/outbox.cif.g08.bks.cpg/sg10_25_cif.got.tgz:49406.got - 2010.06.03 11:33:40.
