data_PCOD9151222
_publ_section_title
;
Structure prediction by ZEFSAII (Michael W. Deem and Ramdas Pophale) SiO2 
 PCOD9151222
Probable space group: P 2/M
;
_chemical_formula_sum "Si O2"
_cell_formula_units_Z 32
_cell_length_a 26.455726
_cell_length_b 8.330693
_cell_length_c 14.453159
_cell_angle_alpha 90.000000
_cell_angle_beta 151.497910
_cell_angle_gamma 90.000000
_cell_volume 1520.042294
_symmetry_space_group_name_H-M "P 2/M"
_symmetry_group_IT_number 10
_symmetry_cell_setting 'monoclinic'
loop_
_space_group_symop_operation_xyz
x,y,z
-x,y,-z
-x,-y,-z
x,-y,z
loop_
_atom_site_type_symbol
_atom_site_label
_atom_site_fract_x
_atom_site_fract_y
_atom_site_fract_z
Si Si1 0.881266 0.306505 0.326660
Si Si2 0.711080 0.311129 0.898719
Si Si3 0.291399 0.193087 0.820453
Si Si4 0.964016 0.804307 0.839919
Si Si5 0.722563 0.805668 0.409405
Si Si6 0.326777 0.314821 0.478775
Si Si7 0.541682 0.189820 0.753699
Si Si8 0.825317 0.813424 0.906595
O O1 0.883993 0.500000 0.333240
O O2 0.822586 0.247504 0.324400
O O3 0.000000 0.247275 0.500000
O O4 0.804630 0.257213 0.119061
O O5 0.693698 0.500000 0.883504
O O6 0.604974 0.223227 0.761098
O O7 0.754537 0.277367 0.867214
O O8 0.310732 0.246648 0.746777
O O9 0.292215 0.000000 0.822037
O O10 0.379498 0.245188 0.036619
O O11 0.845307 0.756910 0.623136
O O12 0.966430 0.000000 0.844353
O O13 0.054947 0.752713 0.914055
O O14 0.000000 0.750414 0.000000
O O15 0.656847 0.734250 0.388492
O O16 0.716307 0.000000 0.403770
O O17 0.296270 0.500000 0.423078
O O18 0.432167 0.280679 0.590118
O O19 0.233214 0.207172 0.285746
O O20 0.522126 0.000000 0.731826
O O21 0.827584 0.000000 0.936179
#
# Coordination Sequence:
#
# PCOD9151222 Si02
#       8
#     4   4   4   4   4   4   4   4
#     4   9  19  35  54  79 118 161 193 228 283 344
#     4  10  21  38  58  85 120 154 192 239 287 341
#     4   9  20  36  59  87 114 147 194 245 287 331
#     4   9  17  33  58  84 114 152 190 232 281 334
#     4  10  20  38  60  86 119 154 192 237 287 341
#     4  12  25  40  59  86 115 151 194 240 292 349
#     4  10  21  41  63  85 113 150 195 244 293 341
#     4  11  22  38  61  88 117 154 195 238 288 344
#
# _framework density 21.052046000000001
#
# number of rings (size 3 to 8) (size 9 to 14) (size 15 to 20)
#    0.000    2.000    1.250    2.250    1.750    2.750 
#    0.000    6.875    0.000    0.000    0.000    0.000 
#    0.000    0.000    0.000    0.000    0.000    0.000 
#
# Total GULP energy -178768.304803 kJ/mol
# GULP energy per Si atom -5586.509525 kJ/mol
# Density = 2.100413 g / cm^3
# Si number density = 21.052046 Si / 1000 Ang^3
#
#
#
# Elastic Constant Matrix: (Units=GPa)
#
#
# Indices 1 2 3 4 5 6 
#
# 1 85.8668 -0.1803 -2.5904 0.0000 5.7152 0.0000
# 2 -0.1803 18.5485 2.9950 0.0000 2.6427 0.0000
# 3 -2.5904 2.9950 32.3142 0.0000 16.1938 0.0000
# 4 0.0000 0.0000 0.0000 15.5826 0.0000 -2.6834
# 5 5.7152 2.6427 16.1938 0.0000 31.8357 0.0000
# 6 0.0000 0.0000 0.0000 -2.6834 0.0000 111.1366
#
#
#
# Elastic Compliance Matrix: (Units=1/GPa)
#
#
# Indices 1 2 3 4 5 6 
#
# 1 0.011964 0.000182 0.002719 0.000000 -0.003546 0.000000
# 2 0.000182 0.054900 -0.003722 0.000000 -0.002696 0.000000
# 3 0.002719 -0.003722 0.042410 0.000000 -0.021752 0.000000
# 4 0.000000 0.000000 0.000000 0.064442 0.000000 0.001556
# 5 -0.003546 -0.002696 -0.021752 0.000000 0.043336 0.000000
# 6 0.000000 0.000000 0.000000 0.001556 0.000000 0.009036
#
#
# Mechanical properties :
#
#
# Convention : Reuss Voigt Hill
#
# Bulk Modulus (GPa) = 9.29087 15.24202 12.26644
# Shear Modulus (GPa) = 18.96768 40.81132 29.88950
#
# Velocity S-wave (km/s) = 3.00491 4.40772 3.77210
# Velocity P-wave (km/s) = 4.05736 5.75846 4.98107
#
# Compressibility (1/GPa) = 0.10763254
#
# Stress axis : x y z
#
# Youngs Moduli (GPa) = 83.58133 18.21507 23.57950
#
# Poissons Ratio (x) = -0.00332 -0.06412
# Poissons Ratio (y) = -0.01525 0.08777
# Poissons Ratio (z) = -0.22729 0.06780
#
# Static dielectric constant tensor:
#      x y z
#    x 1.762080 0.000000 -0.008990 
#    y 0.000000 1.711470 0.000000 
#    z -0.008990 0.000000 1.753440 
# 
# From -- ./inp_files/71645.got.cif
#   From: 2010.05.17/outbox.cif.g08.bks.cpg/sg10_36_cif.got.tgz:71645.got - 2010.06.03 11:33:40.
