data_PCOD9151647
_publ_section_title
;
Structure prediction by ZEFSAII (Michael W. Deem and Ramdas Pophale) SiO2 
 PCOD9151647
Probable space group: P 2/M
;
_chemical_formula_sum "Si O2"
_cell_formula_units_Z 28
_cell_length_a 21.534770
_cell_length_b 17.285480
_cell_length_c 8.367425
_cell_angle_alpha 90.000000
_cell_angle_beta 22.509521
_cell_angle_gamma 90.000000
_cell_volume 1192.414802
_symmetry_space_group_name_H-M "P 2/M"
_symmetry_group_IT_number 10
_symmetry_cell_setting 'monoclinic'
loop_
_space_group_symop_operation_xyz
x,y,z
-x,y,-z
-x,-y,-z
x,-y,z
loop_
_atom_site_type_symbol
_atom_site_label
_atom_site_fract_x
_atom_site_fract_y
_atom_site_fract_z
Si Si1 0.668919 0.118560 0.918040
Si Si2 0.757242 0.295565 0.120136
Si Si3 0.117507 0.084261 0.905525
Si Si4 0.710624 0.884972 0.170991
Si Si5 0.307495 0.412602 0.998418
Si Si6 0.087168 0.256313 0.952465
Si Si7 0.620094 0.713144 0.937837
O O1 0.479615 0.097709 0.349569
O O2 0.737887 0.088897 0.923304
O O3 0.763028 0.093271 0.533728
O O4 0.650850 0.212551 0.977849
O O5 0.755335 0.206321 0.069008
O O6 0.769752 0.360127 0.955263
O O7 0.899948 0.300747 0.912353
O O8 0.569371 0.303665 0.627728
O O9 0.198959 0.084106 0.887250
O O10 0.028536 0.167812 0.112810
O O11 0.039124 0.000000 0.075424
O O12 0.500000 0.415714 0.500000
O O13 0.246167 0.500000 0.154439
O O14 0.300401 0.363353 0.177394
O O15 0.278726 0.257351 0.453308
O O16 0.000000 0.285737 0.000000
#
# Coordination Sequence:
#
# PCOD9151647 Si02
#       7
#     4   4   4   4   4   4   4
#     4   9  16  28  48  73 102 138 176 215 262 316
#     4   9  16  31  54  79 106 135 173 216 259 311
#     4  10  21  33  47  70 102 134 173 223 275 320
#     4   9  16  28  48  73 102 138 176 215 262 316
#     4   9  16  28  53  87 114 135 166 214 267 313
#     4  10  21  36  55  75  97 137 184 219 260 313
#     4   9  16  31  54  79 106 135 173 216 259 311
#
# _framework density 23.481760999999999
#
# number of rings (size 3 to 8) (size 9 to 14) (size 15 to 20)
#    0.000    2.714    1.429    0.857    0.000    5.429 
#    0.000    2.857    0.000    6.000    0.000    4.000 
#    0.000    0.000    0.000    0.000    0.000    0.000 
#
# Total GULP energy -156108.050520 kJ/mol
# GULP energy per Si atom -5575.287519 kJ/mol
# Density = 2.342832 g / cm^3
# Si number density = 23.481761 Si / 1000 Ang^3
#
#
#
# Elastic Constant Matrix: (Units=GPa)
#
#
# Indices 1 2 3 4 5 6 
#
# 1 200.8481 51.6054 13.9236 0.0000 -24.3839 0.0000
# 2 51.6054 156.3245 22.6699 0.0000 -11.5194 0.0000
# 3 13.9236 22.6699 83.0279 0.0000 -1.6126 0.0000
# 4 0.0000 0.0000 0.0000 18.8782 0.0000 6.4474
# 5 -24.3839 -11.5194 -1.6126 0.0000 19.2860 0.0000
# 6 0.0000 0.0000 0.0000 6.4474 0.0000 28.6052
#
#
#
# Elastic Compliance Matrix: (Units=1/GPa)
#
#
# Indices 1 2 3 4 5 6 
#
# 1 0.006238 -0.001472 -0.000509 0.000000 0.006965 0.000000
# 2 -0.001472 0.007304 -0.001701 0.000000 0.002359 0.000000
# 3 -0.000509 -0.001701 0.012582 0.000000 -0.000608 0.000000
# 4 0.000000 0.000000 0.000000 0.057389 0.000000 -0.012935
# 5 0.006965 0.002359 -0.000608 0.000000 0.062015 0.000000
# 6 0.000000 0.000000 0.000000 -0.012935 0.000000 0.037874
#
#
# Mechanical properties :
#
#
# Convention : Reuss Voigt Hill
#
# Bulk Modulus (GPa) = 53.30857 68.51091 60.90974
# Shear Modulus (GPa) = 25.37813 36.82065 31.09939
#
# Velocity S-wave (km/s) = 3.29106 3.96416 3.64319
# Velocity P-wave (km/s) = 6.09859 7.08465 6.61004
#
# Compressibility (1/GPa) = 0.01875871
#
# Stress axis : x y z
#
# Youngs Moduli (GPa) = 160.30720 136.92043 79.47715
#
# Poissons Ratio (x) = 0.20158 0.04044
# Poissons Ratio (y) = 0.23601 0.13523
# Poissons Ratio (z) = 0.08157 0.23296
#
# Static dielectric constant tensor:
#      x y z
#    x 1.938250 0.000000 0.000630 
#    y 0.000000 1.849440 0.000000 
#    z 0.000630 0.000000 1.973270 
# 
# From -- ./inp_files/30081.got.cif
#   From: 2010.05.17/outbox.cif.g08.bks.cpg/sg10_16_cif.got.tgz:30081.got - 2010.06.03 11:33:40.
