data_PCOD9151135
_publ_section_title
;
Structure prediction by ZEFSAII (Michael W. Deem and Ramdas Pophale) SiO2 
 PCOD9151135
Probable space group: P 2/M
;
_chemical_formula_sum "Si O2"
_cell_formula_units_Z 32
_cell_length_a 20.263199
_cell_length_b 7.578124
_cell_length_c 12.652273
_cell_angle_alpha 90.000000
_cell_angle_beta 44.916646
_cell_angle_gamma 90.000000
_cell_volume 1371.799186
_symmetry_space_group_name_H-M "P 2/M"
_symmetry_group_IT_number 10
_symmetry_cell_setting 'monoclinic'
loop_
_space_group_symop_operation_xyz
x,y,z
-x,y,-z
-x,-y,-z
x,-y,z
loop_
_atom_site_type_symbol
_atom_site_label
_atom_site_fract_x
_atom_site_fract_y
_atom_site_fract_z
Si Si1 0.591282 0.286974 0.656420
Si Si2 0.407888 0.298738 0.749627
Si Si3 0.289822 0.207082 0.284592
Si Si4 0.898265 0.699812 0.123010
Si Si5 0.879057 0.792674 0.380275
Si Si6 0.698541 0.716768 0.327838
Si Si7 0.735219 0.793961 0.918897
Si Si8 0.047467 0.288075 0.336232
O O1 0.590270 0.500000 0.663224
O O2 0.492263 0.222516 0.723233
O O3 0.623312 0.225353 0.735112
O O4 0.666192 0.232939 0.481881
O O5 0.437520 0.500000 0.692467
O O6 0.376500 0.221109 0.673265
O O7 0.316470 0.299122 0.926437
O O8 0.199367 0.278396 0.449872
O O9 0.298901 0.279009 0.156236
O O10 0.270313 0.000000 0.291113
O O11 0.907908 0.500000 0.068720
O O12 0.876857 0.695407 0.271813
O O13 0.803557 0.778341 0.182358
O O14 0.000000 0.787017 0.000000
O O15 0.979813 0.772784 0.319555
O O16 0.860748 0.000000 0.381446
O O17 0.700741 0.500000 0.322379
O O18 0.846869 0.776363 0.793792
O O19 0.710155 0.000000 0.956843
O O20 0.049483 0.500000 0.334333
O O21 0.000000 0.227841 0.500000
#
# Coordination Sequence:
#
# PCOD9151135 Si02
#       8
#     4   4   4   4   4   4   4   4
#     4  10  20  37  64  90 113 150 203 255 300 354
#     4  10  22  39  60  89 120 154 200 251 303 354
#     4  10  22  39  60  85 119 158 197 243 296 355
#     4  10  21  36  57  88 121 154 196 246 301 358
#     4  11  22  38  59  85 119 158 198 242 292 354
#     4   9  18  36  60  86 119 155 193 245 304 360
#     4  11  24  42  60  85 123 163 198 238 298 362
#     4  11  23  38  61  89 116 151 195 241 288 345
#
# _framework density 23.327029
#
# number of rings (size 3 to 8) (size 9 to 14) (size 15 to 20)
#    0.000    1.750    2.500    1.500    1.750    4.750 
#    0.000    3.750    0.000    1.500    0.000    0.000 
#    0.000    0.000    0.000    0.000    0.000    0.000 
#
# Total GULP energy -178868.831284 kJ/mol
# GULP energy per Si atom -5589.650978 kJ/mol
# Density = 2.327394 g / cm^3
# Si number density = 23.327029 Si / 1000 Ang^3
#
#
#
# Elastic Constant Matrix: (Units=GPa)
#
#
# Indices 1 2 3 4 5 6 
#
# 1 129.1620 -13.4671 -7.7575 0.0000 -5.0459 0.0000
# 2 -13.4671 66.8981 -4.8522 0.0000 0.5864 0.0000
# 3 -7.7575 -4.8522 33.3373 0.0000 -4.3055 0.0000
# 4 0.0000 0.0000 0.0000 8.4673 0.0000 4.7377
# 5 -5.0459 0.5864 -4.3055 0.0000 40.8740 0.0000
# 6 0.0000 0.0000 0.0000 4.7377 0.0000 36.5095
#
#
#
# Elastic Compliance Matrix: (Units=1/GPa)
#
#
# Indices 1 2 3 4 5 6 
#
# 1 0.008115 0.001790 0.002306 0.000000 0.001219 0.000000
# 2 0.001790 0.015503 0.002710 0.000000 0.000284 0.000000
# 3 0.002306 0.002710 0.031386 0.000000 0.003552 0.000000
# 4 0.000000 0.000000 0.000000 0.127348 0.000000 -0.016526
# 5 0.001219 0.000284 0.003552 0.000000 0.024986 0.000000
# 6 0.000000 0.000000 0.000000 -0.016526 0.000000 0.029535
#
#
# Mechanical properties :
#
#
# Convention : Reuss Voigt Hill
#
# Bulk Modulus (GPa) = 14.57382 19.69376 17.13379
# Shear Modulus (GPa) = 20.31430 34.20177 27.25803
#
# Velocity S-wave (km/s) = 2.95421 3.83324 3.42207
# Velocity P-wave (km/s) = 4.23057 5.29645 4.79323
#
# Compressibility (1/GPa) = 0.06861617
#
# Stress axis : x y z
#
# Youngs Moduli (GPa) = 123.22835 64.50559 31.86109
#
# Poissons Ratio (x) = -0.11548 -0.07348
# Poissons Ratio (y) = -0.22060 -0.08633
# Poissons Ratio (z) = -0.28421 -0.17479
#
# Static dielectric constant tensor:
#      x y z
#    x 1.882910 0.000000 -0.019070 
#    y 0.000000 1.886600 0.000000 
#    z -0.019070 0.000000 1.855590 
# 
# From -- ./inp_files/55190.got.cif
#   From: 2010.05.17/outbox.cif.g08.bks.cpg/sg10_28_cif.got.tgz:55190.got - 2010.06.03 11:33:40.
