data_PCOD9151655
_publ_section_title
;
Structure prediction by ZEFSAII (Michael W. Deem and Ramdas Pophale) SiO2 
 PCOD9151655
Probable space group: P 2/M
;
_chemical_formula_sum "Si O2"
_cell_formula_units_Z 24
_cell_length_a 16.684145
_cell_length_b 17.928253
_cell_length_c 5.318973
_cell_angle_alpha 90.000000
_cell_angle_beta 53.730857
_cell_angle_gamma 90.000000
_cell_volume 1282.737597
_symmetry_space_group_name_H-M "P 2/M"
_symmetry_group_IT_number 10
_symmetry_cell_setting 'monoclinic'
loop_
_space_group_symop_operation_xyz
x,y,z
-x,y,-z
-x,-y,-z
x,-y,z
loop_
_atom_site_type_symbol
_atom_site_label
_atom_site_fract_x
_atom_site_fract_y
_atom_site_fract_z
Si Si1 0.881198 0.411317 0.684600
Si Si2 0.894637 0.211211 0.817718
Si Si3 0.182026 0.326902 0.705593
Si Si4 0.567082 0.084291 0.126323
Si Si5 0.261831 0.199934 0.291130
Si Si6 0.117439 0.914855 0.841138
O O1 0.866452 0.500000 0.698095
O O2 0.849472 0.374042 0.479203
O O3 0.000000 0.397740 0.500000
O O4 0.822692 0.379169 0.038019
O O5 0.801377 0.233375 0.821885
O O6 0.000000 0.221921 0.500000
O O7 0.894021 0.261285 0.068545
O O8 0.877062 0.123975 0.899051
O O9 0.273470 0.271381 0.456249
O O10 0.500000 0.091044 0.500000
O O11 0.613122 0.000000 0.049349
O O12 0.500000 0.086576 0.000000
O O13 0.642969 0.153129 0.968241
O O14 0.189513 0.136760 0.544478
O O15 0.147865 0.000000 0.776493
O O16 0.000000 0.909310 0.000000
#
# Coordination Sequence:
#
# PCOD9151655 Si02
#       6
#     4   4   4   4   4   4
#     4  11  23  37  56  83 121 168 210 241 278 339
#     4  11  22  35  53  81 117 163 198 243 293 351
#     4  11  23  36  57  83 118 156 203 243 290 344
#     4  10  24  44  65  87 115 154 203 259 315 365
#     4  11  23  38  60  84 117 155 200 249 305 356
#     4  10  21  33  48  76 114 155 198 241 284 342
#
# _framework density 18.709983000000001
#
# number of rings (size 3 to 8) (size 9 to 14) (size 15 to 20)
#    0.000    1.333    3.333    2.000    7.000    3.000 
#    0.000    0.000    0.000    0.000    0.000    0.000 
#    0.000   13.333    0.000    0.000    0.000    0.000 
#
# Total GULP energy -133661.085451 kJ/mol
# GULP energy per Si atom -5569.211894 kJ/mol
# Density = 1.866740 g / cm^3
# Si number density = 18.709983 Si / 1000 Ang^3
#
#
#
# Elastic Constant Matrix: (Units=GPa)
#
#
# Indices 1 2 3 4 5 6 
#
# 1 45.9618 31.8186 39.9291 0.0000 12.5709 0.0000
# 2 31.8186 148.2243 66.3235 0.0000 12.6311 0.0000
# 3 39.9291 66.3235 110.0161 0.0000 15.6270 0.0000
# 4 0.0000 0.0000 0.0000 -18.8221 0.0000 45.3331
# 5 12.5709 12.6311 15.6270 0.0000 26.0679 0.0000
# 6 0.0000 0.0000 0.0000 45.3331 0.0000 -2.9416
#
#
#
# Elastic Compliance Matrix: (Units=1/GPa)
#
#
# Indices 1 2 3 4 5 6 
#
# 1 0.034432 -0.002178 -0.009811 0.000000 -0.009668 0.000000
# 2 -0.002178 0.009413 -0.004794 0.000000 -0.000637 0.000000
# 3 -0.009811 -0.004794 0.015892 0.000000 -0.002473 0.000000
# 4 0.000000 0.000000 0.000000 0.001471 0.000000 0.022670
# 5 -0.009668 -0.000637 -0.002473 0.000000 0.044815 0.000000
# 6 0.000000 0.000000 0.000000 0.022670 0.000000 0.009412
#
#
# Mechanical properties :
#
#
# Convention : Reuss Voigt Hill
#
# Bulk Modulus (GPa) = 38.20838 64.48274 51.34556
# Shear Modulus (GPa) = 31.70101 11.93624 21.81863
#
# Velocity S-wave (km/s) = 4.12070 2.52853 3.41860
# Velocity P-wave (km/s) = 6.56551 6.56230 6.56391
#
# Compressibility (1/GPa) = 0.02617227
#
# Stress axis : x y z
#
# Youngs Moduli (GPa) = 29.04275 106.23146 62.92648
#
# Poissons Ratio (x) = 0.23134 0.61735
# Poissons Ratio (y) = 0.06325 0.30167
# Poissons Ratio (z) = 0.28493 0.50928
#
# Static dielectric constant tensor:
#      x y z
#    x 1.675520 0.000000 0.057860 
#    y 0.000000 1.696190 0.000000 
#    z 0.057860 0.000000 1.710820 
# 
# From -- ./inp_files/11556.got.cif
#   From: 2010.05.17/outbox.cif.g08.bks.cpg/sg10_6_cif.got.tgz:11556.got - 2010.06.03 11:33:40.
