data_PCOD9151696
_publ_section_title
;
Structure prediction by ZEFSAII (Michael W. Deem and Ramdas Pophale) SiO2 
 PCOD9151696
Probable space group: P 2/M
;
_chemical_formula_sum "Si O2"
_cell_formula_units_Z 28
_cell_length_a 23.443437
_cell_length_b 7.955232
_cell_length_c 20.832674
_cell_angle_alpha 90.000000
_cell_angle_beta 19.562661
_cell_angle_gamma 90.000000
_cell_volume 1300.928215
_symmetry_space_group_name_H-M "P 2/M"
_symmetry_group_IT_number 10
_symmetry_cell_setting 'monoclinic'
loop_
_space_group_symop_operation_xyz
x,y,z
-x,y,-z
-x,-y,-z
x,-y,z
loop_
_atom_site_type_symbol
_atom_site_label
_atom_site_fract_x
_atom_site_fract_y
_atom_site_fract_z
Si Si1 0.150942 0.296560 0.639696
Si Si2 0.434591 0.199313 0.136946
Si Si3 0.457612 0.297499 0.744904
Si Si4 0.067756 0.692322 0.862446
Si Si5 0.709031 0.301863 0.949509
Si Si6 0.562984 0.197068 0.503704
Si Si7 0.919646 0.199783 0.429993
O O1 0.143580 0.500000 0.649039
O O2 0.350127 0.248834 0.436879
O O3 0.047546 0.234586 0.812274
O O4 0.087907 0.238231 0.637819
O O5 0.254082 0.267949 0.353813
O O6 0.407938 0.000000 0.156081
O O7 0.500000 0.271054 0.000000
O O8 0.579694 0.221737 0.036429
O O9 0.449126 0.500000 0.749262
O O10 0.432289 0.226477 0.700494
O O11 0.333282 0.240515 0.933364
O O12 0.001782 0.500000 0.930979
O O13 0.271301 0.694743 0.655478
O O14 0.000000 0.774258 0.000000
O O15 0.673362 0.500000 0.986581
O O16 0.906283 0.271685 0.726156
O O17 0.500000 0.242481 0.500000
O O18 0.610231 0.000000 0.453045
O O19 0.924808 0.000000 0.432717
#
# Coordination Sequence:
#
# PCOD9151696 Si02
#       7
#     4   4   4   4   4   4   4
#     4   9  17  34  57  81 111 147 196 250 296 350
#     4  10  23  44  67  91 125 166 203 245 299 361
#     4   9  19  36  58  81 108 150 198 244 296 355
#     4   9  19  35  54  76 106 149 196 240 291 352
#     4  11  23  40  64  93 124 158 202 253 300 355
#     4  10  21  34  50  77 112 148 189 242 298 350
#     4  11  23  38  61  92 123 159 201 245 300 363
#
# _framework density 21.523092999999999
#
# number of rings (size 3 to 8) (size 9 to 14) (size 15 to 20)
#    0.000    2.143    1.429    2.143    0.000    7.429 
#    0.000    7.143    0.000    0.000    0.000    0.000 
#    0.000    0.000    0.000    0.000    0.000    0.000 
#
# Total GULP energy -156285.575985 kJ/mol
# GULP energy per Si atom -5581.627714 kJ/mol
# Density = 2.147411 g / cm^3
# Si number density = 21.523093 Si / 1000 Ang^3
#
#
#
# Elastic Constant Matrix: (Units=GPa)
#
#
# Indices 1 2 3 4 5 6 
#
# 1 76.9206 -6.6151 54.1281 0.0000 30.3022 0.0000
# 2 -6.6151 16.7435 -5.2240 0.0000 6.3366 0.0000
# 3 54.1281 -5.2240 120.4353 0.0000 22.1364 0.0000
# 4 0.0000 0.0000 0.0000 7.2631 0.0000 7.4170
# 5 30.3022 6.3366 22.1364 0.0000 34.5405 0.0000
# 6 0.0000 0.0000 0.0000 7.4170 0.0000 18.3791
#
#
#
# Elastic Compliance Matrix: (Units=1/GPa)
#
#
# Indices 1 2 3 4 5 6 
#
# 1 0.029993 0.018563 -0.008175 0.000000 -0.024478 0.000000
# 2 0.018563 0.079195 0.000857 0.000000 -0.031363 0.000000
# 3 -0.008175 0.000857 0.012157 0.000000 -0.000776 0.000000
# 4 0.000000 0.000000 0.000000 0.234195 0.000000 -0.094511
# 5 -0.024478 -0.031363 -0.000776 0.000000 0.056678 0.000000
# 6 0.000000 0.000000 0.000000 -0.094511 0.000000 0.092550
#
#
# Mechanical properties :
#
#
# Convention : Reuss Voigt Hill
#
# Bulk Modulus (GPa) = 6.95248 33.18640 20.06944
# Shear Modulus (GPa) = 9.42999 23.49058 16.46028
#
# Velocity S-wave (km/s) = 2.09543 3.30724 2.76845
# Velocity P-wave (km/s) = 3.01525 5.48053 4.42312
#
# Compressibility (1/GPa) = 0.14383363
#
# Stress axis : x y z
#
# Youngs Moduli (GPa) = 33.34131 12.62706 82.25409
#
# Poissons Ratio (x) = -0.23439 0.67247
# Poissons Ratio (y) = -0.61890 -0.07049
# Poissons Ratio (z) = 0.27258 -0.01082
#
# Static dielectric constant tensor:
#      x y z
#    x 1.777990 0.000000 0.049260 
#    y 0.000000 1.783890 0.000000 
#    z 0.049260 0.000000 1.799550 
# 
# From -- ./inp_files/86425.got.cif
#   From: 2010.05.17/outbox.cif.g08.bks.cpg/sg10_44_cif.got.tgz:86425.got - 2010.06.03 11:33:40.
