data_PCOD9151880
_publ_section_title
;
Structure prediction by ZEFSAII (Michael W. Deem and Ramdas Pophale) SiO2 
 PCOD9151880
Probable space group: P 2/M
;
_chemical_formula_sum "Si O2"
_cell_formula_units_Z 32
_cell_length_a 27.130623
_cell_length_b 7.506244
_cell_length_c 16.091024
_cell_angle_alpha 90.000000
_cell_angle_beta 152.888175
_cell_angle_gamma 90.000000
_cell_volume 1493.387233
_symmetry_space_group_name_H-M "P 2/M"
_symmetry_group_IT_number 10
_symmetry_cell_setting 'monoclinic'
loop_
_space_group_symop_operation_xyz
x,y,z
-x,y,-z
-x,-y,-z
x,-y,z
loop_
_atom_site_type_symbol
_atom_site_label
_atom_site_fract_x
_atom_site_fract_y
_atom_site_fract_z
Si Si1 0.999262 0.284885 0.633692
Si Si2 0.544397 0.711213 0.153306
Si Si3 0.827261 0.282910 0.240125
Si Si4 0.578874 0.281288 0.867956
Si Si5 0.000854 0.790638 0.172462
Si Si6 0.775196 0.215132 0.568177
Si Si7 0.776187 0.784949 0.759864
Si Si8 0.454358 0.711325 0.517835
O O1 0.999256 0.500000 0.634314
O O2 0.104068 0.227410 0.737756
O O3 0.998695 0.225848 0.727560
O O4 0.895213 0.227490 0.423436
O O5 0.522555 0.500000 0.119439
O O6 0.482467 0.781288 0.141508
O O7 0.671868 0.734865 0.358355
O O8 0.500000 0.785254 0.000000
O O9 0.827392 0.500000 0.240298
O O10 0.703695 0.225302 0.054527
O O11 0.577083 0.500000 0.865298
O O12 0.515883 0.218801 0.691545
O O13 0.111630 0.717918 0.299595
O O14 0.000753 0.000000 0.151295
O O15 0.889636 0.717828 0.967175
O O16 0.760559 0.277039 0.641361
O O17 0.778412 0.000000 0.574617
O O18 0.673182 0.735516 0.660508
O O19 0.779651 0.000000 0.763302
O O20 0.500000 0.785137 0.500000
O O21 0.475744 0.500000 0.548981
#
# Coordination Sequence:
#
# PCOD9151880 Si02
#       8
#     4   4   4   4   4   4   4   4
#     4   9  18  33  55  82 106 136 181 224 259 312
#     4  10  21  35  56  85 113 143 179 222 271 322
#     4   8  16  31  52  78 109 143 177 213 260 319
#     4   9  17  32  52  77 113 146 172 213 270 324
#     4  10  22  37  55  79 106 138 178 223 276 324
#     4  10  21  39  59  77 104 143 183 223 268 323
#     4  10  21  39  59  77 104 143 183 223 268 323
#     4  10  21  35  56  85 113 143 179 222 271 322
#
# _framework density 21.427799
#
# number of rings (size 3 to 8) (size 9 to 14) (size 15 to 20)
#    0.000    2.500    1.250    1.125    3.500    3.000 
#    0.000    1.250    0.000    3.750    0.000    0.000 
#    0.000    0.000    0.000    0.000    0.000    0.000 
#
# Total GULP energy -178750.022873 kJ/mol
# GULP energy per Si atom -5585.938215 kJ/mol
# Density = 2.137903 g / cm^3
# Si number density = 21.427799 Si / 1000 Ang^3
#
#
#
# Elastic Constant Matrix: (Units=GPa)
#
#
# Indices 1 2 3 4 5 6 
#
# 1 164.9668 0.9715 131.3654 0.0000 -14.9749 0.0000
# 2 0.9715 53.6833 -6.1193 0.0000 -3.8364 0.0000
# 3 131.3654 -6.1193 156.0442 0.0000 29.1148 0.0000
# 4 0.0000 0.0000 0.0000 15.6426 0.0000 0.0182
# 5 -14.9749 -3.8364 29.1148 0.0000 25.1967 0.0000
# 6 0.0000 0.0000 0.0000 0.0182 0.0000 15.8122
#
#
#
# Elastic Compliance Matrix: (Units=1/GPa)
#
#
# Indices 1 2 3 4 5 6 
#
# 1 -0.040790 0.000568 0.049551 0.000000 -0.081412 0.000000
# 2 0.000568 0.018833 -0.000431 0.000000 0.003703 0.000000
# 3 0.049551 -0.000431 -0.052020 0.000000 0.089493 0.000000
# 4 0.000000 0.000000 0.000000 0.063928 0.000000 -0.000074
# 5 -0.081412 0.003703 0.089493 0.000000 -0.111542 0.000000
# 6 0.000000 0.000000 0.000000 -0.000074 0.000000 0.063242
#
#
# Mechanical properties :
#
#
# Convention : Reuss Voigt Hill
#
# Bulk Modulus (GPa) = 39.37076 69.68105 54.52591
# Shear Modulus (GPa) = -33.49881 27.89541 -2.80170
#
# Velocity S-wave (km/s) = -3.95819 3.61201 -1.14470
# Velocity P-wave (km/s) = 1.57357 7.07001 4.87385
#
# Compressibility (1/GPa) = 0.02539956
#
# Stress axis : x y z
#
# Youngs Moduli (GPa) = -24.51595 53.09824 -19.22323
#
# Poissons Ratio (x) = -0.03019 0.95253
# Poissons Ratio (y) = 0.01394 -0.00829
# Poissons Ratio (z) = 1.21479 0.02289
#
# Static dielectric constant tensor:
#      x y z
#    x 1.741790 0.000000 -0.001350 
#    y 0.000000 1.810790 0.000000 
#    z -0.001350 0.000000 1.739040 
# 
# From -- ./inp_files/71465.got.cif
#   From: 2010.05.17/outbox.cif.g08.bks.cpg/sg10_36_cif.got.tgz:71465.got - 2010.06.03 11:33:40.
