data_PCOD9151701
_publ_section_title
;
Structure prediction by ZEFSAII (Michael W. Deem and Ramdas Pophale) SiO2 
 PCOD9151701
Probable space group: P 2/M
;
_chemical_formula_sum "Si O2"
_cell_formula_units_Z 32
_cell_length_a 23.484115
_cell_length_b 8.190544
_cell_length_c 15.569204
_cell_angle_alpha 90.000000
_cell_angle_beta 148.639498
_cell_angle_gamma 90.000000
_cell_volume 1558.505172
_symmetry_space_group_name_H-M "P 2/M"
_symmetry_group_IT_number 10
_symmetry_cell_setting 'monoclinic'
loop_
_space_group_symop_operation_xyz
x,y,z
-x,y,-z
-x,-y,-z
x,-y,z
loop_
_atom_site_type_symbol
_atom_site_label
_atom_site_fract_x
_atom_site_fract_y
_atom_site_fract_z
Si Si1 0.330242 0.313853 0.835460
Si Si2 0.034102 0.814592 0.289058
Si Si3 0.371070 0.304481 0.071452
Si Si4 0.375278 0.307253 0.352295
Si Si5 0.725063 0.196761 0.423000
Si Si6 0.795759 0.192368 0.006907
Si Si7 0.901097 0.186606 0.429617
Si Si8 0.401549 0.805176 0.570451
O O1 0.366043 0.500000 0.872150
O O2 0.329223 0.238281 0.739111
O O3 0.203916 0.299896 0.702486
O O4 0.386215 0.239780 0.992900
O O5 0.149576 0.738982 0.407274
O O6 0.055222 0.826532 0.417853
O O7 0.027687 0.000000 0.244237
O O8 0.913577 0.737322 0.128777
O O9 0.376957 0.500000 0.074873
O O10 0.258875 0.259590 0.976012
O O11 0.470928 0.238994 0.256585
O O12 0.500000 0.247897 0.500000
O O13 0.372766 0.500000 0.329098
O O14 0.291043 0.221354 0.180500
O O15 0.351409 0.276238 0.421470
O O16 0.655239 0.251026 0.414454
O O17 0.733019 0.000000 0.434215
O O18 0.812584 0.000000 0.042783
O O19 0.000000 0.247356 0.500000
O O20 0.870929 0.000000 0.363231
O O21 0.389796 0.000000 0.548043
#
# Coordination Sequence:
#
# PCOD9151701 Si02
#       8
#     4   4   4   4   4   4   4   4
#     4  10  21  34  51  78 113 154 194 230 276 335
#     4   8  16  32  54  81 111 144 181 229 282 325
#     4  11  23  37  53  81 121 155 185 232 290 338
#     4  11  23  40  61  85 118 152 177 220 290 348
#     4   9  20  40  61  82 113 150 192 237 281 326
#     4  11  21  35  61  90 114 144 189 236 277 334
#     4   9  16  29  50  74 106 147 190 234 282 329
#     4  11  23  39  63  88 108 143 194 241 278 332
#
# _framework density 20.532494
#
# number of rings (size 3 to 8) (size 9 to 14) (size 15 to 20)
#    0.000    2.000    1.250    3.375    0.000    5.250 
#    0.000    9.375    0.000    3.750    0.000    0.000 
#    0.000    0.000    0.000    0.000    0.000    0.000 
#
# Total GULP energy -178479.222679 kJ/mol
# GULP energy per Si atom -5577.475709 kJ/mol
# Density = 2.048576 g / cm^3
# Si number density = 20.532494 Si / 1000 Ang^3
#
#
#
# Elastic Constant Matrix: (Units=GPa)
#
#
# Indices 1 2 3 4 5 6 
#
# 1 85.0757 -1.0725 16.7554 0.0000 -16.0471 0.0000
# 2 -1.0725 17.9155 -1.7676 0.0000 1.3814 0.0000
# 3 16.7554 -1.7676 75.2118 0.0000 -7.0195 0.0000
# 4 0.0000 0.0000 0.0000 26.5814 0.0000 -13.0836
# 5 -16.0471 1.3814 -7.0195 0.0000 23.6886 0.0000
# 6 0.0000 0.0000 0.0000 -13.0836 0.0000 17.6324
#
#
#
# Elastic Compliance Matrix: (Units=1/GPa)
#
#
# Indices 1 2 3 4 5 6 
#
# 1 0.013844 -0.000067 -0.002273 0.000000 0.008708 0.000000
# 2 -0.000067 0.056150 0.001054 0.000000 -0.003007 0.000000
# 3 -0.002273 0.001054 0.014066 0.000000 0.002567 0.000000
# 4 0.000000 0.000000 0.000000 0.059266 0.000000 0.043977
# 5 0.008708 -0.003007 0.002567 0.000000 0.049050 0.000000
# 6 0.000000 0.000000 0.000000 0.043977 0.000000 0.089346
#
#
# Mechanical properties :
#
#
# Convention : Reuss Voigt Hill
#
# Bulk Modulus (GPa) = 12.27178 22.89261 17.58220
# Shear Modulus (GPa) = 16.05364 24.53298 20.29331
#
# Velocity S-wave (km/s) = 2.79922 3.46039 3.14722
# Velocity P-wave (km/s) = 4.05429 5.20955 4.66780
#
# Compressibility (1/GPa) = 0.08148775
#
# Stress axis : x y z
#
# Youngs Moduli (GPa) = 72.23554 17.80959 71.09103
#
# Poissons Ratio (x) = 0.00119 0.16158
# Poissons Ratio (y) = 0.00484 -0.07492
# Poissons Ratio (z) = 0.16418 -0.01877
#
# Static dielectric constant tensor:
#      x y z
#    x 1.784000 0.000000 0.029830 
#    y 0.000000 1.735170 0.000000 
#    z 0.029830 0.000000 1.749160 
# 
# From -- ./inp_files/71569.got.cif
#   From: 2010.05.17/outbox.cif.g08.bks.cpg/sg10_36_cif.got.tgz:71569.got - 2010.06.03 11:33:40.
