data_PCOD9151212
_publ_section_title
;
Structure prediction by ZEFSAII (Michael W. Deem and Ramdas Pophale) SiO2 
 PCOD9151212
Probable space group: P 2/M
;
_chemical_formula_sum "Si O2"
_cell_formula_units_Z 32
_cell_length_a 15.000810
_cell_length_b 8.550328
_cell_length_c 15.611449
_cell_angle_alpha 90.000000
_cell_angle_beta 122.452080
_cell_angle_gamma 90.000000
_cell_volume 1689.666835
_symmetry_space_group_name_H-M "P 2/M"
_symmetry_group_IT_number 10
_symmetry_cell_setting 'monoclinic'
loop_
_space_group_symop_operation_xyz
x,y,z
-x,y,-z
-x,-y,-z
x,-y,z
loop_
_atom_site_type_symbol
_atom_site_label
_atom_site_fract_x
_atom_site_fract_y
_atom_site_fract_z
Si Si1 0.333365 0.310927 0.160950
Si Si2 0.565728 0.187241 0.310809
Si Si3 0.012597 0.812688 0.780709
Si Si4 0.294699 0.188776 0.776642
Si Si5 0.798035 0.688665 0.743609
Si Si6 0.612993 0.688861 0.518018
Si Si7 0.054821 0.190103 0.613937
Si Si8 0.753427 0.312725 0.066804
O O1 0.340574 0.500000 0.165862
O O2 0.445577 0.244247 0.247009
O O3 0.246009 0.265295 0.186043
O O4 0.302091 0.260050 0.049437
O O5 0.622608 0.240807 0.252547
O O6 0.619983 0.250666 0.424846
O O7 0.570093 0.000000 0.315063
O O8 0.912855 0.754355 0.782160
O O9 0.000075 0.762584 0.674575
O O10 0.126088 0.748210 0.868519
O O11 0.017763 0.000000 0.785811
O O12 0.177401 0.234663 0.684464
O O13 0.305014 0.254066 0.877685
O O14 0.297895 0.000000 0.783717
O O15 0.803040 0.500000 0.743354
O O16 0.710450 0.739303 0.628162
O O17 0.500000 0.739557 0.500000
O O18 0.612094 0.500000 0.516437
O O19 0.000000 0.249797 0.500000
O O20 0.052067 0.000000 0.609746
O O21 0.755608 0.500000 0.068828
#
# Coordination Sequence:
#
# PCOD9151212 Si02
#       8
#     4   4   4   4   4   4   4   4
#     4  10  22  41  61  81 110 152 197 238 285 339
#     4  11  23  36  57  88 119 151 189 237 286 343
#     4  10  21  36  57  84 117 149 182 234 290 340
#     4   9  20  37  55  81 117 151 183 229 291 342
#     4  10  21  38  59  82 113 152 194 233 278 339
#     4  10  20  38  60  80 114 159 192 232 285 334
#     4   8  15  30  52  74 102 144 183 216 265 330
#     4  10  21  39  63  84 108 147 195 243 282 335
#
# _framework density 18.938644
#
# number of rings (size 3 to 8) (size 9 to 14) (size 15 to 20)
#    0.000    2.250    1.250    1.875    1.750    4.250 
#    0.000    5.000    0.000    1.875    0.000    0.000 
#    0.000    0.000    0.000    0.000    0.000    0.000 
#
# Total GULP energy -178620.399688 kJ/mol
# GULP energy per Si atom -5581.887490 kJ/mol
# Density = 1.889554 g / cm^3
# Si number density = 18.938644 Si / 1000 Ang^3
#
#
#
# Elastic Constant Matrix: (Units=GPa)
#
#
# Indices 1 2 3 4 5 6 
#
# 1 82.3973 10.2984 -5.2060 0.0000 -27.7534 0.0000
# 2 10.2984 13.1933 10.7833 0.0000 -7.0277 0.0000
# 3 -5.2060 10.7833 82.9677 0.0000 -26.9231 0.0000
# 4 0.0000 0.0000 0.0000 731.2488 0.0000 39.5026
# 5 -27.7534 -7.0277 -26.9231 0.0000 21.7806 0.0000
# 6 0.0000 0.0000 0.0000 39.5026 0.0000 26.6409
#
#
#
# Elastic Compliance Matrix: (Units=1/GPa)
#
#
# Indices 1 2 3 4 5 6 
#
# 1 0.067674 -0.018799 0.054608 0.000000 0.147667 0.000000
# 2 -0.018799 0.097496 -0.019062 0.000000 -0.016058 0.000000
# 3 0.054608 -0.019062 0.064354 0.000000 0.142980 0.000000
# 4 0.000000 0.000000 0.000000 0.001487 0.000000 -0.002204
# 5 0.147667 -0.016058 0.142980 0.000000 0.405631 0.000000
# 6 0.000000 0.000000 0.000000 -0.002204 0.000000 0.040805
#
#
# Mechanical properties :
#
#
# Convention : Reuss Voigt Hill
#
# Bulk Modulus (GPa) = 3.80202 23.36775 13.58489
# Shear Modulus (GPa) = 6.83410 166.77958 86.80684
#
# Velocity S-wave (km/s) = 1.90168 9.39438 6.77756
# Velocity P-wave (km/s) = 2.61414 11.40341 8.27259
#
# Compressibility (1/GPa) = 0.26301804
#
# Stress axis : x y z
#
# Youngs Moduli (GPa) = 14.77674 10.25685 15.53903
#
# Poissons Ratio (x) = 0.19281 -0.84855
# Poissons Ratio (y) = 0.27778 0.29621
# Poissons Ratio (z) = -0.80692 0.19552
#
# Static dielectric constant tensor:
#      x y z
#    x 1.643060 0.000000 -0.020650 
#    y 0.000000 1.646710 0.000000 
#    z -0.020650 0.000000 1.649620 
# 
# From -- ./inp_files/66614.got.cif
#   From: 2010.05.17/outbox.cif.g08.bks.cpg/sg10_34_cif.got.tgz:66614.got - 2010.06.03 11:33:40.
