data_PCOD9151625
_publ_section_title
;
Structure prediction by ZEFSAII (Michael W. Deem and Ramdas Pophale) SiO2 
 PCOD9151625
Probable space group: P 2/M
;
_chemical_formula_sum "Si O2"
_cell_formula_units_Z 20
_cell_length_a 10.024176
_cell_length_b 10.691111
_cell_length_c 13.898823
_cell_angle_alpha 90.000000
_cell_angle_beta 39.014253
_cell_angle_gamma 90.000000
_cell_volume 937.680165
_symmetry_space_group_name_H-M "P 2/M"
_symmetry_group_IT_number 10
_symmetry_cell_setting 'monoclinic'
loop_
_space_group_symop_operation_xyz
x,y,z
-x,y,-z
-x,-y,-z
x,-y,z
loop_
_atom_site_type_symbol
_atom_site_label
_atom_site_fract_x
_atom_site_fract_y
_atom_site_fract_z
Si Si1 0.215024 0.759320 0.818344
Si Si2 0.750695 0.500000 0.118248
Si Si3 0.954031 0.258934 0.302962
Si Si4 0.661224 0.857688 0.835220
Si Si5 0.748348 0.500000 0.890033
Si Si6 0.351181 0.144848 0.375305
O O1 0.320308 0.628351 0.794055
O O2 0.146320 0.749085 0.746303
O O3 0.401572 0.855726 0.734789
O O4 0.000000 0.781659 0.000000
O O5 0.732158 0.500000 0.014825
O O6 0.000000 0.500000 0.000000
O O7 0.773494 0.236697 0.483257
O O8 0.116953 0.147894 0.235323
O O9 0.106316 0.381066 0.223078
O O10 0.674498 0.806791 0.719985
O O11 0.587381 0.000000 0.861244
O O12 0.500000 0.794847 0.000000
O O13 0.500000 0.500000 0.000000
O O14 0.271585 0.000000 0.424904
#
# Coordination Sequence:
#
# PCOD9151625 Si02
#       6
#     4   2   4   4   2   4
#     4  11  22  41  71  96 133 182 229 279 333 402
#     4  10  20  45  67  97 133 169 224 285 339 386
#     4  12  23  41  66  98 137 176 218 278 349 397
#     4  10  22  42  67  92 128 179 229 280 336 398
#     4  12  26  43  72 106 135 175 232 288 331 403
#     4  11  26  44  65 101 142 178 225 284 343 404
#
# _framework density 21.329232999999999
#
# number of rings (size 3 to 8) (size 9 to 14) (size 15 to 20)
#    0.000    1.000    4.000    3.600    2.800    5.200 
#    0.000    4.000    0.000    0.000    0.000    0.000 
#    0.000    0.000    0.000    0.000    0.000    0.000 
#
# Total GULP energy -111585.759289 kJ/mol
# GULP energy per Si atom -5579.287964 kJ/mol
# Density = 2.128069 g / cm^3
# Si number density = 21.329233 Si / 1000 Ang^3
#
#
#
# Elastic Constant Matrix: (Units=GPa)
#
#
# Indices 1 2 3 4 5 6 
#
# 1 115.7610 43.4279 69.3871 0.0000 22.2232 0.0000
# 2 43.4279 83.5166 47.6533 0.0000 11.4127 0.0000
# 3 69.3871 47.6533 171.5742 0.0000 32.1188 0.0000
# 4 0.0000 0.0000 0.0000 6.6345 0.0000 -16.6397
# 5 22.2232 11.4127 32.1188 0.0000 41.4415 0.0000
# 6 0.0000 0.0000 0.0000 -16.6397 0.0000 16.5046
#
#
#
# Elastic Compliance Matrix: (Units=1/GPa)
#
#
# Indices 1 2 3 4 5 6 
#
# 1 0.012918 -0.004331 -0.003448 0.000000 -0.003062 0.000000
# 2 -0.004331 0.015716 -0.002618 0.000000 0.000023 0.000000
# 3 -0.003448 -0.002618 0.008736 0.000000 -0.004201 0.000000
# 4 0.000000 0.000000 0.000000 -0.098606 0.000000 -0.099413
# 5 -0.003062 0.000023 -0.004201 0.000000 0.029022 0.000000
# 6 0.000000 0.000000 0.000000 -0.099413 0.000000 -0.039638
#
#
# Mechanical properties :
#
#
# Convention : Reuss Voigt Hill
#
# Bulk Modulus (GPa) = 60.32696 76.86538 68.59617
# Shear Modulus (GPa) = -109.81418 26.94169 -41.43625
#
# Velocity S-wave (km/s) = -7.18311 3.55792 -4.41239
# Velocity P-wave (km/s) = 6.36011 7.27971 2.50431
#
# Compressibility (1/GPa) = 0.01657634
#
# Stress axis : x y z
#
# Youngs Moduli (GPa) = 77.41137 63.62759 114.46490
#
# Poissons Ratio (x) = 0.27560 0.39467
# Poissons Ratio (y) = 0.33530 0.29965
# Poissons Ratio (z) = 0.26691 0.16657
#
# Static dielectric constant tensor:
#      x y z
#    x 1.736720 0.000000 -0.022340 
#    y 0.000000 1.648410 0.000000 
#    z -0.022340 0.000000 1.792310 
# 
# From -- ./inp_files/41891.got.cif
#   From: 2010.05.17/outbox.cif.g08.bks.cpg/sg10_21_cif.got.tgz:41891.got - 2010.06.03 11:33:40.
