data_PCOD9151500
_publ_section_title
;
Structure prediction by ZEFSAII (Michael W. Deem and Ramdas Pophale) SiO2 
 PCOD9151500
Probable space group: P 2/M
;
_chemical_formula_sum "Si O2"
_cell_formula_units_Z 28
_cell_length_a 9.246262
_cell_length_b 9.377327
_cell_length_c 27.364439
_cell_angle_alpha 90.000000
_cell_angle_beta 142.044489
_cell_angle_gamma 90.000000
_cell_volume 1459.290702
_symmetry_space_group_name_H-M "P 2/M"
_symmetry_group_IT_number 10
_symmetry_cell_setting 'monoclinic'
loop_
_space_group_symop_operation_xyz
x,y,z
-x,y,-z
-x,-y,-z
x,-y,z
loop_
_atom_site_type_symbol
_atom_site_label
_atom_site_fract_x
_atom_site_fract_y
_atom_site_fract_z
Si Si1 0.872448 0.329953 0.305399
Si Si2 0.280190 0.340263 0.566672
Si Si3 0.737486 0.331833 0.162114
Si Si4 0.734269 0.160709 0.530556
Si Si5 0.561048 0.667573 0.742083
Si Si6 0.187854 0.332523 0.007659
Si Si7 0.049478 0.829177 0.873415
O O1 0.909467 0.500000 0.319101
O O2 0.869031 0.291427 0.247343
O O3 0.617751 0.301455 0.261424
O O4 0.068459 0.251879 0.389310
O O5 0.343398 0.500000 0.566314
O O6 0.331780 0.227718 0.538848
O O7 0.413389 0.315763 0.652807
O O8 0.000000 0.337272 0.500000
O O9 0.785543 0.500000 0.164762
O O10 0.816639 0.238018 0.137451
O O11 0.457740 0.319206 0.096479
O O12 0.500000 0.159735 0.500000
O O13 0.822527 0.000000 0.547746
O O14 0.632561 0.500000 0.764642
O O15 0.783963 0.769260 0.800956
O O16 0.149393 0.500000 0.984460
O O17 0.154441 0.235225 0.951336
O O18 0.000000 0.297142 0.000000
O O19 0.059223 0.000000 0.875369
#
# Coordination Sequence:
#
# PCOD9151500 Si02
#       7
#     4   4   4   4   4   4   4
#     4  10  21  41  66  90 115 152 206 258 302 352
#     4  10  20  39  65  90 114 151 206 262 304 349
#     4  10  22  40  65  93 121 158 202 250 299 349
#     4  11  25  40  56  85 127 165 198 243 304 370
#     4  10  21  40  65  90 118 153 204 259 304 354
#     4  10  21  42  71  96 120 154 202 253 298 349
#     4  12  26  40  59  91 131 166 197 239 296 363
#
# _framework density 19.187403
#
# number of rings (size 3 to 8) (size 9 to 14) (size 15 to 20)
#    0.000    1.571    1.429    3.000    2.000    8.000 
#    0.000    1.429    0.000    0.000    0.000    0.000 
#    0.000    0.000    0.000    0.000    0.000    0.000 
#
# Total GULP energy -156489.204610 kJ/mol
# GULP energy per Si atom -5588.900165 kJ/mol
# Density = 1.914373 g / cm^3
# Si number density = 19.187403 Si / 1000 Ang^3
#
#
#
# Elastic Constant Matrix: (Units=GPa)
#
#
# Indices 1 2 3 4 5 6 
#
# 1 88.9443 52.0592 7.7126 0.0000 -19.6395 0.0000
# 2 52.0592 73.6009 24.9474 0.0000 -14.1679 0.0000
# 3 7.7126 24.9474 54.3076 0.0000 -11.3208 0.0000
# 4 0.0000 0.0000 0.0000 -25.5007 0.0000 -7.5349
# 5 -19.6395 -14.1679 -11.3208 0.0000 29.1449 0.0000
# 6 0.0000 0.0000 0.0000 -7.5349 0.0000 39.6954
#
#
#
# Elastic Compliance Matrix: (Units=1/GPa)
#
#
# Indices 1 2 3 4 5 6 
#
# 1 0.022125 -0.015893 0.006154 0.000000 0.009574 0.000000
# 2 -0.015893 0.028325 -0.011008 0.000000 -0.001216 0.000000
# 3 0.006154 -0.011008 0.024314 0.000000 0.008240 0.000000
# 4 0.000000 0.000000 0.000000 -0.037132 0.000000 -0.007048
# 5 0.009574 -0.001216 0.008240 0.000000 0.043372 0.000000
# 6 0.000000 0.000000 0.000000 -0.007048 0.000000 0.023854
#
#
# Mechanical properties :
#
#
# Convention : Reuss Voigt Hill
#
# Bulk Modulus (GPa) = 30.05579 42.92124 36.48851
# Shear Modulus (GPa) = 31.75744 17.47683 24.61714
#
# Velocity S-wave (km/s) = 4.07273 3.02130 3.58576
# Velocity P-wave (km/s) = 6.14935 5.88125 6.01679
#
# Compressibility (1/GPa) = 0.03327146
#
# Stress axis : x y z
#
# Youngs Moduli (GPa) = 45.19686 35.30414 41.12814
#
# Poissons Ratio (x) = 0.56108 -0.25312
# Poissons Ratio (y) = 0.71830 0.45275
# Poissons Ratio (z) = -0.27816 0.38864
#
# Static dielectric constant tensor:
#      x y z
#    x 1.745660 0.000000 -0.016350 
#    y 0.000000 1.647350 0.000000 
#    z -0.016350 0.000000 1.656860 
# 
# From -- ./inp_files/34193.got.cif
#   From: 2010.05.17/outbox.cif.g08.bks.cpg/sg10_18_cif.got.tgz:34193.got - 2010.06.03 11:33:40.
