data_PCOD9151601
_publ_section_title
;
Structure prediction by ZEFSAII (Michael W. Deem and Ramdas Pophale) SiO2 
 PCOD9151601
Probable space group: P 2/M
;
_chemical_formula_sum "Si O2"
_cell_formula_units_Z 19
_cell_length_a 5.262954
_cell_length_b 26.880902
_cell_length_c 5.216517
_cell_angle_alpha 90.000000
_cell_angle_beta 87.682762
_cell_angle_gamma 90.000000
_cell_volume 737.392575
_symmetry_space_group_name_H-M "P 2/M"
_symmetry_group_IT_number 10
_symmetry_cell_setting 'monoclinic'
loop_
_space_group_symop_operation_xyz
x,y,z
-x,y,-z
-x,-y,-z
x,-y,z
loop_
_atom_site_type_symbol
_atom_site_label
_atom_site_fract_x
_atom_site_fract_y
_atom_site_fract_z
Si Si1 0.175109 0.394474 0.739253
Si Si2 0.500000 0.000000 0.000000
Si Si3 0.817984 0.500000 0.256444
Si Si4 0.743766 0.179373 0.177661
Si Si5 0.755363 0.069490 0.347303
Si Si6 0.739055 0.285314 0.173306
O O1 0.326752 0.446892 0.745210
O O2 0.295839 0.340007 0.707939
O O3 0.000000 0.398479 0.500000
O O4 0.000000 0.393253 0.000000
O O5 0.708809 0.043781 0.076632
O O6 0.000000 0.500000 0.500000
O O7 0.000000 0.500000 0.000000
O O8 0.749293 0.129104 0.336922
O O9 0.744978 0.232829 0.323274
O O10 0.500000 0.176405 0.000000
O O11 0.000000 0.178693 0.000000
O O12 0.500000 0.051885 0.500000
O O13 0.000000 0.054671 0.500000
O O14 0.500000 0.280072 0.000000
O O15 0.000000 0.286990 0.000000
#
# Coordination Sequence:
#
# PCOD9151601 Si02
#       6
#     4   1   2   4   4   4
#     4   9  17  32  54  84 121 162 214 266 328 391
#     4  12  28  50  72  92 146 172 214 272 334 378
#     4   8  14  26  49  78 114 160 206 264 322 388
#     4  10  20  41  67  92 130 169 204 263 327 381
#     4  12  27  45  71 103 130 172 224 266 328 397
#     4   9  19  36  61  91 125 164 210 258 321 388
#
# _framework density 25.766463999999999
#
# number of rings (size 3 to 8) (size 9 to 14) (size 15 to 20)
#    0.000    2.105    1.053    1.895    0.000    1.684 
#    0.000    8.947    0.000    0.000    0.000   22.105 
#    0.000    0.000    0.000    0.000    0.000    0.000 
#
# Total GULP energy -105892.649179 kJ/mol
# GULP energy per Si atom -5573.297325 kJ/mol
# Density = 2.570782 g / cm^3
# Si number density = 25.766464 Si / 1000 Ang^3
#
#
#
# Elastic Constant Matrix: (Units=GPa)
#
#
# Indices 1 2 3 4 5 6 
#
# 1 176.1140 20.4833 49.7871 0.0000 17.4390 0.0000
# 2 20.4833 345.1469 14.4400 0.0000 18.5133 0.0000
# 3 49.7871 14.4400 104.3443 0.0000 13.9561 0.0000
# 4 0.0000 0.0000 0.0000 36.3486 0.0000 28.7967
# 5 17.4390 18.5133 13.9561 0.0000 64.7197 0.0000
# 6 0.0000 0.0000 0.0000 28.7967 0.0000 -8.1055
#
#
#
# Elastic Compliance Matrix: (Units=1/GPa)
#
#
# Indices 1 2 3 4 5 6 
#
# 1 0.006659 -0.000211 -0.003003 0.000000 -0.001086 0.000000
# 2 -0.000211 0.002959 -0.000209 0.000000 -0.000744 0.000000
# 3 -0.003003 -0.000209 0.011254 0.000000 -0.001558 0.000000
# 4 0.000000 0.000000 0.000000 0.007212 0.000000 0.025623
# 5 -0.001086 -0.000744 -0.001558 0.000000 0.016293 0.000000
# 6 0.000000 0.000000 0.000000 0.025623 0.000000 -0.032342
#
#
# Mechanical properties :
#
#
# Convention : Reuss Voigt Hill
#
# Bulk Modulus (GPa) = 71.30096 88.33624 79.81860
# Shear Modulus (GPa) = 212.26522 54.65222 133.45872
#
# Velocity S-wave (km/s) = 9.08621 4.61049 7.20472
# Velocity P-wave (km/s) = 11.73930 7.91834 10.01277
#
# Compressibility (1/GPa) = 0.01402506
#
# Stress axis : x y z
#
# Youngs Moduli (GPa) = 150.16852 338.00616 88.85943
#
# Poissons Ratio (x) = 0.07142 0.26683
# Poissons Ratio (y) = 0.03173 0.01858
# Poissons Ratio (z) = 0.45093 0.07066
#
# Static dielectric constant tensor:
#      x y z
#    x 1.872280 0.000000 -0.091640 
#    y 0.000000 2.175380 0.000000 
#    z -0.091640 0.000000 2.117180 
# 
# From -- ./inp_files/2068.got.cif
#   From: 2010.05.17/outbox.cif.g08.bks.cpg/sg10_2_cif.got.tgz:2068.got - 2010.06.03 11:33:40.
