data_PCOD9151988
_publ_section_title
;
Structure prediction by ZEFSAII (Michael W. Deem and Ramdas Pophale) SiO2 
 PCOD9151988
Probable space group: P 2/M
;
_chemical_formula_sum "Si O2"
_cell_formula_units_Z 28
_cell_length_a 9.020266
_cell_length_b 9.548622
_cell_length_c 29.153084
_cell_angle_alpha 90.000000
_cell_angle_beta 140.671590
_cell_angle_gamma 90.000000
_cell_volume 1591.374740
_symmetry_space_group_name_H-M "P 2/M"
_symmetry_group_IT_number 10
_symmetry_cell_setting 'monoclinic'
loop_
_space_group_symop_operation_xyz
x,y,z
-x,y,-z
-x,-y,-z
x,-y,z
loop_
_atom_site_type_symbol
_atom_site_label
_atom_site_fract_x
_atom_site_fract_y
_atom_site_fract_z
Si Si1 0.826320 0.335270 0.859376
Si Si2 0.470561 0.335270 0.859376
Si Si3 0.116218 0.833273 0.576177
Si Si4 0.819263 0.161120 0.000000
Si Si5 0.764667 0.833273 0.576177
Si Si6 0.408980 0.333426 0.293270
Si Si7 0.942629 0.333426 0.706730
O O1 0.891036 0.500000 0.873391
O O2 0.626783 0.320183 0.850713
O O3 0.718226 0.294630 0.784709
O O4 0.045749 0.243192 0.927689
O O5 0.475920 0.500000 0.873391
O O6 0.592696 0.243191 0.927689
O O7 0.205320 0.294631 0.784709
O O8 0.353213 0.750525 0.642461
O O9 0.000000 0.792277 0.500000
O O10 0.932614 0.808427 0.573045
O O11 0.164718 0.000000 0.585783
O O12 0.770975 0.000000 0.000000
O O13 0.000000 0.162440 0.000000
O O14 0.500000 0.792278 0.500000
O O15 0.859091 0.750525 0.642461
O O16 0.764196 0.000000 0.585783
O O17 0.458822 0.500000 0.302794
O O18 0.234731 0.308838 0.293892
O O19 0.944850 0.500000 0.697206
#
# Coordination Sequence:
#
# PCOD9151988 Si02
#       7
#     4   4   4   4   4   4   4
#     4   9  17  31  51  73  99 133 171 211 258 310
#     4   9  17  31  51  73  99 133 171 211 258 310
#     4  10  21  37  57  80 106 138 175 214 259 311
#     4   9  17  29  48  75 102 128 166 215 260 305
#     4  10  21  37  57  80 106 138 175 214 259 311
#     4  10  21  36  54  78 107 139 176 217 261 309
#     4  10  21  36  54  78 107 139 176 217 261 309
#
# _framework density 17.594851999999999
#
# number of rings (size 3 to 8) (size 9 to 14) (size 15 to 20)
#    0.000    2.429    0.000    2.143    0.000    6.857 
#    0.000    3.571    0.000    4.286    0.000    0.000 
#    0.000    0.000    0.000    0.000    0.000    0.000 
#
# Total GULP energy -156283.437649 kJ/mol
# GULP energy per Si atom -5581.551345 kJ/mol
# Density = 1.755480 g / cm^3
# Si number density = 17.594852 Si / 1000 Ang^3
#
#
#
# Elastic Constant Matrix: (Units=GPa)
#
#
# Indices 1 2 3 4 5 6 
#
# 1 60.7338 58.2280 88.9041 0.0000 4.6179 0.0000
# 2 58.2280 76.6429 110.9793 0.0000 2.6848 0.0000
# 3 88.9041 110.9793 228.1776 0.0000 3.9041 0.0000
# 4 0.0000 0.0000 0.0000 174.7497 0.0000 7.7730
# 5 4.6179 2.6848 3.9041 0.0000 31.2440 0.0000
# 6 0.0000 0.0000 0.0000 7.7730 0.0000 22.0191
#
#
#
# Elastic Compliance Matrix: (Units=1/GPa)
#
#
# Indices 1 2 3 4 5 6 
#
# 1 0.062614 -0.041223 -0.004257 0.000000 -0.005180 0.000000
# 2 -0.041223 0.071299 -0.018655 0.000000 0.002297 0.000000
# 3 -0.004257 -0.018655 0.015109 0.000000 0.000344 0.000000
# 4 0.000000 0.000000 0.000000 0.005814 0.000000 -0.002052
# 5 -0.005180 0.002297 0.000344 0.000000 0.032531 0.000000
# 6 0.000000 0.000000 0.000000 -0.002052 0.000000 0.046140
#
#
# Mechanical properties :
#
#
# Convention : Reuss Voigt Hill
#
# Bulk Modulus (GPa) = 48.19475 97.97522 73.08498
# Shear Modulus (GPa) = 13.56134 52.76542 33.16338
#
# Velocity S-wave (km/s) = 2.77926 5.48217 4.34618
# Velocity P-wave (km/s) = 6.14410 9.79169 8.17396
#
# Compressibility (1/GPa) = 0.02074915
#
# Stress axis : x y z
#
# Youngs Moduli (GPa) = 15.97087 14.02551 66.18624
#
# Poissons Ratio (x) = 0.57818 0.28179
# Poissons Ratio (y) = 0.65837 1.23472
# Poissons Ratio (z) = 0.06800 0.26165
#
# Static dielectric constant tensor:
#      x y z
#    x 1.585920 0.000000 -0.001130 
#    y 0.000000 1.588670 0.000000 
#    z -0.001130 0.000000 1.563750 
# 
# From -- ./inp_files/91954.got.cif
#   From: 2010.05.17/outbox.cif.g08.bks.cpg/sg10_46_cif.got.tgz:91954.got - 2010.06.03 11:33:40.
