data_PCOD9151918
_publ_section_title
;
Structure prediction by ZEFSAII (Michael W. Deem and Ramdas Pophale) SiO2 
 PCOD9151918
Probable space group: P 2/M
;
_chemical_formula_sum "Si O2"
_cell_formula_units_Z 26
_cell_length_a 8.483085
_cell_length_b 11.843410
_cell_length_c 12.124059
_cell_angle_alpha 90.000000
_cell_angle_beta 82.392271
_cell_angle_gamma 90.000000
_cell_volume 1207.365899
_symmetry_space_group_name_H-M "P 2/M"
_symmetry_group_IT_number 10
_symmetry_cell_setting 'monoclinic'
loop_
_space_group_symop_operation_xyz
x,y,z
-x,y,-z
-x,-y,-z
x,-y,z
loop_
_atom_site_type_symbol
_atom_site_label
_atom_site_fract_x
_atom_site_fract_y
_atom_site_fract_z
Si Si1 0.317884 0.000000 0.058900
Si Si2 0.158301 0.729044 0.548327
Si Si3 0.323939 0.631499 0.319914
Si Si4 0.038949 0.248340 0.239732
Si Si5 0.164842 0.870617 0.893366
Si Si6 0.612505 0.000000 0.593845
Si Si7 0.120741 0.000000 0.297456
Si Si8 0.587841 0.198323 0.314682
O O1 0.260137 0.000000 0.189608
O O2 0.500000 0.000000 0.000000
O O3 0.238121 0.890475 0.007117
O O4 0.244349 0.653101 0.448132
O O5 0.299352 0.804220 0.587479
O O6 0.000000 0.771834 0.500000
O O7 0.081014 0.681484 0.669356
O O8 0.323401 0.500000 0.295271
O O9 0.211093 0.698729 0.243739
O O10 0.501462 0.682390 0.306772
O O11 0.962022 0.224835 0.127674
O O12 0.035493 0.119502 0.288021
O O13 0.307908 0.844381 0.796610
O O14 0.102696 0.000000 0.877815
O O15 0.500000 0.000000 0.500000
O O16 0.800586 0.000000 0.588198
O O17 0.557012 0.886805 0.659222
#
# Coordination Sequence:
#
# PCOD9151918 Si02
#       8
#     2   4   4   4   4   2   2   4
#     4  10  21  35  63  98 126 160 192 244 314 375
#     4   9  21  36  51  78 112 157 208 246 301 356
#     4  11  23  39  58  80 116 168 225 263 293 353
#     4  10  21  36  58  86 122 157 194 252 310 367
#     4   9  19  37  57  90 130 148 189 249 313 375
#     4  12  22  30  52  86 126 160 185 242 295 364
#     4  12  21  37  61  91 129 154 201 243 299 391
#     4  11  20  36  56  84 120 162 203 253 307 370
#
# _framework density 21.534483999999999
#
# number of rings (size 3 to 8) (size 9 to 14) (size 15 to 20)
#    0.462    1.231    3.077    2.308    2.154    5.231 
#    0.000    8.462    0.000    0.000    0.000    4.308 
#    0.000    0.000    0.000    0.000    0.000    0.000 
#
# Total GULP energy -144761.147627 kJ/mol
# GULP energy per Si atom -5567.736447 kJ/mol
# Density = 2.148547 g / cm^3
# Si number density = 21.534484 Si / 1000 Ang^3
#
#
#
# Elastic Constant Matrix: (Units=GPa)
#
#
# Indices 1 2 3 4 5 6 
#
# 1 96.8482 24.4805 28.0314 0.0000 11.0213 0.0000
# 2 24.4805 80.6221 10.4501 0.0000 7.1650 0.0000
# 3 28.0314 10.4501 72.8240 0.0000 7.6795 0.0000
# 4 0.0000 0.0000 0.0000 11.6484 0.0000 0.7487
# 5 11.0213 7.1650 7.6795 0.0000 39.9849 0.0000
# 6 0.0000 0.0000 0.0000 0.7487 0.0000 12.7562
#
#
#
# Elastic Compliance Matrix: (Units=1/GPa)
#
#
# Indices 1 2 3 4 5 6 
#
# 1 0.012551 -0.003084 -0.004166 0.000000 -0.002107 0.000000
# 2 -0.003084 0.013548 -0.000603 0.000000 -0.001462 0.000000
# 3 -0.004166 -0.000603 0.015606 0.000000 -0.001741 0.000000
# 4 0.000000 0.000000 0.000000 0.086174 0.000000 -0.005058
# 5 -0.002107 -0.001462 -0.001741 0.000000 0.026186 0.000000
# 6 0.000000 0.000000 0.000000 -0.005058 0.000000 0.078690
#
#
# Mechanical properties :
#
#
# Convention : Reuss Voigt Hill
#
# Bulk Modulus (GPa) = 38.46430 41.80203 40.13317
# Shear Modulus (GPa) = 19.44571 25.36672 22.40621
#
# Velocity S-wave (km/s) = 3.00826 3.43586 3.22915
# Velocity P-wave (km/s) = 5.47418 5.93245 5.70792
#
# Compressibility (1/GPa) = 0.02599813
#
# Stress axis : x y z
#
# Youngs Moduli (GPa) = 79.67803 73.81187 64.07991
#
# Poissons Ratio (x) = 0.22761 0.26698
# Poissons Ratio (y) = 0.24570 0.03864
# Poissons Ratio (z) = 0.33196 0.04451
#
# Static dielectric constant tensor:
#      x y z
#    x 1.858150 0.000000 0.007920 
#    y 0.000000 1.762110 0.000000 
#    z 0.007920 0.000000 1.875250 
# 
# From -- ./inp_files/60725.got.cif
#   From: 2010.05.17/outbox.cif.g08.bks.cpg/sg10_31_cif.got.tgz:60725.got - 2010.06.03 11:33:40.
