data_PCOD9151606
_publ_section_title
;
Structure prediction by ZEFSAII (Michael W. Deem and Ramdas Pophale) SiO2 
 PCOD9151606
Probable space group: P 2/M
;
_chemical_formula_sum "Si O2"
_cell_formula_units_Z 19
_cell_length_a 5.358127
_cell_length_b 26.928572
_cell_length_c 5.533301
_cell_angle_alpha 90.000000
_cell_angle_beta 84.198282
_cell_angle_gamma 90.000000
_cell_volume 794.292221
_symmetry_space_group_name_H-M "P 2/M"
_symmetry_group_IT_number 10
_symmetry_cell_setting 'monoclinic'
loop_
_space_group_symop_operation_xyz
x,y,z
-x,y,-z
-x,-y,-z
x,-y,z
loop_
_atom_site_type_symbol
_atom_site_label
_atom_site_fract_x
_atom_site_fract_y
_atom_site_fract_z
Si Si1 0.500000 0.500000 0.500000
Si Si2 0.770127 0.787358 0.339315
Si Si3 0.765605 0.680375 0.335127
Si Si4 0.741544 0.572785 0.140888
Si Si5 0.228419 0.000000 0.658764
Si Si6 0.344982 0.893570 0.770641
O O1 0.694575 0.543770 0.391353
O O2 0.500000 0.788513 0.500000
O O3 0.775181 0.734302 0.203527
O O4 0.798607 0.841169 0.216829
O O5 0.000000 0.784040 0.500000
O O6 0.500000 0.679639 0.500000
O O7 0.758692 0.631850 0.172272
O O8 0.000000 0.676208 0.500000
O O9 0.500000 0.559654 0.000000
O O10 0.000000 0.556237 0.000000
O O11 0.500000 0.000000 0.500000
O O12 0.212570 0.947097 0.792265
O O13 0.000000 0.000000 0.500000
O O14 0.500000 0.894090 0.500000
O O15 0.500000 0.891713 0.000000
#
# Coordination Sequence:
#
# PCOD9151606 Si02
#       6
#     1   4   4   4   2   4
#     4  12  28  50  72  96 146 184 218 296 342 406
#     4   9  19  37  63  94 129 172 222 272 342 414
#     4  10  20  41  68  94 133 175 213 277 346 404
#     4  12  27  45  71 104 134 178 235 278 346 420
#     4  10  21  40  64  92 134 180 234 290 352 420
#     4  10  21  40  63  96 133 180 231 290 352 422
#
# _framework density 23.920667999999999
#
# number of rings (size 3 to 8) (size 9 to 14) (size 15 to 20)
#    0.000    1.684    1.053    2.842    0.000    1.684 
#    0.000   25.263    0.000    0.000    0.000    0.000 
#    0.000    0.000    0.000    0.000    0.000    0.000 
#
# Total GULP energy -105868.052708 kJ/mol
# GULP energy per Si atom -5572.002774 kJ/mol
# Density = 2.386622 g / cm^3
# Si number density = 23.920668 Si / 1000 Ang^3
#
#
#
# Elastic Constant Matrix: (Units=GPa)
#
#
# Indices 1 2 3 4 5 6 
#
# 1 178.8809 25.9039 42.8247 0.0000 -16.7980 0.0000
# 2 25.9039 267.2848 20.2539 0.0000 -4.0580 0.0000
# 3 42.8247 20.2539 63.6742 0.0000 -16.9863 0.0000
# 4 0.0000 0.0000 0.0000 24.3816 0.0000 41.3534
# 5 -16.7980 -4.0580 -16.9863 0.0000 57.5139 0.0000
# 6 0.0000 0.0000 0.0000 41.3534 0.0000 187.7884
#
#
#
# Elastic Compliance Matrix: (Units=1/GPa)
#
#
# Indices 1 2 3 4 5 6 
#
# 1 0.006714 -0.000320 -0.004230 0.000000 0.000689 0.000000
# 2 -0.000320 0.003849 -0.001044 0.000000 -0.000130 0.000000
# 3 -0.004230 -0.001044 0.020118 0.000000 0.004633 0.000000
# 4 0.000000 0.000000 0.000000 0.065466 0.000000 -0.014416
# 5 0.000689 -0.000130 0.004633 0.000000 0.018947 0.000000
# 6 0.000000 0.000000 0.000000 -0.014416 0.000000 0.008500
#
#
# Mechanical properties :
#
#
# Convention : Reuss Voigt Hill
#
# Bulk Modulus (GPa) = 51.29916 76.42278 63.86097
# Shear Modulus (GPa) = 35.39065 81.99395 58.69230
#
# Velocity S-wave (km/s) = 3.85060 5.86105 4.95878
# Velocity P-wave (km/s) = 6.42352 8.82158 7.71628
#
# Compressibility (1/GPa) = 0.01949350
#
# Stress axis : x y z
#
# Youngs Moduli (GPa) = 148.94238 259.77678 49.70705
#
# Poissons Ratio (x) = 0.08305 0.21026
# Poissons Ratio (y) = 0.04761 0.05190
# Poissons Ratio (z) = 0.63004 0.27125
#
# Static dielectric constant tensor:
#      x y z
#    x 0.427560 0.000000 0.101690 
#    y 0.000000 1.846750 0.000000 
#    z 0.101690 0.000000 1.888430 
# 
# From -- ./inp_files/2119.got.cif
#   From: 2010.05.17/outbox.cif.g08.bks.cpg/sg10_2_cif.got.tgz:2119.got - 2010.06.03 11:33:40.
