data_PCOD9151536
_publ_section_title
;
Structure prediction by ZEFSAII (Michael W. Deem and Ramdas Pophale) SiO2 
 PCOD9151536
Probable space group: P 2/M
;
_chemical_formula_sum "Si O2"
_cell_formula_units_Z 32
_cell_length_a 11.123320
_cell_length_b 15.279247
_cell_length_c 13.028193
_cell_angle_alpha 90.000000
_cell_angle_beta 134.148133
_cell_angle_gamma 90.000000
_cell_volume 1588.793827
_symmetry_space_group_name_H-M "P 2/M"
_symmetry_group_IT_number 10
_symmetry_cell_setting 'monoclinic'
loop_
_space_group_symop_operation_xyz
x,y,z
-x,y,-z
-x,-y,-z
x,-y,z
loop_
_atom_site_type_symbol
_atom_site_label
_atom_site_fract_x
_atom_site_fract_y
_atom_site_fract_z
Si Si1 0.000796 0.897583 0.302120
Si Si2 0.599152 0.903205 0.820554
Si Si3 0.836519 0.757910 0.453692
Si Si4 0.919922 0.210375 0.065529
Si Si5 0.360179 0.156988 0.840425
Si Si6 0.357928 0.594114 0.327556
Si Si7 0.470743 0.244512 0.603172
Si Si8 0.020011 0.403587 0.887867
O O1 0.030493 0.842885 0.214850
O O2 0.801189 0.887027 0.203826
O O3 0.092028 0.847024 0.450017
O O4 0.044474 0.000000 0.321480
O O5 0.465227 0.908194 0.832099
O O6 0.511700 0.847342 0.679598
O O7 0.653706 0.000000 0.821977
O O8 0.751983 0.844923 0.951293
O O9 0.716389 0.774572 0.285519
O O10 0.712155 0.723266 0.468155
O O11 0.000000 0.712953 0.500000
O O12 0.895686 0.310810 0.088629
O O13 0.000000 0.213428 0.000000
O O14 0.500000 0.194308 0.000000
O O15 0.500000 0.592297 0.500000
O O16 0.364541 0.500000 0.276792
O O17 0.399188 0.679449 0.286100
O O18 0.173011 0.602206 0.263719
O O19 0.500000 0.233450 0.500000
O O20 0.087615 0.500000 0.897362
O O21 0.000000 0.405359 0.000000
#
# Coordination Sequence:
#
# PCOD9151536 Si02
#       8
#     4   4   4   4   4   4   4   4
#     4  11  23  37  56  79 109 152 194 238 280 332
#     4  11  23  37  54  82 116 152 194 239 281 335
#     4   9  22  38  56  82 113 151 197 239 287 338
#     4  11  23  35  53  81 119 150 184 229 287 346
#     4  10  20  40  62  79 102 142 202 251 279 320
#     4   9  18  33  57  85 110 141 186 238 286 335
#     4  10  21  36  59  83 117 155 191 239 289 347
#     4   9  18  34  56  79 110 147 187 233 285 339
#
# _framework density 20.141065000000001
#
# number of rings (size 3 to 8) (size 9 to 14) (size 15 to 20)
#    0.000    2.000    1.250    2.250    5.250    6.000 
#    0.000    0.000    0.000    0.375    0.000    8.750 
#    0.000    0.000    0.000    0.000    0.000    0.000 
#
# Total GULP energy -178197.695391 kJ/mol
# GULP energy per Si atom -5568.677981 kJ/mol
# Density = 2.009522 g / cm^3
# Si number density = 20.141065 Si / 1000 Ang^3
#
#
#
# Elastic Constant Matrix: (Units=GPa)
#
#
# Indices 1 2 3 4 5 6 
#
# 1 81.7627 28.8660 16.6668 0.0000 -5.3763 0.0000
# 2 28.8660 130.0463 14.8764 0.0000 4.5594 0.0000
# 3 16.6668 14.8764 96.2891 0.0000 -4.0234 0.0000
# 4 0.0000 0.0000 0.0000 69.6138 0.0000 59.8069
# 5 -5.3763 4.5594 -4.0234 0.0000 29.8289 0.0000
# 6 0.0000 0.0000 0.0000 59.8069 0.0000 -25.5553
#
#
#
# Elastic Compliance Matrix: (Units=1/GPa)
#
#
# Indices 1 2 3 4 5 6 
#
# 1 0.013822 -0.002954 -0.001823 0.000000 0.002697 0.000000
# 2 -0.002954 0.008515 -0.000886 0.000000 -0.001953 0.000000
# 3 -0.001823 -0.000886 0.010891 0.000000 0.001276 0.000000
# 4 0.000000 0.000000 0.000000 0.004771 0.000000 0.011167
# 5 0.002697 -0.001953 0.001276 0.000000 0.034481 0.000000
# 6 0.000000 0.000000 0.000000 0.011167 0.000000 -0.012998
#
#
# Mechanical properties :
#
#
# Convention : Reuss Voigt Hill
#
# Bulk Modulus (GPa) = 45.65804 47.65739 46.65772
# Shear Modulus (GPa) = 64.01122 31.29008 47.65065
#
# Velocity S-wave (km/s) = 5.64362 3.94578 4.86927
# Velocity P-wave (km/s) = 8.07376 6.66874 7.40465
#
# Compressibility (1/GPa) = 0.02190195
#
# Stress axis : x y z
#
# Youngs Moduli (GPa) = 72.34584 117.43830 91.81741
#
# Poissons Ratio (x) = 0.34692 0.16742
# Poissons Ratio (y) = 0.21372 0.08134
# Poissons Ratio (z) = 0.13192 0.10403
#
# Static dielectric constant tensor:
#      x y z
#    x 1.765360 0.000000 -0.002730 
#    y 0.000000 1.755780 0.000000 
#    z -0.002730 0.000000 1.785930 
# 
# From -- ./inp_files/65102.got.cif
#   From: 2010.05.17/outbox.cif.g08.bks.cpg/sg10_33_cif.got.tgz:65102.got - 2010.06.03 11:33:40.
