data_PCOD9151848
_publ_section_title
;
Structure prediction by ZEFSAII (Michael W. Deem and Ramdas Pophale) SiO2 
 PCOD9151848
Probable space group: P 2/M
;
_chemical_formula_sum "Si O2"
_cell_formula_units_Z 26
_cell_length_a 15.228974
_cell_length_b 7.203182
_cell_length_c 12.765862
_cell_angle_alpha 90.000000
_cell_angle_beta 115.559125
_cell_angle_gamma 90.000000
_cell_volume 1263.337484
_symmetry_space_group_name_H-M "P 2/M"
_symmetry_group_IT_number 10
_symmetry_cell_setting 'monoclinic'
loop_
_space_group_symop_operation_xyz
x,y,z
-x,y,-z
-x,-y,-z
x,-y,z
loop_
_atom_site_type_symbol
_atom_site_label
_atom_site_fract_x
_atom_site_fract_y
_atom_site_fract_z
Si Si1 0.739249 0.725168 0.760802
Si Si2 0.389315 0.000000 0.708476
Si Si3 0.900680 0.274193 0.006983
Si Si4 0.764527 0.722790 0.332034
Si Si5 0.158305 0.274535 0.401337
Si Si6 0.515524 0.278119 0.631536
Si Si7 0.064460 0.274827 0.738837
O O1 0.742102 0.500000 0.759971
O O2 0.808710 0.785445 0.891077
O O3 0.784871 0.785709 0.673338
O O4 0.627009 0.774961 0.714225
O O5 0.330312 0.837507 0.744401
O O6 0.443030 0.838662 0.664570
O O7 0.900128 0.500000 0.007086
O O8 0.903835 0.214982 0.128912
O O9 0.000000 0.218663 0.000000
O O10 0.752417 0.500000 0.321066
O O11 0.789396 0.780593 0.464629
O O12 0.856785 0.774291 0.307806
O O13 0.157947 0.500000 0.400867
O O14 0.045894 0.214611 0.340772
O O15 0.500000 0.244205 0.500000
O O16 0.502465 0.500000 0.641363
O O17 0.061117 0.500000 0.738063
#
# Coordination Sequence:
#
# PCOD9151848 Si02
#       7
#     4   2   4   4   4   4   4
#     4   9  16  27  49  82 115 144 177 226 284 336
#     4  12  23  38  57  77 108 149 189 241 289 320
#     4   9  14  24  47  83 118 144 179 223 271 338
#     4  10  21  35  54  81 111 150 194 228 270 328
#     4   9  15  27  48  77 115 149 178 220 274 336
#     4  10  21  37  58  85 114 145 187 236 286 337
#     4   9  16  28  49  78 115 152 183 223 272 329
#
# _framework density 20.580407000000001
#
# number of rings (size 3 to 8) (size 9 to 14) (size 15 to 20)
#    0.000    2.462    1.538    2.077    0.000    4.308 
#    0.000    1.538    0.000    2.769    0.000    6.462 
#    0.000    0.000    0.000    0.000    0.000    0.308 
#
# Total GULP energy -144772.078164 kJ/mol
# GULP energy per Si atom -5568.156852 kJ/mol
# Density = 2.053357 g / cm^3
# Si number density = 20.580407 Si / 1000 Ang^3
#
#
#
# Elastic Constant Matrix: (Units=GPa)
#
#
# Indices 1 2 3 4 5 6 
#
# 1 99.2889 25.0051 7.3909 0.0000 -3.2075 0.0000
# 2 25.0051 116.4755 0.1964 0.0000 1.2331 0.0000
# 3 7.3909 0.1964 60.5700 0.0000 11.6264 0.0000
# 4 0.0000 0.0000 0.0000 -19.5059 0.0000 -0.6867
# 5 -3.2075 1.2331 11.6264 0.0000 24.2220 0.0000
# 6 0.0000 0.0000 0.0000 -0.6867 0.0000 -34.0994
#
#
#
# Elastic Compliance Matrix: (Units=1/GPa)
#
#
# Indices 1 2 3 4 5 6 
#
# 1 0.010876 -0.002357 -0.001783 0.000000 0.002416 0.000000
# 2 -0.002357 0.009101 0.000448 0.000000 -0.000991 0.000000
# 3 -0.001783 0.000448 0.018478 0.000000 -0.009128 0.000000
# 4 0.000000 0.000000 0.000000 -0.051303 0.000000 0.001033
# 5 0.002416 -0.000991 -0.009128 0.000000 0.046037 0.000000
# 6 0.000000 0.000000 0.000000 0.001033 0.000000 -0.029347
#
#
# Mechanical properties :
#
#
# Convention : Reuss Voigt Hill
#
# Bulk Modulus (GPa) = 32.18457 37.94658 35.06558
# Shear Modulus (GPa) = 231.64618 10.37279 121.00949
#
# Velocity S-wave (km/s) = 10.62078 2.24746 7.67633
# Velocity P-wave (km/s) = 12.88696 5.02125 9.77974
#
# Compressibility (1/GPa) = 0.03107079
#
# Stress axis : x y z
#
# Youngs Moduli (GPa) = 91.94450 109.87396 54.11788
#
# Poissons Ratio (x) = 0.25903 0.09651
# Poissons Ratio (y) = 0.21676 -0.02426
# Poissons Ratio (z) = 0.16396 -0.04926
#
# Static dielectric constant tensor:
#      x y z
#    x 1.701010 0.000000 0.034940 
#    y 0.000000 0.825830 0.000000 
#    z 0.034940 0.000000 1.716900 
# 
# From -- ./inp_files/49458.got.cif
#   From: 2010.05.17/outbox.cif.g08.bks.cpg/sg10_25_cif.got.tgz:49458.got - 2010.06.03 11:33:40.
