data_PCOD9151157
_publ_section_title
;
Structure prediction by ZEFSAII (Michael W. Deem and Ramdas Pophale) SiO2 
 PCOD9151157
Probable space group: P 2/M
;
_chemical_formula_sum "Si O2"
_cell_formula_units_Z 24
_cell_length_a 10.490935
_cell_length_b 17.764202
_cell_length_c 10.405334
_cell_angle_alpha 90.000000
_cell_angle_beta 136.801863
_cell_angle_gamma 90.000000
_cell_volume 1327.407371
_symmetry_space_group_name_H-M "P 2/M"
_symmetry_group_IT_number 10
_symmetry_cell_setting 'monoclinic'
loop_
_space_group_symop_operation_xyz
x,y,z
-x,y,-z
-x,-y,-z
x,-y,z
loop_
_atom_site_type_symbol
_atom_site_label
_atom_site_fract_x
_atom_site_fract_y
_atom_site_fract_z
Si Si1 0.408421 0.161186 0.068073
Si Si2 0.629858 0.659302 0.975141
Si Si3 0.993840 0.590266 0.648297
Si Si4 0.021948 0.909377 0.866853
Si Si5 0.423093 0.409215 0.581281
Si Si6 0.377651 0.090023 0.537918
O O1 0.384589 0.251021 0.049006
O O2 0.538481 0.134409 0.280758
O O3 0.500000 0.138220 0.000000
O O4 0.206713 0.124854 0.942151
O O5 0.548876 0.622211 0.787792
O O6 0.500000 0.635772 0.000000
O O7 0.837921 0.632511 0.158884
O O8 0.016992 0.500000 0.682265
O O9 0.791632 0.612618 0.553124
O O10 0.000000 0.605527 0.500000
O O11 0.834723 0.889998 0.651992
O O12 0.038713 0.000000 0.879586
O O13 0.000000 0.885787 0.000000
O O14 0.500000 0.384202 0.500000
O O15 0.429758 0.500000 0.590693
O O16 0.500000 0.103901 0.500000
O O17 0.388567 0.000000 0.571679
#
# Coordination Sequence:
#
# PCOD9151157 Si02
#       6
#     4   4   4   4   4   4
#     4  11  25  40  56  89 127 160 194 247 303 353
#     4  11  23  40  60  86 122 166 199 238 300 364
#     4  10  20  37  66  92 112 154 209 251 289 348
#     4  10  20  39  66  91 115 152 203 249 291 351
#     4  10  22  40  61  90 123 152 196 257 302 342
#     4  10  20  38  65  88 113 154 199 243 293 354
#
# _framework density 18.080358
#
# number of rings (size 3 to 8) (size 9 to 14) (size 15 to 20)
#    0.000    1.667    3.333    1.000    0.000    5.333 
#    3.000    4.167    0.000    0.000    0.000    0.000 
#    0.000    0.000    0.000    0.000    0.000    0.000 
#
# Total GULP energy -134086.863151 kJ/mol
# GULP energy per Si atom -5586.952631 kJ/mol
# Density = 1.803921 g / cm^3
# Si number density = 18.080358 Si / 1000 Ang^3
#
#
#
# Elastic Constant Matrix: (Units=GPa)
#
#
# Indices 1 2 3 4 5 6 
#
# 1 180.6000 49.0071 113.3342 0.0000 4.9421 0.0000
# 2 49.0071 29.4552 64.8175 0.0000 -0.0420 0.0000
# 3 113.3342 64.8175 202.3247 0.0000 6.2388 0.0000
# 4 0.0000 0.0000 0.0000 31.8602 0.0000 5.3801
# 5 4.9421 -0.0420 6.2388 0.0000 34.0775 0.0000
# 6 0.0000 0.0000 0.0000 5.3801 0.0000 20.4945
#
#
#
# Elastic Compliance Matrix: (Units=1/GPa)
#
#
# Indices 1 2 3 4 5 6 
#
# 1 0.010207 -0.015234 -0.000796 0.000000 -0.001353 0.000000
# 2 -0.015234 0.139460 -0.036424 0.000000 0.009050 0.000000
# 3 -0.000796 -0.036424 0.017152 0.000000 -0.003070 0.000000
# 4 0.000000 0.000000 0.000000 0.032843 0.000000 -0.008622
# 5 -0.001353 0.009050 -0.003070 0.000000 0.030114 0.000000
# 6 0.000000 0.000000 0.000000 -0.008622 0.000000 0.051057
#
#
# Mechanical properties :
#
#
# Convention : Reuss Voigt Hill
#
# Bulk Modulus (GPa) = 16.15167 96.29972 56.22569
# Shear Modulus (GPa) = 12.30384 29.63453 20.96918
#
# Velocity S-wave (km/s) = 2.61149 4.05291 3.40924
# Velocity P-wave (km/s) = 4.24804 8.67635 6.83099
#
# Compressibility (1/GPa) = 0.06191311
#
# Stress axis : x y z
#
# Youngs Moduli (GPa) = 97.97034 7.17049 58.30317
#
# Poissons Ratio (x) = 0.10923 0.04639
# Poissons Ratio (y) = 1.49245 2.12362
# Poissons Ratio (z) = 0.07794 0.26118
#
# Static dielectric constant tensor:
#      x y z
#    x 1.609500 0.000000 0.000970 
#    y 0.000000 1.602430 0.000000 
#    z 0.000970 0.000000 1.586760 
# 
# From -- ./inp_files/20262.got.cif
#   From: 2010.05.17/outbox.cif.g08.bks.cpg/sg10_11_cif.got.tgz:20262.got - 2010.06.03 11:33:40.
