data_PCOD9151160
_publ_section_title
;
Structure prediction by ZEFSAII (Michael W. Deem and Ramdas Pophale) SiO2 
 PCOD9151160
Probable space group: P 2/M
;
_chemical_formula_sum "Si O2"
_cell_formula_units_Z 32
_cell_length_a 9.316280
_cell_length_b 23.603824
_cell_length_c 14.880198
_cell_angle_alpha 90.000000
_cell_angle_beta 150.504216
_cell_angle_gamma 90.000000
_cell_volume 1611.075696
_symmetry_space_group_name_H-M "P 2/M"
_symmetry_group_IT_number 10
_symmetry_cell_setting 'monoclinic'
loop_
_space_group_symop_operation_xyz
x,y,z
-x,y,-z
-x,-y,-z
x,-y,z
loop_
_atom_site_type_symbol
_atom_site_label
_atom_site_fract_x
_atom_site_fract_y
_atom_site_fract_z
Si Si1 0.816504 0.333662 0.811813
Si Si2 0.317676 0.064216 0.630064
Si Si3 0.789565 0.435692 0.268105
Si Si4 0.135469 0.323358 0.482716
Si Si5 0.656202 0.932385 0.992577
Si Si6 0.182608 0.877361 0.367045
Si Si7 0.854841 0.250116 0.682596
Si Si8 0.868670 0.435882 0.096576
O O1 0.483407 0.325173 0.660038
O O2 0.940242 0.281031 0.821176
O O3 0.000000 0.340300 0.000000
O O4 0.883775 0.390660 0.792138
O O5 0.526961 0.087237 0.825297
O O6 0.245190 0.100680 0.501967
O O7 0.000000 0.058606 0.500000
O O8 0.418523 0.000000 0.659703
O O9 0.845076 0.500000 0.328836
O O10 0.457481 0.420472 0.116200
O O11 0.012218 0.386865 0.414359
O O12 0.818314 0.437436 0.175782
O O13 0.039680 0.288624 0.342480
O O14 0.000000 0.297258 0.500000
O O15 0.612411 0.000000 0.965586
O O16 0.500000 0.911640 0.000000
O O17 0.986939 0.917290 0.196912
O O18 0.500000 0.874217 0.500000
O O19 0.054038 0.813990 0.287829
O O20 0.500000 0.251376 0.500000
O O21 0.939218 0.500000 0.104704
#
# Coordination Sequence:
#
# PCOD9151160 Si02
#       8
#     4   4   4   4   4   4   4   4
#     4  11  22  40  62  85 116 158 197 245 306 365
#     4  10  20  37  66  95 127 170 205 246 309 372
#     4   9  18  34  58  87 118 149 190 246 300 358
#     4  11  22  39  61  86 114 152 200 249 299 358
#     4  10  20  38  63  94 128 164 208 250 302 372
#     4  11  23  41  62  91 127 166 207 264 313 357
#     4   9  22  44  60  81 119 160 200 248 303 358
#     4   9  18  34  59  88 118 152 191 242 304 367
#
# _framework density 19.862504999999999
#
# number of rings (size 3 to 8) (size 9 to 14) (size 15 to 20)
#    0.000    2.000    2.500    1.875    0.000    3.000 
#    6.750    3.750    0.000    0.000    0.000    0.000 
#    0.000    0.000    0.000    0.000    0.000    0.000 
#
# Total GULP energy -178181.687189 kJ/mol
# GULP energy per Si atom -5568.177725 kJ/mol
# Density = 1.981730 g / cm^3
# Si number density = 19.862505 Si / 1000 Ang^3
#
#
#
# Elastic Constant Matrix: (Units=GPa)
#
#
# Indices 1 2 3 4 5 6 
#
# 1 92.6972 37.1078 17.7239 0.0000 -4.6431 0.0000
# 2 37.1078 48.0193 1.1245 0.0000 -5.3078 0.0000
# 3 17.7239 1.1245 60.4385 0.0000 -10.8106 0.0000
# 4 0.0000 0.0000 0.0000 25.8290 0.0000 22.9656
# 5 -4.6431 -5.3078 -10.8106 0.0000 27.7429 0.0000
# 6 0.0000 0.0000 0.0000 22.9656 0.0000 -11.0932
#
#
#
# Elastic Compliance Matrix: (Units=1/GPa)
#
#
# Indices 1 2 3 4 5 6 
#
# 1 0.016925 -0.013143 -0.005011 0.000000 -0.001635 0.000000
# 2 -0.013143 0.031487 0.004248 0.000000 0.005480 0.000000
# 3 -0.005011 0.004248 0.019275 0.000000 0.007485 0.000000
# 4 0.000000 0.000000 0.000000 0.013629 0.000000 0.028215
# 5 -0.001635 0.005480 0.007485 0.000000 0.039737 0.000000
# 6 0.000000 0.000000 0.000000 0.028215 0.000000 -0.031733
#
#
# Mechanical properties :
#
#
# Convention : Reuss Voigt Hill
#
# Bulk Modulus (GPa) = 25.07706 34.78525 29.93116
# Shear Modulus (GPa) = 38.33664 18.17566 28.25615
#
# Velocity S-wave (km/s) = 4.39806 3.02830 3.77581
# Velocity P-wave (km/s) = 6.20026 5.45697 5.84045
#
# Compressibility (1/GPa) = 0.03987709
#
# Stress axis : x y z
#
# Youngs Moduli (GPa) = 59.08342 31.75874 51.88031
#
# Poissons Ratio (x) = 0.41739 0.25998
# Poissons Ratio (y) = 0.77651 -0.22041
# Poissons Ratio (z) = 0.29608 -0.13493
#
# Static dielectric constant tensor:
#      x y z
#    x 1.711620 0.000000 -0.012330 
#    y 0.000000 1.740820 0.000000 
#    z -0.012330 0.000000 1.724560 
# 
# From -- ./inp_files/62720.got.cif
#   From: 2010.05.17/outbox.cif.g08.bks.cpg/sg10_32_cif.got.tgz:62720.got - 2010.06.03 11:33:40.
