data_PCOD9151409
_publ_section_title
;
Structure prediction by ZEFSAII (Michael W. Deem and Ramdas Pophale) SiO2 
 PCOD9151409
Probable space group: P 2/M
;
_chemical_formula_sum "Si O2"
_cell_formula_units_Z 16
_cell_length_a 10.318219
_cell_length_b 10.460942
_cell_length_c 9.912241
_cell_angle_alpha 90.000000
_cell_angle_beta 134.461924
_cell_angle_gamma 90.000000
_cell_volume 763.612222
_symmetry_space_group_name_H-M "P 2/M"
_symmetry_group_IT_number 10
_symmetry_cell_setting 'monoclinic'
loop_
_space_group_symop_operation_xyz
x,y,z
-x,y,-z
-x,-y,-z
x,-y,z
loop_
_atom_site_type_symbol
_atom_site_label
_atom_site_fract_x
_atom_site_fract_y
_atom_site_fract_z
Si Si1 0.265613 0.269891 0.976824
Si Si2 0.088488 0.000000 0.918620
Si Si3 0.299529 0.728201 0.696058
Si Si4 0.835308 0.000000 0.484241
Si Si5 0.713196 0.500000 0.504387
Si Si6 0.731910 0.500000 0.828951
O O1 0.203965 0.128412 0.975186
O O2 0.212641 0.289697 0.781141
O O3 0.483495 0.284647 0.133996
O O4 0.204616 0.376258 0.040072
O O5 0.921575 0.000000 0.693453
O O6 0.000000 0.000000 0.000000
O O7 0.231073 0.624860 0.539018
O O8 0.270110 0.870794 0.622079
O O9 0.000000 0.000000 0.500000
O O10 0.782108 0.500000 0.707932
O O11 0.490648 0.500000 0.339898
#
# Coordination Sequence:
#
# PCOD9151409 Si02
#       6
#     4   2   4   2   2   2
#     4  10  20  40  63  90 116 155 197 241 292 346
#     4  12  27  41  57  85 126 159 191 240 301 352
#     4  10  20  38  67  89 114 152 202 245 284 344
#     4  12  23  41  59  87 120 156 197 244 290 345
#     4   9  19  35  59  93 117 149 195 247 290 339
#     4   9  19  35  59  89 125 148 189 244 296 348
#
# _framework density 20.953043000000001
#
# number of rings (size 3 to 8) (size 9 to 14) (size 15 to 20)
#    0.000    1.750    2.500    1.500    3.500    5.000 
#    0.000    3.750    0.000    0.000    0.000    0.000 
#    0.000    0.000    0.000    0.000    0.000    0.000 
#
# Total GULP energy -89409.580965 kJ/mol
# GULP energy per Si atom -5588.098810 kJ/mol
# Density = 2.090535 g / cm^3
# Si number density = 20.953043 Si / 1000 Ang^3
#
#
#
# Elastic Constant Matrix: (Units=GPa)
#
#
# Indices 1 2 3 4 5 6 
#
# 1 83.2881 43.7864 53.7414 0.0000 -39.9064 0.0000
# 2 43.7864 200.2347 83.5292 0.0000 -49.7062 0.0000
# 3 53.7414 83.5292 136.8982 0.0000 -61.4110 0.0000
# 4 0.0000 0.0000 0.0000 -101.6316 0.0000 -64.2046
# 5 -39.9064 -49.7062 -61.4110 0.0000 54.0675 0.0000
# 6 0.0000 0.0000 0.0000 -64.2046 0.0000 -13.1585
#
#
#
# Elastic Compliance Matrix: (Units=1/GPa)
#
#
# Indices 1 2 3 4 5 6 
#
# 1 0.018981 -0.000490 -0.002181 0.000000 0.011082 0.000000
# 2 -0.000490 0.006975 -0.002751 0.000000 0.002927 0.000000
# 3 -0.002181 -0.002751 0.016275 0.000000 0.014347 0.000000
# 4 0.000000 0.000000 0.000000 0.004725 0.000000 -0.023054
# 5 0.011082 0.002927 0.014347 0.000000 0.045661 0.000000
# 6 0.000000 0.000000 0.000000 -0.023054 0.000000 0.036494
#
#
# Mechanical properties :
#
#
# Convention : Reuss Voigt Hill
#
# Bulk Modulus (GPa) = 31.85939 86.94833 59.40386
# Shear Modulus (GPa) = 33.24073 3.81308 18.52691
#
# Velocity S-wave (km/s) = 3.98733 1.35047 2.97679
# Velocity P-wave (km/s) = 6.03627 6.63465 6.34252
#
# Compressibility (1/GPa) = 0.03138792
#
# Stress axis : x y z
#
# Youngs Moduli (GPa) = 52.68357 143.36299 61.44263
#
# Poissons Ratio (x) = 0.07022 0.13402
# Poissons Ratio (y) = 0.02581 0.16902
# Poissons Ratio (z) = 0.11492 0.39438
#
# Static dielectric constant tensor:
#      x y z
#    x 1.767120 0.000000 0.020820 
#    y 0.000000 0.457100 0.000000 
#    z 0.020820 0.000000 1.741110 
# 
# From -- ./inp_files/22065.got.cif
#   From: 2010.05.17/outbox.cif.g08.bks.cpg/sg10_12_cif.got.tgz:22065.got - 2010.06.03 11:33:40.
