data_PCOD9151296
_publ_section_title
;
Structure prediction by ZEFSAII (Michael W. Deem and Ramdas Pophale) SiO2 
 PCOD9151296
Probable space group: P 2/M
;
_chemical_formula_sum "Si O2"
_cell_formula_units_Z 32
_cell_length_a 14.705242
_cell_length_b 23.472942
_cell_length_c 8.845855
_cell_angle_alpha 90.000000
_cell_angle_beta 29.250892
_cell_angle_gamma 90.000000
_cell_volume 1491.983202
_symmetry_space_group_name_H-M "P 2/M"
_symmetry_group_IT_number 10
_symmetry_cell_setting 'monoclinic'
loop_
_space_group_symop_operation_xyz
x,y,z
-x,y,-z
-x,-y,-z
x,-y,z
loop_
_atom_site_type_symbol
_atom_site_label
_atom_site_fract_x
_atom_site_fract_y
_atom_site_fract_z
Si Si1 0.794673 0.940515 0.724096
Si Si2 0.526048 0.268908 0.283692
Si Si3 0.792398 0.818614 0.736717
Si Si4 0.790698 0.936814 0.365887
Si Si5 0.511943 0.433435 0.148489
Si Si6 0.794698 0.807471 0.370603
Si Si7 0.177930 0.566818 0.850695
Si Si8 0.810345 0.628611 0.854472
O O1 0.707177 0.881001 0.893141
O O2 0.802246 0.939020 0.531575
O O3 0.000000 0.940678 0.500000
O O4 0.703222 0.000000 0.901947
O O5 0.500000 0.264478 0.500000
O O6 0.332080 0.246219 0.494537
O O7 0.670717 0.225160 0.002836
O O8 0.637481 0.327668 0.092937
O O9 0.798768 0.808174 0.547661
O O10 0.000000 0.817322 0.500000
O O11 0.722977 0.871809 0.427287
O O12 0.712521 0.000000 0.432029
O O13 0.000000 0.936712 0.000000
O O14 0.466168 0.500000 0.199327
O O15 0.359074 0.414633 0.492714
O O16 0.500000 0.406025 0.000000
O O17 0.722372 0.425702 0.897816
O O18 0.000000 0.801627 0.000000
O O19 0.201202 0.500000 0.864240
O O20 0.154640 0.608590 0.025849
O O21 0.000000 0.569422 0.000000
O O22 0.000000 0.648605 0.500000
#
# Coordination Sequence:
#
# PCOD9151296 Si02
#       8
#     4   4   4   4   4   4   4   4
#     4   8  14  26  49  81 114 148 186 235 298 367
#     4  12  26  44  62  84 117 161 215 265 311 362
#     4  10  20  38  62  88 119 155 201 252 308 372
#     4   8  14  27  51  85 119 149 187 240 308 382
#     4  10  21  39  66 102 140 174 207 247 299 360
#     4  10  21  39  65  91 119 160 206 258 318 380
#     4  10  21  41  71 105 139 171 204 248 308 374
#     4  12  26  44  66  93 126 167 214 262 312 364
#
# _framework density 21.447962
#
# number of rings (size 3 to 8) (size 9 to 14) (size 15 to 20)
#    0.000    2.000    0.000    3.750    0.000    5.000 
#    0.000    8.125    0.000    3.750    0.000    0.000 
#    0.000    0.000    0.000    0.000    0.000    0.000 
#
# Total GULP energy -178292.777086 kJ/mol
# GULP energy per Si atom -5571.649284 kJ/mol
# Density = 2.139915 g / cm^3
# Si number density = 21.447962 Si / 1000 Ang^3
#
#
#
# Elastic Constant Matrix: (Units=GPa)
#
#
# Indices 1 2 3 4 5 6 
#
# 1 61.7262 21.5454 31.9498 0.0000 -1.4550 0.0000
# 2 21.5454 95.1364 57.6819 0.0000 0.6703 0.0000
# 3 31.9498 57.6819 131.2166 0.0000 -7.8467 0.0000
# 4 0.0000 0.0000 0.0000 57.0475 0.0000 -33.0006
# 5 -1.4550 0.6703 -7.8467 0.0000 27.6277 0.0000
# 6 0.0000 0.0000 0.0000 -33.0006 0.0000 36.3156
#
#
#
# Elastic Compliance Matrix: (Units=1/GPa)
#
#
# Indices 1 2 3 4 5 6 
#
# 1 0.018818 -0.002022 -0.003694 0.000000 -0.000009 0.000000
# 2 -0.002022 0.014678 -0.006091 0.000000 -0.002193 0.000000
# 3 -0.003694 -0.006091 0.011388 0.000000 0.003188 0.000000
# 4 0.000000 0.000000 0.000000 0.036956 0.000000 0.033583
# 5 -0.000009 -0.002193 0.003188 0.000000 0.037154 0.000000
# 6 0.000000 0.000000 0.000000 0.033583 0.000000 0.058053
#
#
# Mechanical properties :
#
#
# Convention : Reuss Voigt Hill
#
# Bulk Modulus (GPa) = 47.01286 56.71481 51.86384
# Shear Modulus (GPa) = 24.06730 35.99162 30.02946
#
# Velocity S-wave (km/s) = 3.35345 4.10089 3.74586
# Velocity P-wave (km/s) = 6.07958 6.99453 6.55304
#
# Compressibility (1/GPa) = 0.02127077
#
# Stress axis : x y z
#
# Youngs Moduli (GPa) = 53.14053 68.13110 87.80805
#
# Poissons Ratio (x) = 0.13777 0.32433
# Poissons Ratio (y) = 0.10746 0.53483
# Poissons Ratio (z) = 0.19628 0.41498
#
# Static dielectric constant tensor:
#      x y z
#    x 13.718380 0.000000 -9.571490 
#    y 0.000000 1.885640 0.000000 
#    z -9.571490 0.000000 9.409180 
# 
# From -- ./inp_files/30552.got.cif
#   From: 2010.05.17/outbox.cif.g08.bks.cpg/sg10_16_cif.got.tgz:30552.got - 2010.06.03 11:33:40.
