data_PCOD9151260
_publ_section_title
;
Structure prediction by ZEFSAII (Michael W. Deem and Ramdas Pophale) SiO2 
 PCOD9151260
Probable space group: P 2/M
;
_chemical_formula_sum "Si O2"
_cell_formula_units_Z 19
_cell_length_a 8.518782
_cell_length_b 21.046963
_cell_length_c 9.746192
_cell_angle_alpha 90.000000
_cell_angle_beta 29.947358
_cell_angle_gamma 90.000000
_cell_volume 872.328483
_symmetry_space_group_name_H-M "P 2/M"
_symmetry_group_IT_number 10
_symmetry_cell_setting 'monoclinic'
loop_
_space_group_symop_operation_xyz
x,y,z
-x,y,-z
-x,-y,-z
x,-y,z
loop_
_atom_site_type_symbol
_atom_site_label
_atom_site_fract_x
_atom_site_fract_y
_atom_site_fract_z
Si Si1 0.132918 0.000000 0.748512
Si Si2 0.794231 0.381279 0.350007
Si Si3 0.513155 0.344417 0.148425
Si Si4 0.531043 0.197805 0.134769
Si Si5 0.000000 0.500000 0.000000
Si Si6 0.186240 0.139712 0.641900
O O1 0.500000 0.000000 0.500000
O O2 0.057479 0.067566 0.739126
O O3 0.000000 0.000000 0.000000
O O4 0.500000 0.347772 0.500000
O O5 0.682686 0.386186 0.593771
O O6 0.119455 0.345181 0.095675
O O7 0.864474 0.444760 0.209583
O O8 0.500000 0.366703 0.000000
O O9 0.417562 0.271105 0.230834
O O10 0.894195 0.185082 0.902204
O O11 0.500000 0.179606 0.000000
O O12 0.308731 0.157922 0.400283
O O13 0.500000 0.144524 0.500000
#
# Coordination Sequence:
#
# PCOD9151260 Si02
#       6
#     2   4   4   4   1   4
#     4  10  20  38  61  88 127 168 207 276 327 366
#     4  12  24  44  73  95 131 171 214 263 315 386
#     4  11  25  44  67  98 134 174 213 264 329 383
#     4  11  24  42  62  92 136 170 204 268 333 378
#     4  12  26  48  72  98 138 168 212 258 344 346
#     4  11  22  39  65  93 124 168 226 264 317 384
#
# _framework density 21.780785999999999
#
# number of rings (size 3 to 8) (size 9 to 14) (size 15 to 20)
#    0.000    0.842    2.105    6.000    0.000    8.421 
#    0.000    6.316    0.000    0.000    0.000    0.000 
#    0.000    0.000    0.000    0.000    0.000    0.000 
#
# Total GULP energy -105845.430210 kJ/mol
# GULP energy per Si atom -5570.812116 kJ/mol
# Density = 2.173121 g / cm^3
# Si number density = 21.780786 Si / 1000 Ang^3
#
#
#
# Elastic Constant Matrix: (Units=GPa)
#
#
# Indices 1 2 3 4 5 6 
#
# 1 61.9094 32.9104 37.7891 0.0000 20.5689 0.0000
# 2 32.9104 68.4405 59.9641 0.0000 30.8414 0.0000
# 3 37.7891 59.9641 185.8869 0.0000 40.7934 0.0000
# 4 0.0000 0.0000 0.0000 39.5758 0.0000 29.7578
# 5 20.5689 30.8414 40.7934 0.0000 54.2040 0.0000
# 6 0.0000 0.0000 0.0000 29.7578 0.0000 -20.4096
#
#
#
# Elastic Compliance Matrix: (Units=1/GPa)
#
#
# Indices 1 2 3 4 5 6 
#
# 1 0.022278 -0.008409 -0.001211 0.000000 -0.002758 0.000000
# 2 -0.008409 0.026877 -0.005157 0.000000 -0.008221 0.000000
# 3 -0.001211 -0.005157 0.007839 0.000000 -0.002506 0.000000
# 4 0.000000 0.000000 0.000000 0.012053 0.000000 0.017574
# 5 -0.002758 -0.008221 -0.002506 0.000000 0.026059 0.000000
# 6 0.000000 0.000000 0.000000 0.017574 0.000000 -0.023373
#
#
# Mechanical properties :
#
#
# Convention : Reuss Voigt Hill
#
# Bulk Modulus (GPa) = 36.44086 64.17380 50.30733
# Shear Modulus (GPa) = 45.27539 27.04559 36.16049
#
# Velocity S-wave (km/s) = 4.56421 3.52762 4.07898
# Velocity P-wave (km/s) = 6.67406 6.79114 6.73285
#
# Compressibility (1/GPa) = 0.02744172
#
# Stress axis : x y z
#
# Youngs Moduli (GPa) = 44.88686 37.20601 127.56315
#
# Poissons Ratio (x) = 0.31286 0.15450
# Poissons Ratio (y) = 0.37744 0.65780
# Poissons Ratio (z) = 0.05437 0.19186
#
# Static dielectric constant tensor:
#      x y z
#    x 1.846670 0.000000 -0.010860 
#    y 0.000000 2.062850 0.000000 
#    z -0.010860 0.000000 1.790020 
# 
# From -- ./inp_files/20625.got.cif
#   From: 2010.05.17/outbox.cif.g08.bks.cpg/sg10_11_cif.got.tgz:20625.got - 2010.06.03 11:33:40.
