data_PCOD9151769
_publ_section_title
;
Structure prediction by ZEFSAII (Michael W. Deem and Ramdas Pophale) SiO2 
 PCOD9151769
Probable space group: P 2/M
;
_chemical_formula_sum "Si O2"
_cell_formula_units_Z 28
_cell_length_a 20.948911
_cell_length_b 9.724421
_cell_length_c 23.826496
_cell_angle_alpha 90.000000
_cell_angle_beta 160.693103
_cell_angle_gamma 90.000000
_cell_volume 1604.815142
_symmetry_space_group_name_H-M "P 2/M"
_symmetry_group_IT_number 10
_symmetry_cell_setting 'monoclinic'
loop_
_space_group_symop_operation_xyz
x,y,z
-x,y,-z
-x,-y,-z
x,-y,z
loop_
_atom_site_type_symbol
_atom_site_label
_atom_site_fract_x
_atom_site_fract_y
_atom_site_fract_z
Si Si1 0.561021 0.667600 0.725390
Si Si2 0.612462 0.332223 0.537487
Si Si3 0.264266 0.655587 0.954753
Si Si4 0.945421 0.156153 0.516294
Si Si5 0.664274 0.344413 0.354760
Si Si6 0.341960 0.843847 0.912833
Si Si7 0.054128 0.332400 0.889759
O O1 0.564235 0.500000 0.728840
O O2 0.498846 0.711235 0.611626
O O3 0.395767 0.707339 0.633290
O O4 0.771776 0.711760 0.923925
O O5 0.500000 0.288333 0.500000
O O6 0.613557 0.500000 0.537852
O O7 0.837185 0.288766 0.724405
O O8 0.212334 0.500000 0.893747
O O9 0.306208 0.751638 0.937213
O O10 0.108337 0.707339 0.870814
O O11 0.460849 0.647408 0.153616
O O12 0.800777 0.248362 0.431782
O O13 0.000000 0.211140 0.500000
O O14 0.142366 0.149048 0.714122
O O15 0.868887 0.000000 0.445299
O O16 0.743428 0.500000 0.424841
O O17 0.401877 0.000000 0.978289
O O18 0.500000 0.788860 0.000000
O O19 0.058049 0.500000 0.893444
#
# Coordination Sequence:
#
# PCOD9151769 Si02
#       7
#     4   4   4   4   4   4   4
#     4   8  15  27  41  61  91 123 157 198 240 283
#     4   9  16  24  38  62  91 127 165 195 235 291
#     4   9  18  32  50  71  94 124 162 201 242 289
#     4  10  21  35  50  69  94 125 159 197 244 293
#     4   9  18  32  50  71  94 124 162 201 242 289
#     4  10  21  35  50  69  94 125 159 197 244 293
#     4   8  15  27  41  61  91 123 157 198 240 283
#
# _framework density 17.447492
#
# number of rings (size 3 to 8) (size 9 to 14) (size 15 to 20)
#    0.000    3.000    0.000    2.571    2.000    3.429 
#    0.000    2.857    0.000    0.000    0.000    0.000 
#    0.000    2.286    0.000    6.286    0.000    6.286 
#
# Total GULP energy -155941.335596 kJ/mol
# GULP energy per Si atom -5569.333414 kJ/mol
# Density = 1.740778 g / cm^3
# Si number density = 17.447492 Si / 1000 Ang^3
#
#
#
# Elastic Constant Matrix: (Units=GPa)
#
#
# Indices 1 2 3 4 5 6 
#
# 1 195.2082 45.4033 75.4548 0.0000 9.6591 0.0000
# 2 45.4033 22.0793 18.5506 0.0000 5.4707 0.0000
# 3 75.4548 18.5506 75.6496 0.0000 14.6984 0.0000
# 4 0.0000 0.0000 0.0000 10.7767 0.0000 -3.7788
# 5 9.6591 5.4707 14.6984 0.0000 35.1442 0.0000
# 6 0.0000 0.0000 0.0000 -3.7788 0.0000 -7.7726
#
#
#
# Elastic Compliance Matrix: (Units=1/GPa)
#
#
# Indices 1 2 3 4 5 6 
#
# 1 0.013031 -0.020336 -0.008631 0.000000 0.003194 0.000000
# 2 -0.020336 0.089133 0.000040 0.000000 -0.008302 0.000000
# 3 -0.008631 0.000040 0.023247 0.000000 -0.007357 0.000000
# 4 0.000000 0.000000 0.000000 0.079278 0.000000 -0.038543
# 5 0.003194 -0.008302 -0.007357 0.000000 0.031946 0.000000
# 6 0.000000 0.000000 0.000000 -0.038543 0.000000 -0.109919
#
#
# Mechanical properties :
#
#
# Convention : Reuss Voigt Hill
#
# Bulk Modulus (GPa) = 14.80243 63.52829 39.16536
# Shear Modulus (GPa) = 24.14422 17.86491 21.00457
#
# Velocity S-wave (km/s) = 3.72401 3.20335 3.47345
# Velocity P-wave (km/s) = 5.19552 7.08323 6.21150
#
# Compressibility (1/GPa) = 0.06755647
#
# Stress axis : x y z
#
# Youngs Moduli (GPa) = 76.74112 11.21919 43.01550
#
# Poissons Ratio (x) = 0.22815 0.37127
# Poissons Ratio (y) = 1.56060 -0.00170
# Poissons Ratio (z) = 0.66236 -0.00044
#
# Static dielectric constant tensor:
#      x y z
#    x 1.602160 0.000000 0.014490 
#    y 0.000000 1.597480 0.000000 
#    z 0.014490 0.000000 1.531040 
# 
# From -- ./inp_files/79497.got.cif
#   From: 2010.05.17/outbox.cif.g08.bks.cpg/sg10_40_cif.got.tgz:79497.got - 2010.06.03 11:33:40.
