data_PCOD9151679
_publ_section_title
;
Structure prediction by ZEFSAII (Michael W. Deem and Ramdas Pophale) SiO2 
 PCOD9151679
Probable space group: P 2/M
;
_chemical_formula_sum "Si O2"
_cell_formula_units_Z 28
_cell_length_a 19.814594
_cell_length_b 8.541378
_cell_length_c 14.748153
_cell_angle_alpha 90.000000
_cell_angle_beta 40.886016
_cell_angle_gamma 90.000000
_cell_volume 1633.795788
_symmetry_space_group_name_H-M "P 2/M"
_symmetry_group_IT_number 10
_symmetry_cell_setting 'monoclinic'
loop_
_space_group_symop_operation_xyz
x,y,z
-x,y,-z
-x,-y,-z
x,-y,z
loop_
_atom_site_type_symbol
_atom_site_label
_atom_site_fract_x
_atom_site_fract_y
_atom_site_fract_z
Si Si1 0.881227 0.309992 0.520223
Si Si2 0.594229 0.815925 0.517395
Si Si3 0.018815 0.811200 0.876130
Si Si4 0.122028 0.689406 0.273851
Si Si5 0.626369 0.683763 0.288746
Si Si6 0.809833 0.813317 0.982197
Si Si7 0.785018 0.687615 0.430663
O O1 0.880278 0.500000 0.521071
O O2 0.846570 0.261852 0.656158
O O3 0.815532 0.257516 0.500952
O O4 0.001236 0.265412 0.386312
O O5 0.634913 0.775725 0.375038
O O6 0.485906 0.726446 0.636710
O O7 0.680605 0.762375 0.499884
O O8 0.575029 0.000000 0.543380
O O9 0.120205 0.734338 0.730891
O O10 0.031067 0.000000 0.859745
O O11 0.918140 0.767897 0.919801
O O12 0.000000 0.767835 0.000000
O O13 0.127840 0.500000 0.262144
O O14 0.184069 0.763248 0.128546
O O15 0.631025 0.500000 0.303851
O O16 0.716572 0.732934 0.129711
O O17 0.799307 0.000000 0.000827
O O18 0.774877 0.500000 0.441148
#
# Coordination Sequence:
#
# PCOD9151679 Si02
#       7
#     4   4   4   4   4   4   4
#     4   8  16  30  52  77 105 139 180 224 264 309
#     4  11  22  38  57  79 109 142 174 218 271 318
#     4  10  21  34  47  69 106 146 176 209 263 322
#     4   9  16  32  53  75 104 143 182 219 264 315
#     4  11  22  38  59  81 103 137 185 226 257 308
#     4  11  21  33  51  79 112 143 175 218 272 321
#     4  11  20  33  54  80 106 138 181 223 261 312
#
# _framework density 17.138003999999999
#
# number of rings (size 3 to 8) (size 9 to 14) (size 15 to 20)
#    0.000    1.857    1.429    6.000    0.000    2.000 
#    0.000    2.857    0.000    0.857    0.000    6.000 
#    0.000    0.000    0.000    0.000    0.000    0.000 
#
# Total GULP energy -156345.562987 kJ/mol
# GULP energy per Si atom -5583.770107 kJ/mol
# Density = 1.709900 g / cm^3
# Si number density = 17.138004 Si / 1000 Ang^3
#
#
#
# Elastic Constant Matrix: (Units=GPa)
#
#
# Indices 1 2 3 4 5 6 
#
# 1 100.4638 -2.0549 10.5700 0.0000 4.4808 0.0000
# 2 -2.0549 24.4697 -4.6281 0.0000 -0.4958 0.0000
# 3 10.5700 -4.6281 28.3650 0.0000 2.5933 0.0000
# 4 0.0000 0.0000 0.0000 34.2377 0.0000 6.7435
# 5 4.4808 -0.4958 2.5933 0.0000 18.5232 0.0000
# 6 0.0000 0.0000 0.0000 6.7435 0.0000 28.8258
#
#
#
# Elastic Compliance Matrix: (Units=1/GPa)
#
#
# Indices 1 2 3 4 5 6 
#
# 1 0.010433 0.000139 -0.003682 0.000000 -0.002005 0.000000
# 2 0.000139 0.042171 0.006816 0.000000 0.000141 0.000000
# 3 -0.003682 0.006816 0.038129 0.000000 -0.004265 0.000000
# 4 0.000000 0.000000 0.000000 0.030618 0.000000 -0.007163
# 5 -0.002005 0.000141 -0.004265 0.000000 0.055072 0.000000
# 6 0.000000 0.000000 0.000000 -0.007163 0.000000 0.036367
#
#
# Mechanical properties :
#
#
# Convention : Reuss Voigt Hill
#
# Bulk Modulus (GPa) = 10.27973 17.89697 14.08835
# Shear Modulus (GPa) = 20.94940 26.27810 23.61375
#
# Velocity S-wave (km/s) = 3.50007 3.92002 3.71598
# Velocity P-wave (km/s) = 4.72707 5.56365 5.16234
#
# Compressibility (1/GPa) = 0.09727883
#
# Stress axis : x y z
#
# Youngs Moduli (GPa) = 95.84528 23.71322 26.22692
#
# Poissons Ratio (x) = -0.00330 0.09657
# Poissons Ratio (y) = -0.01334 -0.17876
# Poissons Ratio (z) = 0.35290 -0.16163
#
# Static dielectric constant tensor:
#      x y z
#    x 1.587050 0.000000 0.010550 
#    y 0.000000 1.577320 0.000000 
#    z 0.010550 0.000000 1.549250 
# 
# From -- ./inp_files/68564.got.cif
#   From: 2010.05.17/outbox.cif.g08.bks.cpg/sg10_35_cif.got.tgz:68564.got - 2010.06.03 11:33:40.
