data_PCOD9151998
_publ_section_title
;
Structure prediction by ZEFSAII (Michael W. Deem and Ramdas Pophale) SiO2 
 PCOD9151998
Probable space group: P 2/M
;
_chemical_formula_sum "Si O2"
_cell_formula_units_Z 28
_cell_length_a 9.868331
_cell_length_b 7.622139
_cell_length_c 29.381864
_cell_angle_alpha 90.000000
_cell_angle_beta 41.021481
_cell_angle_gamma 90.000000
_cell_volume 1450.541202
_symmetry_space_group_name_H-M "P 2/M"
_symmetry_group_IT_number 10
_symmetry_cell_setting 'monoclinic'
loop_
_space_group_symop_operation_xyz
x,y,z
-x,y,-z
-x,-y,-z
x,-y,z
loop_
_atom_site_type_symbol
_atom_site_label
_atom_site_fract_x
_atom_site_fract_y
_atom_site_fract_z
Si Si1 0.822342 0.788518 0.313625
Si Si2 0.041619 0.291257 0.438864
Si Si3 0.809915 0.206259 0.845889
Si Si4 0.132358 0.793408 0.846529
Si Si5 0.507439 0.500000 0.052311
Si Si6 0.518121 0.788664 0.312788
Si Si7 0.732631 0.291798 0.439498
Si Si8 0.011147 0.500000 0.050739
O O1 0.629178 0.726057 0.331395
O O2 0.813508 0.731009 0.367765
O O3 0.031739 0.739007 0.234192
O O4 0.815921 0.000000 0.314656
O O5 0.005113 0.500000 0.450308
O O6 0.282714 0.266044 0.367209
O O7 0.000000 0.218176 0.500000
O O8 0.888175 0.220691 0.438666
O O9 0.613577 0.330295 0.898445
O O10 0.943003 0.224891 0.858658
O O11 0.759862 0.000000 0.853299
O O12 0.334475 0.737661 0.766522
O O13 0.090281 0.669177 0.899536
O O14 0.149834 0.000000 0.853531
O O15 0.500000 0.500000 0.000000
O O16 0.746131 0.500000 0.002051
O O17 0.523483 0.000000 0.312829
O O18 0.500000 0.217535 0.500000
O O19 0.716136 0.500000 0.452124
O O20 0.000000 0.500000 0.000000
#
# Coordination Sequence:
#
# PCOD9151998 Si02
#       8
#     4   4   4   4   2   4   4   2
#     4   9  19  36  57  83 113 147 187 232 290 341
#     4  10  21  36  54  81 113 150 196 237 280 334
#     4   9  19  37  62  91 119 149 194 249 290 341
#     4   9  19  39  63  86 118 156 196 240 291 348
#     4  12  22  38  64  94 115 150 205 232 289 358
#     4   9  19  36  59  84 108 146 194 234 279 341
#     4  10  21  36  54  81 115 151 189 236 289 336
#     4  12  26  42  58  90 123 156 195 238 291 354
#
# _framework density 19.303142000000001
#
# number of rings (size 3 to 8) (size 9 to 14) (size 15 to 20)
#    0.000    2.286    1.429    2.571    2.000    4.000 
#    2.571    0.000    0.000    0.000    0.000    0.000 
#    0.000    0.000    0.000    0.000    0.000    0.000 
#
# Total GULP energy -156283.369377 kJ/mol
# GULP energy per Si atom -5581.548906 kJ/mol
# Density = 1.925921 g / cm^3
# Si number density = 19.303142 Si / 1000 Ang^3
#
#
#
# Elastic Constant Matrix: (Units=GPa)
#
#
# Indices 1 2 3 4 5 6 
#
# 1 153.2737 31.2051 95.4359 0.0000 9.9419 0.0000
# 2 31.2051 59.4442 37.4074 0.0000 6.1567 0.0000
# 3 95.4359 37.4074 122.9286 0.0000 10.5612 0.0000
# 4 0.0000 0.0000 0.0000 44.5151 0.0000 0.8038
# 5 9.9419 6.1567 10.5612 0.0000 28.9058 0.0000
# 6 0.0000 0.0000 0.0000 0.8038 0.0000 14.7234
#
#
#
# Elastic Compliance Matrix: (Units=1/GPa)
#
#
# Indices 1 2 3 4 5 6 
#
# 1 0.012660 -0.000525 -0.009606 0.000000 -0.000733 0.000000
# 2 -0.000525 0.020963 -0.005785 0.000000 -0.002171 0.000000
# 3 -0.009606 -0.005785 0.017513 0.000000 -0.001863 0.000000
# 4 0.000000 0.000000 0.000000 0.022486 0.000000 -0.001228
# 5 -0.000733 -0.002171 -0.001863 0.000000 0.035990 0.000000
# 6 0.000000 0.000000 0.000000 -0.001228 0.000000 0.067986
#
#
# Mechanical properties :
#
#
# Convention : Reuss Voigt Hill
#
# Bulk Modulus (GPa) = 51.80238 73.74924 62.77581
# Shear Modulus (GPa) = 23.16268 29.06873 26.11571
#
# Velocity S-wave (km/s) = 3.46778 3.88481 3.68220
# Velocity P-wave (km/s) = 6.55198 7.64272 7.11827
#
# Compressibility (1/GPa) = 0.01930413
#
# Stress axis : x y z
#
# Youngs Moduli (GPa) = 78.99117 47.70211 57.10187
#
# Poissons Ratio (x) = 0.02505 0.54850
# Poissons Ratio (y) = 0.04148 0.33034
# Poissons Ratio (z) = 0.75876 0.27596
#
# Static dielectric constant tensor:
#      x y z
#    x 1.657230 0.000000 -0.000870 
#    y 0.000000 1.699140 0.000000 
#    z -0.000870 0.000000 1.655670 
# 
# From -- ./inp_files/92035.got.cif
#   From: 2010.05.17/outbox.cif.g08.bks.cpg/sg10_47_cif.got.tgz:92035.got - 2010.06.03 11:33:40.
