data_PCOD9151165
_publ_section_title
;
Structure prediction by ZEFSAII (Michael W. Deem and Ramdas Pophale) SiO2 
 PCOD9151165
Probable space group: P 2/M
;
_chemical_formula_sum "Si O2"
_cell_formula_units_Z 16
_cell_length_a 9.248262
_cell_length_b 10.937398
_cell_length_c 8.915141
_cell_angle_alpha 90.000000
_cell_angle_beta 53.673149
_cell_angle_gamma 90.000000
_cell_volume 726.522677
_symmetry_space_group_name_H-M "P 2/M"
_symmetry_group_IT_number 10
_symmetry_cell_setting 'monoclinic'
loop_
_space_group_symop_operation_xyz
x,y,z
-x,y,-z
-x,-y,-z
x,-y,z
loop_
_atom_site_type_symbol
_atom_site_label
_atom_site_fract_x
_atom_site_fract_y
_atom_site_fract_z
Si Si1 0.455184 0.500000 0.706528
Si Si2 0.032017 0.252633 0.657479
Si Si3 0.294112 0.000000 0.919827
Si Si4 0.901712 0.000000 0.277404
Si Si5 0.842885 0.500000 0.473091
Si Si6 0.359838 0.268323 0.952699
O O1 0.500000 0.500000 0.500000
O O2 0.650782 0.500000 0.666046
O O3 0.367935 0.374683 0.822312
O O4 0.137170 0.376043 0.631157
O O5 0.000000 0.250242 0.500000
O O6 0.140216 0.129838 0.625147
O O7 0.842292 0.262831 0.858272
O O8 0.194450 0.000000 0.822330
O O9 0.397044 0.871755 0.875808
O O10 0.120614 0.000000 0.137212
O O11 0.000000 0.500000 0.500000
O O12 0.500000 0.295672 0.000000
#
# Coordination Sequence:
#
# PCOD9151165 Si02
#       6
#     2   4   2   2   2   4
#     4  12  28  44  65  97 135 167 217 271 328 376
#     4  10  20  37  67  95 123 168 217 258 313 387
#     4   9  21  38  62  95 125 168 213 261 318 385
#     4   9  19  36  59  92 135 157 208 267 318 370
#     4  10  21  40  62  89 124 163 217 255 303 384
#     4  11  22  43  68  93 131 170 209 264 324 382
#
# _framework density 22.022715000000002
#
# number of rings (size 3 to 8) (size 9 to 14) (size 15 to 20)
#    0.000    1.750    0.000    4.875    3.500    0.000 
#    0.000    5.625    0.000    0.000    0.000    0.000 
#    0.000    0.000    0.000    0.000    0.000    0.000 
#
# Total GULP energy -89259.585177 kJ/mol
# GULP energy per Si atom -5578.724074 kJ/mol
# Density = 2.197259 g / cm^3
# Si number density = 22.022715 Si / 1000 Ang^3
#
#
#
# Elastic Constant Matrix: (Units=GPa)
#
#
# Indices 1 2 3 4 5 6 
#
# 1 40.5574 23.6270 14.6226 0.0000 7.4424 0.0000
# 2 23.6270 246.7406 68.3261 0.0000 23.8485 0.0000
# 3 14.6226 68.3261 84.6090 0.0000 6.8291 0.0000
# 4 0.0000 0.0000 0.0000 12.8541 0.0000 -5.6637
# 5 7.4424 23.8485 6.8291 0.0000 30.3020 0.0000
# 6 0.0000 0.0000 0.0000 -5.6637 0.0000 86.3190
#
#
#
# Elastic Compliance Matrix: (Units=1/GPa)
#
#
# Indices 1 2 3 4 5 6 
#
# 1 0.027502 -0.001214 -0.003366 0.000000 -0.005041 0.000000
# 2 -0.001214 0.005601 -0.004055 0.000000 -0.003196 0.000000
# 3 -0.003366 -0.004055 0.015636 0.000000 0.000494 0.000000
# 4 0.000000 0.000000 0.000000 0.080113 0.000000 0.005256
# 5 -0.005041 -0.003196 0.000494 0.000000 0.036643 0.000000
# 6 0.000000 0.000000 0.000000 0.005256 0.000000 0.011930
#
#
# Mechanical properties :
#
#
# Convention : Reuss Voigt Hill
#
# Bulk Modulus (GPa) = 31.77786 65.00648 48.39217
# Shear Modulus (GPa) = 24.36835 43.58377 33.97606
#
# Velocity S-wave (km/s) = 3.33003 4.45346 3.93208
# Velocity P-wave (km/s) = 5.40799 7.48508 6.52966
#
# Compressibility (1/GPa) = 0.03146845
#
# Stress axis : x y z
#
# Youngs Moduli (GPa) = 36.36073 178.54024 63.95640
#
# Poissons Ratio (x) = 0.21681 0.21525
# Poissons Ratio (y) = 0.04415 0.25936
# Poissons Ratio (z) = 0.12238 0.72403
#
# Static dielectric constant tensor:
#      x y z
#    x 1.817030 0.000000 0.020890 
#    y 0.000000 1.909800 0.000000 
#    z 0.020890 0.000000 1.844550 
# 
# From -- ./inp_files/17621.got.cif
#   From: 2010.05.17/outbox.cif.g08.bks.cpg/sg10_9_cif.got.tgz:17621.got - 2010.06.03 11:33:40.
