data_PCOD9151637
_publ_section_title
;
Structure prediction by ZEFSAII (Michael W. Deem and Ramdas Pophale) SiO2 
 PCOD9151637
Probable space group: P 2/M
;
_chemical_formula_sum "Si O2"
_cell_formula_units_Z 26
_cell_length_a 10.447366
_cell_length_b 21.370428
_cell_length_c 5.750131
_cell_angle_alpha 90.000000
_cell_angle_beta 107.886264
_cell_angle_gamma 90.000000
_cell_volume 1221.752575
_symmetry_space_group_name_H-M "P 2/M"
_symmetry_group_IT_number 10
_symmetry_cell_setting 'monoclinic'
loop_
_space_group_symop_operation_xyz
x,y,z
-x,y,-z
-x,-y,-z
x,-y,z
loop_
_atom_site_type_symbol
_atom_site_label
_atom_site_fract_x
_atom_site_fract_y
_atom_site_fract_z
Si Si1 0.342210 0.313587 0.899497
Si Si2 0.928872 0.232348 0.708302
Si Si3 0.650185 0.069479 0.970257
Si Si4 0.500000 0.128916 0.500000
Si Si5 0.855426 0.632950 0.819021
Si Si6 0.361074 0.431074 0.568448
Si Si7 0.710443 0.181098 0.320727
O O1 0.345856 0.372438 0.728266
O O2 0.276231 0.247958 0.792996
O O3 0.500000 0.298802 0.000000
O O4 0.253964 0.338060 0.064218
O O5 0.892161 0.306260 0.683891
O O6 0.799748 0.188246 0.603214
O O7 0.000000 0.218380 0.500000
O O8 0.000000 0.222550 0.000000
O O9 0.614837 0.087149 0.684417
O O10 0.709609 0.000000 0.021947
O O11 0.500000 0.066561 0.000000
O O12 0.730055 0.123155 0.156092
O O13 0.560502 0.172012 0.334117
O O14 0.773156 0.576659 0.659451
O O15 0.000000 0.613196 0.000000
O O16 0.500000 0.424438 0.500000
O O17 0.365620 0.500000 0.682237
#
# Coordination Sequence:
#
# PCOD9151637 Si02
#       7
#     4   4   4   2   4   4   4
#     4  12  24  40  67  98 135 178 225 293 349 414
#     4  11  25  43  69  98 137 179 225 282 350 413
#     4   9  19  36  56  89 133 174 213 270 342 414
#     4  10  21  32  60  98 127 168 218 280 341 410
#     4  11  25  43  68  95 134 175 228 288 354 413
#     4  11  25  44  66  97 135 182 230 281 353 426
#     4  11  23  36  64  94 133 164 228 276 348 402
#
# _framework density 21.280904
#
# number of rings (size 3 to 8) (size 9 to 14) (size 15 to 20)
#    0.000    1.231    3.077    3.462    7.538    1.846 
#    0.000    0.769    0.000    0.923    0.000    0.000 
#    0.000    0.000    0.000    0.000    0.000    0.000 
#
# Total GULP energy -144857.680732 kJ/mol
# GULP energy per Si atom -5571.449259 kJ/mol
# Density = 2.123247 g / cm^3
# Si number density = 21.280904 Si / 1000 Ang^3
#
#
#
# Elastic Constant Matrix: (Units=GPa)
#
#
# Indices 1 2 3 4 5 6 
#
# 1 54.2727 -6.7239 9.9070 0.0000 15.2877 0.0000
# 2 -6.7239 143.6340 52.8057 0.0000 13.1610 0.0000
# 3 9.9070 52.8057 83.3370 0.0000 20.1203 0.0000
# 4 0.0000 0.0000 0.0000 22.9253 0.0000 7.2335
# 5 15.2877 13.1610 20.1203 0.0000 42.2288 0.0000
# 6 0.0000 0.0000 0.0000 7.2335 0.0000 7.0845
#
#
#
# Elastic Compliance Matrix: (Units=1/GPa)
#
#
# Indices 1 2 3 4 5 6 
#
# 1 0.021242 0.002534 -0.002355 0.000000 -0.007358 0.000000
# 2 0.002534 0.009379 -0.006008 0.000000 -0.000978 0.000000
# 3 -0.002355 -0.006008 0.017434 0.000000 -0.005582 0.000000
# 4 0.000000 0.000000 0.000000 0.064352 0.000000 -0.065705
# 5 -0.007358 -0.000978 -0.005582 0.000000 0.029308 0.000000
# 6 0.000000 0.000000 0.000000 -0.065705 0.000000 0.208240
#
#
# Mechanical properties :
#
#
# Convention : Reuss Voigt Hill
#
# Bulk Modulus (GPa) = 27.47400 43.69124 35.58262
# Shear Modulus (GPa) = 13.37811 29.46473 21.42142
#
# Velocity S-wave (km/s) = 2.51000 3.72501 3.17614
# Velocity P-wave (km/s) = 4.61934 6.25110 5.49611
#
# Compressibility (1/GPa) = 0.03639805
#
# Stress axis : x y z
#
# Youngs Moduli (GPa) = 47.07688 106.61835 57.35902
#
# Poissons Ratio (x) = -0.27019 0.13505
# Poissons Ratio (y) = -0.11930 0.34463
# Poissons Ratio (z) = 0.11084 0.64059
#
# Static dielectric constant tensor:
#      x y z
#    x 1.797160 0.000000 0.040150 
#    y 0.000000 1.748330 0.000000 
#    z 0.040150 0.000000 1.892810 
# 
# From -- ./inp_files/7601.got.cif
#   From: 2010.05.17/outbox.cif.g08.bks.cpg/sg10_4_cif.got.tgz:7601.got - 2010.06.03 11:33:40.
