data_PCOD9151804
_publ_section_title
;
Structure prediction by ZEFSAII (Michael W. Deem and Ramdas Pophale) SiO2 
 PCOD9151804
Probable space group: P 2/M
;
_chemical_formula_sum "Si O2"
_cell_formula_units_Z 28
_cell_length_a 9.667168
_cell_length_b 14.423996
_cell_length_c 22.275388
_cell_angle_alpha 90.000000
_cell_angle_beta 150.366268
_cell_angle_gamma 90.000000
_cell_volume 1535.803852
_symmetry_space_group_name_H-M "P 2/M"
_symmetry_group_IT_number 10
_symmetry_cell_setting 'monoclinic'
loop_
_space_group_symop_operation_xyz
x,y,z
-x,y,-z
-x,-y,-z
x,-y,z
loop_
_atom_site_type_symbol
_atom_site_label
_atom_site_fract_x
_atom_site_fract_y
_atom_site_fract_z
Si Si1 0.240364 0.607790 0.641404
Si Si2 0.070230 0.500000 0.796156
Si Si3 0.330678 0.741173 0.257362
Si Si4 0.254210 0.312876 0.360278
Si Si5 0.203208 0.241265 0.728690
Si Si6 0.181214 0.295557 0.009556
Si Si7 0.693297 0.500000 0.980215
Si Si8 0.736038 0.891798 0.356065
O O1 0.278481 0.500000 0.670415
O O2 0.517229 0.654126 0.717825
O O3 0.162610 0.669027 0.669734
O O4 0.000000 0.615936 0.500000
O O5 0.147538 0.500000 0.895701
O O6 0.896852 0.408599 0.714577
O O7 0.363306 0.500000 0.870984
O O8 0.369132 0.731953 0.342653
O O9 0.484079 0.830711 0.288132
O O10 0.006172 0.735898 0.117228
O O11 0.500000 0.330876 0.500000
O O12 0.026204 0.247912 0.306443
O O13 0.515825 0.249453 0.872462
O O14 0.186435 0.153539 0.678483
O O15 0.229718 0.405906 0.024513
O O16 0.000000 0.272544 0.000000
O O17 0.000000 0.880274 0.500000
O O18 0.668704 0.000000 0.325979
#
# Coordination Sequence:
#
# PCOD9151804 Si02
#       8
#     4   2   4   4   4   4   2   4
#     4  10  21  35  51  76 115 157 200 249 296 348
#     4  11  23  38  54  82 119 181 216 244 290 359
#     4  11  23  39  59  90 120 158 206 251 310 366
#     4  12  24  39  59  85 128 169 208 257 307 365
#     4  11  23  39  59  90 120 158 206 251 310 366
#     4  12  22  37  60  83 120 164 212 256 301 348
#     4  11  23  38  54  80 125 173 218 256 282 350
#     4  10  21  43  71  93 118 153 202 264 323 376
#
# _framework density 18.231494999999999
#
# number of rings (size 3 to 8) (size 9 to 14) (size 15 to 20)
#    0.000    1.000    5.714    3.857    4.000    0.571 
#    0.000    2.143    0.000    2.571    0.000    2.000 
#    0.000    0.000    0.000    0.000    0.000    0.000 
#
# Total GULP energy -156575.425754 kJ/mol
# GULP energy per Si atom -5591.979491 kJ/mol
# Density = 1.819000 g / cm^3
# Si number density = 18.231495 Si / 1000 Ang^3
#
#
#
# Elastic Constant Matrix: (Units=GPa)
#
#
# Indices 1 2 3 4 5 6 
#
# 1 54.1546 3.3061 -21.6346 0.0000 0.2211 0.0000
# 2 3.3061 93.8252 14.4372 0.0000 2.1659 0.0000
# 3 -21.6346 14.4372 74.3361 0.0000 1.9907 0.0000
# 4 0.0000 0.0000 0.0000 9.8743 0.0000 1.0572
# 5 0.2211 2.1659 1.9907 0.0000 26.8214 0.0000
# 6 0.0000 0.0000 0.0000 1.0572 0.0000 7.7351
#
#
#
# Elastic Compliance Matrix: (Units=1/GPa)
#
#
# Indices 1 2 3 4 5 6 
#
# 1 0.021176 -0.001737 0.006514 0.000000 -0.000518 0.000000
# 2 -0.001737 0.011143 -0.002651 0.000000 -0.000689 0.000000
# 3 0.006514 -0.002651 0.015890 0.000000 -0.001019 0.000000
# 4 0.000000 0.000000 0.000000 0.102777 0.000000 -0.014047
# 5 -0.000518 -0.000689 -0.001019 0.000000 0.037419 0.000000
# 6 0.000000 0.000000 0.000000 -0.014047 0.000000 0.131200
#
#
# Mechanical properties :
#
#
# Convention : Reuss Voigt Hill
#
# Bulk Modulus (GPa) = 19.06114 23.83704 21.44909
# Shear Modulus (GPa) = 15.02221 23.96663 19.49442
#
# Velocity S-wave (km/s) = 2.87360 3.62964 3.27352
# Velocity P-wave (km/s) = 4.63550 5.53794 5.10669
#
# Compressibility (1/GPa) = 0.05246275
#
# Stress axis : x y z
#
# Youngs Moduli (GPa) = 47.22285 89.74121 62.93079
#
# Poissons Ratio (x) = 0.15584 -0.40994
# Poissons Ratio (y) = 0.08201 0.16684
# Poissons Ratio (z) = -0.30762 0.23792
#
# Static dielectric constant tensor:
#      x y z
#    x 1.625610 0.000000 -0.009260 
#    y 0.000000 1.590080 0.000000 
#    z -0.009260 0.000000 1.654470 
# 
# From -- ./inp_files/29640.got.cif
#   From: 2010.05.17/outbox.cif.g08.bks.cpg/sg10_15_cif.got.tgz:29640.got - 2010.06.03 11:33:40.
