data_PCOD9151559
_publ_section_title
;
Structure prediction by ZEFSAII (Michael W. Deem and Ramdas Pophale) SiO2 
 PCOD9151559
Probable space group: P 2/M
;
_chemical_formula_sum "Si O2"
_cell_formula_units_Z 20
_cell_length_a 9.484528
_cell_length_b 13.288804
_cell_length_c 8.720952
_cell_angle_alpha 90.000000
_cell_angle_beta 80.334325
_cell_angle_gamma 90.000000
_cell_volume 1083.568055
_symmetry_space_group_name_H-M "P 2/M"
_symmetry_group_IT_number 10
_symmetry_cell_setting 'monoclinic'
loop_
_space_group_symop_operation_xyz
x,y,z
-x,y,-z
-x,-y,-z
x,-y,z
loop_
_atom_site_type_symbol
_atom_site_label
_atom_site_fract_x
_atom_site_fract_y
_atom_site_fract_z
Si Si1 0.402803 0.232374 0.880908
Si Si2 0.155672 0.382192 0.895577
Si Si3 0.421113 0.389747 0.349583
Si Si4 0.659251 0.884707 0.400381
Si Si5 0.154822 0.695981 0.544827
O O1 0.270063 0.305085 0.948510
O O2 0.506448 0.305350 0.764862
O O3 0.350385 0.145757 0.776364
O O4 0.500000 0.193128 0.000000
O O5 0.197095 0.500000 0.902602
O O6 0.151022 0.352988 0.715584
O O7 0.000000 0.369860 0.000000
O O8 0.500000 0.387021 0.500000
O O9 0.442204 0.500000 0.277197
O O10 0.256533 0.369686 0.416914
O O11 0.500000 0.872748 0.500000
O O12 0.765668 0.803406 0.454183
O O13 0.703293 0.000000 0.414133
O O14 0.000000 0.704779 0.500000
#
# Coordination Sequence:
#
# PCOD9151559 Si02
#       5
#     4   4   4   4   4
#     4  11  22  37  58  84 116 150 188 238 284 332
#     4  10  22  37  52  80 119 157 189 223 275 335
#     4  11  20  36  58  83 114 153 197 234 275 331
#     4  10  20  40  65  85 108 141 190 245 295 341
#     4  11  22  37  58  84 116 150 188 238 284 332
#
# _framework density 18.457539000000001
#
# number of rings (size 3 to 8) (size 9 to 14) (size 15 to 20)
#    0.000    1.400    6.000    1.200    2.800    4.000 
#    0.000    0.000    0.000    9.600    0.000    0.000 
#    0.000    0.000    0.000    0.000    0.000    0.000 
#
# Total GULP energy -111692.968796 kJ/mol
# GULP energy per Si atom -5584.648440 kJ/mol
# Density = 1.841553 g / cm^3
# Si number density = 18.457539 Si / 1000 Ang^3
#
#
#
# Elastic Constant Matrix: (Units=GPa)
#
#
# Indices 1 2 3 4 5 6 
#
# 1 98.7378 2.3185 -0.3422 0.0000 -4.4230 0.0000
# 2 2.3185 62.3317 -5.5224 0.0000 -9.8261 0.0000
# 3 -0.3422 -5.5224 11.2153 0.0000 -12.5164 0.0000
# 4 0.0000 0.0000 0.0000 5.7121 0.0000 -7.6059
# 5 -4.4230 -9.8261 -12.5164 0.0000 36.6840 0.0000
# 6 0.0000 0.0000 0.0000 -7.6059 0.0000 14.3745
#
#
#
# Elastic Compliance Matrix: (Units=1/GPa)
#
#
# Indices 1 2 3 4 5 6 
#
# 1 0.010238 0.000261 0.003062 0.000000 0.002349 0.000000
# 2 0.000261 0.020686 0.026505 0.000000 0.014616 0.000000
# 3 0.003062 0.026505 0.178682 0.000000 0.068434 0.000000
# 4 0.000000 0.000000 0.000000 0.592544 0.000000 0.313531
# 5 0.002349 0.014616 0.068434 0.000000 0.054808 0.000000
# 6 0.000000 0.000000 0.000000 0.313531 0.000000 0.235466
#
#
# Mechanical properties :
#
#
# Convention : Reuss Voigt Hill
#
# Bulk Modulus (GPa) = 3.71385 18.35474 11.03430
# Shear Modulus (GPa) = 4.45426 23.07617 13.76521
#
# Velocity S-wave (km/s) = 1.55515 3.53970 2.73386
# Velocity P-wave (km/s) = 2.28935 5.16448 3.99456
#
# Compressibility (1/GPa) = 0.26926212
#
# Stress axis : x y z
#
# Youngs Moduli (GPa) = 97.67964 48.34233 5.59652
#
# Poissons Ratio (x) = -0.01261 -0.01714
# Poissons Ratio (y) = -0.02548 -0.14834
# Poissons Ratio (z) = -0.29913 -1.28131
#
# Static dielectric constant tensor:
#      x y z
#    x 1.654660 0.000000 0.014680 
#    y 0.000000 1.619390 0.000000 
#    z 0.014680 0.000000 1.653300 
# 
# From -- ./inp_files/18508.got.cif
#   From: 2010.05.17/outbox.cif.g08.bks.cpg/sg10_10_cif.got.tgz:18508.got - 2010.06.03 11:33:40.
