data_PCOD9151641
_publ_section_title
;
Structure prediction by ZEFSAII (Michael W. Deem and Ramdas Pophale) SiO2 
 PCOD9151641
Probable space group: P 2/M
;
_chemical_formula_sum "Si O2"
_cell_formula_units_Z 32
_cell_length_a 23.742142
_cell_length_b 7.599526
_cell_length_c 12.715953
_cell_angle_alpha 90.000000
_cell_angle_beta 133.931495
_cell_angle_gamma 90.000000
_cell_volume 1652.305127
_symmetry_space_group_name_H-M "P 2/M"
_symmetry_group_IT_number 10
_symmetry_cell_setting 'monoclinic'
loop_
_space_group_symop_operation_xyz
x,y,z
-x,y,-z
-x,-y,-z
x,-y,z
loop_
_atom_site_type_symbol
_atom_site_label
_atom_site_fract_x
_atom_site_fract_y
_atom_site_fract_z
Si Si1 0.006651 0.202292 0.673855
Si Si2 0.479084 0.291540 0.356430
Si Si3 0.312475 0.794531 0.181732
Si Si4 0.647843 0.788109 0.532280
Si Si5 0.163341 0.215215 0.602109
Si Si6 0.783638 0.212078 0.556526
Si Si7 0.819734 0.783892 0.144902
Si Si8 0.956849 0.708881 0.839770
O O1 0.091779 0.278138 0.761920
O O2 0.927297 0.277236 0.520580
O O3 0.990417 0.206797 0.777387
O O4 0.010620 0.000000 0.642883
O O5 0.500000 0.219390 0.500000
O O6 0.469587 0.500000 0.351215
O O7 0.393530 0.218647 0.221652
O O8 0.557248 0.255068 0.392428
O O9 0.328619 0.720468 0.319969
O O10 0.295052 0.000000 0.175449
O O11 0.241403 0.719966 0.021530
O O12 0.708965 0.723297 0.524572
O O13 0.652738 0.000000 0.541751
O O14 0.205698 0.274399 0.550042
O O15 0.200167 0.265372 0.760943
O O16 0.161001 0.000000 0.595138
O O17 0.864125 0.257790 0.720330
O O18 0.778946 0.000000 0.546406
O O19 0.819316 0.000000 0.139874
O O20 0.970044 0.500000 0.848177
O O21 0.000000 0.773461 0.000000
#
# Coordination Sequence:
#
# PCOD9151641 Si02
#       8
#     4   4   4   4   4   4   4   4
#     4   9  17  29  48  69  88 119 161 199 230 266
#     4   9  17  30  47  67  92 122 150 179 223 278
#     4   9  17  28  44  69  96 120 145 184 233 274
#     4   9  17  29  47  71  95 116 147 187 227 274
#     4   8  14  27  45  69  95 119 153 194 232 266
#     4   9  18  31  50  71  90 119 156 193 226 267
#     4   9  16  26  46  72  95 119 152 194 236 274
#     4  10  21  33  43  61  94 130 156 187 232 275
#
# _framework density 19.366883999999999
#
# number of rings (size 3 to 8) (size 9 to 14) (size 15 to 20)
#    0.000    3.000    0.000    1.875    1.750    4.500 
#    0.000    0.625    0.000    9.750    0.000    5.250 
#    0.000    0.000    0.000    0.000    0.000    0.000 
#
# Total GULP energy -178341.483134 kJ/mol
# GULP energy per Si atom -5573.171348 kJ/mol
# Density = 1.932280 g / cm^3
# Si number density = 19.366884 Si / 1000 Ang^3
#
#
#
# Elastic Constant Matrix: (Units=GPa)
#
#
# Indices 1 2 3 4 5 6 
#
# 1 108.7279 -2.1607 33.8329 0.0000 14.8234 0.0000
# 2 -2.1607 44.0918 2.3615 0.0000 -1.1467 0.0000
# 3 33.8329 2.3615 61.5778 0.0000 0.6493 0.0000
# 4 0.0000 0.0000 0.0000 -14.0362 0.0000 -9.7805
# 5 14.8234 -1.1467 0.6493 0.0000 10.3181 0.0000
# 6 0.0000 0.0000 0.0000 -9.7805 0.0000 -25.2854
#
#
#
# Elastic Compliance Matrix: (Units=1/GPa)
#
#
# Indices 1 2 3 4 5 6 
#
# 1 0.014333 0.000593 -0.007687 0.000000 -0.020042 0.000000
# 2 0.000593 0.022820 -0.001219 0.000000 0.001761 0.000000
# 3 -0.007687 -0.001219 0.020408 0.000000 0.009623 0.000000
# 4 0.000000 0.000000 0.000000 -0.097533 0.000000 0.037726
# 5 -0.020042 0.001761 0.009623 0.000000 0.125301 0.000000
# 6 0.000000 0.000000 0.000000 0.037726 0.000000 -0.054141
#
#
# Mechanical properties :
#
#
# Convention : Reuss Voigt Hill
#
# Bulk Modulus (GPa) = 24.42887 31.38501 27.90694
# Shear Modulus (GPa) = 81.35325 6.22357 43.78841
#
# Velocity S-wave (km/s) = 6.48826 1.79457 4.76015
# Velocity P-wave (km/s) = 8.29284 4.53152 6.68229
#
# Compressibility (1/GPa) = 0.04093518
#
# Stress axis : x y z
#
# Youngs Moduli (GPa) = 69.76715 43.82101 48.99983
#
# Poissons Ratio (x) = -0.02598 0.37664
# Poissons Ratio (y) = -0.04136 0.05975
# Poissons Ratio (z) = 0.53628 0.05344
#
# Static dielectric constant tensor:
#      x y z
#    x 1.690880 0.000000 -0.000020 
#    y 0.000000 1.711750 0.000000 
#    z -0.000020 0.000000 1.670000 
# 
# From -- ./inp_files/56443.got.cif
#   From: 2010.05.17/outbox.cif.g08.bks.cpg/sg10_29_cif.got.tgz:56443.got - 2010.06.03 11:33:40.
