data_PCOD9151295
_publ_section_title
;
Structure prediction by ZEFSAII (Michael W. Deem and Ramdas Pophale) SiO2 
 PCOD9151295
Probable space group: P 2/M
;
_chemical_formula_sum "Si O2"
_cell_formula_units_Z 32
_cell_length_a 10.750334
_cell_length_b 8.900365
_cell_length_c 16.419300
_cell_angle_alpha 90.000000
_cell_angle_beta 85.095774
_cell_angle_gamma 90.000000
_cell_volume 1565.278212
_symmetry_space_group_name_H-M "P 2/M"
_symmetry_group_IT_number 10
_symmetry_cell_setting 'monoclinic'
loop_
_space_group_symop_operation_xyz
x,y,z
-x,y,-z
-x,-y,-z
x,-y,z
loop_
_atom_site_type_symbol
_atom_site_label
_atom_site_fract_x
_atom_site_fract_y
_atom_site_fract_z
Si Si1 0.958385 0.672001 0.376314
Si Si2 0.207131 0.176598 0.374676
Si Si3 0.133468 0.817227 0.957652
Si Si4 0.847328 0.824726 0.231167
Si Si5 0.370562 0.181593 0.052893
Si Si6 0.425584 0.175121 0.671094
Si Si7 0.312582 0.325164 0.522893
Si Si8 0.359242 0.678843 0.232440
O O1 0.001544 0.500000 0.379273
O O2 0.929763 0.723709 0.285998
O O3 0.826559 0.682828 0.429927
O O4 0.066362 0.777357 0.404465
O O5 0.299323 0.237514 0.439311
O O6 0.240996 0.257890 0.288525
O O7 0.219332 0.000000 0.365577
O O8 0.251405 0.770384 0.005565
O O9 0.133748 0.000000 0.959177
O O10 0.148651 0.774725 0.862476
O O11 0.000000 0.766657 0.000000
O O12 0.706799 0.819588 0.273871
O O13 0.888604 0.000000 0.233807
O O14 0.365686 0.255118 0.141687
O O15 0.366630 0.000000 0.062158
O O16 0.500000 0.218684 0.000000
O O17 0.402373 0.251577 0.584916
O O18 0.524344 0.260512 0.721352
O O19 0.460220 0.000000 0.659762
O O20 0.342682 0.500000 0.507754
O O21 0.358232 0.500000 0.231047
#
# Coordination Sequence:
#
# PCOD9151295 Si02
#       8
#     4   4   4   4   4   4   4   4
#     4  10  21  37  59  88 124 162 198 244 302 363
#     4  12  25  40  60  86 119 160 206 253 302 360
#     4   9  18  32  55  88 121 154 199 252 304 357
#     4   9  18  34  59  88 117 155 199 247 294 353
#     4  10  21  40  65  91 122 163 209 256 308 372
#     4  10  20  38  62  88 117 154 206 251 296 360
#     4  10  21  39  62  90 124 160 198 246 306 363
#     4  12  26  42  61  88 122 158 201 253 313 368
#
# _framework density 20.443650999999999
#
# number of rings (size 3 to 8) (size 9 to 14) (size 15 to 20)
#    0.000    1.750    0.000    4.500    1.750    6.250 
#    0.000    3.125    0.000    0.750    0.000    0.000 
#    0.000    0.000    0.000    0.000    0.000    0.000 
#
# Total GULP energy -178973.624125 kJ/mol
# GULP energy per Si atom -5592.925754 kJ/mol
# Density = 2.039712 g / cm^3
# Si number density = 20.443651 Si / 1000 Ang^3
#
#
#
# Elastic Constant Matrix: (Units=GPa)
#
#
# Indices 1 2 3 4 5 6 
#
# 1 96.0174 27.0190 32.7228 0.0000 11.1868 0.0000
# 2 27.0190 88.7559 43.7165 0.0000 1.0318 0.0000
# 3 32.7228 43.7165 135.1882 0.0000 12.5458 0.0000
# 4 0.0000 0.0000 0.0000 -39.0004 0.0000 33.0293
# 5 11.1868 1.0318 12.5458 0.0000 26.4389 0.0000
# 6 0.0000 0.0000 0.0000 33.0293 0.0000 12.2341
#
#
#
# Elastic Compliance Matrix: (Units=1/GPa)
#
#
# Indices 1 2 3 4 5 6 
#
# 1 0.012287 -0.002881 -0.001643 0.000000 -0.004307 0.000000
# 2 -0.002881 0.014142 -0.004119 0.000000 0.002622 0.000000
# 3 -0.001643 -0.004119 0.009464 0.000000 -0.003635 0.000000
# 4 0.000000 0.000000 0.000000 -0.007802 0.000000 0.021064
# 5 -0.004307 0.002622 -0.003635 0.000000 0.041268 0.000000
# 6 0.000000 0.000000 0.000000 0.021064 0.000000 0.024872
#
#
# Mechanical properties :
#
#
# Convention : Reuss Voigt Hill
#
# Bulk Modulus (GPa) = 53.74224 58.54198 56.14211
# Shear Modulus (GPa) = 42.47362 14.36808 28.42085
#
# Velocity S-wave (km/s) = 4.56301 2.65394 3.73259
# Velocity P-wave (km/s) = 7.35571 6.17164 6.78954
#
# Compressibility (1/GPa) = 0.01860734
#
# Stress axis : x y z
#
# Youngs Moduli (GPa) = 81.38551 70.70944 105.66234
#
# Poissons Ratio (x) = 0.20373 0.17357
# Poissons Ratio (y) = 0.23449 0.43524
# Poissons Ratio (z) = 0.13369 0.29127
#
# Static dielectric constant tensor:
#      x y z
#    x 1.761850 0.000000 -0.024070 
#    y 0.000000 1.679110 0.000000 
#    z -0.024070 0.000000 1.697820 
# 
# From -- ./inp_files/63771.got.cif
#   From: 2010.05.17/outbox.cif.g08.bks.cpg/sg10_32_cif.got.tgz:63771.got - 2010.06.03 11:33:40.
