data_PCOD9151227
_publ_section_title
;
Structure prediction by ZEFSAII (Michael W. Deem and Ramdas Pophale) SiO2 
 PCOD9151227
Probable space group: P 2/M
;
_chemical_formula_sum "Si O2"
_cell_formula_units_Z 32
_cell_length_a 14.407508
_cell_length_b 11.832842
_cell_length_c 19.142446
_cell_angle_alpha 90.000000
_cell_angle_beta 149.597013
_cell_angle_gamma 90.000000
_cell_volume 1651.556552
_symmetry_space_group_name_H-M "P 2/M"
_symmetry_group_IT_number 10
_symmetry_cell_setting 'monoclinic'
loop_
_space_group_symop_operation_xyz
x,y,z
-x,y,-z
-x,-y,-z
x,-y,z
loop_
_atom_site_type_symbol
_atom_site_label
_atom_site_fract_x
_atom_site_fract_y
_atom_site_fract_z
Si Si1 0.937173 0.797264 0.851101
Si Si2 0.618901 0.367165 0.642122
Si Si3 0.260790 0.124669 0.140930
Si Si4 0.382757 0.248675 0.603329
Si Si5 0.072077 0.128207 0.314756
Si Si6 0.202257 0.631418 0.616819
Si Si7 0.474218 0.627978 0.066725
Si Si8 0.655284 0.129233 0.040851
O O1 0.822531 0.682369 0.772865
O O2 0.821002 0.866749 0.833728
O O3 0.936497 0.849403 0.773884
O O4 0.139991 0.791375 0.015205
O O5 0.500000 0.319583 0.500000
O O6 0.626075 0.500000 0.640633
O O7 0.511731 0.331808 0.642155
O O8 0.474449 0.151146 0.282490
O O9 0.224640 0.000000 0.089499
O O10 0.301557 0.304811 0.619036
O O11 0.216291 0.207712 0.446823
O O12 0.132613 0.000000 0.366012
O O13 0.862290 0.139791 0.204284
O O14 0.181722 0.500000 0.582858
O O15 0.330920 0.635455 0.768107
O O16 0.000000 0.677789 0.500000
O O17 0.397818 0.500000 0.035888
O O18 0.376521 0.749713 0.019439
O O19 0.500000 0.626106 0.000000
O O20 0.647925 0.000000 0.003209
O O21 0.500000 0.127313 0.000000
#
# Coordination Sequence:
#
# PCOD9151227 Si02
#       8
#     4   4   4   4   4   4   4   4
#     4  10  20  38  60  88 114 160 203 248 300 359
#     4  10  20  39  61  88 124 159 201 249 303 363
#     4  10  21  38  60  85 123 158 196 250 309 365
#     4  11  23  38  60  90 122 162 202 249 309 370
#     4  11  22  37  60  89 122 159 211 256 298 372
#     4  10  23  42  62  87 121 161 202 256 315 364
#     4   9  19  38  64  90 114 150 206 260 302 362
#     4   9  20  37  59  86 123 163 198 249 313 365
#
# _framework density 19.375661999999998
#
# number of rings (size 3 to 8) (size 9 to 14) (size 15 to 20)
#    0.000    2.000    1.250    2.250    5.250    0.000 
#    0.000    9.375    0.000    1.875    0.000    0.000 
#    0.000    0.000    0.000    0.000    0.000    0.000 
#
# Total GULP energy -178295.915058 kJ/mol
# GULP energy per Si atom -5571.747346 kJ/mol
# Density = 1.933156 g / cm^3
# Si number density = 19.375662 Si / 1000 Ang^3
#
#
#
# Elastic Constant Matrix: (Units=GPa)
#
#
# Indices 1 2 3 4 5 6 
#
# 1 88.3193 7.0468 39.0556 0.0000 0.9521 0.0000
# 2 7.0468 98.4093 29.6489 0.0000 8.7251 0.0000
# 3 39.0556 29.6489 114.1781 0.0000 0.5438 0.0000
# 4 0.0000 0.0000 0.0000 19.9054 0.0000 4.3791
# 5 0.9521 8.7251 0.5438 0.0000 29.1656 0.0000
# 6 0.0000 0.0000 0.0000 4.3791 0.0000 4.0205
#
#
#
# Elastic Compliance Matrix: (Units=1/GPa)
#
#
# Indices 1 2 3 4 5 6 
#
# 1 0.013366 0.000503 -0.004700 0.000000 -0.000499 0.000000
# 2 0.000503 0.011359 -0.003106 0.000000 -0.003357 0.000000
# 3 -0.004700 -0.003106 0.011168 0.000000 0.000874 0.000000
# 4 0.000000 0.000000 0.000000 0.066069 0.000000 -0.071963
# 5 -0.000499 -0.003357 0.000874 0.000000 0.035291 0.000000
# 6 0.000000 0.000000 0.000000 -0.071963 0.000000 0.327107
#
#
# Mechanical properties :
#
#
# Convention : Reuss Voigt Hill
#
# Bulk Modulus (GPa) = 46.97507 50.26771 48.62139
# Shear Modulus (GPa) = 10.28675 25.62866 17.95770
#
# Velocity S-wave (km/s) = 2.30665 3.64087 3.04767
# Velocity P-wave (km/s) = 5.60278 6.60868 6.12641
#
# Compressibility (1/GPa) = 0.02128789
#
# Stress axis : x y z
#
# Youngs Moduli (GPa) = 74.81489 88.03655 89.53860
#
# Poissons Ratio (x) = -0.04431 0.42087
# Poissons Ratio (y) = -0.03765 0.27809
# Poissons Ratio (z) = 0.35166 0.27342
#
# Static dielectric constant tensor:
#      x y z
#    x 1.663490 0.000000 -0.000060 
#    y 0.000000 1.710910 0.000000 
#    z -0.000060 0.000000 1.679050 
# 
# From -- ./inp_files/78195.got.cif
#   From: 2010.05.17/outbox.cif.g08.bks.cpg/sg10_40_cif.got.tgz:78195.got - 2010.06.03 11:33:40.
