data_PCOD9151673
_publ_section_title
;
Structure prediction by ZEFSAII (Michael W. Deem and Ramdas Pophale) SiO2 
 PCOD9151673
Probable space group: P 2/M
;
_chemical_formula_sum "Si O2"
_cell_formula_units_Z 32
_cell_length_a 12.927281
_cell_length_b 8.406203
_cell_length_c 21.695022
_cell_angle_alpha 90.000000
_cell_angle_beta 54.425035
_cell_angle_gamma 90.000000
_cell_volume 1917.552745
_symmetry_space_group_name_H-M "P 2/M"
_symmetry_group_IT_number 10
_symmetry_cell_setting 'monoclinic'
loop_
_space_group_symop_operation_xyz
x,y,z
-x,y,-z
-x,-y,-z
x,-y,z
loop_
_atom_site_type_symbol
_atom_site_label
_atom_site_fract_x
_atom_site_fract_y
_atom_site_fract_z
Si Si1 0.536617 0.309860 0.180950
Si Si2 0.861569 0.809946 0.826073
Si Si3 0.184540 0.184461 0.905226
Si Si4 0.875563 0.685732 0.498633
Si Si5 0.937853 0.315558 0.932324
Si Si6 0.717509 0.694422 0.663479
Si Si7 0.567129 0.192166 0.912655
Si Si8 0.044407 0.306865 0.333198
O O1 0.546597 0.500000 0.181885
O O2 0.670293 0.234227 0.152850
O O3 0.419418 0.255107 0.264608
O O4 0.500434 0.264731 0.123483
O O5 0.907745 0.733867 0.873522
O O6 0.715366 0.760850 0.863579
O O7 0.945678 0.757951 0.738772
O O8 0.863476 0.000000 0.831752
O O9 0.084205 0.283300 0.899601
O O10 0.166143 0.000000 0.897290
O O11 0.144722 0.215971 0.990034
O O12 0.845031 0.500000 0.498258
O O13 0.763455 0.753147 0.580282
O O14 0.000000 0.688340 0.500000
O O15 0.926239 0.751414 0.416218
O O16 0.907769 0.500000 0.952597
O O17 0.718672 0.500000 0.661197
O O18 0.826415 0.739723 0.675062
O O19 0.560148 0.000000 0.910123
O O20 0.500000 0.238472 0.000000
O O21 0.041182 0.500000 0.333062
#
# Coordination Sequence:
#
# PCOD9151673 Si02
#       8
#     4   4   4   4   4   4   4   4
#     4  11  20  31  50  75 101 129 167 209 246 286
#     4  11  21  32  48  72 104 136 164 200 252 303
#     4  11  22  38  56  74 100 130 162 201 254 303
#     4   7  11  21  41  66  93 127 166 203 243 285
#     4  11  22  38  58  77  95 121 168 216 250 285
#     4   8  14  25  43  70 100 129 164 208 247 283
#     4  10  21  34  46  63  94 135 170 199 241 299
#     4   9  15  27  46  69  97 132 170 206 241 287
#
# _framework density 16.687937000000002
#
# number of rings (size 3 to 8) (size 9 to 14) (size 15 to 20)
#    0.000    2.250    1.250    6.000    0.000    1.750 
#    0.000    0.000    0.000    4.875    0.000    0.875 
#    0.000    7.000    0.000    0.000    0.000    0.000 
#
# Total GULP energy -178460.292570 kJ/mol
# GULP energy per Si atom -5576.884143 kJ/mol
# Density = 1.664995 g / cm^3
# Si number density = 16.687937 Si / 1000 Ang^3
#
#
#
# Elastic Constant Matrix: (Units=GPa)
#
#
# Indices 1 2 3 4 5 6 
#
# 1 34.8673 -2.6844 11.2894 0.0000 -9.3582 0.0000
# 2 -2.6844 19.2009 -3.0857 0.0000 -0.8285 0.0000
# 3 11.2894 -3.0857 74.5396 0.0000 -17.2003 0.0000
# 4 0.0000 0.0000 0.0000 45.7065 0.0000 3.5095
# 5 -9.3582 -0.8285 -17.2003 0.0000 20.4041 0.0000
# 6 0.0000 0.0000 0.0000 3.5095 0.0000 20.1112
#
#
#
# Elastic Compliance Matrix: (Units=1/GPa)
#
#
# Indices 1 2 3 4 5 6 
#
# 1 0.033385 0.005027 -0.001574 0.000000 0.014189 0.000000
# 2 0.005027 0.053586 0.003093 0.000000 0.007088 0.000000
# 3 -0.001574 0.003093 0.016940 0.000000 0.013683 0.000000
# 4 0.000000 0.000000 0.000000 0.022176 0.000000 -0.003870
# 5 0.014189 0.007088 0.013683 0.000000 0.067340 0.000000
# 6 0.000000 0.000000 0.000000 -0.003870 0.000000 0.050399
#
#
# Mechanical properties :
#
#
# Convention : Reuss Voigt Hill
#
# Bulk Modulus (GPa) = 8.54691 15.51628 12.03159
# Shear Modulus (GPa) = 18.53666 25.45027 21.99346
#
# Velocity S-wave (km/s) = 3.33645 3.90945 3.63426
# Velocity P-wave (km/s) = 4.46937 5.44945 4.98356
#
# Compressibility (1/GPa) = 0.11700140
#
# Stress axis : x y z
#
# Youngs Moduli (GPa) = 29.95355 18.66145 59.03314
#
# Poissons Ratio (x) = -0.09380 0.09293
# Poissons Ratio (y) = -0.15056 -0.18257
# Poissons Ratio (z) = 0.04715 -0.05771
#
# Static dielectric constant tensor:
#      x y z
#    x 1.531050 0.000000 -0.016440 
#    y 0.000000 1.565990 0.000000 
#    z -0.016440 0.000000 1.591230 
# 
# From -- ./inp_files/56406.got.cif
#   From: 2010.05.17/outbox.cif.g08.bks.cpg/sg10_29_cif.got.tgz:56406.got - 2010.06.03 11:33:40.
