data_PCOD9151903
_publ_section_title
;
Structure prediction by ZEFSAII (Michael W. Deem and Ramdas Pophale) SiO2 
 PCOD9151903
Probable space group: P 2/M
;
_chemical_formula_sum "Si O2"
_cell_formula_units_Z 21
_cell_length_a 9.703207
_cell_length_b 26.379258
_cell_length_c 5.204974
_cell_angle_alpha 90.000000
_cell_angle_beta 48.343438
_cell_angle_gamma 90.000000
_cell_volume 995.404874
_symmetry_space_group_name_H-M "P 2/M"
_symmetry_group_IT_number 10
_symmetry_cell_setting 'monoclinic'
loop_
_space_group_symop_operation_xyz
x,y,z
-x,y,-z
-x,-y,-z
x,-y,z
loop_
_atom_site_type_symbol
_atom_site_label
_atom_site_fract_x
_atom_site_fract_y
_atom_site_fract_z
Si Si1 0.276084 0.836371 0.257399
Si Si2 0.000000 0.000000 0.000000
Si Si3 0.000000 0.075410 0.500000
Si Si4 0.779833 0.663561 0.280589
Si Si5 0.626834 0.500000 0.090743
Si Si6 0.280335 0.779713 0.749349
Si Si7 0.220522 0.608866 0.212210
O O1 0.211847 0.818312 0.617360
O O2 0.179156 0.888249 0.296633
O O3 0.500000 0.840800 0.000000
O O4 0.219183 0.794766 0.111665
O O5 0.993538 0.956581 0.773262
O O6 0.755558 0.723692 0.314641
O O7 0.707391 0.629361 0.604680
O O8 0.702876 0.644424 0.106240
O O9 0.000000 0.654809 0.000000
O O10 0.500000 0.500000 0.500000
O O11 0.500000 0.500000 0.000000
O O12 0.741295 0.551544 0.920518
O O13 0.500000 0.784488 0.500000
O O14 0.000000 0.614638 0.500000
#
# Coordination Sequence:
#
# PCOD9151903 Si02
#       7
#     4   1   2   4   2   4   4
#     4  10  22  38  60  91 122 163 209 242 302 363
#     4  10  24  42  62  98 120 156 220 250 306 364
#     4  11  22  42  66  86 128 164 198 265 302 340
#     4  10  21  35  58  85 116 150 198 231 295 363
#     4  12  25  40  61  86 106 140 200 248 301 366
#     4  10  21  36  55  87 125 156 194 242 289 358
#     4  10  22  41  58  81 112 152 188 246 297 365
#
# _framework density 21.096941999999999
#
# number of rings (size 3 to 8) (size 9 to 14) (size 15 to 20)
#    0.000    1.714    0.000    3.714    2.667    2.286 
#    0.000    6.667    0.000    0.000    0.000    0.000 
#    0.000    0.000    0.000    0.000    0.000    0.000 
#
# Total GULP energy -116967.638592 kJ/mol
# GULP energy per Si atom -5569.887552 kJ/mol
# Density = 2.104892 g / cm^3
# Si number density = 21.096942 Si / 1000 Ang^3
#
#
#
# Elastic Constant Matrix: (Units=GPa)
#
#
# Indices 1 2 3 4 5 6 
#
# 1 85.6020 26.2444 63.2908 0.0000 30.5825 0.0000
# 2 26.2444 128.4818 38.7644 0.0000 26.8342 0.0000
# 3 63.2908 38.7644 100.6709 0.0000 37.8907 0.0000
# 4 0.0000 0.0000 0.0000 16.0698 0.0000 33.6629
# 5 30.5825 26.8342 37.8907 0.0000 43.2785 0.0000
# 6 0.0000 0.0000 0.0000 33.6629 0.0000 7.4053
#
#
#
# Elastic Compliance Matrix: (Units=1/GPa)
#
#
# Indices 1 2 3 4 5 6 
#
# 1 0.022610 0.000204 -0.012278 0.000000 -0.005354 0.000000
# 2 0.000204 0.009228 -0.002198 0.000000 -0.003941 0.000000
# 3 -0.012278 -0.002198 0.021955 0.000000 -0.009183 0.000000
# 4 0.000000 0.000000 0.000000 -0.007302 0.000000 0.033192
# 5 -0.005354 -0.003941 -0.009183 0.000000 0.037373 0.000000
# 6 0.000000 0.000000 0.000000 0.033192 0.000000 -0.015845
#
#
# Mechanical properties :
#
#
# Convention : Reuss Voigt Hill
#
# Bulk Modulus (GPa) = 39.60558 63.48375 51.54466
# Shear Modulus (GPa) = 47.62787 25.78107 36.70447
#
# Velocity S-wave (km/s) = 4.75655 3.49955 4.17562
# Velocity P-wave (km/s) = 6.99859 6.81805 6.90891
#
# Compressibility (1/GPa) = 0.02524897
#
# Stress axis : x y z
#
# Youngs Moduli (GPa) = 44.22758 108.36701 45.54727
#
# Poissons Ratio (x) = -0.02214 0.55924
# Poissons Ratio (y) = -0.00903 0.10012
# Poissons Ratio (z) = 0.54304 0.23822
#
# Static dielectric constant tensor:
#      x y z
#    x 1.711290 0.000000 0.098170 
#    y 0.000000 1.446960 0.000000 
#    z 0.098170 0.000000 1.593060 
# 
# From -- ./inp_files/7975.got.cif
#   From: 2010.05.17/outbox.cif.g08.bks.cpg/sg10_4_cif.got.tgz:7975.got - 2010.06.03 11:33:40.
