data_PCOD9151100
_publ_section_title
;
Structure prediction by ZEFSAII (Michael W. Deem and Ramdas Pophale) SiO2 
 PCOD9151100
Probable space group: P 2/M
;
_chemical_formula_sum "Si O2"
_cell_formula_units_Z 28
_cell_length_a 14.676374
_cell_length_b 8.139645
_cell_length_c 20.644603
_cell_angle_alpha 90.000000
_cell_angle_beta 31.899940
_cell_angle_gamma 90.000000
_cell_volume 1303.239861
_symmetry_space_group_name_H-M "P 2/M"
_symmetry_group_IT_number 10
_symmetry_cell_setting 'monoclinic'
loop_
_space_group_symop_operation_xyz
x,y,z
-x,y,-z
-x,-y,-z
x,-y,z
loop_
_atom_site_type_symbol
_atom_site_label
_atom_site_fract_x
_atom_site_fract_y
_atom_site_fract_z
Si Si1 0.551170 0.190876 0.670992
Si Si2 0.132685 0.198914 0.265205
Si Si3 0.738457 0.800395 0.952017
Si Si4 0.775670 0.312143 0.425269
Si Si5 0.621861 0.201390 0.768956
Si Si6 0.888385 0.808547 0.223911
Si Si7 0.810977 0.309126 0.134616
O O1 0.614396 0.281386 0.568775
O O2 0.636812 0.253900 0.685562
O O3 0.346183 0.211068 0.801535
O O4 0.595921 0.000000 0.635941
O O5 0.243785 0.244718 0.134349
O O6 0.227428 0.252383 0.273284
O O7 0.943369 0.267984 0.366965
O O8 0.120263 0.000000 0.273459
O O9 0.915711 0.748741 0.880048
O O10 0.738045 0.000000 0.954253
O O11 0.562416 0.743815 0.090947
O O12 0.784701 0.500000 0.399463
O O13 0.788274 0.207885 0.352145
O O14 0.619669 0.000000 0.769821
O O15 0.805338 0.710754 0.215407
O O16 0.894534 0.000000 0.201687
O O17 0.795503 0.500000 0.125456
O O18 0.000000 0.248691 0.000000
#
# Coordination Sequence:
#
# PCOD9151100 Si02
#       7
#     4   4   4   4   4   4   4
#     4  11  23  39  59  83 112 149 198 245 281 328
#     4   9  17  32  56  84 113 147 189 234 281 338
#     4   8  14  27  52  86 116 140 176 230 286 333
#     4  11  23  40  58  80 114 151 190 236 292 348
#     4   9  17  30  53  84 114 146 187 238 287 328
#     4  10  20  37  63  89 113 147 193 240 282 330
#     4  11  24  41  61  89 124 155 181 218 278 344
#
# _framework density 21.484918
#
# number of rings (size 3 to 8) (size 9 to 14) (size 15 to 20)
#    0.000    2.143    0.000    4.714    0.000    5.143 
#    0.000    7.143    0.000    8.571    0.000    0.000 
#    0.000    0.000    0.000    0.000    0.000    0.000 
#
# Total GULP energy -156453.968391 kJ/mol
# GULP energy per Si atom -5587.641728 kJ/mol
# Density = 2.143602 g / cm^3
# Si number density = 21.484918 Si / 1000 Ang^3
#
#
#
# Elastic Constant Matrix: (Units=GPa)
#
#
# Indices 1 2 3 4 5 6 
#
# 1 83.3229 -4.1285 -3.1692 0.0000 9.1419 0.0000
# 2 -4.1285 26.7467 -2.7998 0.0000 -0.7601 0.0000
# 3 -3.1692 -2.7998 58.6216 0.0000 5.5327 0.0000
# 4 0.0000 0.0000 0.0000 11.8931 0.0000 12.9692
# 5 9.1419 -0.7601 5.5327 0.0000 12.1115 0.0000
# 6 0.0000 0.0000 0.0000 12.9692 0.0000 -75.3264
#
#
#
# Elastic Compliance Matrix: (Units=1/GPa)
#
#
# Indices 1 2 3 4 5 6 
#
# 1 0.013352 0.001946 0.001833 0.000000 -0.010794 0.000000
# 2 0.001946 0.037889 0.001911 0.000000 0.000036 0.000000
# 3 0.001833 0.001911 0.018151 0.000000 -0.009555 0.000000
# 4 0.000000 0.000000 0.000000 0.070791 0.000000 0.012188
# 5 -0.010794 0.000036 -0.009555 0.000000 0.095081 0.000000
# 6 0.000000 0.000000 0.000000 0.012188 0.000000 -0.011177
#
#
# Mechanical properties :
#
#
# Convention : Reuss Voigt Hill
#
# Bulk Modulus (GPa) = 12.38019 16.49957 14.43988
# Shear Modulus (GPa) = 20.86556 1.65491 11.26023
#
# Velocity S-wave (km/s) = 3.11974 0.87860 2.29181
# Velocity P-wave (km/s) = 4.33034 2.95390 3.70657
#
# Compressibility (1/GPa) = 0.08077418
#
# Stress axis : x y z
#
# Youngs Moduli (GPa) = 74.89571 26.39270 55.09398
#
# Poissons Ratio (x) = -0.05136 -0.10101
# Poissons Ratio (y) = -0.14576 -0.10531
# Poissons Ratio (z) = -0.13732 -0.05045
#
# Static dielectric constant tensor:
#      x y z
#    x 1.761780 0.000000 0.003740 
#    y 0.000000 1.749970 0.000000 
#    z 0.003740 0.000000 1.783550 
# 
# From -- ./inp_files/63303.got.cif
#   From: 2010.05.17/outbox.cif.g08.bks.cpg/sg10_32_cif.got.tgz:63303.got - 2010.06.03 11:33:40.
