data_PCOD9151511
_publ_section_title
;
Structure prediction by ZEFSAII (Michael W. Deem and Ramdas Pophale) SiO2 
 PCOD9151511
Probable space group: P 2/M
;
_chemical_formula_sum "Si O2"
_cell_formula_units_Z 26
_cell_length_a 14.840471
_cell_length_b 7.388762
_cell_length_c 19.254800
_cell_angle_alpha 90.000000
_cell_angle_beta 149.047344
_cell_angle_gamma 90.000000
_cell_volume 1085.925185
_symmetry_space_group_name_H-M "P 2/M"
_symmetry_group_IT_number 10
_symmetry_cell_setting 'monoclinic'
loop_
_space_group_symop_operation_xyz
x,y,z
-x,y,-z
-x,-y,-z
x,-y,z
loop_
_atom_site_type_symbol
_atom_site_label
_atom_site_fract_x
_atom_site_fract_y
_atom_site_fract_z
Si Si1 0.402395 0.782394 0.864830
Si Si2 0.723152 0.500000 0.404621
Si Si3 0.679088 0.781066 0.657495
Si Si4 0.992172 0.219131 0.599815
Si Si5 0.959489 0.791492 0.734812
Si Si6 0.297720 0.293949 0.037918
Si Si7 0.561486 0.794225 0.729236
O O1 0.198124 0.738521 0.729195
O O2 0.512205 0.709819 0.872597
O O3 0.416507 0.000000 0.871668
O O4 0.500000 0.721627 0.000000
O O5 0.589901 0.657903 0.348408
O O6 0.859746 0.338741 0.468744
O O7 0.500000 0.734265 0.500000
O O8 0.658790 0.728359 0.724058
O O9 0.837549 0.712428 0.714494
O O10 0.694698 0.000000 0.669572
O O11 0.946323 0.283744 0.648858
O O12 0.971821 0.000000 0.578203
O O13 0.907180 0.000000 0.691844
O O14 0.158605 0.786498 0.892638
O O15 0.246851 0.500000 0.015903
O O16 0.308880 0.200316 0.119276
O O17 0.494507 0.000000 0.672474
#
# Coordination Sequence:
#
# PCOD9151511 Si02
#       7
#     4   2   4   4   4   4   4
#     4  10  20  39  66  97 131 171 216 266 329 394
#     4  12  24  42  65  95 127 175 223 267 322 387
#     4   9  19  39  68  97 128 171 221 269 323 385
#     4  10  22  39  66 101 135 167 212 274 328 389
#     4  10  20  39  66  98 133 172 216 266 329 393
#     4  12  25  41  64  97 135 175 220 273 329 393
#     4  11  24  46  68  92 133 178 221 273 328 390
#
# _framework density 23.942717999999999
#
# number of rings (size 3 to 8) (size 9 to 14) (size 15 to 20)
#    0.000    1.538    2.308    2.769    2.154    3.385 
#    1.385    5.769    0.000    2.769    0.000    0.000 
#    0.000    0.000    0.000    0.000    0.000    0.000 
#
# Total GULP energy -144950.065718 kJ/mol
# GULP energy per Si atom -5575.002528 kJ/mol
# Density = 2.388822 g / cm^3
# Si number density = 23.942718 Si / 1000 Ang^3
#
#
#
# Elastic Constant Matrix: (Units=GPa)
#
#
# Indices 1 2 3 4 5 6 
#
# 1 130.5013 6.0335 26.6539 0.0000 -10.8674 0.0000
# 2 6.0335 113.1577 5.3039 0.0000 7.5956 0.0000
# 3 26.6539 5.3039 54.3649 0.0000 1.4828 0.0000
# 4 0.0000 0.0000 0.0000 85.0077 0.0000 37.1928
# 5 -10.8674 7.5956 1.4828 0.0000 44.3762 0.0000
# 6 0.0000 0.0000 0.0000 37.1928 0.0000 -67.5081
#
#
#
# Elastic Compliance Matrix: (Units=1/GPa)
#
#
# Indices 1 2 3 4 5 6 
#
# 1 0.008761 -0.000423 -0.004318 0.000000 0.002362 0.000000
# 2 -0.000423 0.008998 -0.000626 0.000000 -0.001623 0.000000
# 3 -0.004318 -0.000626 0.020617 0.000000 -0.001639 0.000000
# 4 0.000000 0.000000 0.000000 0.009479 0.000000 0.005222
# 5 0.002362 -0.001623 -0.001639 0.000000 0.023446 0.000000
# 6 0.000000 0.000000 0.000000 0.005222 0.000000 -0.011936
#
#
# Mechanical properties :
#
#
# Convention : Reuss Voigt Hill
#
# Bulk Modulus (GPa) = 36.17850 41.55628 38.86739
# Shear Modulus (GPa) = 63.04044 29.71068 46.37556
#
# Velocity S-wave (km/s) = 5.13681 3.52647 4.40584
# Velocity P-wave (km/s) = 7.09406 5.82886 6.49235
#
# Compressibility (1/GPa) = 0.02764073
#
# Stress axis : x y z
#
# Youngs Moduli (GPa) = 114.14147 111.13495 48.50304
#
# Poissons Ratio (x) = 0.04704 0.20946
# Poissons Ratio (y) = 0.04831 0.03037
# Poissons Ratio (z) = 0.49292 0.06958
#
# Static dielectric constant tensor:
#      x y z
#    x 1.923890 0.000000 -0.029880 
#    y 0.000000 1.899590 0.000000 
#    z -0.029880 0.000000 1.939720 
# 
# From -- ./inp_files/84813.got.cif
#   From: 2010.05.17/outbox.cif.g08.bks.cpg/sg10_43_cif.got.tgz:84813.got - 2010.06.03 11:33:40.
