data_PCOD9151520
_publ_section_title
;
Structure prediction by ZEFSAII (Michael W. Deem and Ramdas Pophale) SiO2 
 PCOD9151520
Probable space group: P 2/M
;
_chemical_formula_sum "Si O2"
_cell_formula_units_Z 21
_cell_length_a 16.122423
_cell_length_b 7.771808
_cell_length_c 26.995803
_cell_angle_alpha 90.000000
_cell_angle_beta 17.518557
_cell_angle_gamma 90.000000
_cell_volume 1018.207502
_symmetry_space_group_name_H-M "P 2/M"
_symmetry_group_IT_number 10
_symmetry_cell_setting 'monoclinic'
loop_
_space_group_symop_operation_xyz
x,y,z
-x,y,-z
-x,-y,-z
x,-y,z
loop_
_atom_site_type_symbol
_atom_site_label
_atom_site_fract_x
_atom_site_fract_y
_atom_site_fract_z
Si Si1 0.214587 0.206951 0.640367
Si Si2 0.225272 0.303465 0.301822
Si Si3 0.205803 0.210779 0.531711
Si Si4 0.876122 0.700688 0.927842
Si Si5 0.000000 0.000000 0.500000
Si Si6 0.808144 0.199962 0.153792
O O1 0.500000 0.273932 0.500000
O O2 0.189855 0.265204 0.598046
O O3 0.988371 0.251446 0.809928
O O4 0.229653 0.000000 0.629530
O O5 0.190704 0.500000 0.340087
O O6 0.054703 0.286084 0.348335
O O7 0.104975 0.151773 0.402919
O O8 0.550737 0.270613 0.113197
O O9 0.497644 0.267707 0.340469
O O10 0.200612 0.000000 0.532677
O O11 0.929894 0.500000 0.905777
O O12 0.030251 0.791977 0.885930
O O13 0.764931 0.000000 0.164678
O O14 0.000000 0.274661 0.000000
#
# Coordination Sequence:
#
# PCOD9151520 Si02
#       6
#     4   4   4   4   1   4
#     4  10  20  39  68  96 130 175 226 278 331 403
#     4  11  27  45  68 103 136 176 229 279 335 405
#     4  10  21  41  65  99 133 175 227 279 340 398
#     4  11  25  42  62  97 135 172 222 278 340 402
#     4  12  26  48  76  90 140 188 222 274 338 410
#     4  10  22  38  65  94 127 169 223 277 335 403
#
# _framework density 20.624480999999999
#
# number of rings (size 3 to 8) (size 9 to 14) (size 15 to 20)
#    0.000    1.524    2.857    0.857    5.333    3.048 
#    0.000    3.810    0.000    0.000    0.000    0.000 
#    0.000    0.000    0.000    0.000    0.000    0.000 
#
# Total GULP energy -116966.641436 kJ/mol
# GULP energy per Si atom -5569.840068 kJ/mol
# Density = 2.057754 g / cm^3
# Si number density = 20.624481 Si / 1000 Ang^3
#
#
#
# Elastic Constant Matrix: (Units=GPa)
#
#
# Indices 1 2 3 4 5 6 
#
# 1 63.6824 -13.1025 -24.1741 0.0000 2.3440 0.0000
# 2 -13.1025 76.6387 49.2410 0.0000 6.1952 0.0000
# 3 -24.1741 49.2410 127.5774 0.0000 12.9715 0.0000
# 4 0.0000 0.0000 0.0000 32.4007 0.0000 30.9079
# 5 2.3440 6.1952 12.9715 0.0000 42.7772 0.0000
# 6 0.0000 0.0000 0.0000 30.9079 0.0000 128.0407
#
#
#
# Elastic Compliance Matrix: (Units=1/GPa)
#
#
# Indices 1 2 3 4 5 6 
#
# 1 0.017158 0.001165 0.003007 0.000000 -0.002021 0.000000
# 2 0.001165 0.017440 -0.006446 0.000000 -0.000635 0.000000
# 3 0.003007 -0.006446 0.011162 0.000000 -0.002616 0.000000
# 4 0.000000 0.000000 0.000000 0.040096 0.000000 -0.009679
# 5 -0.002021 -0.000635 -0.002616 0.000000 0.024373 0.000000
# 6 0.000000 0.000000 0.000000 -0.009679 0.000000 0.010146
#
#
# Mechanical properties :
#
#
# Convention : Reuss Voigt Hill
#
# Bulk Modulus (GPa) = 24.26447 32.42524 28.34486
# Shear Modulus (GPa) = 36.05862 57.70599 46.88230
#
# Velocity S-wave (km/s) = 4.18585 5.29529 4.77292
# Velocity P-wave (km/s) = 5.92893 7.28990 6.64436
#
# Compressibility (1/GPa) = 0.04121252
#
# Stress axis : x y z
#
# Youngs Moduli (GPa) = 58.28018 57.33803 89.58781
#
# Poissons Ratio (x) = -0.06678 -0.26941
# Poissons Ratio (y) = -0.06788 0.57750
# Poissons Ratio (z) = -0.17526 0.36961
#
# Static dielectric constant tensor:
#      x y z
#    x 1.812890 0.000000 0.065480 
#    y 0.000000 1.778550 0.000000 
#    z 0.065480 0.000000 1.730020 
# 
# From -- ./inp_files/71252.got.cif
#   From: 2010.05.17/outbox.cif.g08.bks.cpg/sg10_36_cif.got.tgz:71252.got - 2010.06.03 11:33:40.
