data_PCOD9151797
_publ_section_title
;
Structure prediction by ZEFSAII (Michael W. Deem and Ramdas Pophale) SiO2 
 PCOD9151797
Probable space group: P 2/M
;
_chemical_formula_sum "Si O2"
_cell_formula_units_Z 28
_cell_length_a 26.065252
_cell_length_b 9.591430
_cell_length_c 9.216833
_cell_angle_alpha 90.000000
_cell_angle_beta 44.994359
_cell_angle_gamma 90.000000
_cell_volume 1629.180668
_symmetry_space_group_name_H-M "P 2/M"
_symmetry_group_IT_number 10
_symmetry_cell_setting 'monoclinic'
loop_
_space_group_symop_operation_xyz
x,y,z
-x,y,-z
-x,-y,-z
x,-y,z
loop_
_atom_site_type_symbol
_atom_site_label
_atom_site_fract_x
_atom_site_fract_y
_atom_site_fract_z
Si Si1 0.999989 0.160482 0.323247
Si Si2 0.291020 0.334326 0.246316
Si Si3 0.140552 0.335868 0.392772
Si Si4 0.290998 0.334326 0.589640
Si Si5 0.417038 0.834205 0.493216
Si Si6 0.417059 0.165795 0.838616
Si Si7 0.140530 0.664132 0.045019
O O1 0.927678 0.243153 0.423542
O O2 0.000000 0.161089 0.500000
O O3 0.072295 0.243152 0.134284
O O4 0.999986 0.000000 0.275549
O O5 0.301454 0.500000 0.201170
O O6 0.214988 0.295831 0.322631
O O7 0.286774 0.309767 0.426446
O O8 0.357264 0.250784 0.044549
O O9 0.126108 0.500000 0.450089
O O10 0.149671 0.320568 0.200636
O O11 0.301431 0.500000 0.593059
O O12 0.357235 0.250785 0.526489
O O13 0.214958 0.295833 0.817419
O O14 0.499987 0.796283 0.287695
O O15 0.408746 0.810222 0.682522
O O16 0.408714 0.000000 0.485386
O O17 0.408738 0.000000 0.879737
O O18 0.126081 0.500000 0.045496
#
# Coordination Sequence:
#
# PCOD9151797 Si02
#       7
#     4   4   4   4   4   4   4
#     4   9  17  29  48  75 100 122 158 209 256 295
#     4  10  21  35  51  75 106 137 170 208 251 300
#     4   9  17  31  51  72  96 129 167 205 248 298
#     4  10  21  35  51  75 106 137 170 208 251 300
#     4   9  19  36  56  77 101 131 169 211 254 301
#     4   9  19  36  56  77 101 131 169 211 254 301
#     4   9  17  31  51  72  96 129 167 205 248 298
#
# _framework density 17.186551999999999
#
# number of rings (size 3 to 8) (size 9 to 14) (size 15 to 20)
#    0.000    2.714    0.000    2.143    0.000    6.286 
#    0.000    7.857    0.000    4.286    0.000    0.000 
#    0.000    0.000    0.000    0.000    0.000    0.000 
#
# Total GULP energy -156182.289185 kJ/mol
# GULP energy per Si atom -5577.938899 kJ/mol
# Density = 1.714743 g / cm^3
# Si number density = 17.186552 Si / 1000 Ang^3
#
#
#
# Elastic Constant Matrix: (Units=GPa)
#
#
# Indices 1 2 3 4 5 6 
#
# 1 93.8728 79.7826 113.6641 0.0000 -40.7628 0.0000
# 2 79.7826 77.4729 81.1529 0.0000 -27.7449 0.0000
# 3 113.6641 81.1529 97.9490 0.0000 -42.2595 0.0000
# 4 0.0000 0.0000 0.0000 250.3289 0.0000 -223.2155
# 5 -40.7628 -27.7449 -42.2595 0.0000 22.6952 0.0000
# 6 0.0000 0.0000 0.0000 -223.2155 0.0000 239.6145
#
#
#
# Elastic Compliance Matrix: (Units=1/GPa)
#
#
# Indices 1 2 3 4 5 6 
#
# 1 0.002316 -0.040316 0.057190 0.000000 0.061365 0.000000
# 2 -0.040316 0.077215 -0.039185 0.000000 -0.050982 0.000000
# 3 0.057190 -0.039185 -0.000209 0.000000 0.054427 0.000000
# 4 0.000000 0.000000 0.000000 0.023590 0.000000 0.021976
# 5 0.061365 -0.050982 0.054427 0.000000 0.193301 0.000000
# 6 0.000000 0.000000 0.000000 0.021976 0.000000 0.024645
#
#
# Mechanical properties :
#
#
# Convention : Reuss Voigt Hill
#
# Bulk Modulus (GPa) = 28.81802 90.94377 59.88089
# Shear Modulus (GPa) = 13.26092 102.17407 57.71750
#
# Velocity S-wave (km/s) = 2.78076 7.71875 5.80137
# Velocity P-wave (km/s) = 5.20714 11.50953 8.93263
#
# Compressibility (1/GPa) = 0.03470052
#
# Stress axis : x y z
#
# Youngs Moduli (GPa) = 431.69638 12.95090 -4791.94946
#
# Poissons Ratio (x) = 0.52213 274.05372
# Poissons Ratio (y) = 17.40436 -187.77363
# Poissons Ratio (z) = -24.68891 0.50748
#
# Static dielectric constant tensor:
#      x y z
#    x 1.559310 0.000000 0.002950 
#    y 0.000000 1.571090 0.000000 
#    z 0.002950 0.000000 1.559180 
# 
# From -- ./inp_files/37055.got.cif
#   From: 2010.05.17/outbox.cif.g08.bks.cpg/sg10_19_cif.got.tgz:37055.got - 2010.06.03 11:33:40.
