data_PCOD9151836
_publ_section_title
;
Structure prediction by ZEFSAII (Michael W. Deem and Ramdas Pophale) SiO2 
 PCOD9151836
Probable space group: P 2/M
;
_chemical_formula_sum "Si O2"
_cell_formula_units_Z 20
_cell_length_a 5.067273
_cell_length_b 14.149318
_cell_length_c 13.398552
_cell_angle_alpha 90.000000
_cell_angle_beta 78.086516
_cell_angle_gamma 90.000000
_cell_volume 939.963399
_symmetry_space_group_name_H-M "P 2/M"
_symmetry_group_IT_number 10
_symmetry_cell_setting 'monoclinic'
loop_
_space_group_symop_operation_xyz
x,y,z
-x,y,-z
-x,-y,-z
x,-y,z
loop_
_atom_site_type_symbol
_atom_site_label
_atom_site_fract_x
_atom_site_fract_y
_atom_site_fract_z
Si Si1 0.558026 0.112741 0.610123
Si Si2 0.006849 0.803849 0.709761
Si Si3 0.792998 0.111999 0.928747
Si Si4 0.615467 0.608908 0.090915
Si Si5 0.032637 0.391346 0.221371
O O1 0.500000 0.138671 0.500000
O O2 0.829077 0.155867 0.633747
O O3 0.298618 0.148226 0.691473
O O4 0.577839 0.000000 0.615218
O O5 0.847165 0.829679 0.824034
O O6 0.039207 0.691303 0.697415
O O7 0.831497 0.000000 0.901113
O O8 0.500000 0.122234 0.000000
O O9 0.000000 0.137914 0.000000
O O10 0.682264 0.500000 0.057875
O O11 0.354283 0.608811 0.182161
O O12 0.876394 0.639626 0.131693
O O13 0.500000 0.656495 0.000000
O O14 0.950043 0.500000 0.248574
#
# Coordination Sequence:
#
# PCOD9151836 Si02
#       5
#     4   4   4   4   4
#     4  11  24  43  68  95 118 144 191 257 319 369
#     4  12  23  39  64  90 122 163 201 242 302 363
#     4  10  21  36  54  81 119 159 197 235 281 350
#     4   9  17  31  50  73 108 155 205 253 291 324
#     4  10  21  35  53  81 117 158 201 245 292 344
#
# _framework density 21.277424
#
# number of rings (size 3 to 8) (size 9 to 14) (size 15 to 20)
#    0.000    1.600    0.000    5.400    0.000    8.000 
#    0.000    0.000    0.000    3.600    0.000    0.000 
#    0.000    0.000    0.000    0.000    0.000    0.000 
#
# Total GULP energy -111774.934117 kJ/mol
# GULP energy per Si atom -5588.746706 kJ/mol
# Density = 2.122900 g / cm^3
# Si number density = 21.277424 Si / 1000 Ang^3
#
#
#
# Elastic Constant Matrix: (Units=GPa)
#
#
# Indices 1 2 3 4 5 6 
#
# 1 96.3862 3.6446 0.7199 0.0000 12.0805 0.0000
# 2 3.6446 97.0692 27.7101 0.0000 17.9744 0.0000
# 3 0.7199 27.7101 34.3588 0.0000 -0.5102 0.0000
# 4 0.0000 0.0000 0.0000 9.4162 0.0000 5.8192
# 5 12.0805 17.9744 -0.5102 0.0000 20.6691 0.0000
# 6 0.0000 0.0000 0.0000 5.8192 0.0000 3.1786
#
#
#
# Elastic Compliance Matrix: (Units=1/GPa)
#
#
# Indices 1 2 3 4 5 6 
#
# 1 0.011328 0.001494 -0.001560 0.000000 -0.007958 0.000000
# 2 0.001494 0.017332 -0.014251 0.000000 -0.016297 0.000000
# 3 -0.001560 -0.014251 0.040843 0.000000 0.014314 0.000000
# 4 0.000000 0.000000 0.000000 -0.808306 0.000000 1.479786
# 5 -0.007958 -0.016297 0.014314 0.000000 0.067559 0.000000
# 6 0.000000 0.000000 0.000000 1.479786 0.000000 -2.394479
#
#
# Mechanical properties :
#
#
# Convention : Reuss Voigt Hill
#
# Bulk Modulus (GPa) = 24.46949 32.44038 28.45493
# Shear Modulus (GPa) = -1.65373 19.70209 9.02418
#
# Velocity S-wave (km/s) = -0.88256 3.04626 2.06165
# Velocity P-wave (km/s) = 3.23831 5.25856 4.36687
#
# Compressibility (1/GPa) = 0.04086722
#
# Stress axis : x y z
#
# Youngs Moduli (GPa) = 88.28056 57.69701 24.48371
#
# Poissons Ratio (x) = -0.08618 0.03820
# Poissons Ratio (y) = -0.13186 0.34893
# Poissons Ratio (z) = 0.13773 0.82226
#
# Static dielectric constant tensor:
#      x y z
#    x 1.717550 0.000000 0.016890 
#    y 0.000000 1.810150 0.000000 
#    z 0.016890 0.000000 1.727120 
# 
# From -- ./inp_files/39024.got.cif
#   From: 2010.05.17/outbox.cif.g08.bks.cpg/sg10_20_cif.got.tgz:39024.got - 2010.06.03 11:33:40.
