data_PCOD9151556
_publ_section_title
;
Structure prediction by ZEFSAII (Michael W. Deem and Ramdas Pophale) SiO2 
 PCOD9151556
Probable space group: P 2/M
;
_chemical_formula_sum "Si O2"
_cell_formula_units_Z 25
_cell_length_a 18.381954
_cell_length_b 17.871913
_cell_length_c 12.544106
_cell_angle_alpha 90.000000
_cell_angle_beta 20.028193
_cell_angle_gamma 90.000000
_cell_volume 1411.369738
_symmetry_space_group_name_H-M "P 2/M"
_symmetry_group_IT_number 10
_symmetry_cell_setting 'monoclinic'
loop_
_space_group_symop_operation_xyz
x,y,z
-x,y,-z
-x,-y,-z
x,-y,z
loop_
_atom_site_type_symbol
_atom_site_label
_atom_site_fract_x
_atom_site_fract_y
_atom_site_fract_z
Si Si1 0.539126 0.737486 0.240155
Si Si2 0.959612 0.758027 0.780153
Si Si3 0.568345 0.000000 0.528092
Si Si4 0.326826 0.164830 0.146429
Si Si5 0.803217 0.844521 0.191564
Si Si6 0.252955 0.000000 0.161675
Si Si7 0.000000 0.500000 0.000000
Si Si8 0.851214 0.346420 0.298867
O O1 0.381521 0.784865 0.531329
O O2 0.392960 0.670503 0.395920
O O3 0.754175 0.720562 0.007993
O O4 0.599255 0.791531 0.060094
O O5 0.111527 0.796597 0.484611
O O6 0.082495 0.697487 0.685170
O O7 0.883455 0.825215 0.962765
O O8 0.500000 0.000000 0.500000
O O9 0.705613 0.925275 0.349137
O O10 0.379109 0.000000 0.875310
O O11 0.308956 0.076990 0.144956
O O12 0.500000 0.175250 0.000000
O O13 0.000000 0.838398 0.000000
O O14 0.000000 0.000000 0.500000
O O15 0.911781 0.433267 0.203245
O O16 0.000000 0.312934 0.000000
#
# Coordination Sequence:
#
# PCOD9151556 Si02
#       8
#     4   4   2   4   4   2   1   4
#     4  12  21  40  63  93 124 166 212 263 311 376
#     4  12  23  38  67  92 125 167 212 266 313 378
#     4  12  27  40  58  84 116 165 216 271 329 378
#     4  12  25  43  63  88 126 175 224 269 328 377
#     4  12  22  40  58  84 115 159 215 265 321 369
#     4  12  27  44  58  88 128 169 224 281 327 388
#     4   8  20  40  70 102 140 168 196 254 318 388
#     4  10  20  40  64  99 131 159 205 246 312 374
#
# _framework density 17.713287999999999
#
# number of rings (size 3 to 8) (size 9 to 14) (size 15 to 20)
#    0.480    0.000    6.400    3.360    2.240    0.000 
#    0.000    1.600    0.000    1.920    0.000    2.240 
#    0.000    0.000    0.000    0.000    0.000    0.000 
#
# Total GULP energy -139204.461142 kJ/mol
# GULP energy per Si atom -5568.178446 kJ/mol
# Density = 1.767297 g / cm^3
# Si number density = 17.713288 Si / 1000 Ang^3
#
#
#
# Elastic Constant Matrix: (Units=GPa)
#
#
# Indices 1 2 3 4 5 6 
#
# 1 80.4138 18.1983 25.1002 0.0000 -23.6878 0.0000
# 2 18.1983 119.5790 29.6415 0.0000 -3.0793 0.0000
# 3 25.1002 29.6415 88.0582 0.0000 -8.8187 0.0000
# 4 0.0000 0.0000 0.0000 15.5963 0.0000 4.7981
# 5 -23.6878 -3.0793 -8.8187 0.0000 36.4042 0.0000
# 6 0.0000 0.0000 0.0000 4.7981 0.0000 6.9168
#
#
#
# Elastic Compliance Matrix: (Units=1/GPa)
#
#
# Indices 1 2 3 4 5 6 
#
# 1 0.016727 -0.001478 -0.003272 0.000000 0.009967 0.000000
# 2 -0.001478 0.009255 -0.002779 0.000000 -0.000852 0.000000
# 3 -0.003272 -0.002779 0.013311 0.000000 0.000860 0.000000
# 4 0.000000 0.000000 0.000000 0.081513 0.000000 -0.056544
# 5 0.009967 -0.000852 0.000860 0.000000 0.034091 0.000000
# 6 0.000000 0.000000 0.000000 -0.056544 0.000000 0.183800
#
#
# Mechanical properties :
#
#
# Convention : Reuss Voigt Hill
#
# Bulk Modulus (GPa) = 41.26528 48.21457 44.73993
# Shear Modulus (GPa) = 13.81852 26.12420 19.97136
#
# Velocity S-wave (km/s) = 2.79610 3.84453 3.36144
# Velocity P-wave (km/s) = 5.81128 6.85461 6.35440
#
# Compressibility (1/GPa) = 0.02423345
#
# Stress axis : x y z
#
# Youngs Moduli (GPa) = 59.78192 108.05459 75.12829
#
# Poissons Ratio (x) = 0.15969 0.24585
# Poissons Ratio (y) = 0.08835 0.20880
# Poissons Ratio (z) = 0.19563 0.30032
#
# Static dielectric constant tensor:
#      x y z
#    x 1.636710 0.000000 -0.018310 
#    y 0.000000 1.637710 0.000000 
#    z -0.018310 0.000000 1.569860 
# 
# From -- ./inp_files/54191.got.cif
#   From: 2010.05.17/outbox.cif.g08.bks.cpg/sg10_28_cif.got.tgz:54191.got - 2010.06.03 11:33:40.
