data_PCOD9151989
_publ_section_title
;
Structure prediction by ZEFSAII (Michael W. Deem and Ramdas Pophale) SiO2 
 PCOD9151989
Probable space group: P 2/M
;
_chemical_formula_sum "Si O2"
_cell_formula_units_Z 32
_cell_length_a 13.159523
_cell_length_b 7.807733
_cell_length_c 33.113984
_cell_angle_alpha 90.000000
_cell_angle_beta 26.645705
_cell_angle_gamma 90.000000
_cell_volume 1525.850824
_symmetry_space_group_name_H-M "P 2/M"
_symmetry_group_IT_number 10
_symmetry_cell_setting 'monoclinic'
loop_
_space_group_symop_operation_xyz
x,y,z
-x,y,-z
-x,-y,-z
x,-y,z
loop_
_atom_site_type_symbol
_atom_site_label
_atom_site_fract_x
_atom_site_fract_y
_atom_site_fract_z
Si Si1 0.770558 0.697693 0.098824
Si Si2 0.107280 0.201742 0.641222
Si Si3 0.438495 0.703100 0.374046
Si Si4 0.561446 0.706686 0.717337
Si Si5 0.567666 0.798602 0.848446
Si Si6 0.354595 0.790437 0.089823
Si Si7 0.846704 0.795094 0.287384
Si Si8 0.056791 0.795530 0.571600
O O1 0.824892 0.500000 0.089887
O O2 0.646584 0.774784 0.181909
O O3 0.585002 0.702301 0.129310
O O4 0.000000 0.778312 0.000000
O O5 0.834696 0.213570 0.743683
O O6 0.202787 0.273017 0.649595
O O7 0.150531 0.274612 0.581226
O O8 0.172112 0.000000 0.616697
O O9 0.455951 0.500000 0.364581
O O10 0.436594 0.773305 0.329168
O O11 0.648762 0.763485 0.326232
O O12 0.211313 0.743614 0.479262
O O13 0.543080 0.500000 0.722747
O O14 0.798472 0.744955 0.655034
O O15 0.539362 0.740692 0.904718
O O16 0.509340 0.000000 0.866422
O O17 0.091899 0.733268 0.184433
O O18 0.353164 0.000000 0.089593
O O19 0.500000 0.731668 0.000000
O O20 0.870920 0.000000 0.283622
O O21 0.062365 0.000000 0.572751
#
# Coordination Sequence:
#
# PCOD9151989 Si02
#       8
#     4   4   4   4   4   4   4   4
#     4  10  21  36  54  78 107 142 182 220 268 324
#     4   8  16  32  55  80 106 136 170 220 274 318
#     4  11  24  39  53  76 114 151 182 221 274 328
#     4  10  22  40  57  75 109 151 182 221 276 327
#     4   9  16  31  53  77 105 136 174 221 270 315
#     4   8  15  29  53  82 109 139 176 220 271 325
#     4   9  18  35  56  78 109 145 181 219 270 326
#     4  11  21  36  61  86 106 136 185 232 273 325
#
# _framework density 20.971906000000001
#
# number of rings (size 3 to 8) (size 9 to 14) (size 15 to 20)
#    0.000    2.500    1.250    2.625    0.000    4.250 
#    0.000    6.250    0.000    0.750    0.000    0.000 
#    0.000    0.000    0.000    0.000    0.000    0.000 
#
# Total GULP energy -178539.983017 kJ/mol
# GULP energy per Si atom -5579.374469 kJ/mol
# Density = 2.092417 g / cm^3
# Si number density = 20.971906 Si / 1000 Ang^3
#
#
#
# Elastic Constant Matrix: (Units=GPa)
#
#
# Indices 1 2 3 4 5 6 
#
# 1 105.9995 4.4110 57.3214 0.0000 31.7520 0.0000
# 2 4.4110 29.5706 7.9946 0.0000 4.5997 0.0000
# 3 57.3214 7.9946 130.2037 0.0000 35.3121 0.0000
# 4 0.0000 0.0000 0.0000 9.9292 0.0000 -8.2291
# 5 31.7520 4.5997 35.3121 0.0000 40.6473 0.0000
# 6 0.0000 0.0000 0.0000 -8.2291 0.0000 23.9285
#
#
#
# Elastic Compliance Matrix: (Units=1/GPa)
#
#
# Indices 1 2 3 4 5 6 
#
# 1 0.013830 0.000180 -0.004139 0.000000 -0.007228 0.000000
# 2 0.000180 0.034617 -0.001445 0.000000 -0.002803 0.000000
# 3 -0.004139 -0.001445 0.011342 0.000000 -0.006457 0.000000
# 4 0.000000 0.000000 0.000000 0.140862 0.000000 0.048443
# 5 -0.007228 -0.002803 -0.006457 0.000000 0.036174 0.000000
# 6 0.000000 0.000000 0.000000 0.048443 0.000000 0.058451
#
#
# Mechanical properties :
#
#
# Convention : Reuss Voigt Hill
#
# Bulk Modulus (GPa) = 20.41563 45.02531 32.72047
# Shear Modulus (GPa) = 15.50810 27.97078 21.73944
#
# Velocity S-wave (km/s) = 2.72227 3.65598 3.22312
# Velocity P-wave (km/s) = 4.43135 6.27197 5.43021
#
# Compressibility (1/GPa) = 0.04898208
#
# Stress axis : x y z
#
# Youngs Moduli (GPa) = 72.30622 28.88744 88.16459
#
# Poissons Ratio (x) = -0.00521 0.36495
# Poissons Ratio (y) = -0.01304 0.12737
# Poissons Ratio (z) = 0.29931 0.04173
#
# Static dielectric constant tensor:
#      x y z
#    x 1.752260 0.000000 0.042910 
#    y 0.000000 1.785860 0.000000 
#    z 0.042910 0.000000 1.752950 
# 
# From -- ./inp_files/94919.got.cif
#   From: 2010.05.17/outbox.cif.g08.bks.cpg/sg10_48_cif.got.tgz:94919.got - 2010.06.03 11:33:40.
