data_PCOD9151061
_publ_section_title
;
Structure prediction by ZEFSAII (Michael W. Deem and Ramdas Pophale) SiO2 
 PCOD9151061
Probable space group: P 2/M
;
_chemical_formula_sum "Si O2"
_cell_formula_units_Z 32
_cell_length_a 12.132358
_cell_length_b 13.946751
_cell_length_c 16.731305
_cell_angle_alpha 90.000000
_cell_angle_beta 37.067495
_cell_angle_gamma 90.000000
_cell_volume 1706.432817
_symmetry_space_group_name_H-M "P 2/M"
_symmetry_group_IT_number 10
_symmetry_cell_setting 'monoclinic'
loop_
_space_group_symop_operation_xyz
x,y,z
-x,y,-z
-x,-y,-z
x,-y,z
loop_
_atom_site_type_symbol
_atom_site_label
_atom_site_fract_x
_atom_site_fract_y
_atom_site_fract_z
Si Si1 0.904466 0.890857 0.140466
Si Si2 0.097413 0.612771 0.656885
Si Si3 0.668701 0.276949 0.347231
Si Si4 0.830421 0.232780 0.763368
Si Si5 0.875442 0.891147 0.491546
Si Si6 0.574135 0.781669 0.757603
Si Si7 0.448508 0.389026 0.343809
Si Si8 0.729557 0.889285 0.970088
O O1 0.758258 0.811054 0.248472
O O2 0.066658 0.887803 0.111817
O O3 0.830855 0.000000 0.180156
O O4 0.000000 0.871321 0.000000
O O5 0.078578 0.500000 0.685139
O O6 0.186003 0.669998 0.679742
O O7 0.243747 0.621506 0.499324
O O8 0.908733 0.664498 0.743539
O O9 0.500000 0.243270 0.500000
O O10 0.583973 0.353708 0.335025
O O11 0.705986 0.236423 0.756933
O O12 0.727607 0.176626 0.892957
O O13 0.010218 0.169979 0.637684
O O14 0.688566 0.840967 0.625494
O O15 0.000000 0.893686 0.500000
O O16 0.848744 0.000000 0.479869
O O17 0.523934 0.681457 0.746259
O O18 0.406297 0.844176 0.886292
O O19 0.477108 0.500000 0.308062
O O20 0.679947 0.000000 0.981612
#
# Coordination Sequence:
#
# PCOD9151061 Si02
#       8
#     4   4   4   4   4   4   4   4
#     4  10  21  38  60  87 122 160 193 234 295 356
#     4  10  20  37  62  89 116 152 198 248 300 349
#     4  10  20  38  64  89 116 148 196 249 294 347
#     4  11  21  37  57  87 119 157 196 243 294 349
#     4   9  18  33  54  81 114 149 192 243 288 338
#     4  11  22  36  58  86 120 155 200 242 290 350
#     4  10  21  38  62  90 118 152 196 249 303 351
#     4  11  23  39  60  86 121 164 200 236 290 357
#
# _framework density 18.752568
#
# number of rings (size 3 to 8) (size 9 to 14) (size 15 to 20)
#    0.000    1.750    2.500    2.250    0.000    4.250 
#    0.000    2.500    0.000    3.000    0.000    0.000 
#    0.000    0.000    0.000    0.000    0.000    0.000 
#
# Total GULP energy -178759.509771 kJ/mol
# GULP energy per Si atom -5586.234680 kJ/mol
# Density = 1.870989 g / cm^3
# Si number density = 18.752568 Si / 1000 Ang^3
#
#
#
# Elastic Constant Matrix: (Units=GPa)
#
#
# Indices 1 2 3 4 5 6 
#
# 1 33.4782 3.2199 -10.0982 0.0000 5.2651 0.0000
# 2 3.2199 119.9563 40.4207 0.0000 3.2324 0.0000
# 3 -10.0982 40.4207 60.8057 0.0000 8.3459 0.0000
# 4 0.0000 0.0000 0.0000 29.7317 0.0000 1.8711
# 5 5.2651 3.2324 8.3459 0.0000 22.5033 0.0000
# 6 0.0000 0.0000 0.0000 1.8711 0.0000 20.1058
#
#
#
# Elastic Compliance Matrix: (Units=1/GPa)
#
#
# Indices 1 2 3 4 5 6 
#
# 1 0.035079 -0.004026 0.010061 0.000000 -0.011360 0.000000
# 2 -0.004026 0.011234 -0.008475 0.000000 0.002472 0.000000
# 3 0.010061 -0.008475 0.025189 0.000000 -0.010478 0.000000
# 4 0.000000 0.000000 0.000000 0.033832 0.000000 -0.003148
# 5 -0.011360 0.002472 -0.010478 0.000000 0.050627 0.000000
# 6 0.000000 0.000000 0.000000 -0.003148 0.000000 0.050030
#
#
# Mechanical properties :
#
#
# Convention : Reuss Voigt Hill
#
# Bulk Modulus (GPa) = 15.01023 31.25833 23.13428
# Shear Modulus (GPa) = 21.45205 26.51468 23.98336
#
# Velocity S-wave (km/s) = 3.38591 3.76430 3.58010
# Velocity P-wave (km/s) = 4.82779 5.96643 5.42705
#
# Compressibility (1/GPa) = 0.06662125
#
# Stress axis : x y z
#
# Youngs Moduli (GPa) = 28.50728 89.01775 39.70000
#
# Poissons Ratio (x) = 0.35835 -0.39942
# Poissons Ratio (y) = 0.11476 0.33647
# Poissons Ratio (z) = -0.28681 0.75446
#
# Static dielectric constant tensor:
#      x y z
#    x 1.653080 0.000000 -0.005690 
#    y 0.000000 1.626230 0.000000 
#    z -0.005690 0.000000 1.635640 
# 
# From -- ./inp_files/76965.got.cif
#   From: 2010.05.17/outbox.cif.g08.bks.cpg/sg10_39_cif.got.tgz:76965.got - 2010.06.03 11:33:40.
