data_PCOD9151113
_publ_section_title
;
Structure prediction by ZEFSAII (Michael W. Deem and Ramdas Pophale) SiO2 
 PCOD9151113
Probable space group: P 2/M
;
_chemical_formula_sum "Si O2"
_cell_formula_units_Z 29
_cell_length_a 16.499443
_cell_length_b 16.217420
_cell_length_c 9.029652
_cell_angle_alpha 90.000000
_cell_angle_beta 141.675528
_cell_angle_gamma 90.000000
_cell_volume 1498.282523
_symmetry_space_group_name_H-M "P 2/M"
_symmetry_group_IT_number 10
_symmetry_cell_setting 'monoclinic'
loop_
_space_group_symop_operation_xyz
x,y,z
-x,y,-z
-x,-y,-z
x,-y,z
loop_
_atom_site_type_symbol
_atom_site_label
_atom_site_fract_x
_atom_site_fract_y
_atom_site_fract_z
Si Si1 0.549760 0.409568 0.900278
Si Si2 0.645872 0.830834 0.720852
Si Si3 0.683183 0.654947 0.609342
Si Si4 0.836842 0.743738 0.583672
Si Si5 0.000000 0.500000 0.500000
Si Si6 0.254438 0.740296 0.875570
Si Si7 0.842163 0.908291 0.774292
Si Si8 0.079916 0.356430 0.845486
O O1 0.613985 0.500000 0.979249
O O2 0.437256 0.400986 0.614131
O O3 0.500000 0.403138 0.000000
O O4 0.647455 0.336052 0.006240
O O5 0.500000 0.866645 0.500000
O O6 0.642968 0.739500 0.637595
O O7 0.761444 0.881819 0.806294
O O8 0.676916 0.813402 0.936851
O O9 0.740711 0.683758 0.534389
O O10 0.799443 0.616610 0.875317
O O11 0.801079 0.757932 0.363468
O O12 0.820702 0.831648 0.636375
O O13 0.975409 0.696834 0.787868
O O14 0.981586 0.428048 0.342927
O O15 0.141235 0.708532 0.819627
O O16 0.796508 0.000000 0.665372
O O17 0.000000 0.912143 0.000000
#
# Coordination Sequence:
#
# PCOD9151113 Si02
#       8
#     4   4   4   4   1   4   4   4
#     4  11  23  37  55  84 121 162 211 265 304 345
#     4  10  20  37  63  91 123 159 207 248 307 380
#     4  10  21  39  60  85 114 164 214 249 303 370
#     4  11  20  41  65  87 122 159 205 247 309 378
#     4  12  24  40  54  90 130 164 208 272 318 352
#     4  11  21  37  61  86 119 165 203 248 311 369
#     4  10  22  41  67  95 124 157 200 255 311 378
#     4  11  24  38  58  86 121 163 206 258 315 362
#
# _framework density 19.355495999999999
#
# number of rings (size 3 to 8) (size 9 to 14) (size 15 to 20)
#    0.000    1.379    4.138    2.897    1.931    0.276 
#    1.241    4.138    0.000    4.138    0.000    0.000 
#    0.000    0.000    0.000    0.000    0.000    0.000 
#
# Total GULP energy -161438.134746 kJ/mol
# GULP energy per Si atom -5566.832233 kJ/mol
# Density = 1.931144 g / cm^3
# Si number density = 19.355496 Si / 1000 Ang^3
#
#
#
# Elastic Constant Matrix: (Units=GPa)
#
#
# Indices 1 2 3 4 5 6 
#
# 1 64.3177 3.4390 13.8810 0.0000 2.5405 0.0000
# 2 3.4390 75.3291 11.8887 0.0000 5.8532 0.0000
# 3 13.8810 11.8887 74.7579 0.0000 -12.1143 0.0000
# 4 0.0000 0.0000 0.0000 19.2647 0.0000 1.8593
# 5 2.5405 5.8532 -12.1143 0.0000 32.9329 0.0000
# 6 0.0000 0.0000 0.0000 1.8593 0.0000 18.5003
#
#
#
# Elastic Compliance Matrix: (Units=1/GPa)
#
#
# Indices 1 2 3 4 5 6 
#
# 1 0.016394 -0.000006 -0.003454 0.000000 -0.002534 0.000000
# 2 -0.000006 0.013989 -0.002793 0.000000 -0.003513 0.000000
# 3 -0.003454 -0.002793 0.015510 0.000000 0.006468 0.000000
# 4 0.000000 0.000000 0.000000 0.052417 0.000000 -0.005268
# 5 -0.002534 -0.003513 0.006468 0.000000 0.033564 0.000000
# 6 0.000000 0.000000 0.000000 -0.005268 0.000000 0.054583
#
#
# Mechanical properties :
#
#
# Convention : Reuss Voigt Hill
#
# Bulk Modulus (GPa) = 29.95160 30.31356 30.13258
# Shear Modulus (GPa) = 23.79925 26.48599 25.14262
#
# Velocity S-wave (km/s) = 3.51035 3.70320 3.60806
# Velocity P-wave (km/s) = 5.65138 5.82927 5.74101
#
# Compressibility (1/GPa) = 0.03338720
#
# Stress axis : x y z
#
# Youngs Moduli (GPa) = 60.99952 71.48410 64.47440
#
# Poissons Ratio (x) = 0.00046 0.22266
# Poissons Ratio (y) = 0.00040 0.18006
# Poissons Ratio (z) = 0.21066 0.19964
#
# Static dielectric constant tensor:
#      x y z
#    x 1.549700 0.000000 0.018100 
#    y 0.000000 1.650480 0.000000 
#    z 0.018100 0.000000 1.730670 
# 
# From -- ./inp_files/30221.got.cif
#   From: 2010.05.17/outbox.cif.g08.bks.cpg/sg10_16_cif.got.tgz:30221.got - 2010.06.03 11:33:40.
