data_PCOD9151790
_publ_section_title
;
Structure prediction by ZEFSAII (Michael W. Deem and Ramdas Pophale) SiO2 
 PCOD9151790
Probable space group: P 2/M
;
_chemical_formula_sum "Si O2"
_cell_formula_units_Z 24
_cell_length_a 11.147780
_cell_length_b 21.945270
_cell_length_c 7.837451
_cell_angle_alpha 90.000000
_cell_angle_beta 39.950867
_cell_angle_gamma 90.000000
_cell_volume 1231.196668
_symmetry_space_group_name_H-M "P 2/M"
_symmetry_group_IT_number 10
_symmetry_cell_setting 'monoclinic'
loop_
_space_group_symop_operation_xyz
x,y,z
-x,y,-z
-x,-y,-z
x,-y,z
loop_
_atom_site_type_symbol
_atom_site_label
_atom_site_fract_x
_atom_site_fract_y
_atom_site_fract_z
Si Si1 0.364313 0.500000 0.891797
Si Si2 0.771210 0.500000 0.570805
Si Si3 0.668796 0.835730 0.054807
Si Si4 0.742953 0.171483 0.569161
Si Si5 0.066445 0.404205 0.123496
Si Si6 0.968016 0.069234 0.741831
Si Si7 0.043950 0.266094 0.151942
O O1 0.303718 0.500000 0.156101
O O2 0.260671 0.441009 0.926823
O O3 0.589157 0.500000 0.645971
O O4 0.905853 0.442367 0.394520
O O5 0.698113 0.836231 0.817840
O O6 0.772099 0.897854 0.997783
O O7 0.782903 0.778461 0.001876
O O8 0.449435 0.829326 0.324002
O O9 0.863747 0.232877 0.427497
O O10 0.873537 0.115737 0.367081
O O11 0.078889 0.334916 0.173166
O O12 0.000000 0.404160 0.000000
O O13 0.000000 0.067887 0.500000
O O14 0.980311 0.000000 0.789027
O O15 0.000000 0.268106 0.000000
#
# Coordination Sequence:
#
# PCOD9151790 Si02
#       7
#     2   2   4   4   4   4   4
#     4  10  21  36  55  79 104 130 161 199 244 293
#     4  10  21  36  55  79 104 130 161 199 244 293
#     4   9  18  32  50  73 100 130 165 205 249 296
#     4   9  18  32  50  73 100 130 165 205 249 296
#     4  10  21  36  54  75 100 132 167 204 244 287
#     4   8  14  26  46  73 102 128 158 202 252 297
#     4  10  21  35  51  73 100 131 168 206 244 289
#
# _framework density 19.493231000000002
#
# number of rings (size 3 to 8) (size 9 to 14) (size 15 to 20)
#    0.000    2.667    0.000    3.500    0.000    6.667 
#    0.000   10.000    0.000    8.000    0.000    9.333 
#    0.000    0.000    0.000    0.000    0.000    0.000 
#
# Total GULP energy -133880.108291 kJ/mol
# GULP energy per Si atom -5578.337845 kJ/mol
# Density = 1.944886 g / cm^3
# Si number density = 19.493231 Si / 1000 Ang^3
#
#
#
# Elastic Constant Matrix: (Units=GPa)
#
#
# Indices 1 2 3 4 5 6 
#
# 1 82.4536 41.7056 17.9278 0.0000 -37.0639 0.0000
# 2 41.7056 174.1918 23.8112 0.0000 -31.7057 0.0000
# 3 17.9278 23.8112 30.9725 0.0000 -23.9696 0.0000
# 4 0.0000 0.0000 0.0000 15.6335 0.0000 7.8701
# 5 -37.0639 -31.7057 -23.9696 0.0000 40.1706 0.0000
# 6 0.0000 0.0000 0.0000 7.8701 0.0000 21.3325
#
#
#
# Elastic Compliance Matrix: (Units=1/GPa)
#
#
# Indices 1 2 3 4 5 6 
#
# 1 0.021769 -0.002016 0.006061 0.000000 0.022111 0.000000
# 2 -0.002016 0.006956 -0.002548 0.000000 0.002110 0.000000
# 3 0.006061 -0.002548 0.062259 0.000000 0.040730 0.000000
# 4 0.000000 0.000000 0.000000 0.078554 0.000000 -0.028981
# 5 0.022111 0.002110 0.040730 0.000000 0.071263 0.000000
# 6 0.000000 0.000000 0.000000 -0.028981 0.000000 0.057569
#
#
# Mechanical properties :
#
#
# Convention : Reuss Voigt Hill
#
# Bulk Modulus (GPa) = 10.64090 50.50078 30.57084
# Shear Modulus (GPa) = 15.30449 29.03887 22.17168
#
# Velocity S-wave (km/s) = 2.80504 3.86384 3.37620
# Velocity P-wave (km/s) = 3.99520 6.77265 5.56014
#
# Compressibility (1/GPa) = 0.09397702
#
# Stress axis : x y z
#
# Youngs Moduli (GPa) = 45.93697 143.76613 16.06204
#
# Poissons Ratio (x) = 0.28983 -0.09735
# Poissons Ratio (y) = 0.09261 0.04093
# Poissons Ratio (z) = -0.27841 0.36631
#
# Static dielectric constant tensor:
#      x y z
#    x 1.720180 0.000000 0.022370 
#    y 0.000000 1.662420 0.000000 
#    z 0.022370 0.000000 1.663520 
# 
# From -- ./inp_files/25946.got.cif
#   From: 2010.05.17/outbox.cif.g08.bks.cpg/sg10_13_cif.got.tgz:25946.got - 2010.06.03 11:33:40.
