data_PCOD9151611
_publ_section_title
;
Structure prediction by ZEFSAII (Michael W. Deem and Ramdas Pophale) SiO2 
 PCOD9151611
Probable space group: P 2/M
;
_chemical_formula_sum "Si O2"
_cell_formula_units_Z 29
_cell_length_a 9.123503
_cell_length_b 9.509988
_cell_length_c 29.015066
_cell_angle_alpha 90.000000
_cell_angle_beta 145.761483
_cell_angle_gamma 90.000000
_cell_volume 1416.430206
_symmetry_space_group_name_H-M "P 2/M"
_symmetry_group_IT_number 10
_symmetry_cell_setting 'monoclinic'
loop_
_space_group_symop_operation_xyz
x,y,z
-x,y,-z
-x,-y,-z
x,-y,z
loop_
_atom_site_type_symbol
_atom_site_label
_atom_site_fract_x
_atom_site_fract_y
_atom_site_fract_z
Si Si1 0.602378 0.659287 0.474901
Si Si2 0.655510 0.663455 0.186085
Si Si3 0.680828 0.168238 0.747244
Si Si4 0.855861 0.257912 0.893308
Si Si5 0.148866 0.168947 0.308737
Si Si6 0.436697 0.339293 0.033169
Si Si7 0.078634 0.162692 0.574344
Si Si8 0.000000 0.000000 0.000000
O O1 0.500000 0.651838 0.500000
O O2 0.607883 0.500000 0.457106
O O3 0.406025 0.760942 0.396657
O O4 0.884226 0.730650 0.548092
O O5 0.738649 0.500000 0.205131
O O6 0.396531 0.671261 0.149513
O O7 0.892777 0.760671 0.264019
O O8 0.571629 0.721064 0.113732
O O9 0.785913 0.227929 0.822085
O O10 0.840865 0.206258 0.743024
O O11 0.378071 0.203878 0.659662
O O12 0.691938 0.000000 0.753681
O O13 0.915735 0.122106 0.940196
O O14 0.129303 0.339147 0.962940
O O15 0.152165 0.000000 0.314740
O O16 0.531721 0.500000 0.055228
O O17 0.500000 0.271108 0.000000
O O18 0.000000 0.166135 0.500000
O O19 0.044345 0.000000 0.580963
#
# Coordination Sequence:
#
# PCOD9151611 Si02
#       8
#     4   4   4   4   4   4   4   1
#     4  11  25  44  64  94 134 170 213 263 324 390
#     4  11  24  41  62  91 129 167 210 264 325 383
#     4  10  22  40  63  95 128 164 214 274 323 379
#     4  12  23  41  63  94 131 168 214 266 326 377
#     4  11  24  43  67  94 126 168 216 269 324 379
#     4  10  21  40  65  89 119 164 211 256 318 389
#     4  10  20  41  69  94 125 166 215 267 322 383
#     4  12  24  40  64  96 130 170 218 266 316 388
#
# _framework density 20.474005999999999
#
# number of rings (size 3 to 8) (size 9 to 14) (size 15 to 20)
#    0.000    1.241    3.448    2.069    2.897    2.483 
#    0.000    3.103    0.000    0.000    0.000    0.000 
#    0.000    0.000    0.000    0.000    0.000    0.000 
#
# Total GULP energy -161668.948506 kJ/mol
# GULP energy per Si atom -5574.791328 kJ/mol
# Density = 2.042741 g / cm^3
# Si number density = 20.474006 Si / 1000 Ang^3
#
#
#
# Elastic Constant Matrix: (Units=GPa)
#
#
# Indices 1 2 3 4 5 6 
#
# 1 74.2556 30.4119 6.5241 0.0000 14.0056 0.0000
# 2 30.4119 83.7612 21.1085 0.0000 7.1875 0.0000
# 3 6.5241 21.1085 80.0797 0.0000 3.8429 0.0000
# 4 0.0000 0.0000 0.0000 31.0827 0.0000 -10.6484
# 5 14.0056 7.1875 3.8429 0.0000 40.9714 0.0000
# 6 0.0000 0.0000 0.0000 -10.6484 0.0000 3.6141
#
#
#
# Elastic Compliance Matrix: (Units=1/GPa)
#
#
# Indices 1 2 3 4 5 6 
#
# 1 0.016679 -0.005746 0.000383 0.000000 -0.004729 0.000000
# 2 -0.005746 0.014923 -0.003450 0.000000 -0.000330 0.000000
# 3 0.000383 -0.003450 0.013403 0.000000 -0.000783 0.000000
# 4 0.000000 0.000000 0.000000 -3.435164 0.000000-10.121113
# 5 -0.004729 -0.000330 -0.000783 0.000000 0.026155 0.000000
# 6 0.000000 0.000000 0.000000-10.121113 0.000000-29.543408
#
#
# Mechanical properties :
#
#
# Convention : Reuss Voigt Hill
#
# Bulk Modulus (GPa) = 36.52488 39.35394 37.93941
# Shear Modulus (GPa) = -0.15207 27.13711 13.49252
#
# Velocity S-wave (km/s) = -0.27283 3.64461 2.56990
# Velocity P-wave (km/s) = 4.21653 6.08063 5.23226
#
# Compressibility (1/GPa) = 0.02737860
#
# Stress axis : x y z
#
# Youngs Moduli (GPa) = 59.95614 67.01192 74.60902
#
# Poissons Ratio (x) = 0.38508 -0.02856
# Poissons Ratio (y) = 0.34453 0.25737
# Poissons Ratio (z) = -0.02295 0.23116
#
# Static dielectric constant tensor:
#      x y z
#    x 1.759620 0.000000 -0.018020 
#    y 0.000000 1.710930 0.000000 
#    z -0.018020 0.000000 1.737200 
# 
# From -- ./inp_files/92137.got.cif
#   From: 2010.05.17/outbox.cif.g08.bks.cpg/sg10_47_cif.got.tgz:92137.got - 2010.06.03 11:33:40.
