data_PCOD9151340
_publ_section_title
;
Structure prediction by ZEFSAII (Michael W. Deem and Ramdas Pophale) SiO2 
 PCOD9151340
Probable space group: P 2/M
;
_chemical_formula_sum "Si O2"
_cell_formula_units_Z 17
_cell_length_a 14.527903
_cell_length_b 10.815625
_cell_length_c 9.862983
_cell_angle_alpha 90.000000
_cell_angle_beta 152.658898
_cell_angle_gamma 90.000000
_cell_volume 711.781826
_symmetry_space_group_name_H-M "P 2/M"
_symmetry_group_IT_number 10
_symmetry_cell_setting 'monoclinic'
loop_
_space_group_symop_operation_xyz
x,y,z
-x,y,-z
-x,-y,-z
x,-y,z
loop_
_atom_site_type_symbol
_atom_site_label
_atom_site_fract_x
_atom_site_fract_y
_atom_site_fract_z
Si Si1 0.132583 0.500000 0.541818
Si Si2 0.561999 0.856989 0.858810
Si Si3 0.000000 0.000000 0.000000
Si Si4 0.220248 0.236777 0.605549
Si Si5 0.208867 0.777792 0.102138
Si Si6 0.161784 0.500000 0.095258
O O1 0.258749 0.377121 0.697690
O O2 0.967061 0.500000 0.209003
O O3 0.000000 0.500000 0.500000
O O4 0.734533 0.840616 0.199887
O O5 0.625621 0.807626 0.795792
O O6 0.519259 0.000000 0.788981
O O7 0.370621 0.798344 0.682317
O O8 0.851844 0.111449 0.873784
O O9 0.996887 0.227610 0.256885
O O10 0.254489 0.639302 0.220736
O O11 0.000000 0.500000 0.000000
#
# Coordination Sequence:
#
# PCOD9151340 Si02
#       6
#     2   4   1   4   4   2
#     4  10  20  38  63  93 119 163 210 248 315 364
#     4  11  23  37  59  94 120 158 199 247 314 373
#     4  12  24  38  64  88 116 172 208 246 302 362
#     4  10  22  38  62  89 124 152 195 257 305 365
#     4  11  23  41  63  87 122 159 208 248 309 356
#     4  10  20  39  63  85 120 161 199 255 305 362
#
# _framework density 23.883723
#
# number of rings (size 3 to 8) (size 9 to 14) (size 15 to 20)
#    0.000    1.412    2.353    4.941    3.294    3.765 
#    0.000    2.353    0.000    2.824    0.000    0.000 
#    0.000    0.000    0.000    0.000    0.000    0.000 
#
# Total GULP energy -94751.624520 kJ/mol
# GULP energy per Si atom -5573.624972 kJ/mol
# Density = 2.382936 g / cm^3
# Si number density = 23.883723 Si / 1000 Ang^3
#
#
#
# Elastic Constant Matrix: (Units=GPa)
#
#
# Indices 1 2 3 4 5 6 
#
# 1 316.4301 59.1129 26.4692 0.0000 57.3155 0.0000
# 2 59.1129 297.6911 18.5177 0.0000 15.0232 0.0000
# 3 26.4692 18.5177 54.1667 0.0000 0.0508 0.0000
# 4 0.0000 0.0000 0.0000 22.9407 0.0000 5.5687
# 5 57.3155 15.0232 0.0508 0.0000 50.9759 0.0000
# 6 0.0000 0.0000 0.0000 5.5687 0.0000 51.6100
#
#
#
# Elastic Compliance Matrix: (Units=1/GPa)
#
#
# Indices 1 2 3 4 5 6 
#
# 1 0.004250 -0.000492 -0.001905 0.000000 -0.004632 0.000000
# 2 -0.000492 0.003542 -0.000970 0.000000 -0.000490 0.000000
# 3 -0.001905 -0.000970 0.019722 0.000000 0.002408 0.000000
# 4 0.000000 0.000000 0.000000 0.044763 0.000000 -0.004830
# 5 -0.004632 -0.000490 0.002408 0.000000 0.024968 0.000000
# 6 0.000000 0.000000 0.000000 -0.004830 0.000000 0.019897
#
#
# Mechanical properties :
#
#
# Convention : Reuss Voigt Hill
#
# Bulk Modulus (GPa) = 48.12064 97.38750 72.75407
# Shear Modulus (GPa) = 38.22575 62.71784 50.47180
#
# Velocity S-wave (km/s) = 4.00496 5.12998 4.60198
# Velocity P-wave (km/s) = 6.44809 8.71511 7.66586
#
# Compressibility (1/GPa) = 0.02078110
#
# Stress axis : x y z
#
# Youngs Moduli (GPa) = 235.26647 282.33371 50.70584
#
# Poissons Ratio (x) = 0.13885 0.09657
# Poissons Ratio (y) = 0.11570 0.04919
# Poissons Ratio (z) = 0.44809 0.27389
#
# Static dielectric constant tensor:
#      x y z
#    x 4.014750 0.000000 -1.611050 
#    y 0.000000 1.897140 0.000000 
#    z -1.611050 0.000000 3.130570 
# 
# From -- ./inp_files/50516.got.cif
#   From: 2010.05.17/outbox.cif.g08.bks.cpg/sg10_26_cif.got.tgz:50516.got - 2010.06.03 11:33:40.
