data_PCOD9151776
_publ_section_title
;
Structure prediction by ZEFSAII (Michael W. Deem and Ramdas Pophale) SiO2 
 PCOD9151776
Probable space group: P 2/M
;
_chemical_formula_sum "Si O2"
_cell_formula_units_Z 24
_cell_length_a 18.728668
_cell_length_b 7.425005
_cell_length_c 25.010211
_cell_angle_alpha 90.000000
_cell_angle_beta 160.903640
_cell_angle_gamma 90.000000
_cell_volume 1137.832576
_symmetry_space_group_name_H-M "P 2/M"
_symmetry_group_IT_number 10
_symmetry_cell_setting 'monoclinic'
loop_
_space_group_symop_operation_xyz
x,y,z
-x,y,-z
-x,-y,-z
x,-y,z
loop_
_atom_site_type_symbol
_atom_site_label
_atom_site_fract_x
_atom_site_fract_y
_atom_site_fract_z
Si Si1 0.253204 0.288743 0.824341
Si Si2 0.930335 0.780059 0.009849
Si Si3 0.566242 0.220531 0.329212
Si Si4 0.249219 0.779801 0.330322
Si Si5 0.087258 0.206275 0.507144
Si Si6 0.894829 0.217023 0.654614
O O1 0.102637 0.204795 0.671759
O O2 0.122123 0.268170 0.787197
O O3 0.147891 0.000000 0.563287
O O4 0.500000 0.218217 0.000000
O O5 0.098705 0.722121 0.174529
O O6 0.931714 0.000000 0.010940
O O7 0.683206 0.722924 0.846487
O O8 0.000000 0.722879 0.000000
O O9 0.703406 0.284727 0.375052
O O10 0.701636 0.275875 0.477666
O O11 0.570179 0.000000 0.331707
O O12 0.500000 0.724001 0.500000
O O13 0.151458 0.720778 0.318126
O O14 0.249244 0.000000 0.330632
O O15 0.735810 0.500000 0.180633
O O16 0.000000 0.290486 0.500000
O O17 0.890387 0.000000 0.652383
#
# Coordination Sequence:
#
# PCOD9151776 Si02
#       6
#     4   4   4   4   4   4
#     4  10  21  35  50  70  98 132 168 205 247 296
#     4   9  15  22  35  58  90 123 149 180 227 280
#     4   8  14  25  39  58  86 117 148 184 228 274
#     4   9  16  25  40  66  97 126 155 189 234 286
#     4   9  18  32  51  74  98 124 158 203 250 295
#     4   9  17  30  48  68  93 125 160 200 242 285
#
# _framework density 21.092734
#
# number of rings (size 3 to 8) (size 9 to 14) (size 15 to 20)
#    0.000    3.000    0.000    2.500    0.000    7.000 
#    0.000    3.333    0.000    0.500    0.000    0.000 
#    0.000   16.667    0.000    0.000    0.000    0.000 
#
# Total GULP energy -133955.741959 kJ/mol
# GULP energy per Si atom -5581.489248 kJ/mol
# Density = 2.104473 g / cm^3
# Si number density = 21.092734 Si / 1000 Ang^3
#
#
#
# Elastic Constant Matrix: (Units=GPa)
#
#
# Indices 1 2 3 4 5 6 
#
# 1 229.0042 -0.2005 121.9107 0.0000 11.1903 0.0000
# 2 -0.2005 68.1674 -2.5747 0.0000 -0.6886 0.0000
# 3 121.9107 -2.5747 184.1171 0.0000 31.4991 0.0000
# 4 0.0000 0.0000 0.0000 -651.0945 0.0000 -177.5605
# 5 11.1903 -0.6886 31.4991 0.0000 29.1523 0.0000
# 6 0.0000 0.0000 0.0000 -177.5605 0.0000 -40.7306
#
#
#
# Elastic Compliance Matrix: (Units=1/GPa)
#
#
# Indices 1 2 3 4 5 6 
#
# 1 0.006929 -0.000143 -0.005072 0.000000 0.002817 0.000000
# 2 -0.000143 0.014681 0.000284 0.000000 0.000095 0.000000
# 3 -0.005072 0.000284 0.010378 0.000000 -0.009260 0.000000
# 4 0.000000 0.000000 0.000000 0.008133 0.000000 -0.035453
# 5 0.002817 0.000095 -0.009260 0.000000 0.043228 0.000000
# 6 0.000000 0.000000 0.000000 -0.035453 0.000000 0.130003
#
#
# Mechanical properties :
#
#
# Convention : Reuss Voigt Hill
#
# Bulk Modulus (GPa) = 45.19669 79.95109 62.57389
# Shear Modulus (GPa) = 21.68356 -108.39100 -43.35372
#
# Velocity S-wave (km/s) = 3.20974 -7.17631 -4.53856
# Velocity P-wave (km/s) = 5.93386 5.53886 1.50527
#
# Compressibility (1/GPa) = 0.02212551
#
# Stress axis : x y z
#
# Youngs Moduli (GPa) = 144.32164 68.11518 96.36052
#
# Poissons Ratio (x) = 0.00972 0.48873
# Poissons Ratio (y) = 0.02060 -0.02732
# Poissons Ratio (z) = 0.73198 -0.01931
#
# Static dielectric constant tensor:
#      x y z
#    x 1.727440 0.000000 0.005030 
#    y 0.000000 1.780220 0.000000 
#    z 0.005030 0.000000 1.703150 
# 
# From -- ./inp_files/80053.got.cif
#   From: 2010.05.17/outbox.cif.g08.bks.cpg/sg10_41_cif.got.tgz:80053.got - 2010.06.03 11:33:40.
