data_PCOD9151399
_publ_section_title
;
Structure prediction by ZEFSAII (Michael W. Deem and Ramdas Pophale) SiO2 
 PCOD9151399
Probable space group: P 2/M
;
_chemical_formula_sum "Si O2"
_cell_formula_units_Z 25
_cell_length_a 5.462425
_cell_length_b 12.437058
_cell_length_c 17.903253
_cell_angle_alpha 90.000000
_cell_angle_beta 64.040847
_cell_angle_gamma 90.000000
_cell_volume 1093.568911
_symmetry_space_group_name_H-M "P 2/M"
_symmetry_group_IT_number 10
_symmetry_cell_setting 'monoclinic'
loop_
_space_group_symop_operation_xyz
x,y,z
-x,y,-z
-x,-y,-z
x,-y,z
loop_
_atom_site_type_symbol
_atom_site_label
_atom_site_fract_x
_atom_site_fract_y
_atom_site_fract_z
Si Si1 0.237526 0.873048 0.727189
Si Si2 0.746146 0.500000 0.838486
Si Si3 0.000000 0.000000 0.500000
Si Si4 0.300232 0.707284 0.327638
Si Si5 0.680638 0.123182 0.052053
Si Si6 0.390839 0.500000 0.733989
Si Si7 0.784894 0.803193 0.442055
Si Si8 0.759593 0.727886 0.832792
O O1 0.529517 0.817761 0.698624
O O2 0.185338 0.850712 0.646206
O O3 0.012906 0.809872 0.807444
O O4 0.232650 0.000000 0.742511
O O5 0.513712 0.500000 0.803406
O O6 0.727445 0.616505 0.882193
O O7 0.067140 0.500000 0.774483
O O8 0.804394 0.094647 0.492800
O O9 0.495043 0.607960 0.319327
O O10 0.201146 0.687110 0.256776
O O11 0.041146 0.724513 0.413067
O O12 0.517418 0.205317 0.124933
O O13 0.666869 0.000000 0.081731
O O14 0.500000 0.126989 0.000000
O O15 0.000000 0.149069 0.000000
O O16 0.500000 0.749190 0.500000
#
# Coordination Sequence:
#
# PCOD9151399 Si02
#       8
#     4   2   1   4   4   2   4   4
#     4  11  22  36  59  93 124 154 209 257 314 376
#     4  10  20  38  66  93 124 163 215 258 333 366
#     4  12  22  40  60  76 132 172 194 252 322 400
#     4  10  23  38  64  90 122 161 212 264 317 376
#     4  10  23  41  63  91 132 178 213 251 315 384
#     4  10  20  42  63  92 123 169 208 268 319 380
#     4  11  24  38  56  86 123 167 204 253 318 390
#     4  10  22  40  62  93 125 166 208 270 310 376
#
# _framework density 22.86093
#
# number of rings (size 3 to 8) (size 9 to 14) (size 15 to 20)
#    0.000    1.600    2.400    1.680    5.600    1.280 
#    0.000    1.200    0.000    3.360    0.000    0.000 
#    0.000    0.000    0.000    0.000    0.000    0.000 
#
# Total GULP energy -139243.840215 kJ/mol
# GULP energy per Si atom -5569.753609 kJ/mol
# Density = 2.280890 g / cm^3
# Si number density = 22.860930 Si / 1000 Ang^3
#
#
#
# Elastic Constant Matrix: (Units=GPa)
#
#
# Indices 1 2 3 4 5 6 
#
# 1 122.6700 35.8549 31.5683 0.0000 -39.6581 0.0000
# 2 35.8549 122.5057 39.0847 0.0000 -32.3052 0.0000
# 3 31.5683 39.0847 66.5291 0.0000 -32.0954 0.0000
# 4 0.0000 0.0000 0.0000 4.1610 0.0000 -4.2193
# 5 -39.6581 -32.3052 -32.0954 0.0000 49.6895 0.0000
# 6 0.0000 0.0000 0.0000 -4.2193 0.0000 16.9798
#
#
#
# Elastic Compliance Matrix: (Units=1/GPa)
#
#
# Indices 1 2 3 4 5 6 
#
# 1 0.011159 -0.000912 -0.001088 0.000000 0.007611 0.000000
# 2 -0.000912 0.010684 -0.004131 0.000000 0.003550 0.000000
# 3 -0.001088 -0.004131 0.023620 0.000000 0.011703 0.000000
# 4 0.000000 0.000000 0.000000 0.321283 0.000000 0.079835
# 5 0.007611 0.003550 0.011703 0.000000 0.036066 0.000000
# 6 0.000000 0.000000 0.000000 0.079835 0.000000 0.078731
#
#
# Mechanical properties :
#
#
# Convention : Reuss Voigt Hill
#
# Bulk Modulus (GPa) = 30.11992 58.30229 44.21110
# Shear Modulus (GPa) = 9.90351 27.84583 18.87467
#
# Velocity S-wave (km/s) = 2.08362 3.49385 2.87649
# Velocity P-wave (km/s) = 4.35804 6.46795 5.51484
#
# Compressibility (1/GPa) = 0.03320062
#
# Stress axis : x y z
#
# Youngs Moduli (GPa) = 89.61483 93.59810 42.33732
#
# Poissons Ratio (x) = 0.08536 0.04604
# Poissons Ratio (y) = 0.08173 0.17492
# Poissons Ratio (z) = 0.09746 0.38670
#
# Static dielectric constant tensor:
#      x y z
#    x 1.936000 0.000000 0.073380 
#    y 0.000000 1.884800 0.000000 
#    z 0.073380 0.000000 1.890560 
# 
# From -- ./inp_files/81053.got.cif
#   From: 2010.05.17/outbox.cif.g08.bks.cpg/sg10_41_cif.got.tgz:81053.got - 2010.06.03 11:33:40.
