data_PCOD9151480
_publ_section_title
;
Structure prediction by ZEFSAII (Michael W. Deem and Ramdas Pophale) SiO2 
 PCOD9151480
Probable space group: P 2/M
;
_chemical_formula_sum "Si O2"
_cell_formula_units_Z 21
_cell_length_a 5.235847
_cell_length_b 27.080152
_cell_length_c 9.438443
_cell_angle_alpha 90.000000
_cell_angle_beta 56.115382
_cell_angle_gamma 90.000000
_cell_volume 1110.967227
_symmetry_space_group_name_H-M "P 2/M"
_symmetry_group_IT_number 10
_symmetry_cell_setting 'monoclinic'
loop_
_space_group_symop_operation_xyz
x,y,z
-x,y,-z
-x,-y,-z
x,-y,z
loop_
_atom_site_type_symbol
_atom_site_label
_atom_site_fract_x
_atom_site_fract_y
_atom_site_fract_z
Si Si1 0.868360 0.232936 0.382195
Si Si2 0.000000 0.500000 0.500000
Si Si3 0.136564 0.602169 0.600758
Si Si4 0.863979 0.941502 0.386875
Si Si5 0.866339 0.322242 0.884564
Si Si6 0.867295 0.857087 0.883173
O O1 0.500000 0.232860 0.500000
O O2 0.000000 0.232275 0.500000
O O3 0.988275 0.280763 0.261264
O O4 0.990414 0.185577 0.258926
O O5 0.925749 0.544289 0.406491
O O6 0.500000 0.610688 0.500000
O O7 0.000000 0.626886 0.500000
O O8 0.966827 0.625416 0.786858
O O9 0.500000 0.930674 0.500000
O O10 0.000000 0.930112 0.500000
O O11 0.031837 0.908703 0.218196
O O12 0.904456 0.000000 0.348393
O O13 0.500000 0.317544 0.000000
O O14 0.000000 0.316697 0.000000
O O15 0.500000 0.852581 0.000000
O O16 0.000000 0.852754 0.000000
#
# Coordination Sequence:
#
# PCOD9151480 Si02
#       6
#     4   1   4   4   4   4
#     4  12  24  42  65  88 116 161 205 239 292 365
#     4   8  22  36  70  82 122 152 218 234 276 344
#     4  10  20  39  63  87 115 161 201 238 283 347
#     4  10  21  39  61  85 117 161 208 248 290 356
#     4  12  24  40  61  92 126 152 192 250 305 348
#     4  12  24  39  60  90 125 155 193 254 310 352
#
# _framework density 18.902449000000001
#
# number of rings (size 3 to 8) (size 9 to 14) (size 15 to 20)
#    0.571    0.381    0.000    8.286    0.000    0.762 
#    0.000    0.952    0.000    0.000    0.000    0.000 
#    0.000    0.000    0.000    0.000    0.000    0.000 
#
# Total GULP energy -117137.574551 kJ/mol
# GULP energy per Si atom -5577.979741 kJ/mol
# Density = 1.885943 g / cm^3
# Si number density = 18.902449 Si / 1000 Ang^3
#
#
#
# Elastic Constant Matrix: (Units=GPa)
#
#
# Indices 1 2 3 4 5 6 
#
# 1 216.8833 63.3139 113.0471 0.0000 2.2962 0.0000
# 2 63.3139 87.4982 76.6943 0.0000 -2.0022 0.0000
# 3 113.0471 76.6943 154.8174 0.0000 1.0597 0.0000
# 4 0.0000 0.0000 0.0000 11.5718 0.0000 0.6594
# 5 2.2962 -2.0022 1.0597 0.0000 54.5601 0.0000
# 6 0.0000 0.0000 0.0000 0.6594 0.0000 6.8843
#
#
#
# Elastic Compliance Matrix: (Units=1/GPa)
#
#
# Indices 1 2 3 4 5 6 
#
# 1 0.007508 -0.001122 -0.004925 0.000000 -0.000262 0.000000
# 2 -0.001122 0.020416 -0.009301 0.000000 0.000977 0.000000
# 3 -0.004925 -0.009301 0.014665 0.000000 -0.000419 0.000000
# 4 0.000000 0.000000 0.000000 0.086891 0.000000 -0.008323
# 5 -0.000262 0.000977 -0.000419 0.000000 0.018383 0.000000
# 6 0.000000 0.000000 0.000000 -0.008323 0.000000 0.146056
#
#
# Mechanical properties :
#
#
# Convention : Reuss Voigt Hill
#
# Bulk Modulus (GPa) = 84.07744 107.25660 95.66702
# Shear Modulus (GPa) = 15.21701 28.34614 21.78158
#
# Velocity S-wave (km/s) = 2.84038 3.87667 3.39826
# Velocity P-wave (km/s) = 7.43863 8.76946 8.13132
#
# Compressibility (1/GPa) = 0.01189380
#
# Stress axis : x y z
#
# Youngs Moduli (GPa) = 133.19067 48.98203 68.18729
#
# Poissons Ratio (x) = 0.05497 0.33579
# Poissons Ratio (y) = 0.14948 0.63420
# Poissons Ratio (z) = 0.65591 0.45557
#
# Static dielectric constant tensor:
#      x y z
#    x 1.640820 0.000000 0.006230 
#    y 0.000000 1.661730 0.000000 
#    z 0.006230 0.000000 1.611160 
# 
# From -- ./inp_files/15695.got.cif
#   From: 2010.05.17/outbox.cif.g08.bks.cpg/sg10_8_cif.got.tgz:15695.got - 2010.06.03 11:33:40.
