data_PCOD9151740
_publ_section_title
;
Structure prediction by ZEFSAII (Michael W. Deem and Ramdas Pophale) SiO2 
 PCOD9151740
Probable space group: P 2/M
;
_chemical_formula_sum "Si O2"
_cell_formula_units_Z 26
_cell_length_a 11.419414
_cell_length_b 12.021538
_cell_length_c 10.737741
_cell_angle_alpha 90.000000
_cell_angle_beta 106.593564
_cell_angle_gamma 90.000000
_cell_volume 1412.677522
_symmetry_space_group_name_H-M "P 2/M"
_symmetry_group_IT_number 10
_symmetry_cell_setting 'monoclinic'
loop_
_space_group_symop_operation_xyz
x,y,z
-x,y,-z
-x,-y,-z
x,-y,z
loop_
_atom_site_type_symbol
_atom_site_label
_atom_site_fract_x
_atom_site_fract_y
_atom_site_fract_z
Si Si1 0.938492 0.000000 0.677861
Si Si2 0.725019 0.633431 0.175788
Si Si3 0.570814 0.867689 0.759210
Si Si4 0.186575 0.000000 0.633777
Si Si5 0.500000 0.771990 0.000000
Si Si6 0.321175 0.219961 0.608030
Si Si7 0.012090 0.366572 0.860260
Si Si8 0.803357 0.780946 0.699541
O O1 0.888575 0.110141 0.725587
O O2 0.879957 0.000000 0.521154
O O3 0.083022 0.000000 0.706030
O O4 0.713558 0.500000 0.163858
O O5 0.616143 0.694723 0.068807
O O6 0.708888 0.676288 0.312565
O O7 0.858525 0.666340 0.162653
O O8 0.464173 0.809091 0.646199
O O9 0.696352 0.805528 0.764891
O O10 0.579426 0.000000 0.734491
O O11 0.533299 0.845688 0.890316
O O12 0.265270 0.888773 0.659513
O O13 0.739982 0.229771 0.545211
O O14 0.009423 0.500000 0.857989
O O15 0.893934 0.319689 0.754281
O O16 0.000000 0.328884 0.000000
#
# Coordination Sequence:
#
# PCOD9151740 Si02
#       8
#     2   4   4   2   2   4   4   4
#     4   9  18  29  50  78 107 148 178 220 282 340
#     4  10  21  39  61  86 117 153 196 242 291 344
#     4  11  21  37  59  86 118 156 195 238 291 349
#     4   9  16  31  49  74 113 144 182 223 272 336
#     4  10  22  38  62  88 112 153 197 246 288 340
#     4  10  21  34  57  87 114 153 191 237 290 348
#     4  10  22  40  61  82 112 157 200 240 289 345
#     4  11  21  36  57  85 119 149 193 237 290 347
#
# _framework density 18.404767
#
# number of rings (size 3 to 8) (size 9 to 14) (size 15 to 20)
#    0.000    1.846    1.538    2.769    0.000    3.077 
#    0.000    5.000    0.000    4.615    0.000    0.000 
#    0.000    0.000    0.000    0.000    0.000    0.000 
#
# Total GULP energy -145105.047302 kJ/mol
# GULP energy per Si atom -5580.963358 kJ/mol
# Density = 1.836288 g / cm^3
# Si number density = 18.404767 Si / 1000 Ang^3
#
#
#
# Elastic Constant Matrix: (Units=GPa)
#
#
# Indices 1 2 3 4 5 6 
#
# 1 142.8978 26.4118 26.8701 0.0000 2.2155 0.0000
# 2 26.4118 39.0300 11.5994 0.0000 2.4131 0.0000
# 3 26.8701 11.5994 73.1040 0.0000 0.7705 0.0000
# 4 0.0000 0.0000 0.0000 12.8836 0.0000 2.5221
# 5 2.2155 2.4131 0.7705 0.0000 20.5462 0.0000
# 6 0.0000 0.0000 0.0000 2.5221 0.0000 26.1472
#
#
#
# Elastic Compliance Matrix: (Units=1/GPa)
#
#
# Indices 1 2 3 4 5 6 
#
# 1 0.008346 -0.004956 -0.002279 0.000000 -0.000232 0.000000
# 2 -0.004956 0.030019 -0.002911 0.000000 -0.002882 0.000000
# 3 -0.002279 -0.002911 0.014978 0.000000 0.000026 0.000000
# 4 0.000000 0.000000 0.000000 0.079112 0.000000 -0.007631
# 5 -0.000232 -0.002882 0.000026 0.000000 0.049033 0.000000
# 6 0.000000 0.000000 0.000000 -0.007631 0.000000 0.038981
#
#
# Mechanical properties :
#
#
# Convention : Reuss Voigt Hill
#
# Bulk Modulus (GPa) = 30.25632 42.75493 36.50562
# Shear Modulus (GPa) = 19.85871 24.59211 22.22541
#
# Velocity S-wave (km/s) = 3.28837 3.65935 3.47881
# Velocity P-wave (km/s) = 5.55814 6.41367 6.00117
#
# Compressibility (1/GPa) = 0.03305095
#
# Stress axis : x y z
#
# Youngs Moduli (GPa) = 119.81511 33.31276 66.76301
#
# Poissons Ratio (x) = 0.16511 0.15214
# Poissons Ratio (y) = 0.59384 0.19434
# Poissons Ratio (z) = 0.27304 0.09697
#
# Static dielectric constant tensor:
#      x y z
#    x 1.647650 0.000000 0.001170 
#    y 0.000000 1.610960 0.000000 
#    z 0.001170 0.000000 1.628560 
# 
# From -- ./inp_files/60772.got.cif
#   From: 2010.05.17/outbox.cif.g08.bks.cpg/sg10_31_cif.got.tgz:60772.got - 2010.06.03 11:33:40.
