data_PCOD9151671
_publ_section_title
;
Structure prediction by ZEFSAII (Michael W. Deem and Ramdas Pophale) SiO2 
 PCOD9151671
Probable space group: P 2/M
;
_chemical_formula_sum "Si O2"
_cell_formula_units_Z 32
_cell_length_a 14.638739
_cell_length_b 8.473612
_cell_length_c 16.145599
_cell_angle_alpha 90.000000
_cell_angle_beta 90.274746
_cell_angle_gamma 90.000000
_cell_volume 2002.725422
_symmetry_space_group_name_H-M "P 2/M"
_symmetry_group_IT_number 10
_symmetry_cell_setting 'monoclinic'
loop_
_space_group_symop_operation_xyz
x,y,z
-x,y,-z
-x,-y,-z
x,-y,z
loop_
_atom_site_type_symbol
_atom_site_label
_atom_site_fract_x
_atom_site_fract_y
_atom_site_fract_z
Si Si1 0.610970 0.182577 0.002012
Si Si2 0.905622 0.314344 0.403057
Si Si3 0.898397 0.814541 0.587214
Si Si4 0.601984 0.193085 0.182582
Si Si5 0.389973 0.808277 0.179459
Si Si6 0.280524 0.689028 0.336071
Si Si7 0.393935 0.690712 0.499929
Si Si8 0.717235 0.810938 0.342085
O O1 0.638259 0.249868 0.912818
O O2 0.641748 0.000000 0.002630
O O3 0.500000 0.180242 0.000000
O O4 0.634632 0.251256 0.092073
O O5 0.919722 0.500000 0.394931
O O6 0.885797 0.274738 0.499560
O O7 0.818127 0.259374 0.351509
O O8 0.999848 0.226708 0.382178
O O9 0.819073 0.760778 0.648248
O O10 0.891612 0.000000 0.570623
O O11 0.495928 0.238769 0.194628
O O12 0.664477 0.242683 0.259192
O O13 0.602519 0.000000 0.179669
O O14 0.326889 0.746331 0.252083
O O15 0.387978 0.000000 0.178434
O O16 0.274331 0.500000 0.336325
O O17 0.343790 0.737378 0.414626
O O18 0.500000 0.738948 0.500000
O O19 0.390379 0.500000 0.505756
O O20 0.340957 0.760198 0.578040
O O21 0.723618 0.000000 0.340801
#
# Coordination Sequence:
#
# PCOD9151671 Si02
#       8
#     4   4   4   4   4   4   4   4
#     4   7  11  23  44  68  93 122 158 201 245 280
#     4  11  21  35  52  70  95 124 154 193 244 292
#     4  11  21  35  54  73  91 116 158 204 240 280
#     4   8  15  27  45  71  99 126 161 204 243 276
#     4   9  16  28  48  71  95 127 166 204 237 278
#     4  11  21  32  46  67  98 132 160 193 239 286
#     4  10  21  34  45  60  91 134 169 195 231 281
#     4  11  20  30  47  71  96 126 163 202 236 276
#
# _framework density 15.978225999999999
#
# number of rings (size 3 to 8) (size 9 to 14) (size 15 to 20)
#    0.000    2.250    1.250    6.000    0.000    0.750 
#    0.000    0.625    0.000    4.875    0.000    0.875 
#    0.000    7.000    0.000    0.000    0.000    0.000 
#
# Total GULP energy -178447.034380 kJ/mol
# GULP energy per Si atom -5576.469824 kJ/mol
# Density = 1.594186 g / cm^3
# Si number density = 15.978226 Si / 1000 Ang^3
#
#
#
# Elastic Constant Matrix: (Units=GPa)
#
#
# Indices 1 2 3 4 5 6 
#
# 1 84.0893 1.6340 50.8479 0.0000 -6.9095 0.0000
# 2 1.6340 17.2639 5.3267 0.0000 -2.0224 0.0000
# 3 50.8479 5.3267 125.3735 0.0000 -3.9890 0.0000
# 4 0.0000 0.0000 0.0000 177.3275 0.0000 -28.2723
# 5 -6.9095 -2.0224 -3.9890 0.0000 8.6003 0.0000
# 6 0.0000 0.0000 0.0000 -28.2723 0.0000 22.7371
#
#
#
# Elastic Compliance Matrix: (Units=1/GPa)
#
#
# Indices 1 2 3 4 5 6 
#
# 1 0.016669 0.001687 -0.006489 0.000000 0.010779 0.000000
# 2 0.001687 0.060294 -0.002793 0.000000 0.014238 0.000000
# 3 -0.006489 -0.002793 0.010698 0.000000 -0.000908 0.000000
# 4 0.000000 0.000000 0.000000 0.007034 0.000000 0.008746
# 5 0.010779 0.014238 -0.000908 0.000000 0.127862 0.000000
# 6 0.000000 0.000000 0.000000 0.008746 0.000000 0.054856
#
#
# Mechanical properties :
#
#
# Convention : Reuss Voigt Hill
#
# Bulk Modulus (GPa) = 13.79858 38.03820 25.91839
# Shear Modulus (GPa) = 15.78483 52.99418 34.38951
#
# Velocity S-wave (km/s) = 3.14649 5.76528 4.64429
# Velocity P-wave (km/s) = 4.67495 8.25687 6.70936
#
# Compressibility (1/GPa) = 0.07247124
#
# Stress axis : x y z
#
# Youngs Moduli (GPa) = 59.99173 16.58529 93.47751
#
# Poissons Ratio (x) = -0.02798 0.60659
# Poissons Ratio (y) = -0.10122 0.26108
# Poissons Ratio (z) = 0.38930 0.04632
#
# Static dielectric constant tensor:
#      x y z
#    x 1.520600 0.000000 0.013080 
#    y 0.000000 1.541700 0.000000 
#    z 0.013080 0.000000 1.542250 
# 
# From -- ./inp_files/66033.got.cif
#   From: 2010.05.17/outbox.cif.g08.bks.cpg/sg10_34_cif.got.tgz:66033.got - 2010.06.03 11:33:40.
