data_PCOD9151356
_publ_section_title
;
Structure prediction by ZEFSAII (Michael W. Deem and Ramdas Pophale) SiO2 
 PCOD9151356
Probable space group: P 2/M
;
_chemical_formula_sum "Si O2"
_cell_formula_units_Z 20
_cell_length_a 9.882125
_cell_length_b 7.805201
_cell_length_c 25.795488
_cell_angle_alpha 90.000000
_cell_angle_beta 153.463829
_cell_angle_gamma 90.000000
_cell_volume 888.904467
_symmetry_space_group_name_H-M "P 2/M"
_symmetry_group_IT_number 10
_symmetry_cell_setting 'monoclinic'
loop_
_space_group_symop_operation_xyz
x,y,z
-x,y,-z
-x,-y,-z
x,-y,z
loop_
_atom_site_type_symbol
_atom_site_label
_atom_site_fract_x
_atom_site_fract_y
_atom_site_fract_z
Si Si1 0.283341 0.707282 0.850852
Si Si2 0.939283 0.293513 0.038000
Si Si3 0.829344 0.299419 0.490133
Si Si4 0.155247 0.709585 0.391551
Si Si5 0.196817 0.800163 0.231731
O O1 0.294495 0.500000 0.855570
O O2 0.063597 0.765456 0.729070
O O3 0.120040 0.759486 0.848051
O O4 0.617470 0.769256 0.950391
O O5 0.925474 0.500000 0.030258
O O6 0.178959 0.250363 0.165197
O O7 0.000000 0.231789 0.000000
O O8 0.913604 0.500000 0.521255
O O9 0.921744 0.227650 0.577384
O O10 0.470615 0.290119 0.356145
O O11 0.000000 0.219346 0.500000
O O12 0.500000 0.760760 0.500000
O O13 0.147718 0.500000 0.388818
O O14 0.254038 0.000000 0.255331
#
# Coordination Sequence:
#
# PCOD9151356 Si02
#       5
#     4   4   4   4   4
#     4  10  20  38  64  90 118 153 201 254 299 349
#     4  10  23  41  65  92 117 149 201 261 306 350
#     4  10  21  37  63  91 119 154 198 250 299 349
#     4   9  16  31  58  90 116 142 186 247 301 345
#     4  12  25  40  59  85 125 166 201 239 294 366
#
# _framework density 22.499604999999999
#
# number of rings (size 3 to 8) (size 9 to 14) (size 15 to 20)
#    0.000    1.800    2.000    2.400    2.800    4.000 
#    0.000    2.000    0.000    0.000    0.000    0.000 
#    0.000    0.000    0.000    0.000    0.000    0.000 
#
# Total GULP energy -111747.934752 kJ/mol
# GULP energy per Si atom -5587.396738 kJ/mol
# Density = 2.244839 g / cm^3
# Si number density = 22.499605 Si / 1000 Ang^3
#
#
#
# Elastic Constant Matrix: (Units=GPa)
#
#
# Indices 1 2 3 4 5 6 
#
# 1 150.9271 3.7416 19.6461 0.0000 -31.3180 0.0000
# 2 3.7416 31.5799 -14.5858 0.0000 -3.2959 0.0000
# 3 19.6461 -14.5858 57.6110 0.0000 -24.4311 0.0000
# 4 0.0000 0.0000 0.0000 -20.4442 0.0000 -1.6576
# 5 -31.3180 -3.2959 -24.4311 0.0000 44.6395 0.0000
# 6 0.0000 0.0000 0.0000 -1.6576 0.0000 -42.9775
#
#
#
# Elastic Compliance Matrix: (Units=1/GPa)
#
#
# Indices 1 2 3 4 5 6 
#
# 1 0.007776 -0.000726 -0.000709 0.000000 0.005014 0.000000
# 2 -0.000726 0.039649 0.014730 0.000000 0.010480 0.000000
# 3 -0.000709 0.014730 0.028101 0.000000 0.015970 0.000000
# 4 0.000000 0.000000 0.000000 -0.049067 0.000000 0.001892
# 5 0.005014 0.010480 0.015970 0.000000 0.035433 0.000000
# 6 0.000000 0.000000 0.000000 0.001892 0.000000 -0.023341
#
#
# Mechanical properties :
#
#
# Convention : Reuss Voigt Hill
#
# Bulk Modulus (GPa) = 9.79277 28.63578 19.21427
# Shear Modulus (GPa) = 108.69386 11.66461 60.17924
#
# Velocity S-wave (km/s) = 6.95802 2.27939 5.17734
# Velocity P-wave (km/s) = 8.30145 4.43648 6.65569
#
# Compressibility (1/GPa) = 0.10211616
#
# Stress axis : x y z
#
# Youngs Moduli (GPa) = 128.59315 25.22149 35.58564
#
# Poissons Ratio (x) = 0.01830 0.02524
# Poissons Ratio (y) = 0.09332 -0.52417
# Poissons Ratio (z) = 0.09121 -0.37151
#
# Static dielectric constant tensor:
#      x y z
#    x 1.862010 0.000000 0.002970 
#    y 0.000000 1.817970 0.000000 
#    z 0.002970 0.000000 1.817730 
# 
# From -- ./inp_files/22137.got.cif
#   From: 2010.05.17/outbox.cif.g08.bks.cpg/sg10_12_cif.got.tgz:22137.got - 2010.06.03 11:33:40.
