data_PCOD9151510
_publ_section_title
;
Structure prediction by ZEFSAII (Michael W. Deem and Ramdas Pophale) SiO2 
 PCOD9151510
Probable space group: P 2/M
;
_chemical_formula_sum "Si O2"
_cell_formula_units_Z 28
_cell_length_a 8.046067
_cell_length_b 13.104556
_cell_length_c 16.881330
_cell_angle_alpha 90.000000
_cell_angle_beta 132.229452
_cell_angle_gamma 90.000000
_cell_volume 1317.994977
_symmetry_space_group_name_H-M "P 2/M"
_symmetry_group_IT_number 10
_symmetry_cell_setting 'monoclinic'
loop_
_space_group_symop_operation_xyz
x,y,z
-x,y,-z
-x,-y,-z
x,-y,z
loop_
_atom_site_type_symbol
_atom_site_label
_atom_site_fract_x
_atom_site_fract_y
_atom_site_fract_z
Si Si1 0.829861 0.826487 0.020516
Si Si2 0.956558 0.117606 0.748358
Si Si3 0.963471 0.608905 0.082290
Si Si4 0.466915 0.265705 0.407291
Si Si5 0.612174 0.817772 0.213772
Si Si6 0.489989 0.617730 0.261302
Si Si7 0.752250 0.118024 0.428847
O O1 0.935030 0.884200 0.128557
O O2 0.820223 0.709438 0.049496
O O3 0.589325 0.855519 0.907386
O O4 0.000000 0.829578 0.000000
O O5 0.154239 0.152239 0.751899
O O6 0.766684 0.206580 0.685204
O O7 0.882716 0.000000 0.707135
O O8 0.873207 0.500000 0.082432
O O9 0.220976 0.621677 0.190082
O O10 0.000000 0.602202 0.000000
O O11 0.500000 0.322868 0.500000
O O12 0.565990 0.335101 0.368742
O O13 0.636886 0.171200 0.465008
O O14 0.565087 0.697478 0.217483
O O15 0.614778 0.865583 0.303085
O O16 0.550176 0.500000 0.265319
O O17 0.000000 0.162411 0.500000
O O18 0.770400 0.000000 0.449884
#
# Coordination Sequence:
#
# PCOD9151510 Si02
#       7
#     4   4   4   4   4   4   4
#     4  11  20  38  59  89 123 161 205 253 300 363
#     4  12  26  41  58  87 128 169 205 250 304 359
#     4   9  15  30  61  89 112 148 195 246 300 354
#     4  11  23  40  63  91 123 157 203 255 306 369
#     4  11  22  37  60  88 125 161 205 249 303 361
#     4  10  20  39  66  91 119 158 202 252 310 365
#     4  10  21  39  63  88 115 157 211 260 305 353
#
# _framework density 21.244389999999999
#
# number of rings (size 3 to 8) (size 9 to 14) (size 15 to 20)
#    0.000    1.429    4.286    3.000    0.000    4.571 
#    0.000    1.429    0.000   16.286    0.000    0.000 
#    0.000    0.000    0.000    0.000    0.000    0.000 
#
# Total GULP energy -156034.381457 kJ/mol
# GULP energy per Si atom -5572.656481 kJ/mol
# Density = 2.119604 g / cm^3
# Si number density = 21.244390 Si / 1000 Ang^3
#
#
#
# Elastic Constant Matrix: (Units=GPa)
#
#
# Indices 1 2 3 4 5 6 
#
# 1 45.5086 -1.1708 -6.7586 0.0000 -4.0344 0.0000
# 2 -1.1708 65.8931 3.8849 0.0000 -3.4437 0.0000
# 3 -6.7586 3.8849 49.8980 0.0000 -9.3389 0.0000
# 4 0.0000 0.0000 0.0000 80.5560 0.0000 -17.1527
# 5 -4.0344 -3.4437 -9.3389 0.0000 33.8537 0.0000
# 6 0.0000 0.0000 0.0000 -17.1527 0.0000 28.6456
#
#
#
# Elastic Compliance Matrix: (Units=1/GPa)
#
#
# Indices 1 2 3 4 5 6 
#
# 1 0.022883 0.000383 0.003783 0.000000 0.003809 0.000000
# 2 0.000383 0.015306 -0.000886 0.000000 0.001358 0.000000
# 3 0.003783 -0.000886 0.021816 0.000000 0.006379 0.000000
# 4 0.000000 0.000000 0.000000 0.014228 0.000000 0.008519
# 5 0.003809 0.001358 0.006379 0.000000 0.031891 0.000000
# 6 0.000000 0.000000 0.000000 0.008519 0.000000 0.040011
#
#
# Mechanical properties :
#
#
# Convention : Reuss Voigt Hill
#
# Bulk Modulus (GPa) = 15.02296 17.02340 16.02318
# Shear Modulus (GPa) = 30.90934 39.63402 35.27168
#
# Velocity S-wave (km/s) = 3.81851 4.32397 4.07908
# Velocity P-wave (km/s) = 5.15055 5.74104 5.45379
#
# Compressibility (1/GPa) = 0.06656476
#
# Stress axis : x y z
#
# Youngs Moduli (GPa) = 43.70023 65.33349 45.83779
#
# Poissons Ratio (x) = -0.02500 -0.17339
# Poissons Ratio (y) = -0.01672 0.04059
# Poissons Ratio (z) = -0.16530 0.05786
#
# Static dielectric constant tensor:
#      x y z
#    x 1.769700 0.000000 -0.113190 
#    y 0.000000 1.830970 0.000000 
#    z -0.113190 0.000000 1.547410 
# 
# From -- ./inp_files/75313.got.cif
#   From: 2010.05.17/outbox.cif.g08.bks.cpg/sg10_38_cif.got.tgz:75313.got - 2010.06.03 11:33:40.
