data_PCOD9151654
_publ_section_title
;
Structure prediction by ZEFSAII (Michael W. Deem and Ramdas Pophale) SiO2 
 PCOD9151654
Probable space group: P 2/M
;
_chemical_formula_sum "Si O2"
_cell_formula_units_Z 24
_cell_length_a 17.203623
_cell_length_b 7.618850
_cell_length_c 8.195663
_cell_angle_alpha 90.000000
_cell_angle_beta 68.441609
_cell_angle_gamma 90.000000
_cell_volume 999.071869
_symmetry_space_group_name_H-M "P 2/M"
_symmetry_group_IT_number 10
_symmetry_cell_setting 'monoclinic'
loop_
_space_group_symop_operation_xyz
x,y,z
-x,y,-z
-x,-y,-z
x,-y,z
loop_
_atom_site_type_symbol
_atom_site_label
_atom_site_fract_x
_atom_site_fract_y
_atom_site_fract_z
Si Si1 0.887814 0.709331 0.740716
Si Si2 0.639369 0.000000 0.319340
Si Si3 0.797091 0.201309 0.484595
Si Si4 0.346391 0.205068 0.189859
Si Si5 0.265558 0.300981 0.921506
Si Si6 0.469043 0.000000 0.266289
Si Si7 0.047809 0.789545 0.805917
O O1 0.879465 0.500000 0.725630
O O2 0.854148 0.797967 0.603980
O O3 0.981901 0.754350 0.713260
O O4 0.824279 0.758782 0.937084
O O5 0.694994 0.170388 0.239565
O O6 0.564383 0.000000 0.242773
O O7 0.589753 0.000000 0.527547
O O8 0.711599 0.280805 0.620402
O O9 0.860013 0.281833 0.303833
O O10 0.779386 0.000000 0.450852
O O11 0.438822 0.169965 0.186961
O O12 0.318059 0.000000 0.185862
O O13 0.325478 0.295922 0.036853
O O14 0.260592 0.500000 0.867594
O O15 0.056469 0.000000 0.817189
O O16 0.000000 0.716991 0.000000
#
# Coordination Sequence:
#
# PCOD9151654 Si02
#       7
#     4   2   4   4   4   2   4
#     4  10  21  35  52  77 105 140 185 228 278 329
#     4  11  21  39  61  86 123 154 183 235 284 349
#     4   9  17  32  54  75 100 137 181 226 270 322
#     4   8  16  35  58  80 111 146 187 238 282 335
#     4  10  21  37  60  89 115 149 195 240 290 340
#     4   9  21  37  61  88 115 156 193 219 290 355
#     4  10  21  33  48  76 109 141 187 225 269 328
#
# _framework density 24.022295
#
# number of rings (size 3 to 8) (size 9 to 14) (size 15 to 20)
#    0.500    2.000    0.833    1.000    2.333    5.667 
#    0.000    4.167    0.000    4.000    0.000    0.000 
#    0.000    0.000    0.000    0.000    0.000    0.000 
#
# Total GULP energy -134082.422733 kJ/mol
# GULP energy per Si atom -5586.767614 kJ/mol
# Density = 2.396762 g / cm^3
# Si number density = 24.022295 Si / 1000 Ang^3
#
#
#
# Elastic Constant Matrix: (Units=GPa)
#
#
# Indices 1 2 3 4 5 6 
#
# 1 93.7270 4.2135 18.8491 0.0000 -9.3863 0.0000
# 2 4.2135 85.9195 36.3761 0.0000 -12.2303 0.0000
# 3 18.8491 36.3761 138.2912 0.0000 -16.8189 0.0000
# 4 0.0000 0.0000 0.0000 1.5803 0.0000 -6.0125
# 5 -9.3863 -12.2303 -16.8189 0.0000 35.3584 0.0000
# 6 0.0000 0.0000 0.0000 -6.0125 0.0000 -3.7702
#
#
#
# Elastic Compliance Matrix: (Units=1/GPa)
#
#
# Indices 1 2 3 4 5 6 
#
# 1 0.011165 0.000361 -0.001317 0.000000 0.002462 0.000000
# 2 0.000361 0.013431 -0.003190 0.000000 0.003224 0.000000
# 3 -0.001317 -0.003190 0.008569 0.000000 0.002623 0.000000
# 4 0.000000 0.000000 0.000000 0.089534 0.000000 -0.142786
# 5 0.002462 0.003224 0.002623 0.000000 0.031298 0.000000
# 6 0.000000 0.000000 0.000000 -0.142786 0.000000 -0.037530
#
#
# Mechanical properties :
#
#
# Convention : Reuss Voigt Hill
#
# Bulk Modulus (GPa) = 40.20751 48.53500 44.37125
# Shear Modulus (GPa) = 37.58002 23.86699 30.72350
#
# Velocity S-wave (km/s) = 3.95952 3.15546 3.58013
# Velocity P-wave (km/s) = 6.13821 5.78998 5.96664
#
# Compressibility (1/GPa) = 0.02487098
#
# Stress axis : x y z
#
# Youngs Moduli (GPa) = 89.56948 74.45726 116.70403
#
# Poissons Ratio (x) = -0.02685 0.15372
# Poissons Ratio (y) = -0.03230 0.37226
# Poissons Ratio (z) = 0.11798 0.23750
#
# Static dielectric constant tensor:
#      x y z
#    x 1.936210 0.000000 0.034270 
#    y 0.000000 1.852130 0.000000 
#    z 0.034270 0.000000 1.992250 
# 
# From -- ./inp_files/33823.got.cif
#   From: 2010.05.17/outbox.cif.g08.bks.cpg/sg10_17_cif.got.tgz:33823.got - 2010.06.03 11:33:40.
