data_PCOD9151798
_publ_section_title
;
Structure prediction by ZEFSAII (Michael W. Deem and Ramdas Pophale) SiO2 
 PCOD9151798
Probable space group: P 2/M
;
_chemical_formula_sum "Si O2"
_cell_formula_units_Z 32
_cell_length_a 15.184963
_cell_length_b 14.023727
_cell_length_c 13.424470
_cell_angle_alpha 90.000000
_cell_angle_beta 138.101036
_cell_angle_gamma 90.000000
_cell_volume 1909.119746
_symmetry_space_group_name_H-M "P 2/M"
_symmetry_group_IT_number 10
_symmetry_cell_setting 'monoclinic'
loop_
_space_group_symop_operation_xyz
x,y,z
-x,y,-z
-x,-y,-z
x,-y,z
loop_
_atom_site_type_symbol
_atom_site_label
_atom_site_fract_x
_atom_site_fract_y
_atom_site_fract_z
Si Si1 0.857405 0.889216 0.930595
Si Si2 0.385545 0.389214 0.762303
Si Si3 0.446469 0.886124 0.063187
Si Si4 0.669944 0.798667 0.388253
Si Si5 0.353697 0.888819 0.419970
Si Si6 0.054357 0.111529 0.433673
Si Si7 0.171188 0.206694 0.884533
Si Si8 0.307499 0.610904 0.923863
O O1 0.748946 0.870564 0.754841
O O2 0.840813 0.000000 0.950665
O O3 0.842795 0.819764 0.011616
O O4 0.000000 0.881305 0.000000
O O5 0.362560 0.500000 0.717677
O O6 0.331888 0.312842 0.639560
O O7 0.321092 0.370949 0.816677
O O8 0.543542 0.376219 0.908863
O O9 0.540436 0.842498 0.226565
O O10 0.452866 0.000000 0.074446
O O11 0.500000 0.855487 0.000000
O O12 0.297584 0.851778 0.950641
O O13 0.668213 0.823414 0.502938
O O14 0.798290 0.848353 0.449282
O O15 0.500000 0.877598 0.500000
O O16 0.337382 0.000000 0.437499
O O17 0.000000 0.118453 0.500000
O O18 0.958487 0.170893 0.281297
O O19 0.052985 0.000000 0.403009
O O20 0.208587 0.315552 0.891646
O O21 0.271913 0.500000 0.907654
#
# Coordination Sequence:
#
# PCOD9151798 Si02
#       8
#     4   4   4   4   4   4   4   4
#     4  10  21  37  55  75 103 144 194 236 267 315
#     4   9  18  34  57  84 112 142 180 227 276 331
#     4  11  21  31  49  80 111 139 178 221 265 332
#     4  12  21  35  56  76 108 150 182 219 279 330
#     4  10  21  35  51  75 106 139 181 233 280 320
#     4  11  23  35  49  78 119 152 176 210 268 341
#     4  12  21  35  58  80 107 148 190 227 273 325
#     4   9  18  34  57  85 112 139 180 231 278 326
#
# _framework density 16.761652999999999
#
# number of rings (size 3 to 8) (size 9 to 14) (size 15 to 20)
#    0.000    1.500    1.250    6.750    0.000    4.000 
#    0.000    0.625    0.000    3.750    0.000    0.000 
#    0.000    0.000    0.000    0.000    0.000    0.000 
#
# Total GULP energy -178798.395243 kJ/mol
# GULP energy per Si atom -5587.449851 kJ/mol
# Density = 1.672350 g / cm^3
# Si number density = 16.761653 Si / 1000 Ang^3
#
#
#
# Elastic Constant Matrix: (Units=GPa)
#
#
# Indices 1 2 3 4 5 6 
#
# 1 38.6602 35.5937 8.3353 0.0000 -15.9683 0.0000
# 2 35.5937 119.1646 36.1903 0.0000 -21.5442 0.0000
# 3 8.3353 36.1903 60.6765 0.0000 -6.8067 0.0000
# 4 0.0000 0.0000 0.0000 -51.0098 0.0000 -90.1567
# 5 -15.9683 -21.5442 -6.8067 0.0000 24.8805 0.0000
# 6 0.0000 0.0000 0.0000 -90.1567 0.0000 -88.1369
#
#
#
# Elastic Compliance Matrix: (Units=1/GPa)
#
#
# Indices 1 2 3 4 5 6 
#
# 1 0.042440 -0.009859 0.002216 0.000000 0.019307 0.000000
# 2 -0.009859 0.014068 -0.006582 0.000000 0.004054 0.000000
# 3 0.002216 -0.006582 0.020244 0.000000 0.001261 0.000000
# 4 0.000000 0.000000 0.000000 0.024264 0.000000 -0.024820
# 5 0.019307 0.004054 0.001261 0.000000 0.056439 0.000000
# 6 0.000000 0.000000 0.000000 -0.024820 0.000000 0.014043
#
#
# Mechanical properties :
#
#
# Convention : Reuss Voigt Hill
#
# Bulk Modulus (GPa) = 20.70276 42.08222 31.39249
# Shear Modulus (GPa) = 23.14288 -13.62778 4.75755
#
# Velocity S-wave (km/s) = 3.71981 -2.85447 1.68657
# Velocity P-wave (km/s) = 5.55225 3.78111 4.74996
#
# Compressibility (1/GPa) = 0.04830275
#
# Stress axis : x y z
#
# Youngs Moduli (GPa) = 23.56249 71.08118 49.39820
#
# Poissons Ratio (x) = 0.70079 -0.10947
# Poissons Ratio (y) = 0.23230 0.32514
# Poissons Ratio (z) = -0.05222 0.46785
#
# Static dielectric constant tensor:
#      x y z
#    x 1.548520 0.000000 0.001040 
#    y 0.000000 1.567820 0.000000 
#    z 0.001040 0.000000 1.547750 
# 
# From -- ./inp_files/29467.got.cif
#   From: 2010.05.17/outbox.cif.g08.bks.cpg/sg10_15_cif.got.tgz:29467.got - 2010.06.03 11:33:40.
