data_PCOD9151153
_publ_section_title
;
Structure prediction by ZEFSAII (Michael W. Deem and Ramdas Pophale) SiO2 
 PCOD9151153
Probable space group: P 2/M
;
_chemical_formula_sum "Si O2"
_cell_formula_units_Z 21
_cell_length_a 7.448900
_cell_length_b 7.759363
_cell_length_c 14.593229
_cell_angle_alpha 90.000000
_cell_angle_beta 92.320285
_cell_angle_gamma 90.000000
_cell_volume 842.778402
_symmetry_space_group_name_H-M "P 2/M"
_symmetry_group_IT_number 10
_symmetry_cell_setting 'monoclinic'
loop_
_space_group_symop_operation_xyz
x,y,z
-x,y,-z
-x,-y,-z
x,-y,z
loop_
_atom_site_type_symbol
_atom_site_label
_atom_site_fract_x
_atom_site_fract_y
_atom_site_fract_z
Si Si1 0.054612 0.702481 0.699470
Si Si2 0.466509 0.203384 0.702604
Si Si3 0.735530 0.694283 0.559026
Si Si4 0.500000 0.000000 0.500000
Si Si5 0.543952 0.802759 0.096641
Si Si6 0.972477 0.804976 0.100063
O O1 0.085982 0.500000 0.694884
O O2 0.918078 0.746975 0.615203
O O3 0.250952 0.785706 0.695633
O O4 0.970582 0.736515 0.799102
O O5 0.584447 0.311204 0.635757
O O6 0.518529 0.261454 0.806597
O O7 0.514172 0.000000 0.684189
O O8 0.753732 0.500000 0.519971
O O9 0.656615 0.846991 0.496587
O O10 0.757954 0.810281 0.104596
O O11 0.474504 0.000000 0.090876
O O12 0.500000 0.713927 0.000000
O O13 0.045372 0.000000 0.094733
O O14 0.000000 0.721273 0.000000
#
# Coordination Sequence:
#
# PCOD9151153 Si02
#       6
#     4   4   4   1   4   4
#     4  10  22  39  61  90 130 174 213 264 318 379
#     4  10  20  37  65  94 126 174 220 260 317 382
#     4  11  25  45  70 100 132 166 211 264 330 397
#     4  12  26  48  74 106 124 166 202 272 334 402
#     4   8  15  27  46  80 119 159 213 267 305 354
#     4   9  18  30  50  81 117 163 218 268 305 362
#
# _framework density 24.917583
#
# number of rings (size 3 to 8) (size 9 to 14) (size 15 to 20)
#    0.000    2.286    0.952    2.571    5.333    0.381 
#    0.000    1.905    0.000    6.286    0.000    0.000 
#    0.000    0.000    0.000    0.000    0.000    0.000 
#
# Total GULP energy -117013.669672 kJ/mol
# GULP energy per Si atom -5572.079508 kJ/mol
# Density = 2.486087 g / cm^3
# Si number density = 24.917583 Si / 1000 Ang^3
#
#
#
# Elastic Constant Matrix: (Units=GPa)
#
#
# Indices 1 2 3 4 5 6 
#
# 1 77.9419 4.7624 19.6120 0.0000 6.2073 0.0000
# 2 4.7624 88.1891 31.6741 0.0000 11.3738 0.0000
# 3 19.6120 31.6741 109.4758 0.0000 -3.1120 0.0000
# 4 0.0000 0.0000 0.0000 -14.8725 0.0000 7.1582
# 5 6.2073 11.3738 -3.1120 0.0000 48.0241 0.0000
# 6 0.0000 0.0000 0.0000 7.1582 0.0000 25.4901
#
#
#
# Elastic Compliance Matrix: (Units=1/GPa)
#
#
# Indices 1 2 3 4 5 6 
#
# 1 0.013627 0.000475 -0.002637 0.000000 -0.002045 0.000000
# 2 0.000475 0.013195 -0.004001 0.000000 -0.003446 0.000000
# 3 -0.002637 -0.004001 0.010821 0.000000 0.001990 0.000000
# 4 0.000000 0.000000 0.000000 -0.059232 0.000000 0.016634
# 5 -0.002045 -0.003446 0.001990 0.000000 0.022032 0.000000
# 6 0.000000 0.000000 0.000000 0.016634 0.000000 0.034560
#
#
# Mechanical properties :
#
#
# Convention : Reuss Voigt Hill
#
# Bulk Modulus (GPa) = 39.49766 43.07820 41.28793
# Shear Modulus (GPa) = 89.65875 26.36556 58.01215
#
# Velocity S-wave (km/s) = 6.00502 3.25639 4.83034
# Velocity P-wave (km/s) = 7.99788 5.60933 6.90763
#
# Compressibility (1/GPa) = 0.02531796
#
# Stress axis : x y z
#
# Youngs Moduli (GPa) = 73.38167 75.78695 92.41429
#
# Poissons Ratio (x) = -0.03599 0.24368
# Poissons Ratio (y) = -0.03484 0.36971
# Poissons Ratio (z) = 0.19349 0.30319
#
# Static dielectric constant tensor:
#      x y z
#    x 1.935700 0.000000 0.077160 
#    y 0.000000 1.932460 0.000000 
#    z 0.077160 0.000000 1.939960 
# 
# From -- ./inp_files/60145.got.cif
#   From: 2010.05.17/outbox.cif.g08.bks.cpg/sg10_31_cif.got.tgz:60145.got - 2010.06.03 11:33:40.
