data_PCOD9151737
_publ_section_title
;
Structure prediction by ZEFSAII (Michael W. Deem and Ramdas Pophale) SiO2 
 PCOD9151737
Probable space group: P 2/M
;
_chemical_formula_sum "Si O2"
_cell_formula_units_Z 32
_cell_length_a 15.760793
_cell_length_b 7.831722
_cell_length_c 24.224237
_cell_angle_alpha 90.000000
_cell_angle_beta 151.514693
_cell_angle_gamma 90.000000
_cell_volume 1426.077586
_symmetry_space_group_name_H-M "P 2/M"
_symmetry_group_IT_number 10
_symmetry_cell_setting 'monoclinic'
loop_
_space_group_symop_operation_xyz
x,y,z
-x,y,-z
-x,-y,-z
x,-y,z
loop_
_atom_site_type_symbol
_atom_site_label
_atom_site_fract_x
_atom_site_fract_y
_atom_site_fract_z
Si Si1 0.084322 0.201297 0.313496
Si Si2 0.222441 0.205800 0.510077
Si Si3 0.345975 0.698460 0.374382
Si Si4 0.692069 0.697219 0.126548
Si Si5 0.832829 0.197488 0.319530
Si Si6 0.599192 0.699951 0.282015
Si Si7 0.828924 0.291050 0.831305
Si Si8 0.784193 0.291859 0.932797
O O1 0.875126 0.227749 0.206143
O O2 0.196857 0.260599 0.432016
O O3 0.165067 0.291730 0.306416
O O4 0.114326 0.000000 0.324345
O O5 0.372389 0.276801 0.636218
O O6 0.035067 0.259303 0.431064
O O7 0.236435 0.000000 0.518744
O O8 0.500000 0.778345 0.500000
O O9 0.394167 0.500000 0.393142
O O10 0.307124 0.774348 0.292190
O O11 0.691112 0.500000 0.108505
O O12 0.716771 0.709351 0.206743
O O13 0.500000 0.772654 0.000000
O O14 0.750195 0.211648 0.332439
O O15 0.836871 0.000000 0.304491
O O16 0.610448 0.500000 0.276152
O O17 0.405341 0.766555 0.153473
O O18 0.824914 0.500000 0.828044
O O19 0.793795 0.240293 0.873986
O O20 0.032141 0.238377 0.934201
O O21 0.781291 0.500000 0.931905
#
# Coordination Sequence:
#
# PCOD9151737 Si02
#       8
#     4   4   4   4   4   4   4   4
#     4  10  22  39  57  80 113 152 190 226 279 351
#     4   9  20  37  53  71 103 147 183 217 271 335
#     4  10  21  34  56  87 115 144 187 243 293 336
#     4  10  21  38  61  86 112 143 184 236 285 330
#     4  10  21  37  54  75 110 150 184 217 265 335
#     4  11  21  30  51  84 108 133 181 236 278 322
#     4   8  15  32  52  72 106 143 175 218 276 331
#     4   8  16  30  50  75 103 140 179 218 271 331
#
# _framework density 22.439171999999999
#
# number of rings (size 3 to 8) (size 9 to 14) (size 15 to 20)
#    0.000    2.500    0.000    3.375    1.750    6.750 
#    0.000    2.500    0.000    0.750    0.000    4.375 
#    0.000    0.000    0.000    0.000    0.000    0.000 
#
# Total GULP energy -178617.542796 kJ/mol
# GULP energy per Si atom -5581.798212 kJ/mol
# Density = 2.238810 g / cm^3
# Si number density = 22.439172 Si / 1000 Ang^3
#
#
#
# Elastic Constant Matrix: (Units=GPa)
#
#
# Indices 1 2 3 4 5 6 
#
# 1 31.2242 -9.6559 0.1922 0.0000 -6.8981 0.0000
# 2 -9.6559 33.7782 -0.9083 0.0000 2.5249 0.0000
# 3 0.1922 -0.9083 102.9692 0.0000 -13.1908 0.0000
# 4 0.0000 0.0000 0.0000 24.7485 0.0000 6.4613
# 5 -6.8981 2.5249 -13.1908 0.0000 23.7100 0.0000
# 6 0.0000 0.0000 0.0000 6.4613 0.0000 13.9519
#
#
#
# Elastic Compliance Matrix: (Units=1/GPa)
#
#
# Indices 1 2 3 4 5 6 
#
# 1 0.037435 0.009946 0.001375 0.000000 0.010597 0.000000
# 2 0.009946 0.032487 0.000211 0.000000 -0.000449 0.000000
# 3 0.001375 0.000211 0.010508 0.000000 0.006224 0.000000
# 4 0.000000 0.000000 0.000000 0.045964 0.000000 -0.021287
# 5 0.010597 -0.000449 0.006224 0.000000 0.048770 0.000000
# 6 0.000000 0.000000 0.000000 -0.021287 0.000000 0.081533
#
#
# Mechanical properties :
#
#
# Convention : Reuss Voigt Hill
#
# Bulk Modulus (GPa) = 9.66233 16.35860 13.01047
# Shear Modulus (GPa) = 18.64760 24.37168 21.50964
#
# Velocity S-wave (km/s) = 2.88588 3.29921 3.09945
# Velocity P-wave (km/s) = 3.92680 4.67109 4.31503
#
# Compressibility (1/GPa) = 0.10349467
#
# Stress axis : x y z
#
# Youngs Moduli (GPa) = 26.71300 30.78119 95.16354
#
# Poissons Ratio (x) = -0.30615 -0.13089
# Poissons Ratio (y) = -0.26569 -0.02003
# Poissons Ratio (z) = -0.03674 -0.00648
#
# Static dielectric constant tensor:
#      x y z
#    x 1.824870 0.000000 0.001080 
#    y 0.000000 1.816340 0.000000 
#    z 0.001080 0.000000 1.870510 
# 
# From -- ./inp_files/89648.got.cif
#   From: 2010.05.17/outbox.cif.g08.bks.cpg/sg10_45_cif.got.tgz:89648.got - 2010.06.03 11:33:40.
