data_PCOD9151143
_publ_section_title
;
Structure prediction by ZEFSAII (Michael W. Deem and Ramdas Pophale) SiO2 
 PCOD9151143
Probable space group: P 2/M
;
_chemical_formula_sum "Si O2"
_cell_formula_units_Z 32
_cell_length_a 19.225062
_cell_length_b 14.065962
_cell_length_c 13.457248
_cell_angle_alpha 90.000000
_cell_angle_beta 27.718476
_cell_angle_gamma 90.000000
_cell_volume 1692.643477
_symmetry_space_group_name_H-M "P 2/M"
_symmetry_group_IT_number 10
_symmetry_cell_setting 'monoclinic'
loop_
_space_group_symop_operation_xyz
x,y,z
-x,y,-z
-x,-y,-z
x,-y,z
loop_
_atom_site_type_symbol
_atom_site_label
_atom_site_fract_x
_atom_site_fract_y
_atom_site_fract_z
Si Si1 0.436668 0.890115 0.691016
Si Si2 0.279179 0.708533 0.979187
Si Si3 0.159689 0.730638 0.345029
Si Si4 0.737965 0.894237 0.438788
Si Si5 0.036179 0.386753 0.676430
Si Si6 0.556706 0.612398 0.537296
Si Si7 0.859795 0.305705 0.245852
Si Si8 0.330097 0.891766 0.241898
O O1 0.500000 0.872566 0.500000
O O2 0.320894 0.810467 0.876349
O O3 0.582377 0.883914 0.576663
O O4 0.380315 0.000000 0.766004
O O5 0.418335 0.640536 0.780967
O O6 0.261462 0.713031 0.120363
O O7 0.125153 0.665533 0.129856
O O8 0.221508 0.818928 0.327109
O O9 0.000000 0.753985 0.500000
O O10 0.131452 0.645866 0.459320
O O11 0.845632 0.807799 0.276197
O O12 0.696972 0.888178 0.606530
O O13 0.798495 0.000000 0.341203
O O14 0.015532 0.500000 0.703732
O O15 0.115960 0.352318 0.676613
O O16 0.500000 0.643318 0.500000
O O17 0.582045 0.500000 0.502570
O O18 0.707511 0.660595 0.385422
O O19 0.000000 0.331273 0.000000
O O20 0.305422 0.000000 0.238810
O O21 0.500000 0.866438 0.000000
#
# Coordination Sequence:
#
# PCOD9151143 Si02
#       8
#     4   4   4   4   4   4   4   4
#     4  10  21  38  63  96 132 165 206 261 315 370
#     4  11  22  39  67  93 122 165 215 258 312 375
#     4  10  23  40  62  92 126 163 206 259 317 374
#     4  10  21  39  63  92 127 165 203 249 307 376
#     4  11  25  44  63  91 130 167 209 261 325 378
#     4  11  24  42  64  92 122 160 216 269 312 368
#     4  12  25  41  65  92 127 166 205 259 317 379
#     4  10  20  37  64  93 125 164 206 252 309 370
#
# _framework density 18.905339999999999
#
# number of rings (size 3 to 8) (size 9 to 14) (size 15 to 20)
#    0.000    1.375    2.500    2.625    1.750    6.750 
#    0.000    2.500    0.000    1.875    0.000    0.000 
#    0.000    0.000    0.000    0.000    0.000    0.000 
#
# Total GULP energy -178727.204443 kJ/mol
# GULP energy per Si atom -5585.225139 kJ/mol
# Density = 1.886231 g / cm^3
# Si number density = 18.905340 Si / 1000 Ang^3
#
#
#
# Elastic Constant Matrix: (Units=GPa)
#
#
# Indices 1 2 3 4 5 6 
#
# 1 141.2956 61.9829 48.6647 0.0000 13.7899 0.0000
# 2 61.9829 123.7726 29.9234 0.0000 9.0795 0.0000
# 3 48.6647 29.9234 88.9505 0.0000 20.2135 0.0000
# 4 0.0000 0.0000 0.0000 22.5272 0.0000 -4.0826
# 5 13.7899 9.0795 20.2135 0.0000 14.4678 0.0000
# 6 0.0000 0.0000 0.0000 -4.0826 0.0000 26.9795
#
#
#
# Elastic Compliance Matrix: (Units=1/GPa)
#
#
# Indices 1 2 3 4 5 6 
#
# 1 0.010412 -0.004138 -0.003867 0.000000 -0.001925 0.000000
# 2 -0.004138 0.010480 -0.000972 0.000000 -0.001275 0.000000
# 3 -0.003867 -0.000972 0.018620 0.000000 -0.021719 0.000000
# 4 0.000000 0.000000 0.000000 0.045643 0.000000 0.006907
# 5 -0.001925 -0.001275 -0.021719 0.000000 0.102099 0.000000
# 6 0.000000 0.000000 0.000000 0.006907 0.000000 0.038110
#
#
# Mechanical properties :
#
#
# Convention : Reuss Voigt Hill
#
# Bulk Modulus (GPa) = 46.38518 70.57340 58.47929
# Shear Modulus (GPa) = 19.95966 27.02473 23.49220
#
# Velocity S-wave (km/s) = 3.25278 3.78494 3.52891
# Velocity P-wave (km/s) = 6.22063 7.51744 6.89957
#
# Compressibility (1/GPa) = 0.02155861
#
# Stress axis : x y z
#
# Youngs Moduli (GPa) = 96.03870 95.41831 53.70430
#
# Poissons Ratio (x) = 0.39487 0.20768
# Poissons Ratio (y) = 0.39743 0.05219
# Poissons Ratio (z) = 0.37140 0.09273
#
# Static dielectric constant tensor:
#      x y z
#    x 1.529120 0.000000 -0.133490 
#    y 0.000000 1.663480 0.000000 
#    z -0.133490 0.000000 1.423720 
# 
# From -- ./inp_files/53997.got.cif
#   From: 2010.05.17/outbox.cif.g08.bks.cpg/sg10_27_cif.got.tgz:53997.got - 2010.06.03 11:33:40.
