data_PCOD9151849
_publ_section_title
;
Structure prediction by ZEFSAII (Michael W. Deem and Ramdas Pophale) SiO2 
 PCOD9151849
Probable space group: P 2/M
;
_chemical_formula_sum "Si O2"
_cell_formula_units_Z 24
_cell_length_a 21.095140
_cell_length_b 8.154342
_cell_length_c 7.662445
_cell_angle_alpha 90.000000
_cell_angle_beta 132.931069
_cell_angle_gamma 90.000000
_cell_volume 965.056653
_symmetry_space_group_name_H-M "P 2/M"
_symmetry_group_IT_number 10
_symmetry_cell_setting 'monoclinic'
loop_
_space_group_symop_operation_xyz
x,y,z
-x,y,-z
-x,-y,-z
x,-y,z
loop_
_atom_site_type_symbol
_atom_site_label
_atom_site_fract_x
_atom_site_fract_y
_atom_site_fract_z
Si Si1 0.878037 0.299827 0.418006
Si Si2 0.382939 0.686687 0.274196
Si Si3 0.789636 0.815385 0.908325
Si Si4 0.949496 0.314602 0.085033
Si Si5 0.434251 0.806591 0.732119
Si Si6 0.304696 0.301623 0.763593
O O1 0.880268 0.500000 0.409833
O O2 0.852239 0.214537 0.190625
O O3 0.795452 0.262793 0.386388
O O4 0.973271 0.245346 0.651862
O O5 0.405336 0.500000 0.282832
O O6 0.442392 0.749555 0.546299
O O7 0.289874 0.698135 0.198129
O O8 0.359927 0.760110 0.038841
O O9 0.859037 0.776987 0.890528
O O10 0.755462 0.000000 0.836926
O O11 0.927029 0.500000 0.102318
O O12 0.000000 0.328059 0.000000
O O13 0.342946 0.770486 0.657084
O O14 0.447352 0.000000 0.750143
O O15 0.500000 0.732316 0.000000
O O16 0.312172 0.500000 0.770328
#
# Coordination Sequence:
#
# PCOD9151849 Si02
#       6
#     4   4   4   4   4   4
#     4   9  19  37  58  82 112 153 202 246 291 346
#     4  10  22  42  67  91 119 159 208 254 298 356
#     4  11  22  36  56  84 116 153 195 243 302 355
#     4  10  21  35  54  81 114 156 201 245 291 342
#     4  11  25  42  62  93 130 163 193 238 307 374
#     4   9  20  39  64  92 119 158 209 256 299 350
#
# _framework density 24.869005999999999
#
# number of rings (size 3 to 8) (size 9 to 14) (size 15 to 20)
#    0.000    2.000    0.000    4.000    2.333    8.333 
#    0.000    3.333    0.000    0.000    0.000    0.000 
#    0.000    0.000    0.000    0.000    0.000    0.000 
#
# Total GULP energy -134010.690729 kJ/mol
# GULP energy per Si atom -5583.778780 kJ/mol
# Density = 2.481240 g / cm^3
# Si number density = 24.869006 Si / 1000 Ang^3
#
#
#
# Elastic Constant Matrix: (Units=GPa)
#
#
# Indices 1 2 3 4 5 6 
#
# 1 75.9462 -9.7278 3.2071 0.0000 -16.9600 0.0000
# 2 -9.7278 34.0729 -0.8692 0.0000 -0.2096 0.0000
# 3 3.2071 -0.8692 109.5980 0.0000 -23.4957 0.0000
# 4 0.0000 0.0000 0.0000 1.3931 0.0000 -12.2160
# 5 -16.9600 -0.2096 -23.4957 0.0000 54.5209 0.0000
# 6 0.0000 0.0000 0.0000 -12.2160 0.0000 50.0608
#
#
#
# Elastic Compliance Matrix: (Units=1/GPa)
#
#
# Indices 1 2 3 4 5 6 
#
# 1 0.014779 0.004266 0.000651 0.000000 0.004894 0.000000
# 2 0.004266 0.030589 0.000471 0.000000 0.001648 0.000000
# 3 0.000651 0.000471 0.010084 0.000000 0.004550 0.000000
# 4 0.000000 0.000000 0.000000 -0.629773 0.000000 -0.153679
# 5 0.004894 0.001648 0.004550 0.000000 0.021831 0.000000
# 6 0.000000 0.000000 0.000000 -0.153679 0.000000 -0.017525
#
#
# Mechanical properties :
#
#
# Convention : Reuss Voigt Hill
#
# Bulk Modulus (GPa) = 15.09936 22.75968 18.92952
# Shear Modulus (GPa) = -8.94912 36.32878 13.68983
#
# Velocity S-wave (km/s) = -1.89903 3.82619 2.34877
# Velocity P-wave (km/s) = 1.12974 5.35643 3.87090
#
# Compressibility (1/GPa) = 0.06622798
#
# Stress axis : x y z
#
# Youngs Moduli (GPa) = 67.66298 32.69149 99.16316
#
# Poissons Ratio (x) = -0.13947 -0.06451
# Poissons Ratio (y) = -0.28866 -0.04671
# Poissons Ratio (z) = -0.04402 -0.01540
#
# Static dielectric constant tensor:
#      x y z
#    x 2.145900 0.000000 -0.001290 
#    y 0.000000 1.940030 0.000000 
#    z -0.001290 0.000000 2.102370 
# 
# From -- ./inp_files/35714.got.cif
#   From: 2010.05.17/outbox.cif.g08.bks.cpg/sg10_18_cif.got.tgz:35714.got - 2010.06.03 11:33:40.
