data_PCOD9151668
_publ_section_title
;
Structure prediction by ZEFSAII (Michael W. Deem and Ramdas Pophale) SiO2 
 PCOD9151668
Probable space group: P 2/M
;
_chemical_formula_sum "Si O2"
_cell_formula_units_Z 28
_cell_length_a 9.361874
_cell_length_b 15.887729
_cell_length_c 11.890671
_cell_angle_alpha 90.000000
_cell_angle_beta 56.557550
_cell_angle_gamma 90.000000
_cell_volume 1475.794820
_symmetry_space_group_name_H-M "P 2/M"
_symmetry_group_IT_number 10
_symmetry_cell_setting 'monoclinic'
loop_
_space_group_symop_operation_xyz
x,y,z
-x,y,-z
-x,-y,-z
x,-y,z
loop_
_atom_site_type_symbol
_atom_site_label
_atom_site_fract_x
_atom_site_fract_y
_atom_site_fract_z
Si Si1 0.368468 0.593667 0.456353
Si Si2 0.334620 0.261245 0.142292
Si Si3 0.803316 0.907069 0.127043
Si Si4 0.704234 0.904751 0.426676
Si Si5 0.176951 0.738249 0.991225
Si Si6 0.457977 0.594103 0.860063
Si Si7 0.197137 0.240447 0.445862
O O1 0.500000 0.610529 0.500000
O O2 0.289789 0.500000 0.508724
O O3 0.477477 0.588845 0.295304
O O4 0.245928 0.672480 0.487459
O O5 0.174202 0.249821 0.127903
O O6 0.388220 0.358996 0.140088
O O7 0.300007 0.229611 0.283016
O O8 0.500000 0.227099 0.000000
O O9 0.788596 0.895155 0.267042
O O10 0.726799 0.000000 0.134407
O O11 0.735850 0.822441 0.098023
O O12 0.000000 0.910298 0.000000
O O13 0.500000 0.896541 0.500000
O O14 0.764609 0.835950 0.487934
O O15 0.740255 0.000000 0.450208
O O16 0.298127 0.657414 0.927238
O O17 0.000000 0.726920 0.000000
O O18 0.419254 0.500000 0.915949
O O19 0.000000 0.243403 0.500000
#
# Coordination Sequence:
#
# PCOD9151668 Si02
#       7
#     4   4   4   4   4   4   4
#     4   9  19  36  58  83 113 157 206 240 283 355
#     4   9  21  39  56  81 114 157 197 230 285 358
#     4   9  20  38  61  86 116 154 192 235 293 349
#     4  10  23  41  63  90 119 155 201 243 290 354
#     4  10  21  33  58  85 114 146 199 246 283 338
#     4   9  19  36  56  80 114 156 193 235 292 348
#     4  11  24  36  60  89 123 157 189 246 312 344
#
# _framework density 18.972828
#
# number of rings (size 3 to 8) (size 9 to 14) (size 15 to 20)
#    0.000    2.429    0.000    0.429   12.000    3.429 
#    0.000    0.714    0.000    4.286    0.000    0.000 
#    0.000    0.000    0.000    0.000    0.000    0.000 
#
# Total GULP energy -155925.676466 kJ/mol
# GULP energy per Si atom -5568.774159 kJ/mol
# Density = 1.892964 g / cm^3
# Si number density = 18.972828 Si / 1000 Ang^3
#
#
#
# Elastic Constant Matrix: (Units=GPa)
#
#
# Indices 1 2 3 4 5 6 
#
# 1 118.9403 81.8341 39.4727 0.0000 22.2575 0.0000
# 2 81.8341 182.4153 54.4429 0.0000 18.9503 0.0000
# 3 39.4727 54.4429 98.5722 0.0000 12.6589 0.0000
# 4 0.0000 0.0000 0.0000 15.7931 0.0000 14.3663
# 5 22.2575 18.9503 12.6589 0.0000 28.7602 0.0000
# 6 0.0000 0.0000 0.0000 14.3663 0.0000 -60.0663
#
#
#
# Elastic Compliance Matrix: (Units=1/GPa)
#
#
# Indices 1 2 3 4 5 6 
#
# 1 0.013599 -0.004850 -0.001935 0.000000 -0.006477 0.000000
# 2 -0.004850 0.008529 -0.002680 0.000000 -0.000687 0.000000
# 3 -0.001935 -0.002680 0.012699 0.000000 -0.002326 0.000000
# 4 0.000000 0.000000 0.000000 0.052005 0.000000 0.012438
# 5 -0.006477 -0.000687 -0.002326 0.000000 0.041259 0.000000
# 6 0.000000 0.000000 0.000000 0.012438 0.000000 -0.013673
#
#
# Mechanical properties :
#
#
# Convention : Reuss Voigt Hill
#
# Bulk Modulus (GPa) = 62.91055 83.49191 73.20123
# Shear Modulus (GPa) = 36.06301 11.84261 23.95281
#
# Velocity S-wave (km/s) = 4.36451 2.50109 3.55699
# Velocity P-wave (km/s) = 7.65695 7.24170 7.45221
#
# Compressibility (1/GPa) = 0.01589558
#
# Stress axis : x y z
#
# Youngs Moduli (GPa) = 73.53567 117.24420 78.74776
#
# Poissons Ratio (x) = 0.56867 0.15237
# Poissons Ratio (y) = 0.35667 0.21107
# Poissons Ratio (z) = 0.14229 0.31426
#
# Static dielectric constant tensor:
#      x y z
#    x 1.628540 0.000000 -0.010340 
#    y 0.000000 1.696050 0.000000 
#    z -0.010340 0.000000 1.691480 
# 
# From -- ./inp_files/42882.got.cif
#   From: 2010.05.17/outbox.cif.g08.bks.cpg/sg10_22_cif.got.tgz:42882.got - 2010.06.03 11:33:40.
