data_PCOD9151697
_publ_section_title
;
Structure prediction by ZEFSAII (Michael W. Deem and Ramdas Pophale) SiO2 
 PCOD9151697
Probable space group: P 2/M
;
_chemical_formula_sum "Si O2"
_cell_formula_units_Z 32
_cell_length_a 6.686701
_cell_length_b 21.687430
_cell_length_c 18.932833
_cell_angle_alpha 90.000000
_cell_angle_beta 134.939548
_cell_angle_gamma 90.000000
_cell_volume 1943.472213
_symmetry_space_group_name_H-M "P 2/M"
_symmetry_group_IT_number 10
_symmetry_cell_setting 'monoclinic'
loop_
_space_group_symop_operation_xyz
x,y,z
-x,y,-z
-x,-y,-z
x,-y,z
loop_
_atom_site_type_symbol
_atom_site_label
_atom_site_fract_x
_atom_site_fract_y
_atom_site_fract_z
Si Si1 0.843183 0.179295 0.784323
Si Si2 0.286015 0.071960 0.879763
Si Si3 0.205890 0.320705 0.715677
Si Si4 0.393318 0.738262 0.899460
Si Si5 0.580181 0.648795 0.596936
Si Si6 0.733039 0.428040 0.379763
Si Si7 0.704523 0.238262 0.399460
Si Si8 0.307564 0.148795 0.096936
O O1 0.567733 0.194155 0.669019
O O2 0.724448 0.176510 0.833852
O O3 0.012864 0.115550 0.816084
O O4 0.081146 0.231995 0.832386
O O5 0.463414 0.095575 0.856593
O O6 0.218274 0.000000 0.860685
O O7 0.500000 0.082188 0.000000
O O8 0.391659 0.305845 0.830981
O O9 0.248529 0.384450 0.683916
O O10 0.251603 0.268005 0.667614
O O11 0.889040 0.323490 0.666148
O O12 0.595006 0.796295 0.930822
O O13 0.500000 0.711037 0.000000
O O14 0.500000 0.624474 0.500000
O O15 0.537042 0.595575 0.643407
O O16 0.371719 0.703704 0.569178
O O17 0.724465 0.500000 0.360685
O O18 0.000000 0.417812 0.500000
O O19 0.000000 0.211037 0.500000
O O20 0.000000 0.124474 0.000000
#
# Coordination Sequence:
#
# PCOD9151697 Si02
#       8
#     4   4   4   4   4   4   4   4
#     4  11  20  33  52  77 110 141 171 219 271 320
#     4  10  21  34  51  77 105 141 184 219 267 326
#     4  11  20  33  52  77 110 141 171 219 271 320
#     4  11  21  32  52  81 109 141 178 214 269 332
#     4  11  18  32  52  77 110 140 169 215 270 319
#     4  10  21  34  51  77 105 141 184 219 267 326
#     4  11  21  32  52  81 109 141 178 214 269 332
#     4  11  18  32  52  77 110 140 169 215 270 319
#
# _framework density 16.465377
#
# number of rings (size 3 to 8) (size 9 to 14) (size 15 to 20)
#    0.000    1.250    7.500    1.500    0.000    1.500 
#    0.000    0.000    0.000    0.750    0.000    1.750 
#    0.000    0.000    0.000    0.000    0.000    0.000 
#
# Total GULP energy -178354.311362 kJ/mol
# GULP energy per Si atom -5573.572230 kJ/mol
# Density = 1.642790 g / cm^3
# Si number density = 16.465377 Si / 1000 Ang^3
#
#
#
# Elastic Constant Matrix: (Units=GPa)
#
#
# Indices 1 2 3 4 5 6 
#
# 1 94.1016 29.9452 33.7258 0.0000 0.1041 0.0000
# 2 29.9452 87.2940 47.2766 0.0000 0.2887 0.0000
# 3 33.7258 47.2766 87.0774 0.0000 -0.2211 0.0000
# 4 0.0000 0.0000 0.0000 19.9919 0.0000 0.2317
# 5 0.1041 0.2887 -0.2211 0.0000 33.3083 0.0000
# 6 0.0000 0.0000 0.0000 0.2317 0.0000 6.0806
#
#
#
# Elastic Compliance Matrix: (Units=1/GPa)
#
#
# Indices 1 2 3 4 5 6 
#
# 1 0.012684 -0.002394 -0.003613 0.000000 -0.000043 0.000000
# 2 -0.002394 0.016680 -0.008129 0.000000 -0.000191 0.000000
# 3 -0.003613 -0.008129 0.017297 0.000000 0.000197 0.000000
# 4 0.000000 0.000000 0.000000 0.050042 0.000000 -0.001907
# 5 -0.000043 -0.000191 0.000197 0.000000 0.030026 0.000000
# 6 0.000000 0.000000 0.000000 -0.001907 0.000000 0.164529
#
#
# Mechanical properties :
#
#
# Convention : Reuss Voigt Hill
#
# Bulk Modulus (GPa) = 54.38130 54.48538 54.43334
# Shear Modulus (GPa) = 15.35342 22.37786 18.86564
#
# Velocity S-wave (km/s) = 3.05695 3.69058 3.38860
# Velocity P-wave (km/s) = 6.74976 7.16402 6.95997
#
# Compressibility (1/GPa) = 0.01838867
#
# Stress axis : x y z
#
# Youngs Moduli (GPa) = 78.84243 59.95159 57.81239
#
# Poissons Ratio (x) = 0.14354 0.20885
# Poissons Ratio (y) = 0.18877 0.46997
# Poissons Ratio (z) = 0.28483 0.48736
#
# Static dielectric constant tensor:
#      x y z
#    x 1.590810 0.000000 0.000030 
#    y 0.000000 1.536160 0.000000 
#    z 0.000030 0.000000 1.592590 
# 
# From -- ./inp_files/73803.got.cif
#   From: 2010.05.17/outbox.cif.g08.bks.cpg/sg10_37_cif.got.tgz:73803.got - 2010.06.03 11:33:40.
