data_PCOD9151550
_publ_section_title
;
Structure prediction by ZEFSAII (Michael W. Deem and Ramdas Pophale) SiO2 
 PCOD9151550
Probable space group: P 2/M
;
_chemical_formula_sum "Si O2"
_cell_formula_units_Z 24
_cell_length_a 9.174727
_cell_length_b 7.925427
_cell_length_c 22.201172
_cell_angle_alpha 90.000000
_cell_angle_beta 51.696878
_cell_angle_gamma 90.000000
_cell_volume 1266.831781
_symmetry_space_group_name_H-M "P 2/M"
_symmetry_group_IT_number 10
_symmetry_cell_setting 'monoclinic'
loop_
_space_group_symop_operation_xyz
x,y,z
-x,y,-z
-x,-y,-z
x,-y,z
loop_
_atom_site_type_symbol
_atom_site_label
_atom_site_fract_x
_atom_site_fract_y
_atom_site_fract_z
Si Si1 0.630955 0.196522 0.695897
Si Si2 0.163605 0.795879 0.002215
Si Si3 0.548729 0.500000 0.417716
Si Si4 0.434536 0.203432 0.147219
Si Si5 0.083048 0.305610 0.159586
Si Si6 0.801786 0.500000 0.582422
Si Si7 0.293063 0.812850 0.689644
O O1 0.592433 0.239104 0.775273
O O2 0.768216 0.332721 0.631280
O O3 0.439377 0.207697 0.707097
O O4 0.693646 0.000000 0.676220
O O5 0.123983 0.743797 0.080501
O O6 0.164915 0.000000 0.999700
O O7 0.365083 0.737614 0.927767
O O8 0.000000 0.736313 0.000000
O O9 0.500000 0.500000 0.500000
O O10 0.360053 0.500000 0.426587
O O11 0.662956 0.665487 0.368588
O O12 0.268132 0.278236 0.150926
O O13 0.427996 0.000000 0.141885
O O14 0.025965 0.500000 0.176354
O O15 0.912960 0.202560 0.231208
O O16 0.000000 0.500000 0.500000
O O17 0.321265 0.000000 0.656606
#
# Coordination Sequence:
#
# PCOD9151550 Si02
#       7
#     4   4   2   4   4   2   4
#     4   9  20  39  63  87 114 153 199 240 286 349
#     4  10  21  39  60  81 111 155 203 247 292 347
#     4  10  22  40  60  91 124 149 194 240 287 356
#     4  10  21  37  57  84 115 153 198 244 295 346
#     4  12  24  36  54  86 121 154 197 246 294 347
#     4  10  22  38  60  89 120 155 186 234 293 346
#     4  10  20  40  64  86 117 158 199 241 292 348
#
# _framework density 18.944898999999999
#
# number of rings (size 3 to 8) (size 9 to 14) (size 15 to 20)
#    0.000    1.833    0.833    3.000    1.167    7.667 
#    0.000    0.000    0.000    0.000    0.000    0.000 
#    0.000    0.000    0.000    0.000    0.000    0.000 
#
# Total GULP energy -134094.422504 kJ/mol
# GULP energy per Si atom -5587.267604 kJ/mol
# Density = 1.890178 g / cm^3
# Si number density = 18.944899 Si / 1000 Ang^3
#
#
#
# Elastic Constant Matrix: (Units=GPa)
#
#
# Indices 1 2 3 4 5 6 
#
# 1 70.4195 45.1561 60.7082 0.0000 0.4249 0.0000
# 2 45.1561 95.4777 69.7078 0.0000 2.7520 0.0000
# 3 60.7082 69.7078 152.6296 0.0000 3.6659 0.0000
# 4 0.0000 0.0000 0.0000 18.3853 0.0000 15.6415
# 5 0.4249 2.7520 3.6659 0.0000 40.3978 0.0000
# 6 0.0000 0.0000 0.0000 15.6415 0.0000 -0.8370
#
#
#
# Elastic Compliance Matrix: (Units=1/GPa)
#
#
# Indices 1 2 3 4 5 6 
#
# 1 0.024122 -0.006620 -0.006590 0.000000 0.000795 0.000000
# 2 -0.006620 0.017537 -0.005361 0.000000 -0.000639 0.000000
# 3 -0.006590 -0.005361 0.011636 0.000000 -0.000621 0.000000
# 4 0.000000 0.000000 0.000000 0.003219 0.000000 0.060149
# 5 0.000795 -0.000639 -0.000621 0.000000 0.024845 0.000000
# 6 0.000000 0.000000 0.000000 0.060149 0.000000 -0.070700
#
#
# Mechanical properties :
#
#
# Convention : Reuss Voigt Hill
#
# Bulk Modulus (GPa) = 61.90697 74.40790 68.15743
# Shear Modulus (GPa) = 94.00943 21.11955 57.56449
#
# Velocity S-wave (km/s) = 7.05197 3.34247 5.51826
# Velocity P-wave (km/s) = 9.95266 7.36596 8.75536
#
# Compressibility (1/GPa) = 0.01615327
#
# Stress axis : x y z
#
# Youngs Moduli (GPa) = 41.45541 57.02247 85.93732
#
# Poissons Ratio (x) = 0.37749 0.56635
# Poissons Ratio (y) = 0.27444 0.46070
# Poissons Ratio (z) = 0.27320 0.30569
#
# Static dielectric constant tensor:
#      x y z
#    x 1.632180 0.000000 -0.008160 
#    y 0.000000 1.677040 0.000000 
#    z -0.008160 0.000000 1.606650 
# 
# From -- ./inp_files/81943.got.cif
#   From: 2010.05.17/outbox.cif.g08.bks.cpg/sg10_41_cif.got.tgz:81943.got - 2010.06.03 11:33:40.
