data_PCOD9151582
_publ_section_title
;
Structure prediction by ZEFSAII (Michael W. Deem and Ramdas Pophale) SiO2 
 PCOD9151582
Probable space group: P 2/M
;
_chemical_formula_sum "Si O2"
_cell_formula_units_Z 28
_cell_length_a 8.984482
_cell_length_b 14.032731
_cell_length_c 17.124441
_cell_angle_alpha 90.000000
_cell_angle_beta 139.143036
_cell_angle_gamma 90.000000
_cell_volume 1412.356037
_symmetry_space_group_name_H-M "P 2/M"
_symmetry_group_IT_number 10
_symmetry_cell_setting 'monoclinic'
loop_
_space_group_symop_operation_xyz
x,y,z
-x,y,-z
-x,-y,-z
x,-y,z
loop_
_atom_site_type_symbol
_atom_site_label
_atom_site_fract_x
_atom_site_fract_y
_atom_site_fract_z
Si Si1 0.413801 0.108468 0.347440
Si Si2 0.275143 0.101967 0.111113
Si Si3 0.543257 0.613022 0.657059
Si Si4 0.729539 0.308166 0.895316
Si Si5 0.900045 0.269656 0.710718
Si Si6 0.254392 0.604098 0.940028
Si Si7 0.847709 0.753864 0.516026
O O1 0.351946 0.104395 0.231513
O O2 0.213841 0.170382 0.307446
O O3 0.651525 0.165435 0.449185
O O4 0.427961 0.000000 0.381766
O O5 0.360714 0.203905 0.114381
O O6 0.352058 0.000000 0.106959
O O7 0.000000 0.100976 0.000000
O O8 0.549208 0.500000 0.661551
O O9 0.643559 0.658020 0.777186
O O10 0.695293 0.655290 0.646765
O O11 0.292054 0.656364 0.552106
O O12 0.695379 0.383925 0.948915
O O13 0.000000 0.297628 0.000000
O O14 0.969379 0.259017 0.647936
O O15 0.100173 0.311433 0.844136
O O16 0.144808 0.500000 0.881908
O O17 0.500000 0.606398 0.000000
O O18 0.000000 0.773547 0.500000
#
# Coordination Sequence:
#
# PCOD9151582 Si02
#       7
#     4   4   4   4   4   4   4
#     4  10  20  40  67  93 121 160 210 256 306 371
#     4   9  16  29  57  93 123 149 188 242 304 358
#     4  11  22  38  62  88 116 160 209 259 307 361
#     4  11  19  36  62  91 123 153 202 259 298 362
#     4  11  22  41  63  88 124 159 206 266 306 361
#     4  11  25  40  60  91 127 170 206 248 313 374
#     4  11  26  42  58  88 124 163 206 256 317 374
#
# _framework density 19.825029000000001
#
# number of rings (size 3 to 8) (size 9 to 14) (size 15 to 20)
#    0.000    1.429    4.286    3.429    2.000    4.000 
#    0.000    0.000    0.000    1.714    0.000    0.000 
#    0.000    0.000    0.000    0.000    0.000    0.000 
#
# Total GULP energy -156131.598908 kJ/mol
# GULP energy per Si atom -5576.128532 kJ/mol
# Density = 1.977991 g / cm^3
# Si number density = 19.825029 Si / 1000 Ang^3
#
#
#
# Elastic Constant Matrix: (Units=GPa)
#
#
# Indices 1 2 3 4 5 6 
#
# 1 74.5448 26.0590 7.8634 0.0000 -10.7941 0.0000
# 2 26.0590 163.2281 8.3665 0.0000 5.3777 0.0000
# 3 7.8634 8.3665 53.6931 0.0000 -18.1188 0.0000
# 4 0.0000 0.0000 0.0000 27.3857 0.0000 -1.2387
# 5 -10.7941 5.3777 -18.1188 0.0000 21.2974 0.0000
# 6 0.0000 0.0000 0.0000 -1.2387 0.0000 13.5409
#
#
#
# Elastic Compliance Matrix: (Units=1/GPa)
#
#
# Indices 1 2 3 4 5 6 
#
# 1 0.015722 -0.002918 0.001529 0.000000 0.010006 0.000000
# 2 -0.002918 0.006891 -0.002430 0.000000 -0.005287 0.000000
# 3 0.001529 -0.002430 0.026999 0.000000 0.024358 0.000000
# 4 0.000000 0.000000 0.000000 0.036667 0.000000 0.003354
# 5 0.010006 -0.005287 0.024358 0.000000 0.074083 0.000000
# 6 0.000000 0.000000 0.000000 0.003354 0.000000 0.074157
#
#
# Mechanical properties :
#
#
# Convention : Reuss Voigt Hill
#
# Bulk Modulus (GPa) = 23.82510 41.78265 32.80387
# Shear Modulus (GPa) = 19.51985 29.05662 24.28823
#
# Velocity S-wave (km/s) = 3.14125 3.83254 3.50398
# Velocity P-wave (km/s) = 5.02000 6.38012 5.74048
#
# Compressibility (1/GPa) = 0.04197254
#
# Stress axis : x y z
#
# Youngs Moduli (GPa) = 63.60334 145.11682 37.03878
#
# Poissons Ratio (x) = 0.42346 -0.05662
# Poissons Ratio (y) = 0.18560 0.09002
# Poissons Ratio (z) = -0.09723 0.35269
#
# Static dielectric constant tensor:
#      x y z
#    x 1.558960 0.000000 0.029890 
#    y 0.000000 1.747280 0.000000 
#    z 0.029890 0.000000 1.692010 
# 
# From -- ./inp_files/32854.got.cif
#   From: 2010.05.17/outbox.cif.g08.bks.cpg/sg10_17_cif.got.tgz:32854.got - 2010.06.03 11:33:40.
