data_PCOD9151847
_publ_section_title
;
Structure prediction by ZEFSAII (Michael W. Deem and Ramdas Pophale) SiO2 
 PCOD9151847
Probable space group: P 2/M
;
_chemical_formula_sum "Si O2"
_cell_formula_units_Z 32
_cell_length_a 24.524695
_cell_length_b 7.695425
_cell_length_c 15.676419
_cell_angle_alpha 90.000000
_cell_angle_beta 152.327709
_cell_angle_gamma 90.000000
_cell_volume 1374.004664
_symmetry_space_group_name_H-M "P 2/M"
_symmetry_group_IT_number 10
_symmetry_cell_setting 'monoclinic'
loop_
_space_group_symop_operation_xyz
x,y,z
-x,y,-z
-x,-y,-z
x,-y,z
loop_
_atom_site_type_symbol
_atom_site_label
_atom_site_fract_x
_atom_site_fract_y
_atom_site_fract_z
Si Si1 0.698722 0.204924 0.877721
Si Si2 0.133938 0.789752 0.188130
Si Si3 0.169770 0.287344 0.676138
Si Si4 0.927286 0.709006 0.274827
Si Si5 0.483703 0.196055 0.249969
Si Si6 0.653944 0.304737 0.627424
Si Si7 0.624784 0.702633 0.147763
Si Si8 0.689169 0.788700 0.418398
O O1 0.631553 0.280355 0.867970
O O2 0.648091 0.276718 0.719776
O O3 0.676643 0.000000 0.846766
O O4 0.837602 0.233515 0.078233
O O5 0.213049 0.726245 0.219262
O O6 0.206065 0.737343 0.372857
O O7 0.133713 0.000000 0.185372
O O8 0.000000 0.729337 0.000000
O O9 0.172828 0.500000 0.680548
O O10 0.130419 0.231586 0.715482
O O11 0.295156 0.223819 0.816747
O O12 0.062566 0.234356 0.465104
O O13 0.927957 0.500000 0.276079
O O14 0.572070 0.189152 0.453979
O O15 0.565432 0.273832 0.289146
O O16 0.455206 0.000000 0.183342
O O17 0.618462 0.500000 0.557522
O O18 0.604007 0.500000 0.098652
O O19 0.699306 0.716993 0.337904
O O20 0.500000 0.784628 0.000000
O O21 0.686170 0.000000 0.411934
#
# Coordination Sequence:
#
# PCOD9151847 Si02
#       8
#     4   4   4   4   4   4   4   4
#     4  11  22  35  54  80 109 141 180 226 277 328
#     4   9  19  38  61  81 109 150 187 223 274 334
#     4   8  17  36  56  76 108 144 176 220 278 331
#     4   9  18  35  58  78 102 142 185 223 270 329
#     4   9  20  38  56  74 107 148 180 220 276 331
#     4  11  22  35  53  81 112 142 181 226 270 322
#     4  10  21  35  54  81 111 143 181 226 277 328
#     4   9  19  36  55  79 108 140 180 222 272 327
#
# _framework density 23.289586
#
# number of rings (size 3 to 8) (size 9 to 14) (size 15 to 20)
#    0.000    2.500    0.000    3.375    1.750    6.000 
#    0.000    5.000    0.000    0.000    0.000    0.000 
#    0.000    0.000    0.000    0.000    0.000    0.000 
#
# Total GULP energy -178732.426382 kJ/mol
# GULP energy per Si atom -5585.388324 kJ/mol
# Density = 2.323658 g / cm^3
# Si number density = 23.289586 Si / 1000 Ang^3
#
#
#
# Elastic Constant Matrix: (Units=GPa)
#
#
# Indices 1 2 3 4 5 6 
#
# 1 71.6283 3.3182 16.0058 0.0000 15.4278 0.0000
# 2 3.3182 59.4211 6.4615 0.0000 3.8933 0.0000
# 3 16.0058 6.4615 80.8303 0.0000 18.2521 0.0000
# 4 0.0000 0.0000 0.0000 14.7014 0.0000 -8.0051
# 5 15.4278 3.8933 18.2521 0.0000 39.4985 0.0000
# 6 0.0000 0.0000 0.0000 -8.0051 0.0000 12.6938
#
#
#
# Elastic Compliance Matrix: (Units=1/GPa)
#
#
# Indices 1 2 3 4 5 6 
#
# 1 0.015507 -0.000324 -0.001880 0.000000 -0.005156 0.000000
# 2 -0.000324 0.017032 -0.001057 0.000000 -0.001064 0.000000
# 3 -0.001880 -0.001057 0.014112 0.000000 -0.005682 0.000000
# 4 0.000000 0.000000 0.000000 0.103594 0.000000 0.065330
# 5 -0.005156 -0.001064 -0.005682 0.000000 0.030062 0.000000
# 6 0.000000 0.000000 0.000000 0.065330 0.000000 0.119978
#
#
# Mechanical properties :
#
#
# Convention : Reuss Voigt Hill
#
# Bulk Modulus (GPa) = 24.92060 29.27229 27.09644
# Shear Modulus (GPa) = 15.61609 25.78501 20.70055
#
# Velocity S-wave (km/s) = 2.59225 3.33099 2.98456
# Velocity P-wave (km/s) = 4.43658 5.23356 4.85146
#
# Compressibility (1/GPa) = 0.04012745
#
# Stress axis : x y z
#
# Youngs Moduli (GPa) = 64.48833 58.71379 70.86391
#
# Poissons Ratio (x) = 0.01900 0.13326
# Poissons Ratio (y) = 0.02087 0.07492
# Poissons Ratio (z) = 0.12127 0.06207
#
# Static dielectric constant tensor:
#      x y z
#    x 1.900180 0.000000 0.035660 
#    y 0.000000 1.846430 0.000000 
#    z 0.035660 0.000000 1.884740 
# 
# From -- ./inp_files/71669.got.cif
#   From: 2010.05.17/outbox.cif.g08.bks.cpg/sg10_36_cif.got.tgz:71669.got - 2010.06.03 11:33:40.
