data_PCOD9151692
_publ_section_title
;
Structure prediction by ZEFSAII (Michael W. Deem and Ramdas Pophale) SiO2 
 PCOD9151692
Probable space group: P 2/M
;
_chemical_formula_sum "Si O2"
_cell_formula_units_Z 32
_cell_length_a 24.109766
_cell_length_b 14.700780
_cell_length_c 9.574605
_cell_angle_alpha 90.000000
_cell_angle_beta 144.576769
_cell_angle_gamma 90.000000
_cell_volume 1966.940971
_symmetry_space_group_name_H-M "P 2/M"
_symmetry_group_IT_number 10
_symmetry_cell_setting 'monoclinic'
loop_
_space_group_symop_operation_xyz
x,y,z
-x,y,-z
-x,-y,-z
x,-y,z
loop_
_atom_site_type_symbol
_atom_site_label
_atom_site_fract_x
_atom_site_fract_y
_atom_site_fract_z
Si Si1 0.593712 0.393809 0.368764
Si Si2 0.300944 0.606597 0.131695
Si Si3 0.713446 0.289685 0.388893
Si Si4 0.094970 0.609284 0.281289
Si Si5 0.514383 0.101422 0.792881
Si Si6 0.583440 0.289149 0.856510
Si Si7 0.657589 0.101276 0.354864
Si Si8 0.091069 0.610438 0.598112
O O1 0.577466 0.500000 0.303356
O O2 0.674396 0.387798 0.654906
O O3 0.632887 0.339316 0.316922
O O4 0.499334 0.348770 0.240561
O O5 0.311153 0.500000 0.110943
O O6 0.377720 0.664851 0.203282
O O7 0.193437 0.636399 0.873653
O O8 0.811378 0.344596 0.590278
O O9 0.724405 0.187679 0.470134
O O10 0.671577 0.286672 0.146504
O O11 0.107343 0.500000 0.302276
O O12 0.085485 0.636691 0.424255
O O13 0.000000 0.631925 0.000000
O O14 0.543669 0.186867 0.760085
O O15 0.410090 0.113932 0.648744
O O16 0.520176 0.000000 0.742688
O O17 0.586235 0.102886 0.074201
O O18 0.700434 0.000000 0.448657
O O19 0.088612 0.500000 0.596711
O O20 0.000000 0.643138 0.500000
#
# Coordination Sequence:
#
# PCOD9151692 Si02
#       8
#     4   4   4   4   4   4   4   4
#     4  11  23  32  44  68 102 142 170 195 236 293
#     4  10  21  35  48  66  98 138 172 204 239 286
#     4  11  20  32  51  76 100 126 167 208 250 292
#     4  10  21  34  50  74 103 128 156 209 258 285
#     4   8  14  26  46  71  97 126 163 204 243 287
#     4  11  19  32  50  71 100 133 170 203 243 288
#     4   8  14  27  47  71  98 127 160 199 247 296
#     4   9  18  34  53  68  88 126 171 205 241 290
#
# _framework density 16.268916999999998
#
# number of rings (size 3 to 8) (size 9 to 14) (size 15 to 20)
#    0.000    2.250    2.500    2.250    1.750    3.000 
#    0.000    0.000    0.000    2.625    0.000    0.000 
#    0.000    1.000    0.000    0.000    0.000    0.000 
#
# Total GULP energy -178456.626474 kJ/mol
# GULP energy per Si atom -5576.769577 kJ/mol
# Density = 1.623189 g / cm^3
# Si number density = 16.268917 Si / 1000 Ang^3
#
#
#
# Elastic Constant Matrix: (Units=GPa)
#
#
# Indices 1 2 3 4 5 6 
#
# 1 52.9517 14.7011 5.4762 0.0000 6.3106 0.0000
# 2 14.7011 68.5287 7.5501 0.0000 0.2078 0.0000
# 3 5.4762 7.5501 59.4132 0.0000 5.4898 0.0000
# 4 0.0000 0.0000 0.0000 7.6916 0.0000 1.0501
# 5 6.3106 0.2078 5.4898 0.0000 20.9255 0.0000
# 6 0.0000 0.0000 0.0000 1.0501 0.0000 16.7997
#
#
#
# Elastic Compliance Matrix: (Units=1/GPa)
#
#
# Indices 1 2 3 4 5 6 
#
# 1 0.020905 -0.004377 -0.000812 0.000000 -0.006048 0.000000
# 2 -0.004377 0.015719 -0.001744 0.000000 0.001621 0.000000
# 3 -0.000812 -0.001744 0.017528 0.000000 -0.004336 0.000000
# 4 0.000000 0.000000 0.000000 0.131131 0.000000 -0.008197
# 5 -0.006048 0.001621 -0.004336 0.000000 0.050734 0.000000
# 6 0.000000 0.000000 0.000000 -0.008197 0.000000 0.060037
#
#
# Mechanical properties :
#
#
# Convention : Reuss Voigt Hill
#
# Bulk Modulus (GPa) = 24.82196 26.26093 25.54145
# Shear Modulus (GPa) = 15.46321 19.29445 17.37883
#
# Velocity S-wave (km/s) = 3.08632 3.44753 3.27191
# Velocity P-wave (km/s) = 5.29065 5.65898 5.47791
#
# Compressibility (1/GPa) = 0.04028690
#
# Stress axis : x y z
#
# Youngs Moduli (GPa) = 47.83539 63.61891 57.05030
#
# Poissons Ratio (x) = 0.27845 0.04631
# Poissons Ratio (y) = 0.20937 0.09949
# Poissons Ratio (z) = 0.03883 0.11094
#
# Static dielectric constant tensor:
#      x y z
#    x 1.529260 0.000000 -0.017940 
#    y 0.000000 1.555000 0.000000 
#    z -0.017940 0.000000 1.549940 
# 
# From -- ./inp_files/29521.got.cif
#   From: 2010.05.17/outbox.cif.g08.bks.cpg/sg10_15_cif.got.tgz:29521.got - 2010.06.03 11:33:40.
