data_PCOD9151987
_publ_section_title
;
Structure prediction by ZEFSAII (Michael W. Deem and Ramdas Pophale) SiO2 
 PCOD9151987
Probable space group: P 2/M
;
_chemical_formula_sum "Si O2"
_cell_formula_units_Z 28
_cell_length_a 20.469201
_cell_length_b 9.535031
_cell_length_c 14.116184
_cell_angle_alpha 90.000000
_cell_angle_beta 26.322614
_cell_angle_gamma 90.000000
_cell_volume 1221.688469
_symmetry_space_group_name_H-M "P 2/M"
_symmetry_group_IT_number 10
_symmetry_cell_setting 'monoclinic'
loop_
_space_group_symop_operation_xyz
x,y,z
-x,y,-z
-x,-y,-z
x,-y,z
loop_
_atom_site_type_symbol
_atom_site_label
_atom_site_fract_x
_atom_site_fract_y
_atom_site_fract_z
Si Si1 0.824112 0.667081 0.330062
Si Si2 0.740330 0.838826 0.769787
Si Si3 0.714563 0.659407 0.272464
Si Si4 0.941894 0.163657 0.340552
Si Si5 0.140073 0.344322 0.221939
Si Si6 0.596644 0.731216 0.239229
Si Si7 0.449552 0.153688 0.259170
O O1 0.839532 0.500000 0.320044
O O2 0.819674 0.698974 0.223325
O O3 0.936784 0.750451 0.249887
O O4 0.667620 0.723814 0.573337
O O5 0.786871 0.824032 0.600418
O O6 0.830205 0.727397 0.715647
O O7 0.781002 0.000000 0.743891
O O8 0.569850 0.823542 0.020680
O O9 0.750956 0.500000 0.193677
O O10 0.691739 0.757802 0.210911
O O11 0.551424 0.657461 0.531548
O O12 0.052783 0.237208 0.268951
O O13 0.973952 0.000000 0.285116
O O14 0.074937 0.500000 0.309126
O O15 0.298957 0.354835 0.965430
O O16 0.539921 0.849738 0.241474
O O17 0.378632 0.000000 0.339525
#
# Coordination Sequence:
#
# PCOD9151987 Si02
#       7
#     4   4   4   4   4   4   4
#     4  10  21  36  54  78 106 137 176 218 259 305
#     4   9  20  37  56  77 102 138 178 211 254 314
#     4   9  16  31  55  80 107 137 168 206 257 315
#     4  11  23  39  55  70 100 146 184 213 253 310
#     4  11  21  33  54  83 109 132 168 220 265 301
#     4   9  17  31  54  82 108 135 168 208 256 309
#     4   9  18  34  55  80 109 137 169 212 261 312
#
# _framework density 22.919098999999999
#
# number of rings (size 3 to 8) (size 9 to 14) (size 15 to 20)
#    0.000    2.286    0.000    3.429    0.000    8.000 
#    0.000   10.000    0.000    3.429    0.000    0.000 
#    0.000    0.000    0.000    0.000    0.000    0.000 
#
# Total GULP energy -156240.887135 kJ/mol
# GULP energy per Si atom -5580.031683 kJ/mol
# Density = 2.286693 g / cm^3
# Si number density = 22.919099 Si / 1000 Ang^3
#
#
#
# Elastic Constant Matrix: (Units=GPa)
#
#
# Indices 1 2 3 4 5 6 
#
# 1 151.9950 60.7861 5.5180 0.0000 12.5867 0.0000
# 2 60.7861 117.6538 13.7374 0.0000 3.5983 0.0000
# 3 5.5180 13.7374 59.8767 0.0000 17.8535 0.0000
# 4 0.0000 0.0000 0.0000 -4.2481 0.0000 -7.7958
# 5 12.5867 3.5983 17.8535 0.0000 29.6780 0.0000
# 6 0.0000 0.0000 0.0000 -7.7958 0.0000 24.9533
#
#
#
# Elastic Compliance Matrix: (Units=1/GPa)
#
#
# Indices 1 2 3 4 5 6 
#
# 1 0.008666 -0.004522 0.001427 0.000000 -0.003986 0.000000
# 2 -0.004522 0.011094 -0.002802 0.000000 0.002258 0.000000
# 3 0.001427 -0.002802 0.021071 0.000000 -0.012941 0.000000
# 4 0.000000 0.000000 0.000000 -0.149619 0.000000 -0.046744
# 5 -0.003986 0.002258 -0.012941 0.000000 0.042897 0.000000
# 6 0.000000 0.000000 0.000000 -0.046744 0.000000 0.025471
#
#
# Mechanical properties :
#
#
# Convention : Reuss Voigt Hill
#
# Bulk Modulus (GPa) = 34.43822 54.40094 44.41958
# Shear Modulus (GPa) = -263.88123 26.70891 -118.58616
#
# Velocity S-wave (km/s) = -10.74178 3.41743 -7.20094
# Velocity P-wave (km/s) = 11.78089 6.27371 7.05088
#
# Compressibility (1/GPa) = 0.02903751
#
# Stress axis : x y z
#
# Youngs Moduli (GPa) = 115.39580 90.13976 47.45857
#
# Poissons Ratio (x) = 0.40761 -0.06774
# Poissons Ratio (y) = 0.52182 0.13297
# Poissons Ratio (z) = -0.16470 0.25256
#
# Static dielectric constant tensor:
#      x y z
#    x 1.900840 0.000000 -0.048300 
#    y 0.000000 1.791550 0.000000 
#    z -0.048300 0.000000 1.928280 
# 
# From -- ./inp_files/70202.got.cif
#   From: 2010.05.17/outbox.cif.g08.bks.cpg/sg10_36_cif.got.tgz:70202.got - 2010.06.03 11:33:40.
