data_PCOD9151028
_publ_section_title
;
Structure prediction by ZEFSAII (Michael W. Deem and Ramdas Pophale) SiO2 
 PCOD9151028
Probable space group: P 2/M
;
_chemical_formula_sum "Si O2"
_cell_formula_units_Z 30
_cell_length_a 14.882489
_cell_length_b 7.607797
_cell_length_c 12.553071
_cell_angle_alpha 90.000000
_cell_angle_beta 114.984039
_cell_angle_gamma 90.000000
_cell_volume 1288.298725
_symmetry_space_group_name_H-M "P 2/M"
_symmetry_group_IT_number 10
_symmetry_cell_setting 'monoclinic'
loop_
_space_group_symop_operation_xyz
x,y,z
-x,y,-z
-x,-y,-z
x,-y,z
loop_
_atom_site_type_symbol
_atom_site_label
_atom_site_fract_x
_atom_site_fract_y
_atom_site_fract_z
Si Si1 0.500000 0.751177 0.500000
Si Si2 0.299060 0.792765 0.482158
Si Si3 0.875565 0.785688 0.762549
Si Si4 0.565266 0.286576 0.130217
Si Si5 0.768589 0.708457 0.317136
Si Si6 0.794785 0.787867 0.945799
Si Si7 0.911809 0.788870 0.209959
Si Si8 0.578627 0.292850 0.751640
O O1 0.402532 0.690879 0.518762
O O2 0.436758 0.811823 0.365088
O O3 0.219262 0.733348 0.354659
O O4 0.248813 0.776318 0.572726
O O5 0.323312 0.000000 0.481141
O O6 0.861179 0.731532 0.877821
O O7 0.977900 0.724699 0.761570
O O8 0.876241 0.000000 0.761638
O O9 0.567796 0.500000 0.122007
O O10 0.677455 0.223330 0.198288
O O11 0.506925 0.245092 0.208609
O O12 0.500000 0.219078 0.000000
O O13 0.758466 0.500000 0.319989
O O14 0.869046 0.746735 0.304505
O O15 0.683016 0.734420 0.862348
O O16 0.796693 0.000000 0.949298
O O17 0.838242 0.723254 0.079542
O O18 0.914498 0.000000 0.203420
O O19 0.572593 0.500000 0.720141
#
# Coordination Sequence:
#
# PCOD9151028 Si02
#       8
#     2   4   4   4   4   4   4   4
#     4  12  22  38  62  90 120 154 194 246 292 346
#     4  11  23  40  64  90 120 155 197 245 297 354
#     4   9  19  38  62  89 118 157 199 243 299 355
#     4   9  18  34  54  77 109 152 194 229 277 345
#     4  11  23  40  60  84 120 159 200 247 297 351
#     4  10  20  37  61  92 122 153 197 249 299 349
#     4  10  21  39  64  88 117 156 203 250 294 351
#     4  11  22  36  58  87 119 159 197 236 291 358
#
# _framework density 23.286524
#
# number of rings (size 3 to 8) (size 9 to 14) (size 15 to 20)
#    0.000    1.733    2.667    2.000    0.000    4.800 
#    0.000    4.000    0.000    4.400    0.000    0.000 
#    0.000    0.000    0.000    0.000    0.000    0.000 
#
# Total GULP energy -167487.905994 kJ/mol
# GULP energy per Si atom -5582.930200 kJ/mol
# Density = 2.323352 g / cm^3
# Si number density = 23.286524 Si / 1000 Ang^3
#
#
#
# Elastic Constant Matrix: (Units=GPa)
#
#
# Indices 1 2 3 4 5 6 
#
# 1 146.4011 11.5536 24.2693 0.0000 -12.6359 0.0000
# 2 11.5536 76.3174 12.2395 0.0000 -0.3872 0.0000
# 3 24.2693 12.2395 99.5501 0.0000 -10.4517 0.0000
# 4 0.0000 0.0000 0.0000 -120.5652 0.0000 101.6972
# 5 -12.6359 -0.3872 -10.4517 0.0000 37.6561 0.0000
# 6 0.0000 0.0000 0.0000 101.6972 0.0000 -76.6529
#
#
#
# Elastic Compliance Matrix: (Units=1/GPa)
#
#
# Indices 1 2 3 4 5 6 
#
# 1 0.007317 -0.000863 -0.001464 0.000000 0.002040 0.000000
# 2 -0.000863 0.013472 -0.001506 0.000000 -0.000569 0.000000
# 3 -0.001464 -0.001506 0.010850 0.000000 0.002505 0.000000
# 4 0.000000 0.000000 0.000000 0.069644 0.000000 0.092398
# 5 0.002040 -0.000569 0.002505 0.000000 0.027930 0.000000
# 6 0.000000 0.000000 0.000000 0.092398 0.000000 0.109540
#
#
# Mechanical properties :
#
#
# Convention : Reuss Voigt Hill
#
# Bulk Modulus (GPa) = 41.70904 46.48816 44.09860
# Shear Modulus (GPa) = 19.65332 -13.63198 3.01067
#
# Velocity S-wave (km/s) = 2.90828 -2.42213 1.13828
# Velocity P-wave (km/s) = 5.40625 3.49064 4.55039
#
# Compressibility (1/GPa) = 0.02397562
#
# Stress axis : x y z
#
# Youngs Moduli (GPa) = 136.66134 74.22593 92.16479
#
# Poissons Ratio (x) = 0.06403 0.13489
# Poissons Ratio (y) = 0.11790 0.13878
# Poissons Ratio (z) = 0.20002 0.11177
#
# Static dielectric constant tensor:
#      x y z
#    x 1.854220 0.000000 -0.007570 
#    y 0.000000 1.948240 0.000000 
#    z -0.007570 0.000000 1.857960 
# 
# From -- ./inp_files/50015.got.cif
#   From: 2010.05.17/outbox.cif.g08.bks.cpg/sg10_26_cif.got.tgz:50015.got - 2010.06.03 11:33:40.
