data_PCOD9151299
_publ_section_title
;
Structure prediction by ZEFSAII (Michael W. Deem and Ramdas Pophale) SiO2 
 PCOD9151299
Probable space group: P 2/M
;
_chemical_formula_sum "Si O2"
_cell_formula_units_Z 24
_cell_length_a 9.255349
_cell_length_b 12.277253
_cell_length_c 23.584755
_cell_angle_alpha 90.000000
_cell_angle_beta 151.978980
_cell_angle_gamma 90.000000
_cell_volume 1259.024516
_symmetry_space_group_name_H-M "P 2/M"
_symmetry_group_IT_number 10
_symmetry_cell_setting 'monoclinic'
loop_
_space_group_symop_operation_xyz
x,y,z
-x,y,-z
-x,-y,-z
x,-y,z
loop_
_atom_site_type_symbol
_atom_site_label
_atom_site_fract_x
_atom_site_fract_y
_atom_site_fract_z
Si Si1 0.160987 0.121214 0.409511
Si Si2 0.675303 0.123816 0.139473
Si Si3 0.628417 0.500000 0.378173
Si Si4 0.263680 0.732522 0.543819
Si Si5 0.913584 0.738143 0.036022
Si Si6 0.182608 0.128163 0.222730
Si Si7 0.082354 0.500000 0.097577
O O1 0.500000 0.126541 0.500000
O O2 0.116992 0.225357 0.434568
O O3 0.919473 0.123694 0.274958
O O4 0.130697 0.000000 0.426860
O O5 0.413121 0.208502 0.064105
O O6 0.871729 0.148230 0.151203
O O7 0.547735 0.000000 0.090322
O O8 0.582423 0.612857 0.396714
O O9 0.422136 0.500000 0.248033
O O10 0.000000 0.500000 0.500000
O O11 0.530133 0.820139 0.646149
O O12 0.000000 0.739167 0.500000
O O13 0.000000 0.740643 0.000000
O O14 0.154795 0.811503 0.153620
O O15 0.936992 0.614265 0.065660
O O16 0.219087 0.000000 0.229575
O O17 0.000000 0.500000 0.000000
#
# Coordination Sequence:
#
# PCOD9151299 Si02
#       7
#     4   4   2   4   4   4   2
#     4  10  20  38  62  89 124 163 201 249 314 380
#     4  10  22  40  62  88 126 171 203 247 316 381
#     4  10  22  42  66  90 124 170 209 262 327 377
#     4  11  23  38  63  92 121 158 206 256 312 367
#     4  11  24  40  62  90 121 159 214 261 308 363
#     4  11  22  39  62  88 125 163 201 248 313 378
#     4  10  22  42  66  89 126 170 211 263 320 373
#
# _framework density 19.062377000000001
#
# number of rings (size 3 to 8) (size 9 to 14) (size 15 to 20)
#    0.000    1.500    3.333    1.500    2.333    5.333 
#    0.000    2.917    0.000    0.000    0.000    0.000 
#    0.000    0.000    0.000    0.000    0.000    0.000 
#
# Total GULP energy -133792.120628 kJ/mol
# GULP energy per Si atom -5574.671693 kJ/mol
# Density = 1.901899 g / cm^3
# Si number density = 19.062377 Si / 1000 Ang^3
#
#
#
# Elastic Constant Matrix: (Units=GPa)
#
#
# Indices 1 2 3 4 5 6 
#
# 1 58.7929 53.7384 13.7751 0.0000 -10.9131 0.0000
# 2 53.7384 138.5729 41.8126 0.0000 2.0633 0.0000
# 3 13.7751 41.8126 85.6873 0.0000 -6.5180 0.0000
# 4 0.0000 0.0000 0.0000 10.9855 0.0000 -21.1122
# 5 -10.9131 2.0633 -6.5180 0.0000 33.7930 0.0000
# 6 0.0000 0.0000 0.0000 -21.1122 0.0000 222.7016
#
#
#
# Elastic Compliance Matrix: (Units=1/GPa)
#
#
# Indices 1 2 3 4 5 6 
#
# 1 0.029805 -0.012337 0.002048 0.000000 0.010773 0.000000
# 2 -0.012337 0.013628 -0.005108 0.000000 -0.005801 0.000000
# 3 0.002048 -0.005108 0.014115 0.000000 0.003696 0.000000
# 4 0.000000 0.000000 0.000000 0.111309 0.000000 0.010552
# 5 0.010773 -0.005801 0.003696 0.000000 0.034138 0.000000
# 6 0.000000 0.000000 0.000000 0.010552 0.000000 0.005491
#
#
# Mechanical properties :
#
#
# Convention : Reuss Voigt Hill
#
# Bulk Modulus (GPa) = 37.37733 55.74504 46.56119
# Shear Modulus (GPa) = 20.14524 65.07779 42.61152
#
# Velocity S-wave (km/s) = 3.25438 5.84923 4.73310
# Velocity P-wave (km/s) = 5.81135 8.65592 7.37214
#
# Compressibility (1/GPa) = 0.02675419
#
# Stress axis : x y z
#
# Youngs Moduli (GPa) = 33.55160 73.37694 70.84728
#
# Poissons Ratio (x) = 0.90522 -0.14509
# Poissons Ratio (y) = 0.41391 0.36190
# Poissons Ratio (z) = -0.06871 0.37482
#
# Static dielectric constant tensor:
#      x y z
#    x 1.658550 0.000000 -0.040500 
#    y 0.000000 1.671940 0.000000 
#    z -0.040500 0.000000 1.721010 
# 
# From -- ./inp_files/76747.got.cif
#   From: 2010.05.17/outbox.cif.g08.bks.cpg/sg10_39_cif.got.tgz:76747.got - 2010.06.03 11:33:40.
