data_PCOD9151549
_publ_section_title
;
Structure prediction by ZEFSAII (Michael W. Deem and Ramdas Pophale) SiO2 
 PCOD9151549
Probable space group: P 2/M
;
_chemical_formula_sum "Si O2"
_cell_formula_units_Z 32
_cell_length_a 11.834007
_cell_length_b 9.151241
_cell_length_c 15.246761
_cell_angle_alpha 90.000000
_cell_angle_beta 87.878694
_cell_angle_gamma 90.000000
_cell_volume 1650.029400
_symmetry_space_group_name_H-M "P 2/M"
_symmetry_group_IT_number 10
_symmetry_cell_setting 'monoclinic'
loop_
_space_group_symop_operation_xyz
x,y,z
-x,y,-z
-x,-y,-z
x,-y,z
loop_
_atom_site_type_symbol
_atom_site_label
_atom_site_fract_x
_atom_site_fract_y
_atom_site_fract_z
Si Si1 0.107632 0.828795 0.190486
Si Si2 0.584502 0.823932 0.418943
Si Si3 0.934191 0.665005 0.093808
Si Si4 0.322075 0.325354 0.115708
Si Si5 0.067680 0.673519 0.367017
Si Si6 0.335007 0.329845 0.916989
Si Si7 0.823536 0.673291 0.445968
Si Si8 0.491081 0.174782 0.775423
O O1 0.198424 0.742050 0.130115
O O2 0.117367 0.769551 0.288396
O O3 0.985254 0.782390 0.158132
O O4 0.126582 0.000000 0.184085
O O5 0.500000 0.777585 0.500000
O O6 0.709258 0.757484 0.427316
O O7 0.535402 0.784691 0.324468
O O8 0.592964 0.000000 0.422077
O O9 0.957331 0.500000 0.126701
O O10 0.800638 0.678451 0.084995
O O11 0.000000 0.679418 0.000000
O O12 0.317626 0.500000 0.124080
O O13 0.399615 0.254176 0.187777
O O14 0.365989 0.291667 0.016390
O O15 0.074290 0.500000 0.346826
O O16 0.135458 0.697563 0.455239
O O17 0.935296 0.710589 0.386168
O O18 0.368574 0.500000 0.900997
O O19 0.391630 0.229237 0.842633
O O20 0.803885 0.500000 0.435552
O O21 0.504352 0.000000 0.779794
#
# Coordination Sequence:
#
# PCOD9151549 Si02
#       8
#     4   4   4   4   4   4   4   4
#     4  12  25  37  58  93 128 162 202 248 305 367
#     4  10  24  44  62  85 126 167 200 247 309 369
#     4  10  20  40  63  86 120 163 205 245 296 356
#     4  11  23  43  66  89 121 163 213 259 305 365
#     4   9  20  40  63  91 124 157 196 252 306 359
#     4  10  22  41  66  91 120 163 209 254 308 367
#     4   9  20  40  66  92 118 152 204 256 302 355
#     4  11  25  42  62  92 126 161 205 257 313 367
#
# _framework density 19.393592999999999
#
# number of rings (size 3 to 8) (size 9 to 14) (size 15 to 20)
#    0.000    1.750    1.250    3.000    3.500    5.500 
#    0.000    1.250    0.000    0.000    0.000    0.000 
#    0.000    0.000    0.000    0.000    0.000    0.000 
#
# Total GULP energy -178792.958878 kJ/mol
# GULP energy per Si atom -5587.279965 kJ/mol
# Density = 1.934945 g / cm^3
# Si number density = 19.393593 Si / 1000 Ang^3
#
#
#
# Elastic Constant Matrix: (Units=GPa)
#
#
# Indices 1 2 3 4 5 6 
#
# 1 81.9372 38.1358 39.6024 0.0000 15.6638 0.0000
# 2 38.1358 64.3679 60.7020 0.0000 1.4587 0.0000
# 3 39.6024 60.7020 117.2656 0.0000 1.9398 0.0000
# 4 0.0000 0.0000 0.0000 33.8312 0.0000 -45.3565
# 5 15.6638 1.4587 1.9398 0.0000 21.4351 0.0000
# 6 0.0000 0.0000 0.0000 -45.3565 0.0000 203.0036
#
#
#
# Elastic Compliance Matrix: (Units=1/GPa)
#
#
# Indices 1 2 3 4 5 6 
#
# 1 0.020436 -0.010745 -0.001106 0.000000 -0.014102 0.000000
# 2 -0.010745 0.036011 -0.015124 0.000000 0.006770 0.000000
# 3 -0.001106 -0.015124 0.016725 0.000000 0.000324 0.000000
# 4 0.000000 0.000000 0.000000 0.042199 0.000000 0.009428
# 5 -0.014102 0.006770 0.000324 0.000000 0.056468 0.000000
# 6 0.000000 0.000000 0.000000 0.009428 0.000000 0.007033
#
#
# Mechanical properties :
#
#
# Convention : Reuss Voigt Hill
#
# Bulk Modulus (GPa) = 52.02552 60.05012 56.03782
# Shear Modulus (GPa) = 20.90044 59.99601 40.44822
#
# Velocity S-wave (km/s) = 3.28639 5.56805 4.57184
# Velocity P-wave (km/s) = 6.42533 8.50698 7.53835
#
# Compressibility (1/GPa) = 0.01922133
#
# Stress axis : x y z
#
# Youngs Moduli (GPa) = 48.93323 27.76913 59.79088
#
# Poissons Ratio (x) = 0.29837 0.06615
# Poissons Ratio (y) = 0.52578 0.90430
# Poissons Ratio (z) = 0.05413 0.41999
#
# Static dielectric constant tensor:
#      x y z
#    x 1.691390 0.000000 -0.002420 
#    y 0.000000 1.646410 0.000000 
#    z -0.002420 0.000000 1.678560 
# 
# From -- ./inp_files/63761.got.cif
#   From: 2010.05.17/outbox.cif.g08.bks.cpg/sg10_32_cif.got.tgz:63761.got - 2010.06.03 11:33:40.
