data_PCOD9151992
_publ_section_title
;
Structure prediction by ZEFSAII (Michael W. Deem and Ramdas Pophale) SiO2 
 PCOD9151992
Probable space group: P 2/M
;
_chemical_formula_sum "Si O2"
_cell_formula_units_Z 24
_cell_length_a 5.213512
_cell_length_b 8.675983
_cell_length_c 26.927965
_cell_angle_alpha 90.000000
_cell_angle_beta 89.840210
_cell_angle_gamma 90.000000
_cell_volume 1218.010172
_symmetry_space_group_name_H-M "P 2/M"
_symmetry_group_IT_number 10
_symmetry_cell_setting 'monoclinic'
loop_
_space_group_symop_operation_xyz
x,y,z
-x,y,-z
-x,-y,-z
x,-y,z
loop_
_atom_site_type_symbol
_atom_site_label
_atom_site_fract_x
_atom_site_fract_y
_atom_site_fract_z
Si Si1 0.250972 0.686110 0.469670
Si Si2 0.244935 0.682804 0.032717
Si Si3 0.836094 0.316947 0.190359
Si Si4 0.661518 0.182161 0.860064
Si Si5 0.704680 0.186230 0.298059
Si Si6 0.205534 0.185282 0.359479
O O1 0.500000 0.738019 0.500000
O O2 0.252758 0.500000 0.468141
O O3 0.245576 0.745932 0.413731
O O4 0.000000 0.736354 0.500000
O O5 0.219423 0.500000 0.044609
O O6 0.267551 0.774678 0.083663
O O7 0.500000 0.703155 0.000000
O O8 0.000000 0.728046 0.000000
O O9 0.864226 0.500000 0.187775
O O10 0.604009 0.263567 0.154913
O O11 0.758567 0.263614 0.245463
O O12 0.103477 0.239955 0.174039
O O13 0.629991 0.000000 0.854008
O O14 0.433920 0.231900 0.322190
O O15 0.932569 0.227438 0.335924
O O16 0.706281 0.000000 0.291439
O O17 0.214629 0.000000 0.363514
#
# Coordination Sequence:
#
# PCOD9151992 Si02
#       6
#     4   4   4   4   4   4
#     4  10  21  36  54  78 109 145 185 232 285 341
#     4  10  21  38  61  89 123 161 201 250 305 359
#     4  12  25  42  65  93 124 162 209 254 303 366
#     4  12  25  42  65  93 127 165 205 254 309 363
#     4  10  21  38  58  84 117 151 191 240 297 353
#     4  10  21  36  57  83 112 148 189 236 289 350
#
# _framework density 19.704270000000001
#
# number of rings (size 3 to 8) (size 9 to 14) (size 15 to 20)
#    0.000    1.333    0.000    6.000    0.000    5.333 
#    0.000    0.000    0.000    0.000    0.000    0.000 
#    0.000    0.000    0.000    0.000    0.000    0.000 
#
# Total GULP energy -134283.709356 kJ/mol
# GULP energy per Si atom -5595.154557 kJ/mol
# Density = 1.965942 g / cm^3
# Si number density = 19.704270 Si / 1000 Ang^3
#
#
#
# Elastic Constant Matrix: (Units=GPa)
#
#
# Indices 1 2 3 4 5 6 
#
# 1 60.9558 -1.2389 -27.9976 0.0000 5.9279 0.0000
# 2 -1.2389 39.2697 12.0871 0.0000 -1.4773 0.0000
# 3 -27.9976 12.0871 53.1042 0.0000 4.0499 0.0000
# 4 0.0000 0.0000 0.0000 262.4086 0.0000 -116.9426
# 5 5.9279 -1.4773 4.0499 0.0000 37.3145 0.0000
# 6 0.0000 0.0000 0.0000 -116.9426 0.0000 80.3797
#
#
#
# Elastic Compliance Matrix: (Units=1/GPa)
#
#
# Indices 1 2 3 4 5 6 
#
# 1 0.022958 -0.003571 0.013316 0.000000 -0.005234 0.000000
# 2 -0.003571 0.028056 -0.008467 0.000000 0.002597 0.000000
# 3 0.013316 -0.008467 0.028199 0.000000 -0.005511 0.000000
# 4 0.000000 0.000000 0.000000 0.010838 0.000000 0.015767
# 5 -0.005234 0.002597 -0.005511 0.000000 0.028332 0.000000
# 6 0.000000 0.000000 0.000000 0.015767 0.000000 0.035381
#
#
# Mechanical properties :
#
#
# Convention : Reuss Voigt Hill
#
# Bulk Modulus (GPa) = 12.22965 13.22565 12.72765
# Shear Modulus (GPa) = 28.01707 87.38582 57.70145
#
# Velocity S-wave (km/s) = 3.77487 6.66670 5.41731
# Velocity P-wave (km/s) = 5.02191 8.12321 6.75301
#
# Compressibility (1/GPa) = 0.08176847
#
# Stress axis : x y z
#
# Youngs Moduli (GPa) = 43.55808 35.64302 35.46257
#
# Poissons Ratio (x) = 0.12729 -0.47221
# Poissons Ratio (y) = 0.15555 0.30025
# Poissons Ratio (z) = -0.58001 0.30178
#
# Static dielectric constant tensor:
#      x y z
#    x 1.667110 0.000000 0.007020 
#    y 0.000000 1.669030 0.000000 
#    z 0.007020 0.000000 1.641020 
# 
# From -- ./inp_files/87345.got.cif
#   From: 2010.05.17/outbox.cif.g08.bks.cpg/sg10_44_cif.got.tgz:87345.got - 2010.06.03 11:33:40.
