data_PCOD9151310
_publ_section_title
;
Structure prediction by ZEFSAII (Michael W. Deem and Ramdas Pophale) SiO2 
 PCOD9151310
Probable space group: P 2/M
;
_chemical_formula_sum "Si O2"
_cell_formula_units_Z 24
_cell_length_a 6.970145
_cell_length_b 13.545483
_cell_length_c 13.922596
_cell_angle_alpha 90.000000
_cell_angle_beta 39.084105
_cell_angle_gamma 90.000000
_cell_volume 828.732568
_symmetry_space_group_name_H-M "P 2/M"
_symmetry_group_IT_number 10
_symmetry_cell_setting 'monoclinic'
loop_
_space_group_symop_operation_xyz
x,y,z
-x,y,-z
-x,-y,-z
x,-y,z
loop_
_atom_site_type_symbol
_atom_site_label
_atom_site_fract_x
_atom_site_fract_y
_atom_site_fract_z
Si Si1 0.766913 0.607318 0.300231
Si Si2 0.776678 0.108329 0.694372
Si Si3 0.817242 0.867652 0.976072
Si Si4 0.735015 0.364354 0.030566
Si Si5 0.398513 0.833811 0.649440
Si Si6 0.077767 0.661560 0.361082
O O1 0.639145 0.500000 0.322605
O O2 0.638215 0.714554 0.316498
O O3 0.818031 0.618904 0.393680
O O4 0.122197 0.603075 0.125169
O O5 0.607112 0.124266 0.655489
O O6 0.921556 0.217937 0.651864
O O7 0.931914 0.000000 0.632134
O O8 0.523362 0.097444 0.876495
O O9 0.061847 0.879669 0.796954
O O10 0.757850 0.752233 0.010577
O O11 0.000000 0.898758 0.000000
O O12 0.405173 0.381179 0.202663
O O13 0.000000 0.395732 0.000000
O O14 0.500000 0.851256 0.500000
O O15 0.000000 0.639284 0.500000
#
# Coordination Sequence:
#
# PCOD9151310 Si02
#       6
#     4   4   4   4   4   4
#     4  11  24  41  64  94 130 175 222 269 328 397
#     4  10  21  40  65  89 122 174 223 265 324 397
#     4   7  14  30  55  82 111 151 198 245 299 365
#     4   9  19  40  66  91 124 168 220 270 319 385
#     4  10  20  38  62  93 130 165 213 278 332 385
#     4  11  23  41  65  95 136 175 216 275 334 389
#
# _framework density 28.959885
#
# number of rings (size 3 to 8) (size 9 to 14) (size 15 to 20)
#    0.000    2.333    0.000    4.500    0.000    6.000 
#    0.000    3.333    0.000   13.000    0.000    0.000 
#    0.000    0.000    0.000    0.000    0.000    0.000 
#
# Total GULP energy -134283.221546 kJ/mol
# GULP energy per Si atom -5595.134231 kJ/mol
# Density = 2.889397 g / cm^3
# Si number density = 28.959885 Si / 1000 Ang^3
#
#
#
# Elastic Constant Matrix: (Units=GPa)
#
#
# Indices 1 2 3 4 5 6 
#
# 1 113.9141 20.2483 26.2928 0.0000 1.5975 0.0000
# 2 20.2483 233.2400 21.1306 0.0000 -1.2497 0.0000
# 3 26.2928 21.1306 214.7868 0.0000 11.9248 0.0000
# 4 0.0000 0.0000 0.0000 7.9554 0.0000 5.8946
# 5 1.5975 -1.2497 11.9248 0.0000 47.0290 0.0000
# 6 0.0000 0.0000 0.0000 5.8946 0.0000 7.4566
#
#
#
# Elastic Compliance Matrix: (Units=1/GPa)
#
#
# Indices 1 2 3 4 5 6 
#
# 1 0.009145 -0.000699 -0.001047 0.000000 -0.000064 0.000000
# 2 -0.000699 0.004382 -0.000358 0.000000 0.000231 0.000000
# 3 -0.001047 -0.000358 0.004887 0.000000 -0.001213 0.000000
# 4 0.000000 0.000000 0.000000 0.303444 0.000000 -0.239881
# 5 -0.000064 0.000231 -0.001213 0.000000 0.021579 0.000000
# 6 0.000000 0.000000 0.000000 -0.239881 0.000000 0.323743
#
#
# Mechanical properties :
#
#
# Convention : Reuss Voigt Hill
#
# Bulk Modulus (GPa) = 70.40227 77.47603 73.93915
# Shear Modulus (GPa) = 7.39508 45.43946 26.41727
#
# Velocity S-wave (km/s) = 1.59972 3.96542 3.02355
# Velocity P-wave (km/s) = 5.27022 6.91209 6.14623
#
# Compressibility (1/GPa) = 0.01420409
#
# Stress axis : x y z
#
# Youngs Moduli (GPa) = 109.34381 228.21431 204.64284
#
# Poissons Ratio (x) = 0.15962 0.21430
# Poissons Ratio (y) = 0.07648 0.07332
# Poissons Ratio (z) = 0.11450 0.08177
#
# Static dielectric constant tensor:
#      x y z
#    x 2.278570 0.000000 -0.021970 
#    y 0.000000 2.192280 0.000000 
#    z -0.021970 0.000000 2.406150 
# 
# From -- ./inp_files/61675.got.cif
#   From: 2010.05.17/outbox.cif.g08.bks.cpg/sg10_31_cif.got.tgz:61675.got - 2010.06.03 11:33:40.
