data_PCOD9151105
_publ_section_title
;
Structure prediction by ZEFSAII (Michael W. Deem and Ramdas Pophale) SiO2 
 PCOD9151105
Probable space group: P 2/M
;
_chemical_formula_sum "Si O2"
_cell_formula_units_Z 20
_cell_length_a 7.843392
_cell_length_b 13.068429
_cell_length_c 11.053708
_cell_angle_alpha 90.000000
_cell_angle_beta 48.984608
_cell_angle_gamma 90.000000
_cell_volume 854.896832
_symmetry_space_group_name_H-M "P 2/M"
_symmetry_group_IT_number 10
_symmetry_cell_setting 'monoclinic'
loop_
_space_group_symop_operation_xyz
x,y,z
-x,y,-z
-x,-y,-z
x,-y,z
loop_
_atom_site_type_symbol
_atom_site_label
_atom_site_fract_x
_atom_site_fract_y
_atom_site_fract_z
Si Si1 0.123457 0.148267 0.820568
Si Si2 0.149789 0.388991 0.309474
Si Si3 0.349843 0.888992 0.422680
Si Si4 0.718200 0.833649 0.820232
Si Si5 0.741920 0.681211 0.373341
O O1 0.376881 0.104492 0.694529
O O2 0.195132 0.267951 0.783100
O O3 0.933534 0.137799 0.803692
O O4 0.000000 0.118138 0.000000
O O5 0.264318 0.500000 0.264689
O O6 0.287304 0.288515 0.208052
O O7 0.000000 0.371355 0.500000
O O8 0.947298 0.389502 0.308594
O O9 0.280856 0.880351 0.314289
O O10 0.280951 0.782919 0.524489
O O11 0.262087 0.000000 0.507509
O O12 0.500000 0.862034 0.000000
O O13 0.500000 0.631385 0.500000
#
# Coordination Sequence:
#
# PCOD9151105 Si02
#       5
#     4   4   4   4   4
#     4  10  21  38  58  86 117 160 193 243 289 343
#     4  10  20  37  63  90 115 147 196 246 295 356
#     4  11  23  40  60  87 119 158 206 240 288 349
#     4  11  22  40  64  84 123 159 193 244 301 345
#     4   9  20  38  62  85 121 156 190 247 297 344
#
# _framework density 23.394635999999998
#
# number of rings (size 3 to 8) (size 9 to 14) (size 15 to 20)
#    0.000    1.800    4.000    0.000    0.000    6.000 
#    0.000    7.000    0.000    9.600    0.000    0.000 
#    0.000    0.000    0.000    0.000    0.000    0.000 
#
# Total GULP energy -111376.130518 kJ/mol
# GULP energy per Si atom -5568.806526 kJ/mol
# Density = 2.334139 g / cm^3
# Si number density = 23.394636 Si / 1000 Ang^3
#
#
#
# Elastic Constant Matrix: (Units=GPa)
#
#
# Indices 1 2 3 4 5 6 
#
# 1 97.8083 8.6545 17.5913 0.0000 5.0233 0.0000
# 2 8.6545 112.2894 16.3960 0.0000 10.8533 0.0000
# 3 17.5913 16.3960 88.6026 0.0000 -2.7446 0.0000
# 4 0.0000 0.0000 0.0000 5.1058 0.0000 -0.7271
# 5 5.0233 10.8533 -2.7446 0.0000 41.2918 0.0000
# 6 0.0000 0.0000 0.0000 -0.7271 0.0000 -6.1713
#
#
#
# Elastic Compliance Matrix: (Units=1/GPa)
#
#
# Indices 1 2 3 4 5 6 
#
# 1 0.010704 -0.000390 -0.002095 0.000000 -0.001339 0.000000
# 2 -0.000390 0.009437 -0.001748 0.000000 -0.002549 0.000000
# 3 -0.002095 -0.001748 0.012073 0.000000 0.001517 0.000000
# 4 0.000000 0.000000 0.000000 0.192623 0.000000 -0.022695
# 5 -0.001339 -0.002549 0.001517 0.000000 0.025152 0.000000
# 6 0.000000 0.000000 0.000000 -0.022695 0.000000 -0.159367
#
#
# Mechanical properties :
#
#
# Convention : Reuss Voigt Hill
#
# Bulk Modulus (GPa) = 42.10627 42.66487 42.38557
# Shear Modulus (GPa) = 46.72796 25.11583 35.92189
#
# Velocity S-wave (km/s) = 4.47405 3.28010 3.92277
# Velocity P-wave (km/s) = 6.68781 5.71157 6.21888
#
# Compressibility (1/GPa) = 0.02374943
#
# Stress axis : x y z
#
# Youngs Moduli (GPa) = 93.42251 105.96330 82.83183
#
# Poissons Ratio (x) = 0.04130 0.17350
# Poissons Ratio (y) = 0.03641 0.14479
# Poissons Ratio (z) = 0.19568 0.18522
#
# Static dielectric constant tensor:
#      x y z
#    x 2.008070 0.000000 0.064740 
#    y 0.000000 1.960400 0.000000 
#    z 0.064740 0.000000 1.920930 
# 
# From -- ./inp_files/18608.got.cif
#   From: 2010.05.17/outbox.cif.g08.bks.cpg/sg10_10_cif.got.tgz:18608.got - 2010.06.03 11:33:40.
