data_PCOD9151496
_publ_section_title
;
Structure prediction by ZEFSAII (Michael W. Deem and Ramdas Pophale) SiO2 
 PCOD9151496
Probable space group: P 2/M
;
_chemical_formula_sum "Si O2"
_cell_formula_units_Z 24
_cell_length_a 18.572349
_cell_length_b 7.247823
_cell_length_c 25.432655
_cell_angle_alpha 90.000000
_cell_angle_beta 20.199667
_cell_angle_gamma 90.000000
_cell_volume 1182.098232
_symmetry_space_group_name_H-M "P 2/M"
_symmetry_group_IT_number 10
_symmetry_cell_setting 'monoclinic'
loop_
_space_group_symop_operation_xyz
x,y,z
-x,y,-z
-x,-y,-z
x,-y,z
loop_
_atom_site_type_symbol
_atom_site_label
_atom_site_fract_x
_atom_site_fract_y
_atom_site_fract_z
Si Si1 0.392108 0.774906 0.628965
Si Si2 0.541867 0.500000 0.032808
Si Si3 0.684257 0.776226 0.524379
Si Si4 0.104832 0.779033 0.181214
Si Si5 0.057285 0.777472 0.092550
Si Si6 0.751237 0.500000 0.670652
Si Si7 0.471746 0.777028 0.253462
O O1 0.500000 0.720455 0.500000
O O2 0.524275 0.714831 0.588732
O O3 0.151271 0.714744 0.793760
O O4 0.394250 0.000000 0.627791
O O5 0.684002 0.675600 0.949958
O O6 0.500000 0.500000 0.000000
O O7 0.339856 0.500000 0.208104
O O8 0.618076 0.723336 0.628118
O O9 0.917162 0.722525 0.348172
O O10 0.680770 0.000000 0.525603
O O11 0.040685 0.730849 0.165542
O O12 0.130485 0.000000 0.166000
O O13 0.055904 0.000000 0.090242
O O14 0.284871 0.720802 0.916846
O O15 0.656341 0.674735 0.704158
O O16 0.000000 0.500000 0.500000
O O17 0.460034 0.000000 0.255686
#
# Coordination Sequence:
#
# PCOD9151496 Si02
#       7
#     4   2   4   4   4   2   4
#     4   9  14  24  49  88 125 158 205 249 282 332
#     4  12  28  44  66  95 115 145 199 251 304 370
#     4   9  18  32  57  92 125 163 204 243 289 343
#     4  10  20  39  64  89 122 160 197 241 296 353
#     4   9  16  30  56  85 119 163 200 238 287 340
#     4  12  28  46  66  89 118 154 190 248 317 363
#     4  10  22  41  63  89 122 161 202 239 294 365
#
# _framework density 20.302879999999998
#
# number of rings (size 3 to 8) (size 9 to 14) (size 15 to 20)
#    0.000    2.167    3.333    0.000    2.333    1.333 
#    0.000    3.333    0.000    6.000    0.000    0.000 
#    0.000    0.000    0.000    0.000    0.000    0.000 
#
# Total GULP energy -134101.492474 kJ/mol
# GULP energy per Si atom -5587.562186 kJ/mol
# Density = 2.025667 g / cm^3
# Si number density = 20.302880 Si / 1000 Ang^3
#
#
#
# Elastic Constant Matrix: (Units=GPa)
#
#
# Indices 1 2 3 4 5 6 
#
# 1 94.2248 18.6085 57.9903 0.0000 8.5906 0.0000
# 2 18.6085 97.6413 21.5735 0.0000 -1.7917 0.0000
# 3 57.9903 21.5735 188.3900 0.0000 7.6850 0.0000
# 4 0.0000 0.0000 0.0000 4.3884 0.0000 -5.5999
# 5 8.5906 -1.7917 7.6850 0.0000 42.5035 0.0000
# 6 0.0000 0.0000 0.0000 -5.5999 0.0000 8.9896
#
#
#
# Elastic Compliance Matrix: (Units=1/GPa)
#
#
# Indices 1 2 3 4 5 6 
#
# 1 0.013541 -0.001762 -0.003881 0.000000 -0.002110 0.000000
# 2 -0.001762 0.010755 -0.000728 0.000000 0.000941 0.000000
# 3 -0.003881 -0.000728 0.006604 0.000000 -0.000440 0.000000
# 4 0.000000 0.000000 0.000000 1.110989 0.000000 0.692065
# 5 -0.002110 0.000941 -0.000440 0.000000 0.024073 0.000000
# 6 0.000000 0.000000 0.000000 0.692065 0.000000 0.542346
#
#
# Mechanical properties :
#
#
# Convention : Reuss Voigt Hill
#
# Bulk Modulus (GPa) = 55.06488 64.06675 59.56581
# Shear Modulus (GPa) = 2.89502 29.98189 16.43846
#
# Velocity S-wave (km/s) = 1.19541 3.84699 2.84854
# Velocity P-wave (km/s) = 5.39314 7.16634 6.34202
#
# Compressibility (1/GPa) = 0.01816040
#
# Stress axis : x y z
#
# Youngs Moduli (GPa) = 73.84717 92.97634 151.42506
#
# Poissons Ratio (x) = 0.16383 0.58761
# Poissons Ratio (y) = 0.13012 0.11018
# Poissons Ratio (z) = 0.28656 0.06765
#
# Static dielectric constant tensor:
#      x y z
#    x 1.672860 0.000000 0.006370 
#    y 0.000000 1.780090 0.000000 
#    z 0.006370 0.000000 1.699600 
# 
# From -- ./inp_files/90035.got.cif
#   From: 2010.05.17/outbox.cif.g08.bks.cpg/sg10_46_cif.got.tgz:90035.got - 2010.06.03 11:33:40.
