data_PCOD9151658
_publ_section_title
;
Structure prediction by ZEFSAII (Michael W. Deem and Ramdas Pophale) SiO2 
 PCOD9151658
Probable space group: P 2/M
;
_chemical_formula_sum "Si O2"
_cell_formula_units_Z 20
_cell_length_a 11.190907
_cell_length_b 8.403669
_cell_length_c 12.494972
_cell_angle_alpha 90.000000
_cell_angle_beta 52.539362
_cell_angle_gamma 90.000000
_cell_volume 932.749324
_symmetry_space_group_name_H-M "P 2/M"
_symmetry_group_IT_number 10
_symmetry_cell_setting 'monoclinic'
loop_
_space_group_symop_operation_xyz
x,y,z
-x,y,-z
-x,-y,-z
x,-y,z
loop_
_atom_site_type_symbol
_atom_site_label
_atom_site_fract_x
_atom_site_fract_y
_atom_site_fract_z
Si Si1 0.240357 0.311251 0.385280
Si Si2 0.657007 0.826115 0.477696
Si Si3 0.818863 0.500000 0.069109
Si Si4 0.958192 0.309288 0.698108
Si Si5 0.113622 0.825953 0.040532
Si Si6 0.324945 0.500000 0.626262
O O1 0.273646 0.500000 0.372613
O O2 0.362707 0.212522 0.385407
O O3 0.191639 0.273338 0.291307
O O4 0.092518 0.280865 0.540229
O O5 0.500000 0.834278 0.500000
O O6 0.733363 0.666880 0.388253
O O7 0.729281 0.000000 0.425369
O O8 0.718027 0.500000 0.228466
O O9 0.789489 0.666077 0.026489
O O10 0.000000 0.500000 0.000000
O O11 0.957797 0.500000 0.723019
O O12 0.962509 0.206279 0.802967
O O13 0.187103 0.000000 0.000804
O O14 0.000000 0.827591 0.000000
O O15 0.500000 0.500000 0.500000
#
# Coordination Sequence:
#
# PCOD9151658 Si02
#       6
#     4   4   2   4   4   2
#     4   9  18  31  54  80 114 158 198 246 299 356
#     4  10  21  35  55  85 114 150 199 249 294 341
#     4  10  22  36  55  81 119 155 189 242 302 342
#     4   9  18  33  51  80 118 158 198 238 300 363
#     4  10  21  33  50  79 114 156 196 230 285 361
#     4  10  22  40  59  81 117 159 197 240 296 352
#
# _framework density 21.441987999999998
#
# number of rings (size 3 to 8) (size 9 to 14) (size 15 to 20)
#    0.000    2.400    2.000    1.200    5.600    2.400 
#    0.000    2.000    0.000    0.000    0.000   11.200 
#    0.000   14.400    0.000    0.000    0.000    0.000 
#
# Total GULP energy -111352.998909 kJ/mol
# GULP energy per Si atom -5567.649945 kJ/mol
# Density = 2.139319 g / cm^3
# Si number density = 21.441988 Si / 1000 Ang^3
#
#
#
# Elastic Constant Matrix: (Units=GPa)
#
#
# Indices 1 2 3 4 5 6 
#
# 1 79.3263 11.9605 25.5236 0.0000 30.5682 0.0000
# 2 11.9605 187.9640 42.0827 0.0000 10.9716 0.0000
# 3 25.5236 42.0827 91.3487 0.0000 19.7333 0.0000
# 4 0.0000 0.0000 0.0000 1.0606 0.0000 -12.6049
# 5 30.5682 10.9716 19.7333 0.0000 32.0550 0.0000
# 6 0.0000 0.0000 0.0000 -12.6049 0.0000 -10.7712
#
#
#
# Elastic Compliance Matrix: (Units=1/GPa)
#
#
# Indices 1 2 3 4 5 6 
#
# 1 0.020163 0.000179 -0.001787 0.000000 -0.018189 0.000000
# 2 0.000179 0.005938 -0.002664 0.000000 -0.000563 0.000000
# 3 -0.001787 -0.002664 0.013966 0.000000 -0.005982 0.000000
# 4 0.000000 0.000000 0.000000 0.063246 0.000000 -0.074013
# 5 -0.018189 -0.000563 -0.005982 0.000000 0.052417 0.000000
# 6 0.000000 0.000000 0.000000 -0.074013 0.000000 -0.006228
#
#
# Mechanical properties :
#
#
# Convention : Reuss Voigt Hill
#
# Bulk Modulus (GPa) = 31.72280 57.53029 44.62655
# Shear Modulus (GPa) = 29.66403 23.07367 26.36885
#
# Velocity S-wave (km/s) = 3.72352 3.28395 3.51062
# Velocity P-wave (km/s) = 5.77174 6.42402 6.10659
#
# Compressibility (1/GPa) = 0.03152307
#
# Stress axis : x y z
#
# Youngs Moduli (GPa) = 49.59493 168.40500 71.60399
#
# Poissons Ratio (x) = -0.03010 0.12795
# Poissons Ratio (y) = -0.00886 0.19075
# Poissons Ratio (z) = 0.08862 0.44861
#
# Static dielectric constant tensor:
#      x y z
#    x 2.052160 0.000000 -0.042160 
#    y 0.000000 1.829810 0.000000 
#    z -0.042160 0.000000 1.842060 
# 
# From -- ./inp_files/44227.got.cif
#   From: 2010.05.17/outbox.cif.g08.bks.cpg/sg10_23_cif.got.tgz:44227.got - 2010.06.03 11:33:40.
