data_PCOD9151985
_publ_section_title
;
Structure prediction by ZEFSAII (Michael W. Deem and Ramdas Pophale) SiO2 
 PCOD9151985
Probable space group: P 2/M
;
_chemical_formula_sum "Si O2"
_cell_formula_units_Z 20
_cell_length_a 10.930101
_cell_length_b 7.392150
_cell_length_c 10.556263
_cell_angle_alpha 90.000000
_cell_angle_beta 99.750967
_cell_angle_gamma 90.000000
_cell_volume 840.591938
_symmetry_space_group_name_H-M "P 2/M"
_symmetry_group_IT_number 10
_symmetry_cell_setting 'monoclinic'
loop_
_space_group_symop_operation_xyz
x,y,z
-x,y,-z
-x,-y,-z
x,-y,z
loop_
_atom_site_type_symbol
_atom_site_label
_atom_site_fract_x
_atom_site_fract_y
_atom_site_fract_z
Si Si1 0.135592 0.293549 0.490271
Si Si2 0.167005 0.780155 0.933040
Si Si3 0.107998 0.781046 0.198393
Si Si4 0.579250 0.781443 0.133894
Si Si5 0.595289 0.710815 0.414627
O O1 0.129424 0.500000 0.538011
O O2 0.148736 0.291703 0.340429
O O3 0.264594 0.210458 0.563048
O O4 0.000000 0.211546 0.500000
O O5 0.280699 0.719517 0.868570
O O6 0.034429 0.726297 0.854159
O O7 0.166380 0.000000 0.933901
O O8 0.179115 0.726111 0.082585
O O9 0.113090 0.000000 0.207238
O O10 0.538589 0.721685 0.264986
O O11 0.576336 0.000000 0.134097
O O12 0.500000 0.720821 0.000000
O O13 0.500000 0.789723 0.500000
O O14 0.612748 0.500000 0.452378
#
# Coordination Sequence:
#
# PCOD9151985 Si02
#       5
#     4   4   4   4   4
#     4  10  21  36  54  77 108 141 179 227 272 313
#     4   8  16  32  51  78 112 139 170 220 275 322
#     4   9  17  31  55  79 104 140 178 218 268 326
#     4  10  21  36  57  83 111 141 181 230 274 319
#     4  10  23  41  57  78 113 151 184 222 272 330
#
# _framework density 23.792759
#
# number of rings (size 3 to 8) (size 9 to 14) (size 15 to 20)
#    0.000    2.600    0.000    2.400    2.800    2.000 
#    0.000    3.000    0.000    0.000    0.000    0.000 
#    0.000    0.000    0.000    0.000    0.000    0.000 
#
# Total GULP energy -111739.690265 kJ/mol
# GULP energy per Si atom -5586.984513 kJ/mol
# Density = 2.373861 g / cm^3
# Si number density = 23.792759 Si / 1000 Ang^3
#
#
#
# Elastic Constant Matrix: (Units=GPa)
#
#
# Indices 1 2 3 4 5 6 
#
# 1 101.2208 8.0844 47.1931 0.0000 -13.3638 0.0000
# 2 8.0844 84.1871 -12.1230 0.0000 -1.2709 0.0000
# 3 47.1931 -12.1230 157.8568 0.0000 -4.0475 0.0000
# 4 0.0000 0.0000 0.0000 25.5617 0.0000 0.2429
# 5 -13.3638 -1.2709 -4.0475 0.0000 35.4440 0.0000
# 6 0.0000 0.0000 0.0000 0.2429 0.0000 -19.2012
#
#
#
# Elastic Compliance Matrix: (Units=1/GPa)
#
#
# Indices 1 2 3 4 5 6 
#
# 1 0.012280 -0.001648 -0.003691 0.000000 0.004149 0.000000
# 2 -0.001648 0.012243 0.001432 0.000000 -0.000019 0.000000
# 3 -0.003691 0.001432 0.007536 0.000000 -0.000480 0.000000
# 4 0.000000 0.000000 0.000000 0.039116 0.000000 0.000495
# 5 0.004149 -0.000019 -0.000480 0.000000 0.029723 0.000000
# 6 0.000000 0.000000 0.000000 0.000495 0.000000 -0.052074
#
#
# Mechanical properties :
#
#
# Convention : Reuss Voigt Hill
#
# Bulk Modulus (GPa) = 41.24664 47.73043 44.48854
# Shear Modulus (GPa) = 77.25652 28.36824 52.81238
#
# Velocity S-wave (km/s) = 5.70448 3.45672 4.71646
# Velocity P-wave (km/s) = 7.79497 6.00303 6.95694
#
# Compressibility (1/GPa) = 0.02424440
#
# Stress axis : x y z
#
# Youngs Moduli (GPa) = 81.43364 81.68228 132.69379
#
# Poissons Ratio (x) = 0.13463 0.48983
# Poissons Ratio (y) = 0.13422 -0.19008
# Poissons Ratio (z) = 0.30061 -0.11701
#
# Static dielectric constant tensor:
#      x y z
#    x 1.922880 0.000000 0.001090 
#    y 0.000000 1.909560 0.000000 
#    z 0.001090 0.000000 1.868860 
# 
# From -- ./inp_files/22257.got.cif
#   From: 2010.05.17/outbox.cif.g08.bks.cpg/sg10_12_cif.got.tgz:22257.got - 2010.06.03 11:33:40.
