data_PCOD9151977
_publ_section_title
;
Structure prediction by ZEFSAII (Michael W. Deem and Ramdas Pophale) SiO2 
 PCOD9151977
Probable space group: P 2/M
;
_chemical_formula_sum "Si O2"
_cell_formula_units_Z 28
_cell_length_a 24.473256
_cell_length_b 9.659762
_cell_length_c 7.420481
_cell_angle_alpha 90.000000
_cell_angle_beta 50.493497
_cell_angle_gamma 90.000000
_cell_volume 1353.491880
_symmetry_space_group_name_H-M "P 2/M"
_symmetry_group_IT_number 10
_symmetry_cell_setting 'monoclinic'
loop_
_space_group_symop_operation_xyz
x,y,z
-x,y,-z
-x,-y,-z
x,-y,z
loop_
_atom_site_type_symbol
_atom_site_label
_atom_site_fract_x
_atom_site_fract_y
_atom_site_fract_z
Si Si1 0.787674 0.343824 0.177051
Si Si2 0.344190 0.167242 0.457682
Si Si3 0.160416 0.340775 0.519173
Si Si4 0.972718 0.147759 0.258524
Si Si5 0.066217 0.353332 0.229211
Si Si6 0.421670 0.337864 0.585325
Si Si7 0.678753 0.335267 0.859721
O O1 0.756182 0.500000 0.234365
O O2 0.728369 0.227158 0.300150
O O3 0.826191 0.330652 0.291884
O O4 0.851133 0.339655 0.899032
O O5 0.404268 0.234705 0.458392
O O6 0.345197 0.239540 0.257655
O O7 0.345991 0.000000 0.445431
O O8 0.143258 0.500000 0.512547
O O9 0.094924 0.247450 0.597845
O O10 0.238189 0.306162 0.279750
O O11 0.042920 0.210230 0.196291
O O12 0.952796 0.000000 0.377909
O O13 0.000000 0.135476 0.000000
O O14 0.063401 0.500000 0.127219
O O15 0.000000 0.368602 0.500000
O O16 0.500000 0.317820 0.500000
O O17 0.415448 0.500000 0.541713
O O18 0.367222 0.314951 0.864973
O O19 0.674243 0.500000 0.819504
#
# Coordination Sequence:
#
# PCOD9151977 Si02
#       7
#     4   4   4   4   4   4   4
#     4   9  18  35  57  79 108 148 195 242 285 339
#     4  11  23  38  61  91 125 162 195 240 302 361
#     4   9  17  32  56  80 105 145 193 241 284 330
#     4  11  22  33  49  75 108 145 183 229 285 340
#     4  10  21  36  54  76 103 141 190 240 287 336
#     4  10  22  42  68  94 122 158 200 246 292 349
#     4   9  20  40  64  91 120 156 206 252 293 349
#
# _framework density 20.68723
#
# number of rings (size 3 to 8) (size 9 to 14) (size 15 to 20)
#    0.000    2.143    1.429    2.571    0.000    6.286 
#    0.000    8.571    0.000    0.000    0.000    0.000 
#    0.000    0.000    0.000    0.000    0.000    0.000 
#
# Total GULP energy -156022.025017 kJ/mol
# GULP energy per Si atom -5572.215179 kJ/mol
# Density = 2.064014 g / cm^3
# Si number density = 20.687230 Si / 1000 Ang^3
#
#
#
# Elastic Constant Matrix: (Units=GPa)
#
#
# Indices 1 2 3 4 5 6 
#
# 1 82.2308 58.4923 3.6650 0.0000 -10.7421 0.0000
# 2 58.4923 133.7360 8.7700 0.0000 -2.0899 0.0000
# 3 3.6650 8.7700 59.2234 0.0000 -5.7283 0.0000
# 4 0.0000 0.0000 0.0000 6.5966 0.0000 -18.3082
# 5 -10.7421 -2.0899 -5.7283 0.0000 22.0729 0.0000
# 6 0.0000 0.0000 0.0000 -18.3082 0.0000 19.2644
#
#
#
# Elastic Compliance Matrix: (Units=1/GPa)
#
#
# Indices 1 2 3 4 5 6 
#
# 1 0.019179 -0.008310 0.000893 0.000000 0.008778 0.000000
# 2 -0.008310 0.011155 -0.001463 0.000000 -0.003368 0.000000
# 3 0.000893 -0.001463 0.017515 0.000000 0.004841 0.000000
# 4 0.000000 0.000000 0.000000 -0.092568 0.000000 -0.087973
# 5 0.008778 -0.003368 0.004841 0.000000 0.050514 0.000000
# 6 0.000000 0.000000 0.000000 -0.087973 0.000000 -0.031698
#
#
# Mechanical properties :
#
#
# Convention : Reuss Voigt Hill
#
# Bulk Modulus (GPa) = 33.23549 46.33832 39.78690
# Shear Modulus (GPa) = 2649.54360 23.20429 1336.37394
#
# Velocity S-wave (km/s) = 35.82657 3.35277 25.44390
# Velocity P-wave (km/s) = 41.56310 6.11851 29.70629
#
# Compressibility (1/GPa) = 0.03008831
#
# Stress axis : x y z
#
# Youngs Moduli (GPa) = 52.14144 89.64494 57.09404
#
# Poissons Ratio (x) = 0.74491 -0.05097
# Poissons Ratio (y) = 0.43327 0.08355
# Poissons Ratio (z) = -0.04655 0.13119
#
# Static dielectric constant tensor:
#      x y z
#    x 1.792960 0.000000 0.064210 
#    y 0.000000 1.969100 0.000000 
#    z 0.064210 0.000000 1.808990 
# 
# From -- ./inp_files/37126.got.cif
#   From: 2010.05.17/outbox.cif.g08.bks.cpg/sg10_19_cif.got.tgz:37126.got - 2010.06.03 11:33:40.
