data_PCOD9151182
_publ_section_title
;
Structure prediction by ZEFSAII (Michael W. Deem and Ramdas Pophale) SiO2 
 PCOD9151182
Probable space group: P 2/M
;
_chemical_formula_sum "Si O2"
_cell_formula_units_Z 30
_cell_length_a 31.702633
_cell_length_b 11.126290
_cell_length_c 32.568064
_cell_angle_alpha 90.000000
_cell_angle_beta 9.154657
_cell_angle_gamma 90.000000
_cell_volume 1827.711518
_symmetry_space_group_name_H-M "P 2/M"
_symmetry_group_IT_number 10
_symmetry_cell_setting 'monoclinic'
loop_
_space_group_symop_operation_xyz
x,y,z
-x,y,-z
-x,-y,-z
x,-y,z
loop_
_atom_site_type_symbol
_atom_site_label
_atom_site_fract_x
_atom_site_fract_y
_atom_site_fract_z
Si Si1 0.114369 0.853507 0.262614
Si Si2 0.293860 0.500000 0.735985
Si Si3 0.734776 0.141425 0.354116
Si Si4 0.790956 0.146554 0.735076
Si Si5 0.182018 0.758985 0.865842
Si Si6 0.461821 0.853595 0.211950
Si Si7 0.266434 0.853553 0.964526
Si Si8 0.689837 0.146042 0.491846
O O1 0.838670 0.815024 0.507080
O O2 0.143624 0.813931 0.281583
O O3 0.113146 0.000000 0.264484
O O4 0.357285 0.817225 0.000336
O O5 0.500000 0.500000 0.500000
O O6 0.302641 0.624389 0.752090
O O7 0.000000 0.500000 0.000000
O O8 0.445810 0.159720 0.611231
O O9 0.698315 0.182585 0.436251
O O10 0.802061 0.000000 0.289089
O O11 0.976826 0.208666 0.099171
O O12 0.000000 0.185853 0.500000
O O13 0.796862 0.000000 0.730115
O O14 0.500000 0.182360 0.000000
O O15 0.000000 0.770425 0.000000
O O16 0.592024 0.814060 0.129585
O O17 0.460162 0.000000 0.214588
O O18 0.437331 0.814571 0.760869
O O19 0.267063 0.000000 0.964361
O O20 0.961834 0.816720 0.252671
O O21 0.683299 0.000000 0.497832
#
# Coordination Sequence:
#
# PCOD9151182 Si02
#       8
#     4   2   4   4   4   4   4   4
#     4   9  15  21  27  37  52  66  88 128 171 210
#     4  10  20  38  58  74  92 118 156 192 220 250
#     4  11  22  34  49  72 100 125 148 177 218 264
#     4   9  15  21  27  33  43  63  88 114 155 215
#     4  11  22  36  54  73  94 122 153 186 219 254
#     4   9  15  21  30  43  56  72  98 135 174 207
#     4   9  15  24  37  50  66  92 123 149 178 221
#     4   9  17  28  40  55  78 106 131 154 183 231
#
# _framework density 16.413969000000002
#
# number of rings (size 3 to 8) (size 9 to 14) (size 15 to 20)
#    0.000    2.400    0.000    4.800    0.000   10.133 
#    0.000    0.000    0.000    0.000    0.000    0.000 
#    0.000    0.000    0.000    0.000    0.000    0.000 
#
# Total GULP energy -167138.439913 kJ/mol
# GULP energy per Si atom -5571.281330 kJ/mol
# Density = 1.637661 g / cm^3
# Si number density = 16.413969 Si / 1000 Ang^3
#
#
#
# Elastic Constant Matrix: (Units=GPa)
#
#
# Indices 1 2 3 4 5 6 
#
# 1 48.1507 6.7877 -10.4989 0.0000 4.2776 0.0000
# 2 6.7877 16.8811 2.1844 0.0000 5.5272 0.0000
# 3 -10.4989 2.1844 70.8791 0.0000 6.7192 0.0000
# 4 0.0000 0.0000 0.0000 11.7797 0.0000 2.4454
# 5 4.2776 5.5272 6.7192 0.0000 32.2674 0.0000
# 6 0.0000 0.0000 0.0000 2.4454 0.0000 -0.8949
#
#
#
# Elastic Compliance Matrix: (Units=1/GPa)
#
#
# Indices 1 2 3 4 5 6 
#
# 1 0.023104 -0.009034 0.003922 0.000000 -0.002332 0.000000
# 2 -0.009034 0.066350 -0.002468 0.000000 -0.009654 0.000000
# 3 0.003922 -0.002468 0.015072 0.000000 -0.003236 0.000000
# 4 0.000000 0.000000 0.000000 0.054165 0.000000 0.148013
# 5 -0.002332 -0.009654 -0.003236 0.000000 0.033628 0.000000
# 6 0.000000 0.000000 0.000000 0.148013 0.000000 -0.712992
#
#
# Mechanical properties :
#
#
# Convention : Reuss Voigt Hill
#
# Bulk Modulus (GPa) = 11.18980 14.76189 12.97585
# Shear Modulus (GPa) = -10.51029 17.79296 3.64134
#
# Velocity S-wave (km/s) = -2.53321 3.29601 1.49106
# Velocity P-wave (km/s) = 1.31308 4.84746 3.29953
#
# Compressibility (1/GPa) = 0.08936710
#
# Stress axis : x y z
#
# Youngs Moduli (GPa) = 43.28280 15.07154 66.34716
#
# Poissons Ratio (x) = 0.13615 -0.26020
# Poissons Ratio (y) = 0.39100 0.16373
# Poissons Ratio (z) = -0.16974 0.03719
#
# Static dielectric constant tensor:
#      x y z
#    x 1.568440 0.000000 -0.001140 
#    y 0.000000 1.545400 0.000000 
#    z -0.001140 0.000000 1.544820 
# 
# From -- ./inp_files/96075.got.cif
#   From: 2010.05.17/outbox.cif.g08.bks.cpg/sg10_49_cif.got.tgz:96075.got - 2010.06.03 11:33:40.
