data_PCOD9152970
_publ_section_title
;
Structure prediction by ZEFSAII (Michael W. Deem and Ramdas Pophale) SiO2 
 PCOD9152970
Probable space group: P 2/M
;
_chemical_formula_sum "Si O2"
_cell_formula_units_Z 21
_cell_length_a 10.705853
_cell_length_b 14.710725
_cell_length_c 9.153750
_cell_angle_alpha 90.000000
_cell_angle_beta 42.066047
_cell_angle_gamma 90.000000
_cell_volume 965.874398
_symmetry_space_group_name_H-M "P 2/M"
_symmetry_group_IT_number 10
_symmetry_cell_setting 'monoclinic'
loop_
_space_group_symop_operation_xyz
x,y,z
-x,y,-z
-x,-y,-z
x,-y,z
loop_
_atom_site_type_symbol
_atom_site_label
_atom_site_fract_x
_atom_site_fract_y
_atom_site_fract_z
Si Si1 0.000000 0.500000 0.000000
Si Si2 0.337205 0.149493 0.048859
Si Si3 0.045765 0.357653 0.705782
Si Si4 0.019656 0.854952 0.808785
Si Si5 0.436513 0.102873 0.391190
Si Si6 0.288441 0.653094 0.213405
O O1 0.067143 0.421455 0.824710
O O2 0.453800 0.174376 0.802350
O O3 0.283676 0.237811 0.188465
O O4 0.500000 0.100390 0.000000
O O5 0.149802 0.108470 0.144109
O O6 0.210127 0.364610 0.442824
O O7 0.023847 0.253725 0.779388
O O8 0.858253 0.383729 0.778169
O O9 0.215529 0.890645 0.579433
O O10 0.000000 0.875208 0.000000
O O11 0.500000 0.117754 0.500000
O O12 0.494742 0.000000 0.299607
O O13 0.500000 0.623180 0.000000
#
# Coordination Sequence:
#
# PCOD9152970 Si02
#       6
#     1   4   4   4   4   4
#     4  12  24  42  62  96 134 160 196 272 314 362
#     4  10  21  39  62  92 122 163 216 265 311 372
#     4  10  22  40  64  93 126 161 209 259 318 373
#     4  11  20  38  65  90 119 170 216 255 314 383
#     4  11  24  39  60  94 131 168 212 267 322 371
#     4   9  19  40  66  90 120 167 208 252 309 378
#
# _framework density 21.741956999999999
#
# number of rings (size 3 to 8) (size 9 to 14) (size 15 to 20)
#    0.000    1.714    2.857    2.286    0.000    5.333 
#    0.000    4.762    0.000    0.000    0.000    0.000 
#    0.000    0.000    0.000    0.000    0.000    0.000 
#
# Total GULP energy -116934.267668 kJ/mol
# GULP energy per Si atom -5568.298460 kJ/mol
# Density = 2.169247 g / cm^3
# Si number density = 21.741957 Si / 1000 Ang^3
#
#
#
# Elastic Constant Matrix: (Units=GPa)
#
#
# Indices 1 2 3 4 5 6 
#
# 1 122.5245 7.5481 53.7067 0.0000 -18.2427 0.0000
# 2 7.5481 79.5030 18.6053 0.0000 12.9192 0.0000
# 3 53.7067 18.6053 155.9974 0.0000 -2.1164 0.0000
# 4 0.0000 0.0000 0.0000 22.7498 0.0000 9.6391
# 5 -18.2427 12.9192 -2.1164 0.0000 52.3751 0.0000
# 6 0.0000 0.0000 0.0000 9.6391 0.0000 -43.8667
#
#
#
# Elastic Compliance Matrix: (Units=1/GPa)
#
#
# Indices 1 2 3 4 5 6 
#
# 1 0.010229 -0.000767 -0.003381 0.000000 0.003616 0.000000
# 2 -0.000767 0.013577 -0.001405 0.000000 -0.003673 0.000000
# 3 -0.003381 -0.001405 0.007735 0.000000 -0.000519 0.000000
# 4 0.000000 0.000000 0.000000 0.040213 0.000000 0.008836
# 5 0.003616 -0.003673 -0.000519 0.000000 0.021237 0.000000
# 6 0.000000 0.000000 0.000000 0.008836 0.000000 -0.020855
#
#
# Mechanical properties :
#
#
# Convention : Reuss Voigt Hill
#
# Bulk Modulus (GPa) = 48.93815 57.52722 53.23269
# Shear Modulus (GPa) = 55.52198 24.79597 40.15898
#
# Velocity S-wave (km/s) = 5.05888 3.38074 4.30242
# Velocity P-wave (km/s) = 7.52864 6.46187 7.01556
#
# Compressibility (1/GPa) = 0.02043396
#
# Stress axis : x y z
#
# Youngs Moduli (GPa) = 97.75818 73.65598 129.28343
#
# Poissons Ratio (x) = 0.05653 0.43713
# Poissons Ratio (y) = 0.07503 0.18162
# Poissons Ratio (z) = 0.33054 0.10348
#
# Static dielectric constant tensor:
#      x y z
#    x 1.869770 0.000000 0.013000 
#    y 0.000000 1.771870 0.000000 
#    z 0.013000 0.000000 1.799270 
# 
# From -- ./inp_files/19558.got.cif
#   From: 2010.05.17/outbox.cif.g08.bks.cpg/sg10_10_cif.got.tgz:19558.got - 2010.06.03 11:33:40.
