data_PCOD9152170
_publ_section_title
;
Structure prediction by ZEFSAII (Michael W. Deem and Ramdas Pophale) SiO2 
 PCOD9152170
Probable space group: P 2/M
;
_chemical_formula_sum "Si O2"
_cell_formula_units_Z 20
_cell_length_a 7.562379
_cell_length_b 10.308411
_cell_length_c 18.728055
_cell_angle_alpha 90.000000
_cell_angle_beta 41.208944
_cell_angle_gamma 90.000000
_cell_volume 961.835902
_symmetry_space_group_name_H-M "P 2/M"
_symmetry_group_IT_number 10
_symmetry_cell_setting 'monoclinic'
loop_
_space_group_symop_operation_xyz
x,y,z
-x,y,-z
-x,-y,-z
x,-y,z
loop_
_atom_site_type_symbol
_atom_site_label
_atom_site_fract_x
_atom_site_fract_y
_atom_site_fract_z
Si Si1 0.245236 0.148378 0.481645
Si Si2 0.646959 0.647561 0.146862
Si Si3 0.085749 0.744908 0.287472
Si Si4 0.448247 0.854961 0.933937
Si Si5 0.312238 0.351358 0.705482
O O1 0.122773 0.196263 0.593627
O O2 0.469270 0.247553 0.386578
O O3 0.000000 0.149486 0.500000
O O4 0.345084 0.000000 0.456353
O O5 0.705664 0.500000 0.108882
O O6 0.708511 0.748352 0.064947
O O7 0.763781 0.676965 0.189296
O O8 0.321777 0.663516 0.254246
O O9 0.934679 0.662781 0.273471
O O10 0.261320 0.852946 0.193235
O O11 0.332849 0.000000 0.966903
O O12 0.500000 0.817229 0.000000
O O13 0.413195 0.500000 0.672767
#
# Coordination Sequence:
#
# PCOD9152170 Si02
#       5
#     4   4   4   4   4
#     4  11  22  38  58  83 116 155 192 231 282 336
#     4   9  20  37  58  82 113 149 184 231 282 329
#     4  10  21  36  60  82 113 150 186 234 279 333
#     4   9  19  38  63  86 112 148 188 233 285 338
#     4  11  23  38  58  85 116 151 193 232 277 337
#
# _framework density 20.793568
#
# number of rings (size 3 to 8) (size 9 to 14) (size 15 to 20)
#    1.200    0.800    2.000    1.800    0.000    6.400 
#    0.000    1.000    0.000    4.800    0.000    0.000 
#    0.000    0.000    0.000    0.000    0.000    0.000 
#
# Total GULP energy -111542.940173 kJ/mol
# GULP energy per Si atom -5577.147009 kJ/mol
# Density = 2.074624 g / cm^3
# Si number density = 20.793568 Si / 1000 Ang^3
#
#
#
# Elastic Constant Matrix: (Units=GPa)
#
#
# Indices 1 2 3 4 5 6 
#
# 1 80.8650 34.2958 27.6289 0.0000 29.2761 0.0000
# 2 34.2958 112.7957 61.9320 0.0000 22.7585 0.0000
# 3 27.6289 61.9320 95.3365 0.0000 24.7189 0.0000
# 4 0.0000 0.0000 0.0000 -111.8880 0.0000 -208.0782
# 5 29.2761 22.7585 24.7189 0.0000 44.6915 0.0000
# 6 0.0000 0.0000 0.0000 -208.0782 0.0000 -421.9130
#
#
#
# Elastic Compliance Matrix: (Units=1/GPa)
#
#
# Indices 1 2 3 4 5 6 
#
# 1 0.017270 -0.003018 -0.000595 0.000000 -0.009447 0.000000
# 2 -0.003018 0.014535 -0.008360 0.000000 -0.000801 0.000000
# 3 -0.000595 -0.008360 0.017380 0.000000 -0.004966 0.000000
# 4 0.000000 0.000000 0.000000 -0.107893 0.000000 0.053211
# 5 -0.009447 -0.000801 -0.004966 0.000000 0.031719 0.000000
# 6 0.000000 0.000000 0.000000 0.053211 0.000000 -0.028612
#
#
# Mechanical properties :
#
#
# Convention : Reuss Voigt Hill
#
# Bulk Modulus (GPa) = 39.62146 59.63451 49.62799
# Shear Modulus (GPa) = -215.10689 -86.81254 -150.95971
#
# Velocity S-wave (km/s) = -10.18201 -6.46841 -8.52976
# Velocity P-wave (km/s) = 10.91490 5.20053 8.54929
#
# Compressibility (1/GPa) = 0.02523885
#
# Stress axis : x y z
#
# Youngs Moduli (GPa) = 57.90488 68.79986 57.53816
#
# Poissons Ratio (x) = 0.20766 0.03422
# Poissons Ratio (y) = 0.17477 0.48101
# Poissons Ratio (z) = 0.03444 0.57515
#
# Static dielectric constant tensor:
#      x y z
#    x 1.759610 0.000000 -0.021460 
#    y 0.000000 1.720640 0.000000 
#    z -0.021460 0.000000 1.733020 
# 
# From -- ./inp_files/74283.got.cif
#   From: 2010.05.17/outbox.cif.g08.bks.cpg/sg10_38_cif.got.tgz:74283.got - 2010.06.03 11:33:40.
