data_PCOD9152998
_publ_section_title
;
Structure prediction by ZEFSAII (Michael W. Deem and Ramdas Pophale) SiO2 
 PCOD9152998
Probable space group: P 2/M
;
_chemical_formula_sum "Si O2"
_cell_formula_units_Z 28
_cell_length_a 14.237434
_cell_length_b 23.317229
_cell_length_c 8.805703
_cell_angle_alpha 90.000000
_cell_angle_beta 29.751708
_cell_angle_gamma 90.000000
_cell_volume 1450.663054
_symmetry_space_group_name_H-M "P 2/M"
_symmetry_group_IT_number 10
_symmetry_cell_setting 'monoclinic'
loop_
_space_group_symop_operation_xyz
x,y,z
-x,y,-z
-x,-y,-z
x,-y,z
loop_
_atom_site_type_symbol
_atom_site_label
_atom_site_fract_x
_atom_site_fract_y
_atom_site_fract_z
Si Si1 0.208979 0.066601 0.281598
Si Si2 0.538135 0.849516 0.276170
Si Si3 0.856529 0.862108 0.328238
Si Si4 0.297834 0.434122 0.728546
Si Si5 0.904999 0.223519 0.797691
Si Si6 0.298187 0.436857 0.364453
Si Si7 0.996867 0.355691 0.683907
O O1 0.199408 0.092306 0.464233
O O2 0.000000 0.071293 0.500000
O O3 0.263370 0.000000 0.206693
O O4 0.350647 0.104437 0.981988
O O5 0.500000 0.871666 0.500000
O O6 0.335768 0.838409 0.479882
O O7 0.686674 0.796844 0.089898
O O8 0.979987 0.813994 0.241923
O O9 0.000000 0.886451 0.000000
O O10 0.500000 0.412806 0.500000
O O11 0.275176 0.500000 0.811946
O O12 0.299323 0.434618 0.544821
O O13 0.141545 0.395479 0.024984
O O14 0.937603 0.290034 0.789783
O O15 0.000000 0.213218 0.500000
O O16 0.208275 0.500000 0.451302
O O17 0.199150 0.378491 0.452711
O O18 0.500000 0.438039 0.000000
O O19 0.000000 0.366875 0.500000
#
# Coordination Sequence:
#
# PCOD9152998 Si02
#       7
#     4   4   4   4   4   4   4
#     4  11  23  43  71 102 138 171 211 271 322 383
#     4  12  23  43  70  93 132 175 217 266 321 382
#     4  12  23  42  70  95 129 176 217 263 323 384
#     4  10  21  39  63  90 124 164 205 258 322 382
#     4  11  24  46  62  94 129 168 227 266 320 383
#     4  10  21  40  64  92 126 165 211 259 322 394
#     4  11  24  40  61  90 127 161 209 270 312 381
#
# _framework density 19.30152
#
# number of rings (size 3 to 8) (size 9 to 14) (size 15 to 20)
#    0.000    1.000    4.286    2.143    0.000    6.857 
#    7.714    0.000    0.000    0.000    0.000    0.000 
#    0.000    0.000    0.000    0.000    0.000    0.000 
#
# Total GULP energy -156300.767519 kJ/mol
# GULP energy per Si atom -5582.170269 kJ/mol
# Density = 1.925759 g / cm^3
# Si number density = 19.301520 Si / 1000 Ang^3
#
#
#
# Elastic Constant Matrix: (Units=GPa)
#
#
# Indices 1 2 3 4 5 6 
#
# 1 91.9793 36.7532 30.2456 0.0000 -8.9378 0.0000
# 2 36.7532 88.1940 54.7639 0.0000 3.1650 0.0000
# 3 30.2456 54.7639 125.4327 0.0000 8.5812 0.0000
# 4 0.0000 0.0000 0.0000 -38.5242 0.0000 -26.6582
# 5 -8.9378 3.1650 8.5812 0.0000 45.6813 0.0000
# 6 0.0000 0.0000 0.0000 -26.6582 0.0000 12.9930
#
#
#
# Elastic Compliance Matrix: (Units=1/GPa)
#
#
# Indices 1 2 3 4 5 6 
#
# 1 0.013610 -0.004956 -0.001341 0.000000 0.003258 0.000000
# 2 -0.004956 0.017362 -0.006318 0.000000 -0.000986 0.000000
# 3 -0.001341 -0.006318 0.011186 0.000000 -0.001926 0.000000
# 4 0.000000 0.000000 0.000000 -0.010727 0.000000 -0.022010
# 5 0.003258 -0.000986 -0.001926 0.000000 0.022958 0.000000
# 6 0.000000 0.000000 0.000000 -0.022010 0.000000 0.031806
#
#
# Mechanical properties :
#
#
# Convention : Reuss Voigt Hill
#
# Bulk Modulus (GPa) = 59.07163 61.01460 60.04312
# Shear Modulus (GPa) = 42.71018 16.28624 29.49821
#
# Velocity S-wave (km/s) = 4.70913 2.90794 3.91357
# Velocity P-wave (km/s) = 7.76138 6.55399 7.18310
#
# Compressibility (1/GPa) = 0.01692860
#
# Stress axis : x y z
#
# Youngs Moduli (GPa) = 73.47635 57.59553 89.39813
#
# Poissons Ratio (x) = 0.28544 0.11987
# Poissons Ratio (y) = 0.36414 0.56482
# Poissons Ratio (z) = 0.09852 0.36389
#
# Static dielectric constant tensor:
#      x y z
#    x 1.694930 0.000000 -0.037920 
#    y 0.000000 1.656090 0.000000 
#    z -0.037920 0.000000 1.652920 
# 
# From -- ./inp_files/30417.got.cif
#   From: 2010.05.17/outbox.cif.g08.bks.cpg/sg10_16_cif.got.tgz:30417.got - 2010.06.03 11:33:40.
