data_PCOD9152044
_publ_section_title
;
Structure prediction by ZEFSAII (Michael W. Deem and Ramdas Pophale) SiO2 
 PCOD9152044
Probable space group: P 2/M
;
_chemical_formula_sum "Si O2"
_cell_formula_units_Z 25
_cell_length_a 22.509613
_cell_length_b 7.780310
_cell_length_c 11.765792
_cell_angle_alpha 90.000000
_cell_angle_beta 146.539448
_cell_angle_gamma 90.000000
_cell_volume 1136.118154
_symmetry_space_group_name_H-M "P 2/M"
_symmetry_group_IT_number 10
_symmetry_cell_setting 'monoclinic'
loop_
_space_group_symop_operation_xyz
x,y,z
-x,y,-z
-x,-y,-z
x,-y,z
loop_
_atom_site_type_symbol
_atom_site_label
_atom_site_fract_x
_atom_site_fract_y
_atom_site_fract_z
Si Si1 0.971315 0.700854 0.692752
Si Si2 0.191640 0.197224 0.127722
Si Si3 0.803697 0.699230 0.613046
Si Si4 0.646971 0.207679 0.804161
Si Si5 0.782305 0.794419 0.242704
Si Si6 0.500000 0.500000 0.500000
Si Si7 0.381972 0.200384 0.828945
O O1 0.992491 0.500000 0.745043
O O2 0.898048 0.768042 0.681434
O O3 0.897801 0.722556 0.464250
O O4 0.086178 0.790137 0.880881
O O5 0.171118 0.287861 0.214380
O O6 0.294264 0.258447 0.220301
O O7 0.211437 0.000000 0.187845
O O8 0.791131 0.500000 0.562705
O O9 0.691607 0.787420 0.400565
O O10 0.551771 0.344151 0.663532
O O11 0.621161 0.000000 0.763160
O O12 0.734798 0.236266 0.043116
O O13 0.693525 0.727129 0.191563
O O14 0.791540 0.000000 0.272103
O O15 0.398049 0.000000 0.884893
O O16 0.500000 0.277548 0.000000
#
# Coordination Sequence:
#
# PCOD9152044 Si02
#       7
#     4   4   4   4   4   1   4
#     4  10  21  36  60  91 126 161 201 255 310 373
#     4  11  23  39  60  87 124 163 209 255 301 371
#     4  10  21  36  55  86 126 161 200 255 310 365
#     4  10  25  45  65  95 126 163 213 259 307 372
#     4   9  19  39  61  85 125 161 199 253 309 369
#     4  12  26  44  72  88 120 172 204 256 318 372
#     4   9  18  34  58  86 113 154 205 251 307 365
#
# _framework density 22.004752
#
# number of rings (size 3 to 8) (size 9 to 14) (size 15 to 20)
#    0.000    2.080    0.000    2.160    3.360    6.080 
#    0.000    6.400    0.000    0.000    0.000    0.000 
#    0.000    0.000    0.000    0.000    0.000    0.000 
#
# Total GULP energy -139271.205591 kJ/mol
# GULP energy per Si atom -5570.848224 kJ/mol
# Density = 2.195467 g / cm^3
# Si number density = 22.004752 Si / 1000 Ang^3
#
#
#
# Elastic Constant Matrix: (Units=GPa)
#
#
# Indices 1 2 3 4 5 6 
#
# 1 29.4146 12.5431 21.5894 0.0000 -3.3569 0.0000
# 2 12.5431 49.8083 3.9953 0.0000 -6.6021 0.0000
# 3 21.5894 3.9953 83.2344 0.0000 -2.6456 0.0000
# 4 0.0000 0.0000 0.0000 46.0846 0.0000 -7.1070
# 5 -3.3569 -6.6021 -2.6456 0.0000 32.5994 0.0000
# 6 0.0000 0.0000 0.0000 -7.1070 0.0000 5.4247
#
#
#
# Elastic Compliance Matrix: (Units=1/GPa)
#
#
# Indices 1 2 3 4 5 6 
#
# 1 0.047387 -0.010761 -0.011719 0.000000 0.001749 0.000000
# 2 -0.010761 0.023136 0.001799 0.000000 0.003723 0.000000
# 3 -0.011719 0.001799 0.014979 0.000000 0.000373 0.000000
# 4 0.000000 0.000000 0.000000 0.027193 0.000000 0.035627
# 5 0.001749 0.003723 0.000373 0.000000 0.031640 0.000000
# 6 0.000000 0.000000 0.000000 0.035627 0.000000 0.231016
#
#
# Mechanical properties :
#
#
# Convention : Reuss Voigt Hill
#
# Bulk Modulus (GPa) = 22.65537 26.52367 24.58952
# Shear Modulus (GPa) = 11.58942 25.11039 18.34991
#
# Velocity S-wave (km/s) = 2.29744 3.38173 2.89088
# Velocity P-wave (km/s) = 4.16601 5.22761 4.72671
#
# Compressibility (1/GPa) = 0.04413965
#
# Stress axis : x y z
#
# Youngs Moduli (GPa) = 21.10298 43.22222 66.75799
#
# Poissons Ratio (x) = 0.46513 0.78234
# Poissons Ratio (y) = 0.22710 -0.12010
# Poissons Ratio (z) = 0.24731 -0.07776
#
# Static dielectric constant tensor:
#      x y z
#    x 1.850420 0.000000 0.016250 
#    y 0.000000 1.806410 0.000000 
#    z 0.016250 0.000000 1.810460 
# 
# From -- ./inp_files/56711.got.cif
#   From: 2010.05.17/outbox.cif.g08.bks.cpg/sg10_29_cif.got.tgz:56711.got - 2010.06.03 11:33:40.
