data_PCOD9152561
_publ_section_title
;
Structure prediction by ZEFSAII (Michael W. Deem and Ramdas Pophale) SiO2 
 PCOD9152561
Probable space group: P 2/M
;
_chemical_formula_sum "Si O2"
_cell_formula_units_Z 28
_cell_length_a 17.792658
_cell_length_b 15.304952
_cell_length_c 5.226560
_cell_angle_alpha 90.000000
_cell_angle_beta 74.930717
_cell_angle_gamma 90.000000
_cell_volume 1374.331390
_symmetry_space_group_name_H-M "P 2/M"
_symmetry_group_IT_number 10
_symmetry_cell_setting 'monoclinic'
loop_
_space_group_symop_operation_xyz
x,y,z
-x,y,-z
-x,-y,-z
x,-y,z
loop_
_atom_site_type_symbol
_atom_site_label
_atom_site_fract_x
_atom_site_fract_y
_atom_site_fract_z
Si Si1 0.768966 0.601221 0.152963
Si Si2 0.188981 0.822229 0.487260
Si Si3 0.591508 0.825771 0.889880
Si Si4 0.085848 0.725892 0.930798
Si Si5 0.303264 0.322584 0.264302
Si Si6 0.076133 0.906455 0.253202
Si Si7 0.677097 0.102596 0.317586
O O1 0.788138 0.500000 0.174667
O O2 0.847540 0.658240 0.044181
O O3 0.722854 0.637569 0.441739
O O4 0.715255 0.613974 0.951816
O O5 0.117582 0.760519 0.631518
O O6 0.246658 0.761422 0.278039
O O7 0.152617 0.900357 0.362086
O O8 0.239714 0.853855 0.684477
O O9 0.613385 0.724073 0.817062
O O10 0.625475 0.878758 0.617190
O O11 0.500000 0.838739 0.000000
O O12 0.634053 0.856213 0.112529
O O13 0.078024 0.817317 0.091324
O O14 0.000000 0.686113 0.000000
O O15 0.000000 0.905581 0.500000
O O16 0.076543 0.000000 0.110202
O O17 0.687111 0.000000 0.268885
#
# Coordination Sequence:
#
# PCOD9152561 Si02
#       7
#     4   4   4   4   4   4   4
#     4  11  23  41  68  96 123 161 206 259 322 388
#     4  10  21  38  57  80 119 167 213 259 308 362
#     4  11  23  41  65  91 124 168 208 250 318 386
#     4  11  22  38  58  83 124 163 208 266 320 365
#     4  10  21  41  65  91 123 158 203 250 311 380
#     4  11  22  35  54  83 118 165 216 261 313 362
#     4  11  24  38  58  91 127 169 220 269 309 359
#
# _framework density 20.373543999999999
#
# number of rings (size 3 to 8) (size 9 to 14) (size 15 to 20)
#    0.000    1.286    2.857    4.286    2.000    3.429 
#    0.000    0.000    0.000    5.571    0.000    0.000 
#    0.000    0.000    0.000    0.000    0.000    0.000 
#
# Total GULP energy -156355.731895 kJ/mol
# GULP energy per Si atom -5584.133282 kJ/mol
# Density = 2.032717 g / cm^3
# Si number density = 20.373544 Si / 1000 Ang^3
#
#
#
# Elastic Constant Matrix: (Units=GPa)
#
#
# Indices 1 2 3 4 5 6 
#
# 1 77.8480 14.1929 34.0220 0.0000 6.7332 0.0000
# 2 14.1929 103.4632 10.4328 0.0000 5.3345 0.0000
# 3 34.0220 10.4328 89.8176 0.0000 7.5827 0.0000
# 4 0.0000 0.0000 0.0000 20.0244 0.0000 0.2883
# 5 6.7332 5.3345 7.5827 0.0000 31.4799 0.0000
# 6 0.0000 0.0000 0.0000 0.2883 0.0000 8.6178
#
#
#
# Elastic Compliance Matrix: (Units=1/GPa)
#
#
# Indices 1 2 3 4 5 6 
#
# 1 0.015734 -0.001500 -0.005638 0.000000 -0.001753 0.000000
# 2 -0.001500 0.009985 -0.000486 0.000000 -0.001254 0.000000
# 3 -0.005638 -0.000486 0.013491 0.000000 -0.001961 0.000000
# 4 0.000000 0.000000 0.000000 0.049963 0.000000 -0.001672
# 5 -0.001753 -0.001254 -0.001961 0.000000 0.032826 0.000000
# 6 0.000000 0.000000 0.000000 -0.001672 0.000000 0.116095
#
#
# Mechanical properties :
#
#
# Convention : Reuss Voigt Hill
#
# Bulk Modulus (GPa) = 41.72955 43.15826 42.44391
# Shear Modulus (GPa) = 19.13295 26.18983 22.66139
#
# Velocity S-wave (km/s) = 3.06781 3.58925 3.33873
# Velocity P-wave (km/s) = 5.75111 6.19729 5.97837
#
# Compressibility (1/GPa) = 0.02396383
#
# Stress axis : x y z
#
# Youngs Moduli (GPa) = 63.55466 100.15394 74.12204
#
# Poissons Ratio (x) = 0.15018 0.41789
# Poissons Ratio (y) = 0.09530 0.03601
# Poissons Ratio (z) = 0.35831 0.04866
#
# Static dielectric constant tensor:
#      x y z
#    x 1.754860 0.000000 0.014720 
#    y 0.000000 1.720760 0.000000 
#    z 0.014720 0.000000 1.758030 
# 
# From -- ./inp_files/11269.got.cif
#   From: 2010.05.17/outbox.cif.g08.bks.cpg/sg10_6_cif.got.tgz:11269.got - 2010.06.03 11:33:40.
