data_PCOD9152596
_publ_section_title
;
Structure prediction by ZEFSAII (Michael W. Deem and Ramdas Pophale) SiO2 
 PCOD9152596
Probable space group: P 2/M
;
_chemical_formula_sum "Si O2"
_cell_formula_units_Z 32
_cell_length_a 14.719751
_cell_length_b 23.616017
_cell_length_c 9.563356
_cell_angle_alpha 90.000000
_cell_angle_beta 29.002014
_cell_angle_gamma 90.000000
_cell_volume 1611.818765
_symmetry_space_group_name_H-M "P 2/M"
_symmetry_group_IT_number 10
_symmetry_cell_setting 'monoclinic'
loop_
_space_group_symop_operation_xyz
x,y,z
-x,y,-z
-x,-y,-z
x,-y,z
loop_
_atom_site_type_symbol
_atom_site_label
_atom_site_fract_x
_atom_site_fract_y
_atom_site_fract_z
Si Si1 0.031997 0.378675 0.796136
Si Si2 0.470883 0.180353 0.203628
Si Si3 0.114336 0.937660 0.065302
Si Si4 0.665482 0.567774 0.163740
Si Si5 0.914014 0.244622 0.260802
Si Si6 0.144592 0.822962 0.180030
Si Si7 0.203753 0.434139 0.303578
Si Si8 0.293627 0.062679 0.516447
O O1 0.072566 0.312106 0.749132
O O2 0.183461 0.404014 0.481498
O O3 0.000000 0.399699 0.000000
O O4 0.835132 0.394441 0.990620
O O5 0.296577 0.222022 0.456542
O O6 0.418928 0.117154 0.323324
O O7 0.500000 0.176567 0.000000
O O8 0.658316 0.199995 0.029280
O O9 0.176499 0.884435 0.070147
O O10 0.893300 0.931894 0.327156
O O11 0.145839 0.000000 0.086284
O O12 0.220200 0.936530 0.774425
O O13 0.500000 0.575489 0.500000
O O14 0.712729 0.500000 0.103093
O O15 0.649542 0.582134 0.018452
O O16 0.039866 0.217223 0.211856
O O17 0.000000 0.224137 0.000000
O O18 0.000000 0.830521 0.500000
O O19 0.234608 0.500000 0.292707
O O20 0.000000 0.428663 0.500000
O O21 0.376624 0.000000 0.378413
#
# Coordination Sequence:
#
# PCOD9152596 Si02
#       8
#     4   4   4   4   4   4   4   4
#     4  10  21  38  58  87 124 162 209 268 319 368
#     4  12  24  43  65  90 127 164 212 270 323 388
#     4   9  18  35  60  92 126 159 202 253 314 391
#     4   9  18  36  62  94 131 167 208 257 307 374
#     4  11  25  46  63  91 130 164 219 275 313 380
#     4  12  24  41  67  91 120 173 210 258 335 383
#     4   8  15  31  58  89 121 163 205 245 305 373
#     4   9  18  35  62  91 125 163 198 256 323 380
#
# _framework density 19.853349000000001
#
# number of rings (size 3 to 8) (size 9 to 14) (size 15 to 20)
#    0.000    2.000    2.500    2.625    0.000    5.500 
#    4.500    1.875    0.000    2.250    0.000    0.000 
#    0.000    0.000    0.000    0.000    0.000    0.500 
#
# Total GULP energy -178449.533431 kJ/mol
# GULP energy per Si atom -5576.547920 kJ/mol
# Density = 1.980816 g / cm^3
# Si number density = 19.853349 Si / 1000 Ang^3
#
#
#
# Elastic Constant Matrix: (Units=GPa)
#
#
# Indices 1 2 3 4 5 6 
#
# 1 103.5043 36.2754 45.9732 0.0000 6.0565 0.0000
# 2 36.2754 54.4903 39.8852 0.0000 3.6035 0.0000
# 3 45.9732 39.8852 107.4438 0.0000 9.2987 0.0000
# 4 0.0000 0.0000 0.0000 95.3026 0.0000 29.5191
# 5 6.0565 3.6035 9.2987 0.0000 39.0757 0.0000
# 6 0.0000 0.0000 0.0000 29.5191 0.0000 18.9613
#
#
#
# Elastic Compliance Matrix: (Units=1/GPa)
#
#
# Indices 1 2 3 4 5 6 
#
# 1 0.013435 -0.006501 -0.003275 0.000000 -0.000704 0.000000
# 2 -0.006501 0.028345 -0.007761 0.000000 0.000241 0.000000
# 3 -0.003275 -0.007761 0.013767 0.000000 -0.002053 0.000000
# 4 0.000000 0.000000 0.000000 0.020265 0.000000 -0.031548
# 5 -0.000704 0.000241 -0.002053 0.000000 0.026167 0.000000
# 6 0.000000 0.000000 0.000000 -0.031548 0.000000 0.101853
#
#
# Mechanical properties :
#
#
# Convention : Reuss Voigt Hill
#
# Bulk Modulus (GPa) = 48.84304 56.63400 52.73852
# Shear Modulus (GPa) = 20.34750 40.22155 30.28452
#
# Velocity S-wave (km/s) = 3.20486 4.50592 3.90989
# Velocity P-wave (km/s) = 6.19275 7.46051 6.85600
#
# Compressibility (1/GPa) = 0.02047375
#
# Stress axis : x y z
#
# Youngs Moduli (GPa) = 74.42994 35.27986 72.63642
#
# Poissons Ratio (x) = 0.22935 0.23786
# Poissons Ratio (y) = 0.48385 0.56376
# Poissons Ratio (z) = 0.24373 0.27382
#
# Static dielectric constant tensor:
#      x y z
#    x 1.714350 0.000000 0.011630 
#    y 0.000000 1.675250 0.000000 
#    z 0.011630 0.000000 1.736750 
# 
# From -- ./inp_files/30582.got.cif
#   From: 2010.05.17/outbox.cif.g08.bks.cpg/sg10_16_cif.got.tgz:30582.got - 2010.06.03 11:33:40.
