data_PCOD9152270
_publ_section_title
;
Structure prediction by ZEFSAII (Michael W. Deem and Ramdas Pophale) SiO2 
 PCOD9152270
Probable space group: P 2/M
;
_chemical_formula_sum "Si O2"
_cell_formula_units_Z 21
_cell_length_a 12.494334
_cell_length_b 13.833794
_cell_length_c 18.686330
_cell_angle_alpha 90.000000
_cell_angle_beta 159.875022
_cell_angle_gamma 90.000000
_cell_volume 1111.281409
_symmetry_space_group_name_H-M "P 2/M"
_symmetry_group_IT_number 10
_symmetry_cell_setting 'monoclinic'
loop_
_space_group_symop_operation_xyz
x,y,z
-x,y,-z
-x,-y,-z
x,-y,z
loop_
_atom_site_type_symbol
_atom_site_label
_atom_site_fract_x
_atom_site_fract_y
_atom_site_fract_z
Si Si1 0.365408 0.716047 0.211546
Si Si2 0.358629 0.112272 0.702987
Si Si3 0.282059 0.306526 0.420618
Si Si4 0.640530 0.389198 0.250008
Si Si5 0.500000 0.500000 0.500000
Si Si6 0.613560 0.784699 0.995880
O O1 0.517393 0.816663 0.280630
O O2 0.545089 0.683109 0.395362
O O3 0.430965 0.643554 0.186458
O O4 0.000000 0.723507 0.000000
O O5 0.562051 0.139473 0.900178
O O6 0.000000 0.133257 0.500000
O O7 0.381083 0.000000 0.698189
O O8 0.500000 0.252277 0.500000
O O9 0.256573 0.413567 0.371213
O O10 0.962201 0.251467 0.224036
O O11 0.578775 0.500000 0.191077
O O12 0.577850 0.310982 0.148999
O O13 0.000000 0.382120 0.500000
O O14 0.500000 0.823545 0.000000
#
# Coordination Sequence:
#
# PCOD9152270 Si02
#       6
#     4   4   4   4   1   4
#     4  11  22  38  61  84 115 154 193 243 291 340
#     4  10  22  42  65  86 112 149 193 240 297 358
#     4  10  21  37  56  82 118 153 195 233 277 335
#     4  10  22  36  53  81 117 157 200 236 278 340
#     4   8  24  36  56  80 122 160 202 222 276 344
#     4  11  21  36  59  84 117 147 187 243 290 339
#
# _framework density 18.897102
#
# number of rings (size 3 to 8) (size 9 to 14) (size 15 to 20)
#    0.571    1.143    0.000    6.857    2.667    1.524 
#    0.000    0.952    0.000    2.286    0.000    0.000 
#    0.000    0.000    0.000    0.000    0.000    0.000 
#
# Total GULP energy -116912.131623 kJ/mol
# GULP energy per Si atom -5567.244363 kJ/mol
# Density = 1.885409 g / cm^3
# Si number density = 18.897102 Si / 1000 Ang^3
#
#
#
# Elastic Constant Matrix: (Units=GPa)
#
#
# Indices 1 2 3 4 5 6 
#
# 1 49.7219 -11.0461 -4.9547 0.0000 9.7239 0.0000
# 2 -11.0461 56.6602 -6.8109 0.0000 15.1021 0.0000
# 3 -4.9547 -6.8109 74.7087 0.0000 17.3846 0.0000
# 4 0.0000 0.0000 0.0000 -29.1063 0.0000 -0.4592
# 5 9.7239 15.1021 17.3846 0.0000 38.8915 0.0000
# 6 0.0000 0.0000 0.0000 -0.4592 0.0000 4.9736
#
#
#
# Elastic Compliance Matrix: (Units=1/GPa)
#
#
# Indices 1 2 3 4 5 6 
#
# 1 0.024882 0.008652 0.005210 0.000000 -0.011910 0.000000
# 2 0.008652 0.023821 0.006028 0.000000 -0.014108 0.000000
# 3 0.005210 0.006028 0.016885 0.000000 -0.011191 0.000000
# 4 0.000000 0.000000 0.000000 -0.034307 0.000000 -0.003168
# 5 -0.011910 -0.014108 -0.011191 0.000000 0.039171 0.000000
# 6 0.000000 0.000000 0.000000 -0.003168 0.000000 0.200771
#
#
# Mechanical properties :
#
#
# Convention : Reuss Voigt Hill
#
# Bulk Modulus (GPa) = 9.49061 15.05194 12.27128
# Shear Modulus (GPa) = 18.75717 16.54524 17.65120
#
# Velocity S-wave (km/s) = 3.15397 2.96217 3.05957
# Velocity P-wave (km/s) = 4.27744 4.43641 4.35765
#
# Compressibility (1/GPa) = 0.10536735
#
# Stress axis : x y z
#
# Youngs Moduli (GPa) = 40.18942 41.98058 59.22567
#
# Poissons Ratio (x) = -0.36320 -0.30858
# Poissons Ratio (y) = -0.34770 -0.35702
# Poissons Ratio (z) = -0.20940 -0.25307
#
# Static dielectric constant tensor:
#      x y z
#    x 1.668040 0.000000 -0.007450 
#    y 0.000000 1.615280 0.000000 
#    z -0.007450 0.000000 1.648780 
# 
# From -- ./inp_files/76958.got.cif
#   From: 2010.05.17/outbox.cif.g08.bks.cpg/sg10_39_cif.got.tgz:76958.got - 2010.06.03 11:33:40.
