data_PCOD9152300
_publ_section_title
;
Structure prediction by ZEFSAII (Michael W. Deem and Ramdas Pophale) SiO2 
 PCOD9152300
Probable space group: P 2/M
;
_chemical_formula_sum "Si O2"
_cell_formula_units_Z 28
_cell_length_a 11.869752
_cell_length_b 7.809717
_cell_length_c 15.353596
_cell_angle_alpha 90.000000
_cell_angle_beta 114.661155
_cell_angle_gamma 90.000000
_cell_volume 1293.454624
_symmetry_space_group_name_H-M "P 2/M"
_symmetry_group_IT_number 10
_symmetry_cell_setting 'monoclinic'
loop_
_space_group_symop_operation_xyz
x,y,z
-x,y,-z
-x,-y,-z
x,-y,z
loop_
_atom_site_type_symbol
_atom_site_label
_atom_site_fract_x
_atom_site_fract_y
_atom_site_fract_z
Si Si1 0.859753 0.209958 0.973505
Si Si2 0.194644 0.709022 0.542046
Si Si3 0.802150 0.799347 0.149455
Si Si4 0.463492 0.298636 0.581718
Si Si5 0.538098 0.699135 0.108076
Si Si6 0.024884 0.293284 0.648430
Si Si7 0.368025 0.197524 0.209923
O O1 0.760519 0.268346 0.869882
O O2 0.857361 0.000000 0.973134
O O3 0.817018 0.265951 0.055838
O O4 0.000000 0.263054 0.000000
O O5 0.193838 0.500000 0.545811
O O6 0.334400 0.772398 0.577816
O O7 0.123271 0.764415 0.606169
O O8 0.109287 0.757621 0.431874
O O9 0.686403 0.712535 0.160325
O O10 0.927318 0.774171 0.244445
O O11 0.773100 0.000000 0.135930
O O12 0.500000 0.223823 0.500000
O O13 0.438816 0.500000 0.559930
O O14 0.571678 0.283387 0.687001
O O15 0.501771 0.500000 0.101236
O O16 0.466307 0.790615 0.162297
O O17 0.500000 0.765602 0.000000
O O18 0.027102 0.500000 0.652917
O O19 0.348263 0.000000 0.226179
#
# Coordination Sequence:
#
# PCOD9152300 Si02
#       7
#     4   4   4   4   4   4   4
#     4   9  20  38  56  76 110 154 190 223 276 340
#     4   8  16  33  54  75 103 143 185 226 278 336
#     4  11  21  34  55  84 115 147 187 232 280 337
#     4  10  21  37  57  81 113 152 192 235 286 341
#     4  11  22  36  58  85 116 149 185 232 288 346
#     4   9  17  32  55  78 104 141 184 228 278 335
#     4  11  22  38  61  86 114 150 193 242 288 337
#
# _framework density 21.647454
#
# number of rings (size 3 to 8) (size 9 to 14) (size 15 to 20)
#    0.000    2.143    1.429    3.000    0.000    3.143 
#    0.000    2.143    0.000    6.000    0.000    0.000 
#    0.000    0.000    0.000    0.000    0.000    0.000 
#
# Total GULP energy -156419.816525 kJ/mol
# GULP energy per Si atom -5586.422019 kJ/mol
# Density = 2.159818 g / cm^3
# Si number density = 21.647454 Si / 1000 Ang^3
#
#
#
# Elastic Constant Matrix: (Units=GPa)
#
#
# Indices 1 2 3 4 5 6 
#
# 1 93.5141 -1.4981 37.3401 0.0000 21.8174 0.0000
# 2 -1.4981 27.7694 -9.9490 0.0000 -1.6136 0.0000
# 3 37.3401 -9.9490 125.5688 0.0000 17.1632 0.0000
# 4 0.0000 0.0000 0.0000 307.9126 0.0000 35.5578
# 5 21.8174 -1.6136 17.1632 0.0000 27.9447 0.0000
# 6 0.0000 0.0000 0.0000 35.5578 0.0000 5.1420
#
#
#
# Elastic Compliance Matrix: (Units=1/GPa)
#
#
# Indices 1 2 3 4 5 6 
#
# 1 0.014006 -0.000844 -0.002981 0.000000 -0.009153 0.000000
# 2 -0.000844 0.037117 0.003066 0.000000 0.000919 0.000000
# 3 -0.002981 0.003066 0.009553 0.000000 -0.003363 0.000000
# 4 0.000000 0.000000 0.000000 0.016122 0.000000 -0.111485
# 5 -0.009153 0.000919 -0.003363 0.000000 0.045049 0.000000
# 6 0.000000 0.000000 0.000000 -0.111485 0.000000 0.965404
#
#
# Mechanical properties :
#
#
# Convention : Reuss Voigt Hill
#
# Bulk Modulus (GPa) = 16.90375 33.18203 25.04289
# Shear Modulus (GPa) = 4.51065 82.93049 43.72057
#
# Velocity S-wave (km/s) = 1.44506 6.19619 4.49894
# Velocity P-wave (km/s) = 3.25728 8.15794 6.21136
#
# Compressibility (1/GPa) = 0.05915849
#
# Stress axis : x y z
#
# Youngs Moduli (GPa) = 71.39993 26.94165 104.68222
#
# Poissons Ratio (x) = 0.02274 0.31202
# Poissons Ratio (y) = 0.06027 -0.32098
# Poissons Ratio (z) = 0.21282 -0.08261
#
# Static dielectric constant tensor:
#      x y z
#    x 1.774730 0.000000 0.012480 
#    y 0.000000 1.791930 0.000000 
#    z 0.012480 0.000000 1.781500 
# 
# From -- ./inp_files/49137.got.cif
#   From: 2010.05.17/outbox.cif.g08.bks.cpg/sg10_25_cif.got.tgz:49137.got - 2010.06.03 11:33:40.
