data_PCOD9152554
_publ_section_title
;
Structure prediction by ZEFSAII (Michael W. Deem and Ramdas Pophale) SiO2 
 PCOD9152554
Probable space group: P 2/M
;
_chemical_formula_sum "Si O2"
_cell_formula_units_Z 32
_cell_length_a 14.647812
_cell_length_b 20.005175
_cell_length_c 9.560820
_cell_angle_alpha 90.000000
_cell_angle_beta 139.348908
_cell_angle_gamma 90.000000
_cell_volume 1825.122510
_symmetry_space_group_name_H-M "P 2/M"
_symmetry_group_IT_number 10
_symmetry_cell_setting 'monoclinic'
loop_
_space_group_symop_operation_xyz
x,y,z
-x,y,-z
-x,-y,-z
x,-y,z
loop_
_atom_site_type_symbol
_atom_site_label
_atom_site_fract_x
_atom_site_fract_y
_atom_site_fract_z
Si Si1 0.562456 0.184445 0.917177
Si Si2 0.794209 0.293511 0.149237
Si Si3 0.886972 0.686860 0.559294
Si Si4 0.146929 0.423542 0.252608
Si Si5 0.715845 0.215304 0.560075
Si Si6 0.602962 0.076890 0.742274
Si Si7 0.833773 0.923551 0.792958
Si Si8 0.334407 0.326362 0.285605
O O1 0.441225 0.218394 0.682428
O O2 0.588895 0.115197 0.869497
O O3 0.500000 0.178973 0.000000
O O4 0.705018 0.226537 0.073585
O O5 0.811340 0.324612 0.323069
O O6 0.954052 0.288680 0.281500
O O7 0.711045 0.330616 0.928671
O O8 0.879582 0.619014 0.638812
O O9 0.810699 0.743141 0.562910
O O10 0.189561 0.500000 0.327471
O O11 0.257856 0.383107 0.287507
O O12 0.000000 0.423594 0.000000
O O13 0.768864 0.138945 0.633400
O O14 0.717215 0.254935 0.709308
O O15 0.500000 0.104588 0.500000
O O16 0.756637 0.080459 0.853332
O O17 0.563114 0.000000 0.715174
O O18 0.805234 0.000000 0.707280
O O19 0.000000 0.915621 0.000000
O O20 0.500000 0.330575 0.500000
#
# Coordination Sequence:
#
# PCOD9152554 Si02
#       8
#     4   4   4   4   4   4   4   4
#     4  12  23  37  55  86 120 157 197 246 308 360
#     4  11  22  38  58  89 120 154 198 245 294 351
#     4  10  23  40  59  87 123 158 195 242 301 357
#     4  10  21  41  65  91 123 157 200 247 292 351
#     4  11  22  35  57  86 114 155 194 248 298 355
#     4  10  21  38  57  79 111 151 201 253 304 364
#     4  10  22  37  57  85 115 150 197 256 310 357
#     4  11  22  36  62  92 120 155 200 245 295 353
#
# _framework density 17.533069000000001
#
# number of rings (size 3 to 8) (size 9 to 14) (size 15 to 20)
#    0.000    1.375    5.000    0.750    3.500    0.500 
#    0.000    1.875    0.000    0.750    0.000    4.375 
#    0.000    0.000    0.000    0.000    0.000    0.000 
#
# Total GULP energy -178461.263488 kJ/mol
# GULP energy per Si atom -5576.914484 kJ/mol
# Density = 1.749316 g / cm^3
# Si number density = 17.533069 Si / 1000 Ang^3
#
#
#
# Elastic Constant Matrix: (Units=GPa)
#
#
# Indices 1 2 3 4 5 6 
#
# 1 109.2582 54.3607 48.8949 0.0000 -0.5812 0.0000
# 2 54.3607 116.9859 45.4037 0.0000 -7.4958 0.0000
# 3 48.8949 45.4037 104.0442 0.0000 -7.6494 0.0000
# 4 0.0000 0.0000 0.0000 19.6227 0.0000 4.0942
# 5 -0.5812 -7.4958 -7.6494 0.0000 32.9876 0.0000
# 6 0.0000 0.0000 0.0000 4.0942 0.0000 12.3228
#
#
#
# Elastic Compliance Matrix: (Units=1/GPa)
#
#
# Indices 1 2 3 4 5 6 
#
# 1 0.013432 -0.004644 -0.004421 0.000000 -0.001844 0.000000
# 2 -0.004644 0.011953 -0.002890 0.000000 0.001964 0.000000
# 3 -0.004421 -0.002890 0.013120 0.000000 0.002308 0.000000
# 4 0.000000 0.000000 0.000000 0.054757 0.000000 -0.018193
# 5 -0.001844 0.001964 0.002308 0.000000 0.031263 0.000000
# 6 0.000000 0.000000 0.000000 -0.018193 0.000000 0.087195
#
#
# Mechanical properties :
#
#
# Convention : Reuss Voigt Hill
#
# Bulk Modulus (GPa) = 68.51350 69.73411 69.12380
# Shear Modulus (GPa) = 20.79045 25.09521 22.94283
#
# Velocity S-wave (km/s) = 3.44726 3.78737 3.62131
# Velocity P-wave (km/s) = 7.41663 7.68015 7.54954
#
# Compressibility (1/GPa) = 0.01459566
#
# Stress axis : x y z
#
# Youngs Moduli (GPa) = 74.44983 83.65986 76.22111
#
# Poissons Ratio (x) = 0.38849 0.33700
# Poissons Ratio (y) = 0.34572 0.22024
# Poissons Ratio (z) = 0.32917 0.24174
#
# Static dielectric constant tensor:
#      x y z
#    x 1.602830 0.000000 0.005170 
#    y 0.000000 1.595650 0.000000 
#    z 0.005170 0.000000 1.600720 
# 
# From -- ./inp_files/30309.got.cif
#   From: 2010.05.17/outbox.cif.g08.bks.cpg/sg10_16_cif.got.tgz:30309.got - 2010.06.03 11:33:40.
