data_PCOD9152477
_publ_section_title
;
Structure prediction by ZEFSAII (Michael W. Deem and Ramdas Pophale) SiO2 
 PCOD9152477
Probable space group: P 2/M
;
_chemical_formula_sum "Si O2"
_cell_formula_units_Z 30
_cell_length_a 16.343008
_cell_length_b 16.368898
_cell_length_c 12.722968
_cell_angle_alpha 90.000000
_cell_angle_beta 26.530710
_cell_angle_gamma 90.000000
_cell_volume 1520.316031
_symmetry_space_group_name_H-M "P 2/M"
_symmetry_group_IT_number 10
_symmetry_cell_setting 'monoclinic'
loop_
_space_group_symop_operation_xyz
x,y,z
-x,y,-z
-x,-y,-z
x,-y,z
loop_
_atom_site_type_symbol
_atom_site_label
_atom_site_fract_x
_atom_site_fract_y
_atom_site_fract_z
Si Si1 0.338666 0.593414 0.369444
Si Si2 0.857860 0.908487 0.857904
Si Si3 0.171174 0.247945 0.242469
Si Si4 0.080836 0.154443 0.795501
Si Si5 0.497050 0.156143 0.381239
Si Si6 0.639088 0.334861 0.168238
Si Si7 0.016628 0.652187 0.102144
Si Si8 0.500000 0.292700 0.000000
O O1 0.345933 0.500000 0.326425
O O2 0.483230 0.609010 0.297871
O O3 0.139874 0.614696 0.644377
O O4 0.400134 0.652029 0.203246
O O5 0.887395 0.838419 0.738356
O O6 0.997092 0.893601 0.794228
O O7 0.873190 0.000000 0.800114
O O8 0.655218 0.891523 0.137916
O O9 0.345124 0.241088 0.118933
O O10 0.000000 0.285017 0.500000
O O11 0.234638 0.304669 0.073821
O O12 0.298840 0.148008 0.556313
O O13 0.015875 0.249083 0.856728
O O14 0.000000 0.125818 0.000000
O O15 0.500000 0.131238 0.500000
O O16 0.547427 0.252217 0.317587
O O17 0.780832 0.368580 0.089838
O O18 0.000000 0.627443 0.000000
#
# Coordination Sequence:
#
# PCOD9152477 Si02
#       8
#     4   4   4   4   4   4   4   2
#     4  11  24  40  62  93 127 155 196 257 315 359
#     4  11  25  39  56  92 129 155 198 253 306 358
#     4  10  21  40  65  87 112 153 206 251 304 361
#     4  11  20  37  62  89 119 169 212 244 288 355
#     4  11  19  36  61  85 118 165 210 244 283 348
#     4  10  21  37  61  91 119 157 206 249 292 359
#     4  11  21  37  64  91 123 168 210 244 287 364
#     4  10  23  42  69  90 112 158 208 256 305 368
#
# _framework density 19.732738999999999
#
# number of rings (size 3 to 8) (size 9 to 14) (size 15 to 20)
#    0.000    1.333    5.333    1.800    0.000    2.133 
#    0.000    1.000    0.000    4.400    0.000    0.000 
#    0.000    0.000    0.000    0.000    0.000    0.000 
#
# Total GULP energy -167664.865959 kJ/mol
# GULP energy per Si atom -5588.828865 kJ/mol
# Density = 1.968783 g / cm^3
# Si number density = 19.732739 Si / 1000 Ang^3
#
#
#
# Elastic Constant Matrix: (Units=GPa)
#
#
# Indices 1 2 3 4 5 6 
#
# 1 118.0275 5.1016 23.9290 0.0000 -23.3271 0.0000
# 2 5.1016 39.4096 -7.5933 0.0000 0.0341 0.0000
# 3 23.9290 -7.5933 77.1624 0.0000 -19.0593 0.0000
# 4 0.0000 0.0000 0.0000 51.2153 0.0000 -2.5769
# 5 -23.3271 0.0341 -19.0593 0.0000 31.2168 0.0000
# 6 0.0000 0.0000 0.0000 -2.5769 0.0000 24.3642
#
#
#
# Elastic Compliance Matrix: (Units=1/GPa)
#
#
# Indices 1 2 3 4 5 6 
#
# 1 0.010188 -0.001652 -0.001697 0.000000 0.006579 0.000000
# 2 -0.001652 0.026219 0.003274 0.000000 0.000736 0.000000
# 3 -0.001697 0.003274 0.015890 0.000000 0.008430 0.000000
# 4 0.000000 0.000000 0.000000 0.019630 0.000000 0.002076
# 5 0.006579 0.000736 0.008430 0.000000 0.042096 0.000000
# 6 0.000000 0.000000 0.000000 0.002076 0.000000 0.041263
#
#
# Mechanical properties :
#
#
# Convention : Reuss Voigt Hill
#
# Bulk Modulus (GPa) = 19.17606 30.83043 25.00325
# Shear Modulus (GPa) = 28.93206 35.57008 32.25107
#
# Velocity S-wave (km/s) = 3.83325 4.25030 4.04715
# Velocity P-wave (km/s) = 5.41578 6.30434 5.87688
#
# Compressibility (1/GPa) = 0.05214835
#
# Stress axis : x y z
#
# Youngs Moduli (GPa) = 98.15146 38.14098 62.93115
#
# Poissons Ratio (x) = 0.06299 0.10680
# Poissons Ratio (y) = 0.16210 -0.20604
# Poissons Ratio (z) = 0.16656 -0.12488
#
# Static dielectric constant tensor:
#      x y z
#    x 1.699980 0.000000 -0.005600 
#    y 0.000000 1.682980 0.000000 
#    z -0.005600 0.000000 1.683090 
# 
# From -- ./inp_files/51875.got.cif
#   From: 2010.05.17/outbox.cif.g08.bks.cpg/sg10_26_cif.got.tgz:51875.got - 2010.06.03 11:33:40.
