data_PCOD9152529
_publ_section_title
;
Structure prediction by ZEFSAII (Michael W. Deem and Ramdas Pophale) SiO2 
 PCOD9152529
Probable space group: P 2/M
;
_chemical_formula_sum "Si O2"
_cell_formula_units_Z 32
_cell_length_a 24.684829
_cell_length_b 8.416155
_cell_length_c 18.348365
_cell_angle_alpha 90.000000
_cell_angle_beta 30.703603
_cell_angle_gamma 90.000000
_cell_volume 1946.343405
_symmetry_space_group_name_H-M "P 2/M"
_symmetry_group_IT_number 10
_symmetry_cell_setting 'monoclinic'
loop_
_space_group_symop_operation_xyz
x,y,z
-x,y,-z
-x,-y,-z
x,-y,z
loop_
_atom_site_type_symbol
_atom_site_label
_atom_site_fract_x
_atom_site_fract_y
_atom_site_fract_z
Si Si1 0.676666 0.807473 0.662396
Si Si2 0.437411 0.192337 0.897680
Si Si3 0.737058 0.307366 0.190991
Si Si4 0.359514 0.189286 0.546768
Si Si5 0.976026 0.306274 0.944672
Si Si6 0.410737 0.309852 0.769367
Si Si7 0.190955 0.309535 0.622453
Si Si8 0.374966 0.815460 0.122869
O O1 0.561151 0.758812 0.764031
O O2 0.766944 0.750087 0.503721
O O3 0.682719 0.747630 0.739043
O O4 0.676464 0.000000 0.664464
O O5 0.395406 0.247723 0.868843
O O6 0.436715 0.000000 0.900946
O O7 0.373845 0.252729 0.042606
O O8 0.735927 0.500000 0.194770
O O9 0.674184 0.246679 0.334285
O O10 0.677960 0.256095 0.185786
O O11 0.859258 0.254205 0.055532
O O12 0.474641 0.253292 0.391403
O O13 0.272763 0.250666 0.589417
O O14 0.361746 0.000000 0.541369
O O15 0.975402 0.500000 0.945524
O O16 0.073143 0.255147 0.781213
O O17 0.000000 0.256212 0.000000
O O18 0.410529 0.500000 0.771245
O O19 0.192383 0.500000 0.621375
O O20 0.341792 0.000000 0.155527
O O21 0.500000 0.816011 0.000000
#
# Coordination Sequence:
#
# PCOD9152529 Si02
#       8
#     4   4   4   4   4   4   4   4
#     4   9  16  28  46  70  99 128 158 193 234 281
#     4   9  16  28  47  69  97 131 161 189 228 282
#     4  10  21  38  54  69  91 125 165 202 241 284
#     4  12  23  34  49  70  98 129 161 197 238 282
#     4   9  17  33  55  71  88 121 162 201 242 287
#     4  11  22  33  49  72  99 128 160 197 236 283
#     4  11  20  31  51  74  97 126 161 198 240 286
#     4   7  12  24  43  66  93 128 161 185 224 283
#
# _framework density 16.441085999999999
#
# number of rings (size 3 to 8) (size 9 to 14) (size 15 to 20)
#    0.000    2.250    2.500    3.750    0.000    2.500 
#    0.000    2.500    0.000    2.250    0.000    0.875 
#    0.000    7.000    0.000    0.000    0.000    0.000 
#
# Total GULP energy -178411.997381 kJ/mol
# GULP energy per Si atom -5575.374918 kJ/mol
# Density = 1.640367 g / cm^3
# Si number density = 16.441086 Si / 1000 Ang^3
#
#
#
# Elastic Constant Matrix: (Units=GPa)
#
#
# Indices 1 2 3 4 5 6 
#
# 1 133.7546 20.1195 89.2554 0.0000 23.5637 0.0000
# 2 20.1195 17.1258 16.2401 0.0000 3.5816 0.0000
# 3 89.2554 16.2401 99.3512 0.0000 32.2946 0.0000
# 4 0.0000 0.0000 0.0000 11.6417 0.0000 15.8249
# 5 23.5637 3.5816 32.2946 0.0000 30.9877 0.0000
# 6 0.0000 0.0000 0.0000 15.8249 0.0000 23.8513
#
#
#
# Elastic Compliance Matrix: (Units=1/GPa)
#
#
# Indices 1 2 3 4 5 6 
#
# 1 0.019873 -0.007042 -0.018230 0.000000 0.004702 0.000000
# 2 -0.007042 0.072276 -0.006825 0.000000 0.004114 0.000000
# 3 -0.018230 -0.006825 0.034475 0.000000 -0.021278 0.000000
# 4 0.000000 0.000000 0.000000 0.875510 0.000000 -0.580885
# 5 0.004702 0.004114 -0.021278 0.000000 0.050395 0.000000
# 6 0.000000 0.000000 0.000000 -0.580885 0.000000 0.427333
#
#
# Mechanical properties :
#
#
# Convention : Reuss Voigt Hill
#
# Bulk Modulus (GPa) = 16.01830 55.71798 35.86814
# Shear Modulus (GPa) = 3.19516 21.60394 12.39955
#
# Velocity S-wave (km/s) = 1.39557 3.62888 2.74921
# Velocity P-wave (km/s) = 3.51580 7.17784 5.65165
#
# Compressibility (1/GPa) = 0.06242860
#
# Stress axis : x y z
#
# Youngs Moduli (GPa) = 50.32032 13.83577 29.00635
#
# Poissons Ratio (x) = 0.09744 0.52880
# Poissons Ratio (y) = 0.35437 0.19797
# Poissons Ratio (z) = 0.91736 0.09443
#
# Static dielectric constant tensor:
#      x y z
#    x 1.555370 0.000000 0.024050 
#    y 0.000000 1.570320 0.000000 
#    z 0.024050 0.000000 1.552510 
# 
# From -- ./inp_files/79950.got.cif
#   From: 2010.05.17/outbox.cif.g08.bks.cpg/sg10_40_cif.got.tgz:79950.got - 2010.06.03 11:33:40.
