data_PCOD9152480
_publ_section_title
;
Structure prediction by ZEFSAII (Michael W. Deem and Ramdas Pophale) SiO2 
 PCOD9152480
Probable space group: P 2/M
;
_chemical_formula_sum "Si O2"
_cell_formula_units_Z 32
_cell_length_a 9.881501
_cell_length_b 13.476131
_cell_length_c 12.479918
_cell_angle_alpha 90.000000
_cell_angle_beta 89.590437
_cell_angle_gamma 90.000000
_cell_volume 1661.838358
_symmetry_space_group_name_H-M "P 2/M"
_symmetry_group_IT_number 10
_symmetry_cell_setting 'monoclinic'
loop_
_space_group_symop_operation_xyz
x,y,z
-x,y,-z
-x,-y,-z
x,-y,z
loop_
_atom_site_type_symbol
_atom_site_label
_atom_site_fract_x
_atom_site_fract_y
_atom_site_fract_z
Si Si1 0.914386 0.107967 0.390652
Si Si2 0.150636 0.259024 0.004324
Si Si3 0.409804 0.891804 0.604700
Si Si4 0.987808 0.320089 0.630645
Si Si5 0.794757 0.388797 0.206923
Si Si6 0.531543 0.273807 0.239449
Si Si7 0.755903 0.379970 0.789800
Si Si8 0.365910 0.889129 0.932532
O O1 0.752718 0.122073 0.410375
O O2 0.000000 0.102499 0.500000
O O3 0.975664 0.206045 0.337622
O O4 0.930598 0.000000 0.336383
O O5 0.173771 0.331687 0.105408
O O6 0.169532 0.319881 0.893933
O O7 0.254014 0.167806 0.002697
O O8 0.000000 0.219294 0.000000
O O9 0.500000 0.902145 0.500000
O O10 0.472318 0.794707 0.657209
O O11 0.423637 0.000000 0.662043
O O12 0.845365 0.351661 0.684266
O O13 0.000000 0.329782 0.500000
O O14 0.100972 0.380116 0.695522
O O15 0.793655 0.500000 0.166111
O O16 0.647481 0.355942 0.247246
O O17 0.390815 0.327031 0.214236
O O18 0.589073 0.190656 0.156840
O O19 0.746823 0.500000 0.798205
O O20 0.321675 0.000000 0.897864
O O21 0.500000 0.900812 0.000000
#
# Coordination Sequence:
#
# PCOD9152480 Si02
#       8
#     4   4   4   4   4   4   4   4
#     4   9  19  38  61  88 121 159 204 255 311 368
#     4  11  23  42  66  95 128 160 211 264 310 368
#     4  10  21  37  61  91 123 163 209 256 307 370
#     4  11  24  42  63  92 127 167 204 258 321 380
#     4  11  23  40  65  91 121 165 213 262 315 367
#     4  11  23  40  61  92 125 163 209 261 311 373
#     4  12  26  43  64  91 125 166 215 268 315 368
#     4  10  21  41  65  92 130 166 196 244 313 382
#
# _framework density 19.255783000000001
#
# number of rings (size 3 to 8) (size 9 to 14) (size 15 to 20)
#    0.000    1.375    3.750    1.500    3.500    1.750 
#    0.000    3.125    0.000    2.250    0.000    0.000 
#    0.000    0.000    0.000    0.000    0.000    0.000 
#
# Total GULP energy -178260.925412 kJ/mol
# GULP energy per Si atom -5570.653919 kJ/mol
# Density = 1.921196 g / cm^3
# Si number density = 19.255783 Si / 1000 Ang^3
#
#
#
# Elastic Constant Matrix: (Units=GPa)
#
#
# Indices 1 2 3 4 5 6 
#
# 1 92.3462 56.3938 12.1348 0.0000 -5.4570 0.0000
# 2 56.3938 125.9423 19.0713 0.0000 -8.4153 0.0000
# 3 12.1348 19.0713 67.7255 0.0000 -9.4682 0.0000
# 4 0.0000 0.0000 0.0000 20.9736 0.0000 4.8389
# 5 -5.4570 -8.4153 -9.4682 0.0000 23.2189 0.0000
# 6 0.0000 0.0000 0.0000 4.8389 0.0000 -3.9646
#
#
#
# Elastic Compliance Matrix: (Units=1/GPa)
#
#
# Indices 1 2 3 4 5 6 
#
# 1 0.014965 -0.006534 -0.000722 0.000000 0.000854 0.000000
# 2 -0.006534 0.011252 -0.001742 0.000000 0.001832 0.000000
# 3 -0.000722 -0.001742 0.016197 0.000000 0.005804 0.000000
# 4 0.000000 0.000000 0.000000 0.037203 0.000000 0.045407
# 5 0.000854 0.001832 0.005804 0.000000 0.046300 0.000000
# 6 0.000000 0.000000 0.000000 0.045407 0.000000 -0.196811
#
#
# Mechanical properties :
#
#
# Convention : Reuss Voigt Hill
#
# Bulk Modulus (GPa) = 40.95364 51.24597 46.09981
# Shear Modulus (GPa) = -111.70678 21.27319 -45.21679
#
# Velocity S-wave (km/s) = -7.62483 3.32741 -4.85110
# Velocity P-wave (km/s) = 7.49686 6.43687 2.71750
#
# Compressibility (1/GPa) = 0.02441785
#
# Stress axis : x y z
#
# Youngs Moduli (GPa) = 66.82462 88.87128 61.74116
#
# Poissons Ratio (x) = 0.58072 0.04456
# Poissons Ratio (y) = 0.43666 0.10753
# Poissons Ratio (z) = 0.04823 0.15478
#
# Static dielectric constant tensor:
#      x y z
#    x 1.647430 0.000000 0.037300 
#    y 0.000000 1.692310 0.000000 
#    z 0.037300 0.000000 1.608120 
# 
# From -- ./inp_files/42973.got.cif
#   From: 2010.05.17/outbox.cif.g08.bks.cpg/sg10_22_cif.got.tgz:42973.got - 2010.06.03 11:33:40.
