data_PCOD9152108
_publ_section_title
;
Structure prediction by ZEFSAII (Michael W. Deem and Ramdas Pophale) SiO2 
 PCOD9152108
Probable space group: P 2/M
;
_chemical_formula_sum "Si O2"
_cell_formula_units_Z 28
_cell_length_a 21.610995
_cell_length_b 14.242590
_cell_length_c 9.385072
_cell_angle_alpha 90.000000
_cell_angle_beta 149.843540
_cell_angle_gamma 90.000000
_cell_volume 1451.172403
_symmetry_space_group_name_H-M "P 2/M"
_symmetry_group_IT_number 10
_symmetry_cell_setting 'monoclinic'
loop_
_space_group_symop_operation_xyz
x,y,z
-x,y,-z
-x,-y,-z
x,-y,z
loop_
_atom_site_type_symbol
_atom_site_label
_atom_site_fract_x
_atom_site_fract_y
_atom_site_fract_z
Si Si1 0.117721 0.611363 0.133549
Si Si2 0.066288 0.253369 0.771942
Si Si3 0.057823 0.894672 0.269437
Si Si4 0.603127 0.897501 0.366834
Si Si5 0.728782 0.893535 0.915559
Si Si6 0.669131 0.145275 0.118353
Si Si7 0.358104 0.707592 0.729924
O O1 0.114701 0.500000 0.104606
O O2 0.247109 0.641073 0.463386
O O3 0.107489 0.668145 0.965701
O O4 0.000000 0.635805 0.000000
O O5 0.000000 0.292892 0.500000
O O6 0.981851 0.181782 0.694566
O O7 0.173305 0.186100 0.926345
O O8 0.205221 0.893569 0.564918
O O9 0.014565 0.000000 0.220766
O O10 0.000000 0.872268 0.000000
O O11 0.634741 0.890574 0.597097
O O12 0.650627 0.803081 0.384828
O O13 0.652479 0.000000 0.419553
O O14 0.455425 0.896494 0.064221
O O15 0.781407 0.000000 0.025170
O O16 0.672542 0.873670 0.957888
O O17 0.663124 0.254241 0.152484
O O18 0.500000 0.673540 0.000000
#
# Coordination Sequence:
#
# PCOD9152108 Si02
#       7
#     4   4   4   4   4   4   4
#     4  11  25  47  71  92 116 149 201 265 325 376
#     4  12  23  38  62  88 120 158 198 252 305 371
#     4  11  23  35  53  83 125 170 208 244 287 348
#     4  10  21  36  57  86 124 167 208 244 285 343
#     4  11  22  35  55  86 126 170 203 236 284 348
#     4  11  21  35  55  84 125 164 207 244 280 342
#     4  10  22  40  64  94 123 160 205 250 304 359
#
# _framework density 19.294744999999999
#
# number of rings (size 3 to 8) (size 9 to 14) (size 15 to 20)
#    0.000    1.143    2.857    4.286    0.000    6.000 
#    0.000    0.000    0.000    0.429    0.000    2.000 
#    0.000    0.000    0.000    0.000    0.000    0.000 
#
# Total GULP energy -156394.808206 kJ/mol
# GULP energy per Si atom -5585.528864 kJ/mol
# Density = 1.925083 g / cm^3
# Si number density = 19.294745 Si / 1000 Ang^3
#
#
#
# Elastic Constant Matrix: (Units=GPa)
#
#
# Indices 1 2 3 4 5 6 
#
# 1 87.3358 35.1502 21.3898 0.0000 -4.6219 0.0000
# 2 35.1502 89.0312 23.7027 0.0000 3.9004 0.0000
# 3 21.3898 23.7027 84.9621 0.0000 -7.5876 0.0000
# 4 0.0000 0.0000 0.0000 15.5258 0.0000 7.9299
# 5 -4.6219 3.9004 -7.5876 0.0000 34.4319 0.0000
# 6 0.0000 0.0000 0.0000 7.9299 0.0000 10.3773
#
#
#
# Elastic Compliance Matrix: (Units=1/GPa)
#
#
# Indices 1 2 3 4 5 6 
#
# 1 0.014102 -0.005143 -0.001932 0.000000 0.002050 0.000000
# 2 -0.005143 0.014169 -0.002921 0.000000 -0.002939 0.000000
# 3 -0.001932 -0.002921 0.013340 0.000000 0.003011 0.000000
# 4 0.000000 0.000000 0.000000 0.105640 0.000000 -0.080727
# 5 0.002050 -0.002939 0.003011 0.000000 0.030314 0.000000
# 6 0.000000 0.000000 0.000000 -0.080727 0.000000 0.158053
#
#
# Mechanical properties :
#
#
# Convention : Reuss Voigt Hill
#
# Bulk Modulus (GPa) = 46.25546 46.86828 46.56187
# Shear Modulus (GPa) = 13.78109 24.13941 18.96025
#
# Velocity S-wave (km/s) = 2.67543 3.54091 3.13815
# Velocity P-wave (km/s) = 5.79388 6.40787 6.10859
#
# Compressibility (1/GPa) = 0.02161907
#
# Stress axis : x y z
#
# Youngs Moduli (GPa) = 70.91391 70.57814 74.96172
#
# Poissons Ratio (x) = 0.36297 0.14486
# Poissons Ratio (y) = 0.36469 0.21893
# Poissons Ratio (z) = 0.13704 0.20613
#
# Static dielectric constant tensor:
#      x y z
#    x 1.703120 0.000000 -0.007660 
#    y 0.000000 1.660210 0.000000 
#    z -0.007660 0.000000 1.723460 
# 
# From -- ./inp_files/35314.got.cif
#   From: 2010.05.17/outbox.cif.g08.bks.cpg/sg10_18_cif.got.tgz:35314.got - 2010.06.03 11:33:40.
