data_PCOD9152956
_publ_section_title
;
Structure prediction by ZEFSAII (Michael W. Deem and Ramdas Pophale) SiO2 
 PCOD9152956
Probable space group: P 2/M
;
_chemical_formula_sum "Si O2"
_cell_formula_units_Z 32
_cell_length_a 25.463627
_cell_length_b 8.207679
_cell_length_c 14.601125
_cell_angle_alpha 90.000000
_cell_angle_beta 150.063507
_cell_angle_gamma 90.000000
_cell_volume 1522.867493
_symmetry_space_group_name_H-M "P 2/M"
_symmetry_group_IT_number 10
_symmetry_cell_setting 'monoclinic'
loop_
_space_group_symop_operation_xyz
x,y,z
-x,y,-z
-x,-y,-z
x,-y,z
loop_
_atom_site_type_symbol
_atom_site_label
_atom_site_fract_x
_atom_site_fract_y
_atom_site_fract_z
Si Si1 0.109748 0.803507 0.707316
Si Si2 0.289957 0.815998 0.333564
Si Si3 0.509764 0.805613 0.117844
Si Si4 0.492455 0.689838 0.380285
Si Si5 0.140519 0.695223 0.962027
Si Si6 0.262977 0.313057 0.481508
Si Si7 0.663170 0.802805 0.997167
Si Si8 0.965328 0.698976 0.845710
O O1 0.121424 0.755246 0.830931
O O2 0.000000 0.741254 0.500000
O O3 0.107791 0.000000 0.699546
O O4 0.215488 0.749391 0.813648
O O5 0.415162 0.797401 0.522788
O O6 0.247364 0.698785 0.348210
O O7 0.259459 0.000000 0.309406
O O8 0.244860 0.765505 0.167402
O O9 0.628186 0.773910 0.330803
O O10 0.418571 0.743101 0.048497
O O11 0.494591 0.000000 0.091268
O O12 0.500000 0.739662 0.000000
O O13 0.500000 0.710734 0.500000
O O14 0.513561 0.500000 0.391502
O O15 0.383953 0.740850 0.170133
O O16 0.147462 0.500000 0.972215
O O17 0.047315 0.746219 0.891066
O O18 0.275061 0.500000 0.527502
O O19 0.153695 0.245637 0.355931
O O20 0.661191 0.000000 0.994109
O O21 0.962579 0.500000 0.844097
O O22 0.000000 0.753569 0.000000
#
# Coordination Sequence:
#
# PCOD9152956 Si02
#       8
#     4   4   4   4   4   4   4   4
#     4  10  23  43  64  88 122 164 207 250 303 362
#     4  12  23  36  57  87 124 160 196 243 306 367
#     4  10  22  40  61  88 122 160 203 250 303 362
#     4  11  23  37  57  88 121 157 202 250 299 358
#     4  11  22  39  63  90 121 160 207 257 305 358
#     4  11  21  37  61  87 118 158 203 249 299 357
#     4  10  21  39  62  87 120 162 200 246 306 360
#     4   9  18  35  58  85 121 161 197 243 310 364
#
# _framework density 21.012989999999999
#
# number of rings (size 3 to 8) (size 9 to 14) (size 15 to 20)
#    0.000    1.500    2.500    3.000    0.000    5.000 
#    0.000    4.375    0.000    0.000    0.000    0.000 
#    0.000    0.000    0.000    0.000    0.000    0.000 
#
# Total GULP energy -178768.420998 kJ/mol
# GULP energy per Si atom -5586.513156 kJ/mol
# Density = 2.096516 g / cm^3
# Si number density = 21.012990 Si / 1000 Ang^3
#
#
#
# Elastic Constant Matrix: (Units=GPa)
#
#
# Indices 1 2 3 4 5 6 
#
# 1 88.4832 9.5833 55.3410 0.0000 7.3949 0.0000
# 2 9.5833 14.9040 5.1131 0.0000 6.9097 0.0000
# 3 55.3410 5.1131 144.0124 0.0000 11.8619 0.0000
# 4 0.0000 0.0000 0.0000 33.9057 0.0000 -5.2126
# 5 7.3949 6.9097 11.8619 0.0000 36.3505 0.0000
# 6 0.0000 0.0000 0.0000 -5.2126 0.0000 19.9981
#
#
#
# Elastic Compliance Matrix: (Units=1/GPa)
#
#
# Indices 1 2 3 4 5 6 
#
# 1 0.015806 -0.008291 -0.005801 0.000000 0.000253 0.000000
# 2 -0.008291 0.078246 0.001535 0.000000 -0.013688 0.000000
# 3 -0.005801 0.001535 0.009295 0.000000 -0.002145 0.000000
# 4 0.000000 0.000000 0.000000 0.030725 0.000000 0.008009
# 5 0.000253 -0.013688 -0.002145 0.000000 0.030760 0.000000
# 6 0.000000 0.000000 0.000000 0.008009 0.000000 0.052092
#
#
# Mechanical properties :
#
#
# Convention : Reuss Voigt Hill
#
# Bulk Modulus (GPa) = 12.78193 43.05273 27.91733
# Shear Modulus (GPa) = 18.64867 29.87500 24.26183
#
# Velocity S-wave (km/s) = 2.98230 3.77469 3.40164
# Velocity P-wave (km/s) = 4.23732 6.28735 5.36123
#
# Compressibility (1/GPa) = 0.07823544
#
# Stress axis : x y z
#
# Youngs Moduli (GPa) = 63.26607 12.78015 107.58433
#
# Poissons Ratio (x) = 0.10596 0.62405
# Poissons Ratio (y) = 0.52454 -0.16518
# Poissons Ratio (z) = 0.36698 -0.01962
#
# Static dielectric constant tensor:
#      x y z
#    x 1.768830 0.000000 0.024890 
#    y 0.000000 1.728760 0.000000 
#    z 0.024890 0.000000 1.761960 
# 
# From -- ./inp_files/71636.got.cif
#   From: 2010.05.17/outbox.cif.g08.bks.cpg/sg10_36_cif.got.tgz:71636.got - 2010.06.03 11:33:40.
