data_PCOD9152708
_publ_section_title
;
Structure prediction by ZEFSAII (Michael W. Deem and Ramdas Pophale) SiO2 
 PCOD9152708
Probable space group: P 2/M
;
_chemical_formula_sum "Si O2"
_cell_formula_units_Z 22
_cell_length_a 12.150676
_cell_length_b 18.638724
_cell_length_c 9.465123
_cell_angle_alpha 90.000000
_cell_angle_beta 36.241406
_cell_angle_gamma 90.000000
_cell_volume 1267.269521
_symmetry_space_group_name_H-M "P 2/M"
_symmetry_group_IT_number 10
_symmetry_cell_setting 'monoclinic'
loop_
_space_group_symop_operation_xyz
x,y,z
-x,y,-z
-x,-y,-z
x,-y,z
loop_
_atom_site_type_symbol
_atom_site_label
_atom_site_fract_x
_atom_site_fract_y
_atom_site_fract_z
Si Si1 0.517218 0.120652 0.310878
Si Si2 0.196431 0.500000 0.717258
Si Si3 0.803352 0.500000 0.622381
Si Si4 0.774513 0.000000 0.398782
Si Si5 0.775640 0.658204 0.235483
Si Si6 0.192823 0.000000 0.977147
Si Si7 0.500000 0.620365 0.000000
Si Si8 0.517235 0.716858 0.257323
O O1 0.500000 0.131237 0.500000
O O2 0.532307 0.197945 0.225469
O O3 0.343162 0.071231 0.445372
O O4 0.695358 0.070987 0.095935
O O5 0.172968 0.500000 0.572234
O O6 0.282784 0.575320 0.676457
O O7 0.000000 0.500000 0.000000
O O8 0.678256 0.568737 0.793443
O O9 0.000000 0.500000 0.500000
O O10 0.981127 0.000000 0.244145
O O11 0.794382 0.000000 0.207380
O O12 0.678790 0.688368 0.195211
O O13 0.679810 0.701986 0.461059
O O14 0.000000 0.663352 0.000000
O O15 0.474302 0.670631 0.891803
#
# Coordination Sequence:
#
# PCOD9152708 Si02
#       8
#     4   2   2   2   4   2   2   4
#     4   9  16  30  48  77 113 139 176 233 274 323
#     4  10  21  38  61  86 104 144 197 235 284 326
#     4  11  25  43  59  82 118 154 195 235 276 348
#     4   8  15  27  48  75 108 145 175 217 277 337
#     4  10  22  37  58  82 110 144 190 243 287 323
#     4   8  15  27  48  77 106 143 179 215 281 333
#     4  11  26  40  60  83 114 160 190 223 296 336
#     4  11  22  38  55  85 117 147 189 235 280 347
#
# _framework density 17.36016
#
# number of rings (size 3 to 8) (size 9 to 14) (size 15 to 20)
#    0.000    2.182    3.636    1.091    5.091    3.636 
#    0.000    0.000    0.000    2.182    0.000    1.273 
#    0.000    0.000    0.000    0.000    0.000    0.000 
#
# Total GULP energy -122645.541555 kJ/mol
# GULP energy per Si atom -5574.797343 kJ/mol
# Density = 1.732065 g / cm^3
# Si number density = 17.360160 Si / 1000 Ang^3
#
#
#
# Elastic Constant Matrix: (Units=GPa)
#
#
# Indices 1 2 3 4 5 6 
#
# 1 85.5196 71.7801 76.7264 0.0000 -12.6815 0.0000
# 2 71.7801 185.5787 58.8884 0.0000 -9.6926 0.0000
# 3 76.7264 58.8884 98.6777 0.0000 -13.4598 0.0000
# 4 0.0000 0.0000 0.0000 -0.0012 0.0000 -8.8725
# 5 -12.6815 -9.6926 -13.4598 0.0000 37.0335 0.0000
# 6 0.0000 0.0000 0.0000 -8.8725 0.0000 -7.2627
#
#
#
# Elastic Compliance Matrix: (Units=1/GPa)
#
#
# Indices 1 2 3 4 5 6 
#
# 1 0.047026 -0.008096 -0.031381 0.000000 0.002579 0.000000
# 2 -0.008096 0.008045 0.001477 0.000000 -0.000130 0.000000
# 3 -0.031381 0.001477 0.033922 0.000000 0.001969 0.000000
# 4 0.000000 0.000000 0.000000 0.092269 0.000000 -0.112720
# 5 0.002579 -0.000130 0.001969 0.000000 0.028567 0.000000
# 6 0.000000 0.000000 0.000000 -0.112720 0.000000 0.000015
#
#
# Mechanical properties :
#
#
# Convention : Reuss Voigt Hill
#
# Bulk Modulus (GPa) = 76.98049 87.17399 82.07724
# Shear Modulus (GPa) = 17.23097 16.77934 17.00515
#
# Velocity S-wave (km/s) = 3.15391 3.11230 3.13317
# Velocity P-wave (km/s) = 7.59620 7.95231 7.77629
#
# Compressibility (1/GPa) = 0.01299030
#
# Stress axis : x y z
#
# Youngs Moduli (GPa) = 21.26486 124.30384 29.47964
#
# Poissons Ratio (x) = 1.00642 0.92511
# Poissons Ratio (y) = 0.17217 -0.04353
# Poissons Ratio (z) = 0.66732 -0.18356
#
# Static dielectric constant tensor:
#      x y z
#    x 1.605910 0.000000 -0.001430 
#    y 0.000000 1.602260 0.000000 
#    z -0.001430 0.000000 1.595830 
# 
# From -- ./inp_files/25635.got.cif
#   From: 2010.05.17/outbox.cif.g08.bks.cpg/sg10_13_cif.got.tgz:25635.got - 2010.06.03 11:33:40.
