data_PCOD9152780
_publ_section_title
;
Structure prediction by ZEFSAII (Michael W. Deem and Ramdas Pophale) SiO2 
 PCOD9152780
Probable space group: P 2/M
;
_chemical_formula_sum "Si O2"
_cell_formula_units_Z 32
_cell_length_a 17.967910
_cell_length_b 14.144108
_cell_length_c 5.780514
_cell_angle_alpha 90.000000
_cell_angle_beta 86.346084
_cell_angle_gamma 90.000000
_cell_volume 1466.073867
_symmetry_space_group_name_H-M "P 2/M"
_symmetry_group_IT_number 10
_symmetry_cell_setting 'monoclinic'
loop_
_space_group_symop_operation_xyz
x,y,z
-x,y,-z
-x,-y,-z
x,-y,z
loop_
_atom_site_type_symbol
_atom_site_label
_atom_site_fract_x
_atom_site_fract_y
_atom_site_fract_z
Si Si1 0.971869 0.111578 0.758554
Si Si2 0.138689 0.611096 0.027842
Si Si3 0.695849 0.753115 0.584326
Si Si4 0.587824 0.723264 0.981462
Si Si5 0.794389 0.894126 0.841981
Si Si6 0.087944 0.609891 0.531822
Si Si7 0.293292 0.392293 0.779566
Si Si8 0.334354 0.892127 0.800295
O O1 0.882530 0.113406 0.802354
O O2 0.000000 0.149441 0.500000
O O3 0.995887 0.000000 0.752377
O O4 0.000000 0.152627 0.000000
O O5 0.114873 0.500000 0.040932
O O6 0.105106 0.648775 0.788654
O O7 0.228069 0.614200 0.982061
O O8 0.117790 0.652493 0.282516
O O9 0.755751 0.808294 0.721381
O O10 0.733475 0.673850 0.421587
O O11 0.660840 0.836246 0.437079
O O12 0.628413 0.704188 0.732228
O O13 0.630175 0.653563 0.148411
O O14 0.615535 0.829527 0.037439
O O15 0.500000 0.714529 0.000000
O O16 0.773943 0.000000 0.755221
O O17 0.752561 0.889432 0.098887
O O18 0.116262 0.500000 0.538197
O O19 0.000000 0.607641 0.500000
O O20 0.302121 0.500000 0.709592
O O21 0.357699 0.000000 0.785947
#
# Coordination Sequence:
#
# PCOD9152780 Si02
#       8
#     4   4   4   4   4   4   4   4
#     4   9  18  30  49  86 130 173 219 264 312 373
#     4   9  18  31  52  83 116 151 199 252 307 374
#     4  10  21  38  62  89 116 162 204 257 308 385
#     4  10  23  42  61  89 125 159 199 253 315 381
#     4   9  18  33  58  90 128 168 207 253 308 375
#     4   9  16  28  50  83 118 149 189 249 314 372
#     4  10  23  40  61  90 117 158 211 265 322 377
#     4   9  19  36  60  93 126 161 202 246 303 376
#
# _framework density 21.827002
#
# number of rings (size 3 to 8) (size 9 to 14) (size 15 to 20)
#    0.000    2.625    0.000    0.750    3.500    5.000 
#    0.000    1.250    0.000    0.750    6.500    0.000 
#    0.000    0.500    0.000    0.000    0.000    0.000 
#
# Total GULP energy -178448.803208 kJ/mol
# GULP energy per Si atom -5576.525100 kJ/mol
# Density = 2.177732 g / cm^3
# Si number density = 21.827002 Si / 1000 Ang^3
#
#
#
# Elastic Constant Matrix: (Units=GPa)
#
#
# Indices 1 2 3 4 5 6 
#
# 1 98.8032 13.4493 31.7540 0.0000 -0.7129 0.0000
# 2 13.4493 85.4064 14.4652 0.0000 5.7607 0.0000
# 3 31.7540 14.4652 115.9841 0.0000 3.6340 0.0000
# 4 0.0000 0.0000 0.0000 13.6544 0.0000 -6.2605
# 5 -0.7129 5.7607 3.6340 0.0000 18.1537 0.0000
# 6 0.0000 0.0000 0.0000 -6.2605 0.0000 15.1104
#
#
#
# Elastic Compliance Matrix: (Units=1/GPa)
#
#
# Indices 1 2 3 4 5 6 
#
# 1 0.011270 -0.001373 -0.002960 0.000000 0.001471 0.000000
# 2 -0.001373 0.012356 -0.001047 0.000000 -0.003765 0.000000
# 3 -0.002960 -0.001047 0.009617 0.000000 -0.001709 0.000000
# 4 0.000000 0.000000 0.000000 0.090411 0.000000 0.037459
# 5 0.001471 -0.003765 -0.001709 0.000000 0.056680 0.000000
# 6 0.000000 0.000000 0.000000 0.037459 0.000000 0.081700
#
#
# Mechanical properties :
#
#
# Convention : Reuss Voigt Hill
#
# Bulk Modulus (GPa) = 44.47944 46.61454 45.54699
# Shear Modulus (GPa) = 17.83882 25.41872 21.62877
#
# Velocity S-wave (km/s) = 2.86192 3.41626 3.15130
# Velocity P-wave (km/s) = 5.59850 6.07979 5.84410
#
# Compressibility (1/GPa) = 0.02248230
#
# Stress axis : x y z
#
# Youngs Moduli (GPa) = 88.73113 80.93102 103.98769
#
# Poissons Ratio (x) = 0.11108 0.30784
# Poissons Ratio (y) = 0.12179 0.10890
# Poissons Ratio (z) = 0.26268 0.08476
#
# Static dielectric constant tensor:
#      x y z
#    x 1.770110 0.000000 0.007710 
#    y 0.000000 1.800740 0.000000 
#    z 0.007710 0.000000 1.900430 
# 
# From -- ./inp_files/11430.got.cif
#   From: 2010.05.17/outbox.cif.g08.bks.cpg/sg10_6_cif.got.tgz:11430.got - 2010.06.03 11:33:40.
