data_PCOD9152410
_publ_section_title
;
Structure prediction by ZEFSAII (Michael W. Deem and Ramdas Pophale) SiO2 
 PCOD9152410
Probable space group: P 2/M
;
_chemical_formula_sum "Si O2"
_cell_formula_units_Z 28
_cell_length_a 22.343648
_cell_length_b 13.704597
_cell_length_c 9.327196
_cell_angle_alpha 90.000000
_cell_angle_beta 150.334255
_cell_angle_gamma 90.000000
_cell_volume 1413.589647
_symmetry_space_group_name_H-M "P 2/M"
_symmetry_group_IT_number 10
_symmetry_cell_setting 'monoclinic'
loop_
_space_group_symop_operation_xyz
x,y,z
-x,y,-z
-x,-y,-z
x,-y,z
loop_
_atom_site_type_symbol
_atom_site_label
_atom_site_fract_x
_atom_site_fract_y
_atom_site_fract_z
Si Si1 0.927852 0.219580 0.707988
Si Si2 0.759269 0.386559 0.236000
Si Si3 0.464485 0.279338 0.087349
Si Si4 0.129182 0.613097 0.835108
Si Si5 0.909436 0.108947 0.179657
Si Si6 0.276683 0.764384 0.291673
Si Si7 0.294437 0.115487 0.626652
O O1 0.861174 0.314882 0.510587
O O2 0.825708 0.139306 0.533117
O O3 0.020580 0.170941 0.792461
O O4 0.000000 0.245465 0.000000
O O5 0.777268 0.500000 0.311347
O O6 0.775656 0.379804 0.098231
O O7 0.634036 0.346680 0.040236
O O8 0.585673 0.269134 0.432178
O O9 0.500000 0.315452 0.000000
O O10 0.403555 0.173131 0.932024
O O11 0.110379 0.500000 0.833869
O O12 0.000000 0.648730 0.500000
O O13 0.187720 0.671842 0.088302
O O14 0.000000 0.105442 0.500000
O O15 0.885979 0.000000 0.078494
O O16 0.782772 0.162210 0.947526
O O17 0.275624 0.825929 0.437814
O O18 0.313856 0.000000 0.649316
#
# Coordination Sequence:
#
# PCOD9152410 Si02
#       7
#     4   4   4   4   4   4   4
#     4  11  21  36  61  90 121 157 200 261 307 369
#     4  10  22  41  62  86 121 163 202 252 313 365
#     4   9  22  39  58  87 119 159 205 259 305 351
#     4  10  22  40  63  89 120 159 202 251 312 380
#     4  11  23  37  58  90 126 162 201 251 311 372
#     4  11  20  35  58  85 116 154 204 248 294 354
#     4  10  21  37  59  88 121 160 205 253 311 368
#
# _framework density 19.807728000000001
#
# number of rings (size 3 to 8) (size 9 to 14) (size 15 to 20)
#    0.000    1.714    1.429    3.000    0.000    5.429 
#    0.000    7.143    0.000    0.857    0.000   16.000 
#    0.000    0.000    0.000    0.000    0.000    0.000 
#
# Total GULP energy -156210.589618 kJ/mol
# GULP energy per Si atom -5578.949629 kJ/mol
# Density = 1.976264 g / cm^3
# Si number density = 19.807728 Si / 1000 Ang^3
#
#
#
# Elastic Constant Matrix: (Units=GPa)
#
#
# Indices 1 2 3 4 5 6 
#
# 1 51.2849 18.1498 -0.9710 0.0000 10.2502 0.0000
# 2 18.1498 136.4596 41.5790 0.0000 -1.3338 0.0000
# 3 -0.9710 41.5790 119.1823 0.0000 4.6396 0.0000
# 4 0.0000 0.0000 0.0000 19.6907 0.0000 -12.3167
# 5 10.2502 -1.3338 4.6396 0.0000 26.0538 0.0000
# 6 0.0000 0.0000 0.0000 -12.3167 0.0000 28.9527
#
#
#
# Elastic Compliance Matrix: (Units=1/GPa)
#
#
# Indices 1 2 3 4 5 6 
#
# 1 0.022724 -0.003674 0.001835 0.000000 -0.009455 0.000000
# 2 -0.003674 0.008817 -0.003202 0.000000 0.002467 0.000000
# 3 0.001835 -0.003202 0.009624 0.000000 -0.002600 0.000000
# 4 0.000000 0.000000 0.000000 0.069199 0.000000 0.029438
# 5 -0.009455 0.002467 -0.002600 0.000000 0.042691 0.000000
# 6 0.000000 0.000000 0.000000 0.029438 0.000000 0.047062
#
#
# Mechanical properties :
#
#
# Convention : Reuss Voigt Hill
#
# Bulk Modulus (GPa) = 32.17265 47.16025 39.66645
# Shear Modulus (GPa) = 22.66975 31.48404 27.07689
#
# Velocity S-wave (km/s) = 3.38670 3.99116 3.70129
# Velocity P-wave (km/s) = 5.61878 6.71564 6.19155
#
# Compressibility (1/GPa) = 0.03108230
#
# Stress axis : x y z
#
# Youngs Moduli (GPa) = 44.00713 113.42362 103.91059
#
# Poissons Ratio (x) = 0.41670 -0.19067
# Poissons Ratio (y) = 0.16168 0.33270
# Poissons Ratio (z) = -0.08075 0.36316
#
# Static dielectric constant tensor:
#      x y z
#    x 1.721200 0.000000 0.011770 
#    y 0.000000 1.708540 0.000000 
#    z 0.011770 0.000000 1.743570 
# 
# From -- ./inp_files/35306.got.cif
#   From: 2010.05.17/outbox.cif.g08.bks.cpg/sg10_18_cif.got.tgz:35306.got - 2010.06.03 11:33:40.
