data_PCOD9152772
_publ_section_title
;
Structure prediction by ZEFSAII (Michael W. Deem and Ramdas Pophale) SiO2 
 PCOD9152772
Probable space group: P 2/M
;
_chemical_formula_sum "Si O2"
_cell_formula_units_Z 20
_cell_length_a 15.862170
_cell_length_b 8.552611
_cell_length_c 24.773993
_cell_angle_alpha 90.000000
_cell_angle_beta 17.045619
_cell_angle_gamma 90.000000
_cell_volume 985.194724
_symmetry_space_group_name_H-M "P 2/M"
_symmetry_group_IT_number 10
_symmetry_cell_setting 'monoclinic'
loop_
_space_group_symop_operation_xyz
x,y,z
-x,y,-z
-x,-y,-z
x,-y,z
loop_
_atom_site_type_symbol
_atom_site_label
_atom_site_fract_x
_atom_site_fract_y
_atom_site_fract_z
Si Si1 0.990550 0.500000 0.309658
Si Si2 0.410393 0.831168 0.310647
Si Si3 0.326799 0.500000 0.727365
Si Si4 0.000000 0.747464 0.000000
Si Si5 0.562447 0.671738 0.815077
Si Si6 0.990819 0.500000 0.829485
Si Si7 0.113437 0.178669 0.289643
O O1 0.664590 0.500000 0.531543
O O2 0.962151 0.500000 0.262581
O O3 0.135801 0.334430 0.238629
O O4 0.738753 0.829557 0.129301
O O5 0.360700 0.708890 0.293452
O O6 0.199393 0.811720 0.490310
O O7 0.343434 0.000000 0.327074
O O8 0.167234 0.356063 0.853496
O O9 0.257122 0.500000 0.706545
O O10 0.684424 0.500000 0.755716
O O11 0.670350 0.794060 0.792703
O O12 0.219450 0.645898 0.027956
O O13 0.146523 0.000000 0.247264
#
# Coordination Sequence:
#
# PCOD9152772 Si02
#       7
#     2   4   2   2   4   2   4
#     4  12  23  43  69  83 126 172 202 262 304 347
#     4  11  22  36  58  93 130 159 198 257 319 375
#     4  11  21  38  66  92 119 155 206 252 320 373
#     4  11  19  36  64  92 118 160 200 255 321 372
#     4  10  21  38  62  87 128 157 203 254 304 364
#     4  10  23  41  63  93 116 162 220 248 300 373
#     4  11  24  40  62  96 126 163 209 250 310 376
#
# _framework density 20.300554000000002
#
# number of rings (size 3 to 8) (size 9 to 14) (size 15 to 20)
#    0.600    0.600    5.000    1.800    2.800    4.000 
#    0.000    3.000    0.000    1.200    0.000    0.000 
#    0.000    0.000    0.000    0.000    0.000    0.000 
#
# Total GULP energy -111469.182374 kJ/mol
# GULP energy per Si atom -5573.459119 kJ/mol
# Density = 2.025435 g / cm^3
# Si number density = 20.300554 Si / 1000 Ang^3
#
#
#
# Elastic Constant Matrix: (Units=GPa)
#
#
# Indices 1 2 3 4 5 6 
#
# 1 86.5890 41.3932 -5.5611 0.0000 -1.1496 0.0000
# 2 41.3932 123.3082 6.6049 0.0000 2.0044 0.0000
# 3 -5.5611 6.6049 39.1573 0.0000 -10.7450 0.0000
# 4 0.0000 0.0000 0.0000 -128.1564 0.0000 -56.2958
# 5 -1.1496 2.0044 -10.7450 0.0000 34.8372 0.0000
# 6 0.0000 0.0000 0.0000 -56.2958 0.0000 0.8242
#
#
#
# Elastic Compliance Matrix: (Units=1/GPa)
#
#
# Indices 1 2 3 4 5 6 
#
# 1 0.014158 -0.004960 0.003336 0.000000 0.001782 0.000000
# 2 -0.004960 0.009952 -0.002824 0.000000 -0.001607 0.000000
# 3 0.003336 -0.002824 0.029019 0.000000 0.009223 0.000000
# 4 0.000000 0.000000 0.000000 -0.000252 0.000000 -0.017190
# 5 0.001782 -0.001607 0.009223 0.000000 0.031701 0.000000
# 6 0.000000 0.000000 0.000000 -0.017190 0.000000 0.039134
#
#
# Mechanical properties :
#
#
# Convention : Reuss Voigt Hill
#
# Bulk Modulus (GPa) = 22.60770 37.10318 29.85544
# Shear Modulus (GPa) = 33.93210 -4.72450 14.60380
#
# Velocity S-wave (km/s) = 4.09282 -1.52720 2.68503
# Velocity P-wave (km/s) = 5.78753 3.89959 4.93469
#
# Compressibility (1/GPa) = 0.04423271
#
# Stress axis : x y z
#
# Youngs Moduli (GPa) = 70.63155 100.47928 34.46009
#
# Poissons Ratio (x) = 0.49841 -0.11497
# Poissons Ratio (y) = 0.35036 0.09732
# Poissons Ratio (z) = -0.23565 0.28378
#
# Static dielectric constant tensor:
#      x y z
#    x 1.679760 0.000000 -0.001780 
#    y 0.000000 1.760700 0.000000 
#    z -0.001780 0.000000 1.726840 
# 
# From -- ./inp_files/89334.got.cif
#   From: 2010.05.17/outbox.cif.g08.bks.cpg/sg10_45_cif.got.tgz:89334.got - 2010.06.03 11:33:40.
