data_PCOD9152527
_publ_section_title
;
Structure prediction by ZEFSAII (Michael W. Deem and Ramdas Pophale) SiO2 
 PCOD9152527
Probable space group: P 2/M
;
_chemical_formula_sum "Si O2"
_cell_formula_units_Z 13
_cell_length_a 7.975071
_cell_length_b 13.304791
_cell_length_c 5.282184
_cell_angle_alpha 90.000000
_cell_angle_beta 83.119811
_cell_angle_gamma 90.000000
_cell_volume 556.438785
_symmetry_space_group_name_H-M "P 2/M"
_symmetry_group_IT_number 10
_symmetry_cell_setting 'monoclinic'
loop_
_space_group_symop_operation_xyz
x,y,z
-x,y,-z
-x,-y,-z
x,-y,z
loop_
_atom_site_type_symbol
_atom_site_label
_atom_site_fract_x
_atom_site_fract_y
_atom_site_fract_z
Si Si1 0.778319 0.104468 0.623663
Si Si2 0.000000 0.000000 0.000000
Si Si3 0.686832 0.293640 0.342035
Si Si4 0.500000 0.172386 0.000000
Si Si5 0.886578 0.500000 0.271335
O O1 0.791495 0.208787 0.475216
O O2 0.588390 0.108342 0.768238
O O3 0.797301 0.000000 0.455677
O O4 0.902275 0.085524 0.836817
O O5 0.500000 0.305551 0.500000
O O6 0.775191 0.399482 0.300520
O O7 0.645426 0.243321 0.081506
O O8 0.000000 0.500000 0.500000
O O9 0.000000 0.500000 0.000000
#
# Coordination Sequence:
#
# PCOD9152527 Si02
#       5
#     4   1   4   2   2
#     4   9  20  40  66 106 143 196 242 303 365 451
#     4   8  20  38  64 100 156 198 232 296 382 438
#     4  10  24  46  75 106 147 199 260 307 372 457
#     4  10  21  37  72 100 148 189 255 304 358 460
#     4  12  31  51  80 112 154 199 252 332 392 453
#
# _framework density 23.362860000000001
#
# number of rings (size 3 to 8) (size 9 to 14) (size 15 to 20)
#    0.923    1.231    0.000    0.923    8.615    9.846 
#    0.000    1.538    0.000    0.923    0.000    0.000 
#    0.000    0.000    0.000    0.000    0.000    0.000 
#
# Total GULP energy -72408.251768 kJ/mol
# GULP energy per Si atom -5569.865521 kJ/mol
# Density = 2.330968 g / cm^3
# Si number density = 23.362860 Si / 1000 Ang^3
#
#
#
# Elastic Constant Matrix: (Units=GPa)
#
#
# Indices 1 2 3 4 5 6 
#
# 1 115.3644 102.3547 49.5446 0.0000 12.6658 0.0000
# 2 102.3547 276.8838 79.4650 0.0000 18.9989 0.0000
# 3 49.5446 79.4650 88.9563 0.0000 31.0875 0.0000
# 4 0.0000 0.0000 0.0000 13.1362 0.0000 6.2910
# 5 12.6658 18.9989 31.0875 0.0000 59.8984 0.0000
# 6 0.0000 0.0000 0.0000 6.2910 0.0000 53.7758
#
#
#
# Elastic Compliance Matrix: (Units=1/GPa)
#
#
# Indices 1 2 3 4 5 6 
#
# 1 0.014029 -0.003932 -0.004520 0.000000 0.000627 0.000000
# 2 -0.003932 0.005996 -0.003411 0.000000 0.000700 0.000000
# 3 -0.004520 -0.003411 0.019660 0.000000 -0.008166 0.000000
# 4 0.000000 0.000000 0.000000 0.080643 0.000000 -0.009434
# 5 0.000627 0.000700 -0.008166 0.000000 0.020578 0.000000
# 6 0.000000 0.000000 0.000000 -0.009434 0.000000 0.019699
#
#
# Mechanical properties :
#
#
# Convention : Reuss Voigt Hill
#
# Bulk Modulus (GPa) = 62.66154 104.88146 83.77150
# Shear Modulus (GPa) = 26.36410 42.01811 34.19111
#
# Velocity S-wave (km/s) = 3.36290 4.24547 3.82970
# Velocity P-wave (km/s) = 6.47750 8.30794 7.44916
#
# Compressibility (1/GPa) = 0.01595875
#
# Stress axis : x y z
#
# Youngs Moduli (GPa) = 71.28068 166.77801 50.86524
#
# Poissons Ratio (x) = 0.65573 0.22992
# Poissons Ratio (y) = 0.28026 0.17350
# Poissons Ratio (z) = 0.32221 0.56888
#
# Static dielectric constant tensor:
#      x y z
#    x 1.908420 0.000000 -0.061110 
#    y 0.000000 1.716760 0.000000 
#    z -0.061110 0.000000 2.027120 
# 
# From -- ./inp_files/2785.got.cif
#   From: 2010.05.17/outbox.cif.g08.bks.cpg/sg10_2_cif.got.tgz:2785.got - 2010.06.03 11:33:40.
