data_PCOD9152549
_publ_section_title
;
Structure prediction by ZEFSAII (Michael W. Deem and Ramdas Pophale) SiO2 
 PCOD9152549
Probable space group: P 2/M
;
_chemical_formula_sum "Si O2"
_cell_formula_units_Z 30
_cell_length_a 12.769303
_cell_length_b 31.312689
_cell_length_c 14.657689
_cell_angle_alpha 90.000000
_cell_angle_beta 160.032627
_cell_angle_gamma 90.000000
_cell_volume 2001.357475
_symmetry_space_group_name_H-M "P 2/M"
_symmetry_group_IT_number 10
_symmetry_cell_setting 'monoclinic'
loop_
_space_group_symop_operation_xyz
x,y,z
-x,y,-z
-x,-y,-z
x,-y,z
loop_
_atom_site_type_symbol
_atom_site_label
_atom_site_fract_x
_atom_site_fract_y
_atom_site_fract_z
Si Si1 0.136566 0.183157 0.714340
Si Si2 0.364744 0.500000 0.788441
Si Si3 0.323377 0.585776 0.023776
Si Si4 0.220826 0.951572 0.591071
Si Si5 0.133016 0.723975 0.710375
Si Si6 0.931419 0.632259 0.552663
Si Si7 0.724712 0.903541 0.095127
Si Si8 0.850020 0.450216 0.777602
O O1 0.040396 0.229581 0.673778
O O2 0.112836 0.142500 0.761329
O O3 0.000000 0.174863 0.500000
O O4 0.500000 0.188318 0.000000
O O5 0.000000 0.500000 0.500000
O O6 0.500000 0.500000 0.000000
O O7 0.489949 0.542145 0.841327
O O8 0.161745 0.602507 0.798888
O O9 0.053956 0.576126 0.874325
O O10 0.578386 0.618281 0.270939
O O11 0.000000 0.949894 0.500000
O O12 0.989719 0.938424 0.322320
O O13 0.335644 0.000000 0.678378
O O14 0.492438 0.917329 0.825842
O O15 0.000000 0.726268 0.500000
O O16 0.996764 0.680584 0.639318
O O17 0.500000 0.718915 0.000000
O O18 0.000000 0.629602 0.500000
O O19 0.500000 0.905207 0.000000
O O20 0.500000 0.435557 0.500000
O O21 0.844174 0.500000 0.741717
O O22 0.000000 0.449042 0.000000
#
# Coordination Sequence:
#
# PCOD9152549 Si02
#       8
#     4   2   4   4   4   4   4   4
#     4   9  15  23  34  46  60  80 112 150 180 214
#     4  12  24  34  46  68  96 120 142 164 191 234
#     4  12  22  36  51  71  91 118 144 170 205 242
#     4   9  15  20  25  34  50  71  95 127 174 230
#     4   9  17  28  41  56  75 102 131 156 188 227
#     4  11  21  33  49  67  95 120 141 164 198 250
#     4   9  14  20  28  38  51  70  99 136 176 215
#     4  10  21  38  57  72  89 111 144 182 211 236
#
# _framework density 14.989826000000001
#
# number of rings (size 3 to 8) (size 9 to 14) (size 15 to 20)
#    0.000    2.000    0.667    7.200    0.000    1.600 
#    0.000    0.000    0.000    0.000    0.000    0.000 
#    0.000    0.000    0.000    0.000    0.000    0.000 
#
# Total GULP energy -167020.779981 kJ/mol
# GULP energy per Si atom -5567.359333 kJ/mol
# Density = 1.495571 g / cm^3
# Si number density = 14.989826 Si / 1000 Ang^3
#
#
#
# Elastic Constant Matrix: (Units=GPa)
#
#
# Indices 1 2 3 4 5 6 
#
# 1 21.8706 20.3845 21.0388 0.0000 4.9356 0.0000
# 2 20.3845 106.3379 40.5979 0.0000 2.6980 0.0000
# 3 21.0388 40.5979 117.9415 0.0000 -6.5833 0.0000
# 4 0.0000 0.0000 0.0000 27.3914 0.0000 -5.9012
# 5 4.9356 2.6980 -6.5833 0.0000 18.8146 0.0000
# 6 0.0000 0.0000 0.0000 -5.9012 0.0000 2.1357
#
#
#
# Elastic Compliance Matrix: (Units=1/GPa)
#
#
# Indices 1 2 3 4 5 6 
#
# 1 0.068299 -0.008627 -0.010347 0.000000 -0.020300 0.000000
# 2 -0.008627 0.012075 -0.002640 0.000000 -0.000392 0.000000
# 3 -0.010347 -0.002640 0.011633 0.000000 0.007163 0.000000
# 4 0.000000 0.000000 0.000000 0.090207 0.000000 0.249257
# 5 -0.020300 -0.000392 0.007163 0.000000 0.061038 0.000000
# 6 0.000000 0.000000 0.000000 0.249257 0.000000 1.156975
#
#
# Mechanical properties :
#
#
# Convention : Reuss Voigt Hill
#
# Bulk Modulus (GPa) = 20.50019 45.57693 33.03856
# Shear Modulus (GPa) = 3.42532 20.61027 12.01780
#
# Velocity S-wave (km/s) = 1.51329 3.71206 2.83456
# Velocity P-wave (km/s) = 4.09380 6.98883 5.72725
#
# Compressibility (1/GPa) = 0.04878003
#
# Stress axis : x y z
#
# Youngs Moduli (GPa) = 14.64150 82.81256 85.96296
#
# Poissons Ratio (x) = 0.71445 0.88945
# Poissons Ratio (y) = 0.12632 0.22690
# Poissons Ratio (z) = 0.15149 0.21859
#
# Static dielectric constant tensor:
#      x y z
#    x 1.444950 0.000000 -0.015330 
#    y 0.000000 1.591110 0.000000 
#    z -0.015330 0.000000 1.509370 
# 
# From -- ./inp_files/65557.got.cif
#   From: 2010.05.17/outbox.cif.g08.bks.cpg/sg10_33_cif.got.tgz:65557.got - 2010.06.03 11:33:40.
