data_PCOD9152356
_publ_section_title
;
Structure prediction by ZEFSAII (Michael W. Deem and Ramdas Pophale) SiO2 
 PCOD9152356
Probable space group: P 2/M
;
_chemical_formula_sum "Si O2"
_cell_formula_units_Z 28
_cell_length_a 12.867178
_cell_length_b 13.961214
_cell_length_c 9.210082
_cell_angle_alpha 90.000000
_cell_angle_beta 69.554353
_cell_angle_gamma 90.000000
_cell_volume 1550.284587
_symmetry_space_group_name_H-M "P 2/M"
_symmetry_group_IT_number 10
_symmetry_cell_setting 'monoclinic'
loop_
_space_group_symop_operation_xyz
x,y,z
-x,y,-z
-x,-y,-z
x,-y,z
loop_
_atom_site_type_symbol
_atom_site_label
_atom_site_fract_x
_atom_site_fract_y
_atom_site_fract_z
Si Si1 0.387429 0.386222 0.646118
Si Si2 0.022061 0.888456 0.662323
Si Si3 0.547996 0.396221 0.818104
Si Si4 0.608828 0.895091 0.544150
Si Si5 0.214355 0.221883 0.722573
Si Si6 0.201877 0.112705 0.036985
Si Si7 0.389733 0.200728 0.150400
O O1 0.500000 0.357558 0.500000
O O2 0.370002 0.500000 0.631088
O O3 0.439511 0.369737 0.778787
O O4 0.272757 0.327202 0.691354
O O5 0.103833 0.807680 0.687891
O O6 0.000000 0.874694 0.500000
O O7 0.911484 0.882927 0.814840
O O8 0.063238 0.000000 0.658522
O O9 0.590346 0.500000 0.744348
O O10 0.633859 0.309365 0.783520
O O11 0.500000 0.407552 0.000000
O O12 0.500000 0.898636 0.500000
O O13 0.693215 0.834275 0.411751
O O14 0.586576 0.855705 0.714129
O O15 0.657061 0.000000 0.539388
O O16 0.201312 0.177206 0.890992
O O17 0.295792 0.152499 0.099456
O O18 0.221618 0.000000 0.989951
O O19 0.500000 0.203633 0.000000
#
# Coordination Sequence:
#
# PCOD9152356 Si02
#       7
#     4   4   4   4   4   4   4
#     4  10  21  37  58  85 115 147 185 230 281 337
#     4  10  22  40  60  82 110 148 192 234 278 332
#     4   9  17  31  51  75 104 138 178 222 268 321
#     4  11  22  33  48  75 110 145 179 219 273 334
#     4  12  21  36  60  81 108 144 189 234 279 335
#     4  11  23  37  55  82 115 151 191 235 284 338
#     4  11  21  34  52  77 111 147 186 230 281 336
#
# _framework density 18.061198999999998
#
# number of rings (size 3 to 8) (size 9 to 14) (size 15 to 20)
#    0.000    1.429    0.000    7.714    0.000    4.571 
#    0.000    0.000    0.000    3.000    0.000    0.000 
#    0.000    0.000    0.000    0.000    0.000    0.000 
#
# Total GULP energy -155966.568019 kJ/mol
# GULP energy per Si atom -5570.234572 kJ/mol
# Density = 1.802009 g / cm^3
# Si number density = 18.061199 Si / 1000 Ang^3
#
#
#
# Elastic Constant Matrix: (Units=GPa)
#
#
# Indices 1 2 3 4 5 6 
#
# 1 99.5924 48.0345 43.4994 0.0000 6.2723 0.0000
# 2 48.0345 92.5925 21.9437 0.0000 1.2158 0.0000
# 3 43.4994 21.9437 90.1189 0.0000 16.5254 0.0000
# 4 0.0000 0.0000 0.0000 27.5230 0.0000 -4.1415
# 5 6.2723 1.2158 16.5254 0.0000 34.5284 0.0000
# 6 0.0000 0.0000 0.0000 -4.1415 0.0000 32.9801
#
#
#
# Elastic Compliance Matrix: (Units=1/GPa)
#
#
# Indices 1 2 3 4 5 6 
#
# 1 0.015995 -0.006856 -0.006098 0.000000 0.000254 0.000000
# 2 -0.006856 0.014433 -0.000373 0.000000 0.000916 0.000000
# 3 -0.006098 -0.000373 0.015265 0.000000 -0.006185 0.000000
# 4 0.000000 0.000000 0.000000 0.037033 0.000000 0.004650
# 5 0.000254 0.000916 -0.006185 0.000000 0.031843 0.000000
# 6 0.000000 0.000000 0.000000 0.004650 0.000000 0.030905
#
#
# Mechanical properties :
#
#
# Convention : Reuss Voigt Hill
#
# Bulk Modulus (GPa) = 52.52320 56.58434 54.55377
# Shear Modulus (GPa) = 28.01517 30.26138 29.13827
#
# Velocity S-wave (km/s) = 3.94270 4.09772 4.02096
# Velocity P-wave (km/s) = 7.06190 7.33387 7.19917
#
# Compressibility (1/GPa) = 0.01903921
#
# Stress axis : x y z
#
# Youngs Moduli (GPa) = 62.51945 69.28516 65.51023
#
# Poissons Ratio (x) = 0.47502 0.39947
# Poissons Ratio (y) = 0.42863 0.02444
# Poissons Ratio (z) = 0.38123 0.02584
#
# Static dielectric constant tensor:
#      x y z
#    x 1.443740 0.000000 -0.001560 
#    y 0.000000 1.747820 0.000000 
#    z -0.001560 0.000000 1.610490 
# 
# From -- ./inp_files/25188.got.cif
#   From: 2010.05.17/outbox.cif.g08.bks.cpg/sg10_13_cif.got.tgz:25188.got - 2010.06.03 11:33:40.
