data_PCOD9152153
_publ_section_title
;
Structure prediction by ZEFSAII (Michael W. Deem and Ramdas Pophale) SiO2 
 PCOD9152153
Probable space group: P 2/M
;
_chemical_formula_sum "Si O2"
_cell_formula_units_Z 24
_cell_length_a 25.391650
_cell_length_b 10.572679
_cell_length_c 5.392417
_cell_angle_alpha 90.000000
_cell_angle_beta 52.658619
_cell_angle_gamma 90.000000
_cell_volume 1150.922337
_symmetry_space_group_name_H-M "P 2/M"
_symmetry_group_IT_number 10
_symmetry_cell_setting 'monoclinic'
loop_
_space_group_symop_operation_xyz
x,y,z
-x,y,-z
-x,-y,-z
x,-y,z
loop_
_atom_site_type_symbol
_atom_site_label
_atom_site_fract_x
_atom_site_fract_y
_atom_site_fract_z
Si Si1 0.966034 0.348936 0.847045
Si Si2 0.814804 0.270465 0.304693
Si Si3 0.369940 0.851838 0.828410
Si Si4 0.776181 0.858633 0.924689
Si Si5 0.441353 0.640685 0.365101
Si Si6 0.674921 0.365522 0.682089
O O1 0.976701 0.500000 0.816593
O O2 0.000000 0.297887 0.500000
O O3 0.887860 0.325070 0.073747
O O4 0.000000 0.297554 0.000000
O O5 0.802226 0.228625 0.625612
O O6 0.753014 0.360523 0.414905
O O7 0.805595 0.167845 0.111573
O O8 0.430765 0.767266 0.554571
O O9 0.384681 0.000000 0.838822
O O10 0.304252 0.851564 0.840814
O O11 0.344808 0.764011 0.125421
O O12 0.793099 0.000000 0.797493
O O13 0.452317 0.500000 0.445361
O O14 0.371591 0.630967 0.422261
O O15 0.500000 0.658621 0.000000
O O16 0.661293 0.500000 0.858317
#
# Coordination Sequence:
#
# PCOD9152153 Si02
#       6
#     4   4   4   4   4   4
#     4  10  21  37  57  86 122 155 190 241 307 370
#     4  11  20  37  62  89 116 160 201 248 302 362
#     4  10  21  37  57  84 117 157 201 253 310 367
#     4  10  21  36  59  88 120 155 201 255 305 355
#     4  10  21  38  58  82 118 158 196 249 313 369
#     4  10  21  37  58  87 115 151 203 255 303 363
#
# _framework density 20.852841000000002
#
# number of rings (size 3 to 8) (size 9 to 14) (size 15 to 20)
#    0.000    1.833    1.667    2.500    0.000    2.333 
#    0.000    5.000    0.000   10.000    0.000    0.000 
#    0.000    0.000    0.000    0.000    0.000    0.000 
#
# Total GULP energy -133695.475421 kJ/mol
# GULP energy per Si atom -5570.644809 kJ/mol
# Density = 2.080538 g / cm^3
# Si number density = 20.852841 Si / 1000 Ang^3
#
#
#
# Elastic Constant Matrix: (Units=GPa)
#
#
# Indices 1 2 3 4 5 6 
#
# 1 111.1223 21.0070 37.1467 0.0000 -3.5292 0.0000
# 2 21.0070 118.1766 43.1112 0.0000 1.5990 0.0000
# 3 37.1467 43.1112 122.4616 0.0000 -17.3823 0.0000
# 4 0.0000 0.0000 0.0000 15.2812 0.0000 1.0904
# 5 -3.5292 1.5990 -17.3823 0.0000 17.7850 0.0000
# 6 0.0000 0.0000 0.0000 1.0904 0.0000 55.6862
#
#
#
# Elastic Compliance Matrix: (Units=1/GPa)
#
#
# Indices 1 2 3 4 5 6 
#
# 1 0.010085 -0.000718 -0.002918 0.000000 -0.000786 0.000000
# 2 -0.000718 0.010141 -0.004066 0.000000 -0.005028 0.000000
# 3 -0.002918 -0.004066 0.012136 0.000000 0.011647 0.000000
# 4 0.000000 0.000000 0.000000 0.065532 0.000000 -0.001283
# 5 -0.000786 -0.005028 0.011647 0.000000 0.067907 0.000000
# 6 0.000000 0.000000 0.000000 -0.001283 0.000000 0.017983
#
#
# Mechanical properties :
#
#
# Convention : Reuss Voigt Hill
#
# Bulk Modulus (GPa) = 58.96841 61.58780 60.27810
# Shear Modulus (GPa) = 24.40941 34.45019 29.42980
#
# Velocity S-wave (km/s) = 3.42505 4.06897 3.76081
# Velocity P-wave (km/s) = 6.63182 7.18846 6.91574
#
# Compressibility (1/GPa) = 0.01695823
#
# Stress axis : x y z
#
# Youngs Moduli (GPa) = 99.15434 98.61177 82.40202
#
# Poissons Ratio (x) = 0.07076 0.24047
# Poissons Ratio (y) = 0.07115 0.33504
# Poissons Ratio (z) = 0.28935 0.40095
#
# Static dielectric constant tensor:
#      x y z
#    x 1.751300 0.000000 0.036910 
#    y 0.000000 1.784910 0.000000 
#    z 0.036910 0.000000 1.771440 
# 
# From -- ./inp_files/13118.got.cif
#   From: 2010.05.17/outbox.cif.g08.bks.cpg/sg10_7_cif.got.tgz:13118.got - 2010.06.03 11:33:40.
