data_PCOD9152788
_publ_section_title
;
Structure prediction by ZEFSAII (Michael W. Deem and Ramdas Pophale) SiO2 
 PCOD9152788
Probable space group: P 2/M
;
_chemical_formula_sum "Si O2"
_cell_formula_units_Z 24
_cell_length_a 15.135109
_cell_length_b 8.667309
_cell_length_c 15.436015
_cell_angle_alpha 90.000000
_cell_angle_beta 140.051096
_cell_angle_gamma 90.000000
_cell_volume 1300.201121
_symmetry_space_group_name_H-M "P 2/M"
_symmetry_group_IT_number 10
_symmetry_cell_setting 'monoclinic'
loop_
_space_group_symop_operation_xyz
x,y,z
-x,y,-z
-x,-y,-z
x,-y,z
loop_
_atom_site_type_symbol
_atom_site_label
_atom_site_fract_x
_atom_site_fract_y
_atom_site_fract_z
Si Si1 0.653355 0.813992 0.143750
Si Si2 0.363656 0.685406 0.179574
Si Si3 0.655499 0.815070 0.646360
Si Si4 0.338965 0.185493 0.650607
Si Si5 0.152573 0.685400 0.360360
Si Si6 0.164866 0.314107 0.872854
O O1 0.679137 0.769239 0.262605
O O2 0.763308 0.748981 0.159318
O O3 0.656005 0.000000 0.141323
O O4 0.500000 0.763145 0.000000
O O5 0.374382 0.500000 0.187915
O O6 0.319355 0.743382 0.240599
O O7 0.512027 0.756655 0.268868
O O8 0.256115 0.733119 0.024277
O O9 0.500000 0.773642 0.500000
O O10 0.761373 0.753184 0.654919
O O11 0.663275 0.000000 0.656870
O O12 0.224801 0.256428 0.502210
O O13 0.335390 0.000000 0.641602
O O14 0.158899 0.500000 0.361627
O O15 0.993400 0.734767 0.237863
O O16 0.167089 0.500000 0.871122
#
# Coordination Sequence:
#
# PCOD9152788 Si02
#       6
#     4   4   4   4   4   4
#     4  10  21  38  62  90 121 160 202 247 298 354
#     4  11  22  38  63  91 119 157 201 246 299 354
#     4  11  23  39  62  91 122 156 200 248 296 357
#     4  11  22  38  61  91 122 155 203 251 294 354
#     4  11  24  42  62  88 124 161 199 246 303 357
#     4  10  24  42  61  90 125 159 199 249 299 356
#
# _framework density 18.458682
#
# number of rings (size 3 to 8) (size 9 to 14) (size 15 to 20)
#    0.000    1.333    3.333    2.000    0.000    5.667 
#    0.000    6.667    0.000    0.000    0.000    0.000 
#    0.000    0.000    0.000    0.000    0.000    0.000 
#
# Total GULP energy -134171.468884 kJ/mol
# GULP energy per Si atom -5590.477870 kJ/mol
# Density = 1.841667 g / cm^3
# Si number density = 18.458682 Si / 1000 Ang^3
#
#
#
# Elastic Constant Matrix: (Units=GPa)
#
#
# Indices 1 2 3 4 5 6 
#
# 1 129.3154 16.0320 45.5177 0.0000 -4.9958 0.0000
# 2 16.0320 23.1586 11.4016 0.0000 0.2977 0.0000
# 3 45.5177 11.4016 97.0638 0.0000 -0.9023 0.0000
# 4 0.0000 0.0000 0.0000 24.1261 0.0000 -6.9848
# 5 -4.9958 0.2977 -0.9023 0.0000 42.1786 0.0000
# 6 0.0000 0.0000 0.0000 -6.9848 0.0000 34.8780
#
#
#
# Elastic Compliance Matrix: (Units=1/GPa)
#
#
# Indices 1 2 3 4 5 6 
#
# 1 0.009785 -0.004812 -0.004013 0.000000 0.001107 0.000000
# 2 -0.004812 0.048206 -0.003415 0.000000 -0.000983 0.000000
# 3 -0.004013 -0.003415 0.012584 0.000000 -0.000182 0.000000
# 4 0.000000 0.000000 0.000000 0.044000 0.000000 0.008812
# 5 0.001107 -0.000983 -0.000182 0.000000 0.023843 0.000000
# 6 0.000000 0.000000 0.000000 0.008812 0.000000 0.030436
#
#
# Mechanical properties :
#
#
# Convention : Reuss Voigt Hill
#
# Bulk Modulus (GPa) = 21.69481 43.93782 32.81632
# Shear Modulus (GPa) = 23.95798 32.00898 27.98348
#
# Velocity S-wave (km/s) = 3.60658 4.16876 3.89782
# Velocity P-wave (km/s) = 5.39647 6.85758 6.17043
#
# Compressibility (1/GPa) = 0.04609396
#
# Stress axis : x y z
#
# Youngs Moduli (GPa) = 102.19760 20.74441 79.46691
#
# Poissons Ratio (x) = 0.09983 0.31890
# Poissons Ratio (y) = 0.49181 0.27137
# Poissons Ratio (z) = 0.41012 0.07084
#
# Static dielectric constant tensor:
#      x y z
#    x 1.596700 0.000000 -0.004070 
#    y 0.000000 1.623790 0.000000 
#    z -0.004070 0.000000 1.624300 
# 
# From -- ./inp_files/66329.got.cif
#   From: 2010.05.17/outbox.cif.g08.bks.cpg/sg10_34_cif.got.tgz:66329.got - 2010.06.03 11:33:40.
