data_PCOD9152890
_publ_section_title
;
Structure prediction by ZEFSAII (Michael W. Deem and Ramdas Pophale) SiO2 
 PCOD9152890
Probable space group: P 2/M
;
_chemical_formula_sum "Si O2"
_cell_formula_units_Z 20
_cell_length_a 5.382242
_cell_length_b 28.594120
_cell_length_c 5.434630
_cell_angle_alpha 90.000000
_cell_angle_beta 81.674320
_cell_angle_gamma 90.000000
_cell_volume 827.577385
_symmetry_space_group_name_H-M "P 2/M"
_symmetry_group_IT_number 10
_symmetry_cell_setting 'monoclinic'
loop_
_space_group_symop_operation_xyz
x,y,z
-x,y,-z
-x,-y,-z
x,-y,z
loop_
_atom_site_type_symbol
_atom_site_label
_atom_site_fract_x
_atom_site_fract_y
_atom_site_fract_z
Si Si1 0.773151 0.550219 0.330904
Si Si2 0.663803 0.050156 0.224868
Si Si3 0.777829 0.849918 0.338731
Si Si4 0.776232 0.650379 0.336083
Si Si5 0.340165 0.249897 0.777513
O O1 0.500000 0.550268 0.500000
O O2 0.785143 0.500000 0.194233
O O3 0.782839 0.600477 0.194124
O O4 0.000000 0.550011 0.500000
O O5 0.500000 0.050564 0.500000
O O6 0.798183 0.100119 0.203420
O O7 0.804683 0.000000 0.217533
O O8 0.500000 0.049335 0.000000
O O9 0.500000 0.850240 0.500000
O O10 0.792307 0.800437 0.199355
O O11 0.000000 0.849029 0.500000
O O12 0.500000 0.651199 0.500000
O O13 0.803269 0.700845 0.208641
O O14 0.000000 0.648310 0.500000
O O15 0.500000 0.249365 0.500000
O O16 0.500000 0.251691 0.000000
#
# Coordination Sequence:
#
# PCOD9152890 Si02
#       5
#     4   4   4   4   4
#     4   8  13  22  40  67  99 135 175 220 270 325
#     4   9  18  35  58  85 117 153 193 237 286 340
#     4  10  21  39  61  87 118 153 194 239 289 343
#     4   9  17  31  50  76 108 143 184 229 279 334
#     4  10  21  39  60  85 116 151 192 237 288 343
#
# _framework density 24.166926
#
# number of rings (size 3 to 8) (size 9 to 14) (size 15 to 20)
#    0.000    2.800    0.000    1.200    0.000    0.400 
#    0.000   28.000    0.000   11.400    0.000    0.000 
#    0.000   35.200    0.000    0.000    0.000    8.400 
#
# Total GULP energy -111475.087189 kJ/mol
# GULP energy per Si atom -5573.754359 kJ/mol
# Density = 2.411192 g / cm^3
# Si number density = 24.166926 Si / 1000 Ang^3
#
#
#
# Elastic Constant Matrix: (Units=GPa)
#
#
# Indices 1 2 3 4 5 6 
#
# 1 149.4926 9.8876 42.6255 0.0000 -17.3466 0.0000
# 2 9.8876 357.9210 20.2783 0.0000 11.3714 0.0000
# 3 42.6255 20.2783 98.9876 0.0000 -12.1613 0.0000
# 4 0.0000 0.0000 0.0000 40.5090 0.0000 135.2998
# 5 -17.3466 11.3714 -12.1613 0.0000 58.2154 0.0000
# 6 0.0000 0.0000 0.0000 135.2998 0.0000 105.6683
#
#
#
# Elastic Compliance Matrix: (Units=1/GPa)
#
#
# Indices 1 2 3 4 5 6 
#
# 1 0.007782 -0.000091 -0.003125 0.000000 0.001684 0.000000
# 2 -0.000091 0.002855 -0.000634 0.000000 -0.000717 0.000000
# 3 -0.003125 -0.000634 0.011781 0.000000 0.001654 0.000000
# 4 0.000000 0.000000 0.000000 -0.007534 0.000000 0.009647
# 5 0.001684 -0.000717 0.001654 0.000000 0.018165 0.000000
# 6 0.000000 0.000000 0.000000 0.009647 0.000000 -0.002888
#
#
# Mechanical properties :
#
#
# Convention : Reuss Voigt Hill
#
# Bulk Modulus (GPa) = 67.94793 83.55379 75.75086
# Shear Modulus (GPa) = 116.91165 76.45253 96.68209
#
# Velocity S-wave (km/s) = 6.96288 5.63062 6.33189
# Velocity P-wave (km/s) = 9.63428 8.77043 9.21249
#
# Compressibility (1/GPa) = 0.01471715
#
# Stress axis : x y z
#
# Youngs Moduli (GPa) = 128.50376 350.24709 84.88185
#
# Poissons Ratio (x) = 0.03201 0.26529
# Poissons Ratio (y) = 0.01174 0.05379
# Poissons Ratio (z) = 0.40163 0.22194
#
# Static dielectric constant tensor:
#      x y z
#    x 1.869060 0.000000 -0.096800 
#    y 0.000000 3.209190 0.000000 
#    z -0.096800 0.000000 1.902680 
# 
# From -- ./inp_files/2244.got.cif
#   From: 2010.05.17/outbox.cif.g08.bks.cpg/sg10_2_cif.got.tgz:2244.got - 2010.06.03 11:33:40.
