data_PCOD9152487
_publ_section_title
;
Structure prediction by ZEFSAII (Michael W. Deem and Ramdas Pophale) SiO2 
 PCOD9152487
Probable space group: P 2/M
;
_chemical_formula_sum "Si O2"
_cell_formula_units_Z 30
_cell_length_a 11.819262
_cell_length_b 21.969477
_cell_length_c 5.235057
_cell_angle_alpha 90.000000
_cell_angle_beta 93.357905
_cell_angle_gamma 90.000000
_cell_volume 1357.016803
_symmetry_space_group_name_H-M "P 2/M"
_symmetry_group_IT_number 10
_symmetry_cell_setting 'monoclinic'
loop_
_space_group_symop_operation_xyz
x,y,z
-x,y,-z
-x,-y,-z
x,-y,z
loop_
_atom_site_type_symbol
_atom_site_label
_atom_site_fract_x
_atom_site_fract_y
_atom_site_fract_z
Si Si1 0.711146 0.343816 0.301474
Si Si2 0.349532 0.567648 0.327461
Si Si3 0.118041 0.807391 0.888860
Si Si4 0.239470 0.770178 0.399258
Si Si5 0.500000 0.345724 0.000000
Si Si6 0.633040 0.890892 0.511340
Si Si7 0.767493 0.068899 0.033586
Si Si8 0.132196 0.569453 0.950151
O O1 0.659349 0.407830 0.388511
O O2 0.735472 0.299466 0.537865
O O3 0.825267 0.369339 0.188838
O O4 0.606370 0.311659 0.141994
O O5 0.392567 0.500000 0.312197
O O6 0.430441 0.612737 0.187464
O O7 0.222031 0.568826 0.195517
O O8 0.207304 0.778790 0.100498
O O9 0.136654 0.879840 0.918897
O O10 0.143867 0.788262 0.601171
O O11 0.000000 0.789723 0.000000
O O12 0.337740 0.818804 0.474768
O O13 0.500000 0.901632 0.500000
O O14 0.699441 0.918722 0.762619
O O15 0.684148 0.918926 0.260322
O O16 0.809548 0.000000 0.043226
O O17 0.143624 0.500000 0.833834
O O18 0.000000 0.575293 0.000000
#
# Coordination Sequence:
#
# PCOD9152487 Si02
#       8
#     4   4   4   4   2   4   4   4
#     4  11  23  39  59  87 116 158 206 258 311 373
#     4  10  21  38  59  85 118 152 196 251 316 378
#     4  10  22  44  65  90 125 166 202 252 310 359
#     4  10  24  41  62  89 125 159 214 256 301 366
#     4  10  23  38  58  86 114 152 199 256 314 376
#     4  10  21  38  57  87 124 171 203 250 310 358
#     4  10  21  37  61  94 126 157 207 255 296 365
#     4   9  20  39  60  86 120 155 198 256 320 383
#
# _framework density 22.107316999999998
#
# number of rings (size 3 to 8) (size 9 to 14) (size 15 to 20)
#    0.000    2.000    0.000    2.200    3.733    6.133 
#    7.200    2.000    0.000    4.800    0.000    0.000 
#    0.000    0.000    0.000    0.000    0.000    0.000 
#
# Total GULP energy -167354.194996 kJ/mol
# GULP energy per Si atom -5578.473167 kJ/mol
# Density = 2.205700 g / cm^3
# Si number density = 22.107317 Si / 1000 Ang^3
#
#
#
# Elastic Constant Matrix: (Units=GPa)
#
#
# Indices 1 2 3 4 5 6 
#
# 1 86.7857 5.0312 0.6975 0.0000 -8.8859 0.0000
# 2 5.0312 87.3980 7.9421 0.0000 8.3303 0.0000
# 3 0.6975 7.9421 54.1838 0.0000 -14.2523 0.0000
# 4 0.0000 0.0000 0.0000 -9.0142 0.0000 30.7439
# 5 -8.8859 8.3303 -14.2523 0.0000 16.9882 0.0000
# 6 0.0000 0.0000 0.0000 30.7439 0.0000 -42.8245
#
#
#
# Elastic Compliance Matrix: (Units=1/GPa)
#
#
# Indices 1 2 3 4 5 6 
#
# 1 0.012614 -0.001904 0.002692 0.000000 0.009790 0.000000
# 2 -0.001904 0.013102 -0.004937 0.000000 -0.011563 0.000000
# 3 0.002692 -0.004937 0.025858 0.000000 0.025523 0.000000
# 4 0.000000 0.000000 0.000000 0.076587 0.000000 0.054982
# 5 0.009790 -0.011563 0.025523 0.000000 0.091067 0.000000
# 6 0.000000 0.000000 0.000000 0.054982 0.000000 0.016121
#
#
# Mechanical properties :
#
#
# Convention : Reuss Voigt Hill
#
# Bulk Modulus (GPa) = 23.10800 28.41213 25.76006
# Shear Modulus (GPa) = 19.37429 7.34304 13.35866
#
# Velocity S-wave (km/s) = 2.96357 1.82449 2.46085
# Velocity P-wave (km/s) = 4.71017 4.16151 4.44431
#
# Compressibility (1/GPa) = 0.04327506
#
# Stress axis : x y z
#
# Youngs Moduli (GPa) = 79.27878 76.32260 38.67251
#
# Poissons Ratio (x) = 0.14530 -0.10409
# Poissons Ratio (y) = 0.15093 0.19094
# Poissons Ratio (z) = -0.21339 0.37684
#
# Static dielectric constant tensor:
#      x y z
#    x 1.839640 0.000000 0.012650 
#    y 0.000000 1.835270 0.000000 
#    z 0.012650 0.000000 1.861650 
# 
# From -- ./inp_files/7735.got.cif
#   From: 2010.05.17/outbox.cif.g08.bks.cpg/sg10_4_cif.got.tgz:7735.got - 2010.06.03 11:33:40.
