data_PCOD9152827
_publ_section_title
;
Structure prediction by ZEFSAII (Michael W. Deem and Ramdas Pophale) SiO2 
 PCOD9152827
Probable space group: P 2/M
;
_chemical_formula_sum "Si O2"
_cell_formula_units_Z 24
_cell_length_a 5.071320
_cell_length_b 24.604777
_cell_length_c 8.929596
_cell_angle_alpha 90.000000
_cell_angle_beta 93.714171
_cell_angle_gamma 90.000000
_cell_volume 1111.883075
_symmetry_space_group_name_H-M "P 2/M"
_symmetry_group_IT_number 10
_symmetry_cell_setting 'monoclinic'
loop_
_space_group_symop_operation_xyz
x,y,z
-x,y,-z
-x,-y,-z
x,-y,z
loop_
_atom_site_type_symbol
_atom_site_label
_atom_site_fract_x
_atom_site_fract_y
_atom_site_fract_z
Si Si1 0.534618 0.345146 0.679195
Si Si2 0.589303 0.058196 0.174666
Si Si3 0.744864 0.438151 0.895520
Si Si4 0.759531 0.104538 0.604237
Si Si5 0.036681 0.277734 0.680309
Si Si6 0.071317 0.168093 0.827959
O O1 0.500000 0.352780 0.500000
O O2 0.655072 0.397856 0.761816
O O3 0.746597 0.297166 0.719303
O O4 0.243636 0.326301 0.716874
O O5 0.339299 0.061418 0.276502
O O6 0.753058 0.114065 0.193890
O O7 0.727129 0.000000 0.210331
O O8 0.500000 0.057550 0.000000
O O9 0.798528 0.500000 0.844301
O O10 0.500000 0.439824 0.000000
O O11 0.000000 0.419797 0.000000
O O12 0.500000 0.115511 0.500000
O O13 0.000000 0.090801 0.500000
O O14 0.828405 0.156101 0.708010
O O15 0.000000 0.267007 0.500000
O O16 0.158894 0.226245 0.771504
O O17 0.000000 0.169407 0.000000
#
# Coordination Sequence:
#
# PCOD9152827 Si02
#       6
#     4   4   4   4   4   4
#     4  10  22  42  64  96 131 176 226 272 333 395
#     4  11  26  48  73 102 139 176 219 281 345 413
#     4  10  21  38  63  96 137 179 221 274 330 383
#     4  12  26  46  72 102 135 170 216 274 333 405
#     4  10  24  41  67  95 134 173 218 284 340 391
#     4  12  26  45  72 101 133 177 231 272 344 418
#
# _framework density 21.585004999999999
#
# number of rings (size 3 to 8) (size 9 to 14) (size 15 to 20)
#    0.000    1.167    3.333    1.500    2.333    4.667 
#    0.000    0.000    0.000    6.000    0.000    0.000 
#    0.000    0.000    0.000    0.000    0.000    0.000 
#
# Total GULP energy -133916.607034 kJ/mol
# GULP energy per Si atom -5579.858626 kJ/mol
# Density = 2.153588 g / cm^3
# Si number density = 21.585005 Si / 1000 Ang^3
#
#
#
# Elastic Constant Matrix: (Units=GPa)
#
#
# Indices 1 2 3 4 5 6 
#
# 1 121.6375 28.5164 52.3783 0.0000 10.7892 0.0000
# 2 28.5164 124.3645 52.1134 0.0000 12.0860 0.0000
# 3 52.3783 52.1134 113.8184 0.0000 2.2664 0.0000
# 4 0.0000 0.0000 0.0000 73.8859 0.0000 4.5186
# 5 10.7892 12.0860 2.2664 0.0000 15.8217 0.0000
# 6 0.0000 0.0000 0.0000 4.5186 0.0000 38.5489
#
#
#
# Elastic Compliance Matrix: (Units=1/GPa)
#
#
# Indices 1 2 3 4 5 6 
#
# 1 0.010934 0.000270 -0.005017 0.000000 -0.006944 0.000000
# 2 0.000270 0.010786 -0.004909 0.000000 -0.007721 0.000000
# 3 -0.005017 -0.004909 0.013238 0.000000 0.005275 0.000000
# 4 0.000000 0.000000 0.000000 0.013632 0.000000 -0.001598
# 5 -0.006944 -0.007721 0.005275 0.000000 0.073081 0.000000
# 6 0.000000 0.000000 0.000000 -0.001598 0.000000 0.026128
#
#
# Mechanical properties :
#
#
# Convention : Reuss Voigt Hill
#
# Bulk Modulus (GPa) = 63.91689 69.53740 66.72714
# Shear Modulus (GPa) = 29.01443 40.77212 34.89327
#
# Velocity S-wave (km/s) = 3.67030 4.35087 4.02500
# Velocity P-wave (km/s) = 6.90199 7.58457 7.25132
#
# Compressibility (1/GPa) = 0.01564532
#
# Stress axis : x y z
#
# Youngs Moduli (GPa) = 91.45599 92.70918 75.54280
#
# Poissons Ratio (x) = -0.02503 0.37901
# Poissons Ratio (y) = -0.02470 0.37086
# Poissons Ratio (z) = 0.45885 0.45513
#
# Static dielectric constant tensor:
#      x y z
#    x 1.860600 0.000000 0.014340 
#    y 0.000000 1.828850 0.000000 
#    z 0.014340 0.000000 1.779630 
# 
# From -- ./inp_files/15569.got.cif
#   From: 2010.05.17/outbox.cif.g08.bks.cpg/sg10_8_cif.got.tgz:15569.got - 2010.06.03 11:33:40.
