data_PCOD9152840
_publ_section_title
;
Structure prediction by ZEFSAII (Michael W. Deem and Ramdas Pophale) SiO2 
 PCOD9152840
Probable space group: P 2/M
;
_chemical_formula_sum "Si O2"
_cell_formula_units_Z 16
_cell_length_a 5.420371
_cell_length_b 22.881164
_cell_length_c 5.250465
_cell_angle_alpha 90.000000
_cell_angle_beta 89.463650
_cell_angle_gamma 90.000000
_cell_volume 651.157228
_symmetry_space_group_name_H-M "P 2/M"
_symmetry_group_IT_number 10
_symmetry_cell_setting 'monoclinic'
loop_
_space_group_symop_operation_xyz
x,y,z
-x,y,-z
-x,-y,-z
x,-y,z
loop_
_atom_site_type_symbol
_atom_site_label
_atom_site_fract_x
_atom_site_fract_y
_atom_site_fract_z
Si Si1 0.750285 0.061752 0.837489
Si Si2 0.159330 0.681114 0.238199
Si Si3 0.749385 0.500000 0.325068
Si Si4 0.500000 0.595228 0.000000
Si Si5 0.746384 0.194406 0.652135
O O1 0.737475 0.126534 0.727485
O O2 0.756728 0.000000 0.681913
O O3 0.500000 0.058485 0.000000
O O4 0.000000 0.061454 0.000000
O O5 0.387108 0.637173 0.218799
O O6 0.239229 0.748308 0.173624
O O7 0.000000 0.678394 0.500000
O O8 0.000000 0.663130 0.000000
O O9 0.500000 0.500000 0.500000
O O10 0.705502 0.554749 0.135168
O O11 0.000000 0.500000 0.500000
O O12 0.500000 0.204991 0.500000
O O13 0.000000 0.197873 0.500000
#
# Coordination Sequence:
#
# PCOD9152840 Si02
#       5
#     4   4   2   2   4
#     4  10  21  38  64  95 136 195 259 321 389 467
#     4  11  29  49  80 118 161 210 270 330 400 480
#     4  11  30  55  85 122 168 212 270 332 400 482
#     4  11  30  50  86 120 165 214 270 332 405 482
#     4  11  25  43  66 104 148 196 258 326 393 467
#
# _framework density 24.571641
#
# number of rings (size 3 to 8) (size 9 to 14) (size 15 to 20)
#    0.000    1.250    0.000    2.250   15.750    2.000 
#    0.000    1.875    0.000    0.000    0.000    0.000 
#    0.000    0.000    0.000    0.000    0.000    0.000 
#
# Total GULP energy -89313.037358 kJ/mol
# GULP energy per Si atom -5582.064835 kJ/mol
# Density = 2.451572 g / cm^3
# Si number density = 24.571641 Si / 1000 Ang^3
#
#
#
# Elastic Constant Matrix: (Units=GPa)
#
#
# Indices 1 2 3 4 5 6 
#
# 1 175.8921 43.3867 45.9847 0.0000 7.9773 0.0000
# 2 43.3867 235.5497 40.4843 0.0000 -7.1695 0.0000
# 3 45.9847 40.4843 83.8270 0.0000 -1.4441 0.0000
# 4 0.0000 0.0000 0.0000 73.1611 0.0000 5.5611
# 5 7.9773 -7.1695 -1.4441 0.0000 52.3741 0.0000
# 6 0.0000 0.0000 0.0000 5.5611 0.0000 93.6297
#
#
#
# Elastic Compliance Matrix: (Units=1/GPa)
#
#
# Indices 1 2 3 4 5 6 
#
# 1 0.006808 -0.000704 -0.003415 0.000000 -0.001227 0.000000
# 2 -0.000704 0.004720 -0.001881 0.000000 0.000701 0.000000
# 3 -0.003415 -0.001881 0.014723 0.000000 0.000669 0.000000
# 4 0.000000 0.000000 0.000000 0.013730 0.000000 -0.000816
# 5 -0.001227 0.000701 0.000669 0.000000 0.019395 0.000000
# 6 0.000000 0.000000 0.000000 -0.000816 0.000000 0.010729
#
#
# Mechanical properties :
#
#
# Convention : Reuss Voigt Hill
#
# Bulk Modulus (GPa) = 70.18118 83.88670 77.03394
# Shear Modulus (GPa) = 57.56697 68.19386 62.88042
#
# Velocity S-wave (km/s) = 4.84552 5.27383 5.06421
# Velocity P-wave (km/s) = 7.74140 8.44383 8.10023
#
# Compressibility (1/GPa) = 0.01424883
#
# Stress axis : x y z
#
# Youngs Moduli (GPa) = 146.89423 211.87572 67.92151
#
# Poissons Ratio (x) = 0.14922 0.23198
# Poissons Ratio (y) = 0.10345 0.12776
# Poissons Ratio (z) = 0.50171 0.39854
#
# Static dielectric constant tensor:
#      x y z
#    x 1.753920 0.000000 -0.099670 
#    y 0.000000 2.086830 0.000000 
#    z -0.099670 0.000000 1.952500 
# 
# From -- ./inp_files/1343.got.cif
#   From: 2010.05.17/outbox.cif.g08.bks.cpg/sg10_1_cif.got.tgz:1343.got - 2010.06.03 11:33:40.
