data_PCOD9152212
_publ_section_title
;
Structure prediction by ZEFSAII (Michael W. Deem and Ramdas Pophale) SiO2 
 PCOD9152212
Probable space group: P 2/M
;
_chemical_formula_sum "Si O2"
_cell_formula_units_Z 28
_cell_length_a 14.410248
_cell_length_b 7.551965
_cell_length_c 19.424036
_cell_angle_alpha 90.000000
_cell_angle_beta 30.850229
_cell_angle_gamma 90.000000
_cell_volume 1083.965001
_symmetry_space_group_name_H-M "P 2/M"
_symmetry_group_IT_number 10
_symmetry_cell_setting 'monoclinic'
loop_
_space_group_symop_operation_xyz
x,y,z
-x,y,-z
-x,-y,-z
x,-y,z
loop_
_atom_site_type_symbol
_atom_site_label
_atom_site_fract_x
_atom_site_fract_y
_atom_site_fract_z
Si Si1 0.454987 0.791251 0.425286
Si Si2 0.244983 0.286925 0.418491
Si Si3 0.807088 0.203118 0.138056
Si Si4 0.114223 0.795820 0.717073
Si Si5 0.897302 0.285861 0.718133
Si Si6 0.427418 0.715808 0.158828
Si Si7 0.230223 0.295111 0.986247
O O1 0.355512 0.777202 0.414700
O O2 0.656243 0.718030 0.284552
O O3 0.310264 0.717493 0.572247
O O4 0.476134 0.000000 0.426946
O O5 0.258372 0.500000 0.410401
O O6 0.326885 0.230076 0.293770
O O7 0.035697 0.244614 0.567410
O O8 0.840730 0.000000 0.138559
O O9 0.727399 0.198572 0.111565
O O10 0.000000 0.291827 0.000000
O O11 0.994418 0.785839 0.723795
O O12 0.979039 0.719375 0.859625
O O13 0.142748 0.000000 0.716063
O O14 0.893379 0.500000 0.729677
O O15 0.697584 0.223804 0.824509
O O16 0.424577 0.500000 0.155595
O O17 0.635636 0.767099 0.038384
O O18 0.273043 0.500000 0.946410
#
# Coordination Sequence:
#
# PCOD9152212 Si02
#       7
#     4   4   4   4   4   4   4
#     4   9  18  34  56  80 107 141 177 217 266 321
#     4   9  15  27  49  76 105 139 180 223 266 313
#     4  10  21  39  63  88 110 134 170 218 274 332
#     4  10  21  37  54  76 111 150 186 220 261 315
#     4   9  17  30  50  75 105 144 187 227 264 307
#     4   9  17  29  48  76 108 141 181 227 269 310
#     4  11  22  37  57  82 111 144 181 222 270 319
#
# _framework density 25.831092999999999
#
# number of rings (size 3 to 8) (size 9 to 14) (size 15 to 20)
#    0.000    2.429    1.429    1.286    0.000    3.143 
#    0.000    5.714    0.000    7.714    0.000    0.000 
#    0.000    0.000    0.000    0.000    0.000    0.000 
#
# Total GULP energy -156490.345176 kJ/mol
# GULP energy per Si atom -5588.940899 kJ/mol
# Density = 2.577230 g / cm^3
# Si number density = 25.831093 Si / 1000 Ang^3
#
#
#
# Elastic Constant Matrix: (Units=GPa)
#
#
# Indices 1 2 3 4 5 6 
#
# 1 100.4792 0.9760 54.3809 0.0000 -8.2322 0.0000
# 2 0.9760 58.0333 10.8450 0.0000 -6.3247 0.0000
# 3 54.3809 10.8450 203.2406 0.0000 -14.9024 0.0000
# 4 0.0000 0.0000 0.0000 21.9473 0.0000 -31.9134
# 5 -8.2322 -6.3247 -14.9024 0.0000 45.8209 0.0000
# 6 0.0000 0.0000 0.0000 -31.9134 0.0000 155.4507
#
#
#
# Elastic Compliance Matrix: (Units=1/GPa)
#
#
# Indices 1 2 3 4 5 6 
#
# 1 0.011707 0.000505 -0.003073 0.000000 0.001173 0.000000
# 2 0.000505 0.017636 -0.000913 0.000000 0.002228 0.000000
# 3 -0.003073 -0.000913 0.005882 0.000000 0.001235 0.000000
# 4 0.000000 0.000000 0.000000 0.064954 0.000000 0.013335
# 5 0.001173 0.002228 0.001235 0.000000 0.022744 0.000000
# 6 0.000000 0.000000 0.000000 0.013335 0.000000 0.009170
#
#
# Mechanical properties :
#
#
# Convention : Reuss Voigt Hill
#
# Bulk Modulus (GPa) = 35.38152 54.90633 45.14393
# Shear Modulus (GPa) = 33.67542 64.34718 49.01130
#
# Velocity S-wave (km/s) = 3.61456 4.99648 4.36061
# Velocity P-wave (km/s) = 5.58096 7.38840 6.54735
#
# Compressibility (1/GPa) = 0.02826334
#
# Stress axis : x y z
#
# Youngs Moduli (GPa) = 85.41995 56.70084 170.01440
#
# Poissons Ratio (x) = -0.02865 0.52251
# Poissons Ratio (y) = -0.04316 0.15521
# Poissons Ratio (z) = 0.26252 0.05176
#
# Static dielectric constant tensor:
#      x y z
#    x 2.059310 0.000000 -0.032430 
#    y 0.000000 1.970450 0.000000 
#    z -0.032430 0.000000 2.051350 
# 
# From -- ./inp_files/84904.got.cif
#   From: 2010.05.17/outbox.cif.g08.bks.cpg/sg10_43_cif.got.tgz:84904.got - 2010.06.03 11:33:40.
