data_PCOD9152370
_publ_section_title
;
Structure prediction by ZEFSAII (Michael W. Deem and Ramdas Pophale) SiO2 
 PCOD9152370
Probable space group: P 2/M
;
_chemical_formula_sum "Si O2"
_cell_formula_units_Z 28
_cell_length_a 7.694668
_cell_length_b 13.544646
_cell_length_c 11.171185
_cell_angle_alpha 90.000000
_cell_angle_beta 65.945198
_cell_angle_gamma 90.000000
_cell_volume 1063.167688
_symmetry_space_group_name_H-M "P 2/M"
_symmetry_group_IT_number 10
_symmetry_cell_setting 'monoclinic'
loop_
_space_group_symop_operation_xyz
x,y,z
-x,y,-z
-x,-y,-z
x,-y,z
loop_
_atom_site_type_symbol
_atom_site_label
_atom_site_fract_x
_atom_site_fract_y
_atom_site_fract_z
Si Si1 0.793700 0.884761 0.081688
Si Si2 0.099910 0.318196 0.591034
Si Si3 0.201156 0.383165 0.135116
Si Si4 0.950223 0.888781 0.293689
Si Si5 0.544802 0.253410 0.606213
Si Si6 0.627704 0.116951 0.796692
Si Si7 0.604101 0.618345 0.157220
O O1 0.583660 0.853542 0.098157
O O2 0.802925 0.884313 0.224752
O O3 0.807337 0.000000 0.039212
O O4 0.000000 0.837735 0.000000
O O5 0.317503 0.334703 0.494166
O O6 0.000000 0.356858 0.500000
O O7 0.984659 0.351582 0.740073
O O8 0.087697 0.199534 0.606398
O O9 0.189678 0.500000 0.127676
O O10 0.392873 0.363919 0.159176
O O11 0.245464 0.350214 0.987154
O O12 0.172550 0.871469 0.189382
O O13 0.944596 0.000000 0.344354
O O14 0.500000 0.191311 0.500000
O O15 0.645951 0.183189 0.673549
O O16 0.390424 0.314414 0.726720
O O17 0.611591 0.000000 0.776720
O O18 0.622346 0.500000 0.174327
#
# Coordination Sequence:
#
# PCOD9152370 Si02
#       7
#     4   4   4   4   4   4   4
#     4   9  19  36  57  84 119 162 215 266 311 368
#     4  12  22  38  61  93 124 153 208 267 308 365
#     4   9  19  38  66  93 120 157 203 257 312 376
#     4  10  21  37  58  86 125 169 210 260 316 370
#     4  12  25  40  60  91 130 166 205 260 318 371
#     4  10  21  38  58  85 125 170 215 261 314 371
#     4   9  19  39  64  91 123 161 202 248 315 386
#
# _framework density 26.336393000000001
#
# number of rings (size 3 to 8) (size 9 to 14) (size 15 to 20)
#    0.000    1.857    2.857    1.714    0.000    4.000 
#    0.000    3.571    0.000    1.714    0.000    0.000 
#    0.000    0.000    0.000    0.000    0.000    0.000 
#
# Total GULP energy -156352.013952 kJ/mol
# GULP energy per Si atom -5584.000498 kJ/mol
# Density = 2.627645 g / cm^3
# Si number density = 26.336393 Si / 1000 Ang^3
#
#
#
# Elastic Constant Matrix: (Units=GPa)
#
#
# Indices 1 2 3 4 5 6 
#
# 1 146.9036 22.8073 43.3762 0.0000 -18.0076 0.0000
# 2 22.8073 90.3004 40.9977 0.0000 -1.6224 0.0000
# 3 43.3762 40.9977 176.9178 0.0000 -21.5241 0.0000
# 4 0.0000 0.0000 0.0000 18.9392 0.0000 2.5825
# 5 -18.0076 -1.6224 -21.5241 0.0000 49.5825 0.0000
# 6 0.0000 0.0000 0.0000 2.5825 0.0000 16.6522
#
#
#
# Elastic Compliance Matrix: (Units=1/GPa)
#
#
# Indices 1 2 3 4 5 6 
#
# 1 0.007663 -0.001300 -0.001313 0.000000 0.002170 0.000000
# 2 -0.001300 0.012634 -0.002762 0.000000 -0.001258 0.000000
# 3 -0.001313 -0.002762 0.006910 0.000000 0.002432 0.000000
# 4 0.000000 0.000000 0.000000 0.053941 0.000000 -0.008365
# 5 0.002170 -0.001258 0.002432 0.000000 0.021971 0.000000
# 6 0.000000 0.000000 0.000000 -0.008365 0.000000 0.061349
#
#
# Mechanical properties :
#
#
# Convention : Reuss Voigt Hill
#
# Bulk Modulus (GPa) = 60.76774 69.83160 65.29967
# Shear Modulus (GPa) = 27.66933 37.49750 32.58342
#
# Velocity S-wave (km/s) = 3.24483 3.77741 3.52120
# Velocity P-wave (km/s) = 6.09609 6.75262 6.43274
#
# Compressibility (1/GPa) = 0.01645610
#
# Stress axis : x y z
#
# Youngs Moduli (GPa) = 130.49910 79.15223 144.71072
#
# Poissons Ratio (x) = 0.10291 0.19007
# Poissons Ratio (y) = 0.16966 0.39968
# Poissons Ratio (z) = 0.17140 0.21861
#
# Static dielectric constant tensor:
#      x y z
#    x 2.238820 0.000000 -0.064950 
#    y 0.000000 2.010590 0.000000 
#    z -0.064950 0.000000 2.135160 
# 
# From -- ./inp_files/42899.got.cif
#   From: 2010.05.17/outbox.cif.g08.bks.cpg/sg10_22_cif.got.tgz:42899.got - 2010.06.03 11:33:40.
