data_PCOD9152540
_publ_section_title
;
Structure prediction by ZEFSAII (Michael W. Deem and Ramdas Pophale) SiO2 
 PCOD9152540
Probable space group: P 2/M
;
_chemical_formula_sum "Si O2"
_cell_formula_units_Z 32
_cell_length_a 18.169065
_cell_length_b 8.740786
_cell_length_c 24.379252
_cell_angle_alpha 90.000000
_cell_angle_beta 30.859256
_cell_angle_gamma 90.000000
_cell_volume 1985.922688
_symmetry_space_group_name_H-M "P 2/M"
_symmetry_group_IT_number 10
_symmetry_cell_setting 'monoclinic'
loop_
_space_group_symop_operation_xyz
x,y,z
-x,y,-z
-x,-y,-z
x,-y,z
loop_
_atom_site_type_symbol
_atom_site_label
_atom_site_fract_x
_atom_site_fract_y
_atom_site_fract_z
Si Si1 0.954653 0.683453 0.138295
Si Si2 0.677066 0.682651 0.243192
Si Si3 0.156441 0.314746 0.182827
Si Si4 0.264443 0.817968 0.911462
Si Si5 0.553589 0.183946 0.526860
Si Si6 0.607747 0.314630 0.061244
Si Si7 0.378883 0.321318 0.125315
Si Si8 0.883543 0.816816 0.303479
O O1 0.968156 0.500000 0.131940
O O2 0.824187 0.723365 0.181143
O O3 0.918195 0.745232 0.221994
O O4 0.104122 0.752482 0.022365
O O5 0.674737 0.500000 0.238090
O O6 0.677306 0.760778 0.183961
O O7 0.545733 0.736362 0.364884
O O8 0.147264 0.500000 0.190752
O O9 0.237167 0.258433 0.186380
O O10 0.002784 0.243916 0.269086
O O11 0.261288 0.277751 0.064290
O O12 0.358454 0.755171 0.901777
O O13 0.259936 0.000000 0.916160
O O14 0.500000 0.225476 0.500000
O O15 0.721264 0.223773 0.423875
O O16 0.538658 0.000000 0.541783
O O17 0.602848 0.500000 0.067910
O O18 0.460758 0.258466 0.126121
O O19 0.349544 0.500000 0.155655
O O20 0.500000 0.318582 0.000000
O O21 0.892440 0.000000 0.293245
#
# Coordination Sequence:
#
# PCOD9152540 Si02
#       8
#     4   4   4   4   4   4   4   4
#     4  11  22  36  53  74 101 133 172 215 254 296
#     4  11  24  39  56  75  97 130 177 222 256 295
#     4   9  16  28  48  73 103 136 170 208 248 296
#     4  12  24  35  51  75 106 139 171 206 254 311
#     4  10  21  38  56  74 101 135 169 210 260 308
#     4   9  16  29  49  72 102 136 171 207 245 296
#     4   7  12  24  44  70  98 133 169 201 245 296
#     4  11  21  32  51  77 105 137 170 206 255 306
#
# _framework density 16.113416999999998
#
# number of rings (size 3 to 8) (size 9 to 14) (size 15 to 20)
#    0.000    2.000    2.500    4.125    0.000    4.250 
#    0.000    0.625    0.000    2.250    0.000    0.875 
#    0.000    7.000    0.000    0.000    0.000    0.000 
#
# Total GULP energy -178516.847505 kJ/mol
# GULP energy per Si atom -5578.651485 kJ/mol
# Density = 1.607674 g / cm^3
# Si number density = 16.113417 Si / 1000 Ang^3
#
#
#
# Elastic Constant Matrix: (Units=GPa)
#
#
# Indices 1 2 3 4 5 6 
#
# 1 157.1477 48.7687 81.6815 0.0000 -22.5150 0.0000
# 2 48.7687 36.5931 33.6302 0.0000 -3.6894 0.0000
# 3 81.6815 33.6302 80.0141 0.0000 0.8459 0.0000
# 4 0.0000 0.0000 0.0000 33.9966 0.0000 0.5763
# 5 -22.5150 -3.6894 0.8459 0.0000 22.5614 0.0000
# 6 0.0000 0.0000 0.0000 0.5763 0.0000 9.1571
#
#
#
# Elastic Compliance Matrix: (Units=1/GPa)
#
#
# Indices 1 2 3 4 5 6 
#
# 1 0.022371 -0.010546 -0.018630 0.000000 0.021299 0.000000
# 2 -0.010546 0.050985 -0.010645 0.000000 -0.001787 0.000000
# 3 -0.018630 -0.010645 0.036220 0.000000 -0.021691 0.000000
# 4 0.000000 0.000000 0.000000 0.029446 0.000000 -0.001853
# 5 0.021299 -0.001787 -0.021691 0.000000 0.066100 0.000000
# 6 0.000000 0.000000 0.000000 -0.001853 0.000000 0.109321
#
#
# Mechanical properties :
#
#
# Convention : Reuss Voigt Hill
#
# Bulk Modulus (GPa) = 33.40648 66.87950 50.14299
# Shear Modulus (GPa) = 12.37432 20.45466 16.41449
#
# Velocity S-wave (km/s) = 2.77420 3.56675 3.19515
# Velocity P-wave (km/s) = 5.57124 7.65231 6.69315
#
# Compressibility (1/GPa) = 0.02993431
#
# Stress axis : x y z
#
# Youngs Moduli (GPa) = 44.70016 19.61371 27.60933
#
# Poissons Ratio (x) = 0.20684 0.51437
# Poissons Ratio (y) = 0.47139 0.29390
# Poissons Ratio (z) = 0.83278 0.20878
#
# Static dielectric constant tensor:
#      x y z
#    x 1.561110 0.000000 -0.022010 
#    y 0.000000 1.540110 0.000000 
#    z -0.022010 0.000000 1.506980 
# 
# From -- ./inp_files/52763.got.cif
#   From: 2010.05.17/outbox.cif.g08.bks.cpg/sg10_27_cif.got.tgz:52763.got - 2010.06.03 11:33:40.
