data_PCOD9152729
_publ_section_title
;
Structure prediction by ZEFSAII (Michael W. Deem and Ramdas Pophale) SiO2 
 PCOD9152729
Probable space group: P 2/M
;
_chemical_formula_sum "Si O2"
_cell_formula_units_Z 28
_cell_length_a 8.601038
_cell_length_b 21.213213
_cell_length_c 15.022345
_cell_angle_alpha 90.000000
_cell_angle_beta 29.996658
_cell_angle_gamma 90.000000
_cell_volume 1370.317412
_symmetry_space_group_name_H-M "P 2/M"
_symmetry_group_IT_number 10
_symmetry_cell_setting 'monoclinic'
loop_
_space_group_symop_operation_xyz
x,y,z
-x,y,-z
-x,-y,-z
x,-y,z
loop_
_atom_site_type_symbol
_atom_site_label
_atom_site_fract_x
_atom_site_fract_y
_atom_site_fract_z
Si Si1 0.763056 0.336158 0.035148
Si Si2 0.372501 0.931248 0.831836
Si Si3 0.131558 0.663842 0.666646
Si Si4 0.259489 0.068752 0.536173
Si Si5 0.761139 0.196449 0.035379
Si Si6 0.184071 0.573034 0.315930
Si Si7 0.128416 0.803551 0.668101
O O1 0.612216 0.265838 0.110975
O O2 0.506365 0.389840 0.166163
O O3 0.000000 0.340988 0.000000
O O4 0.955672 0.340639 0.848109
O O5 0.546438 0.926826 0.651188
O O6 0.434054 0.867143 0.854658
O O7 0.451953 0.000000 0.832113
O O8 0.000000 0.932480 0.000000
O O9 0.500000 0.659012 0.500000
O O10 0.057359 0.734162 0.665832
O O11 0.011218 0.610160 0.661310
O O12 0.500000 0.067520 0.500000
O O13 0.067919 0.132858 0.643368
O O14 0.099757 0.000000 0.616177
O O15 0.000000 0.198038 0.000000
O O16 0.952797 0.190777 0.849067
O O17 0.231913 0.500000 0.268089
O O18 0.000000 0.575552 0.500000
O O19 0.500000 0.801961 0.500000
#
# Coordination Sequence:
#
# PCOD9152729 Si02
#       7
#     4   4   4   4   4   4   4
#     4  10  21  38  61  88 118 153 192 235 284 338
#     4   9  15  21  32  55  90 132 176 222 271 320
#     4  10  21  38  61  88 118 153 192 235 284 338
#     4   9  15  21  32  55  90 132 176 222 271 320
#     4   9  16  26  43  68  98 135 179 224 271 324
#     4  11  25  43  63  89 118 149 188 231 279 340
#     4   9  16  26  43  68  98 135 179 224 271 324
#
# _framework density 20.433222000000001
#
# number of rings (size 3 to 8) (size 9 to 14) (size 15 to 20)
#    0.000    2.429    0.000    4.714    0.000    6.857 
#    0.000    0.000    0.000    0.000    0.000    1.000 
#    0.000    8.000    0.000    0.000    0.000    0.571 
#
# Total GULP energy -156208.858384 kJ/mol
# GULP energy per Si atom -5578.887799 kJ/mol
# Density = 2.038672 g / cm^3
# Si number density = 20.433222 Si / 1000 Ang^3
#
#
#
# Elastic Constant Matrix: (Units=GPa)
#
#
# Indices 1 2 3 4 5 6 
#
# 1 74.1331 73.5417 37.5794 0.0000 -11.2725 0.0000
# 2 73.5417 264.5059 81.2368 0.0000 5.7422 0.0000
# 3 37.5794 81.2368 67.4557 0.0000 6.2833 0.0000
# 4 0.0000 0.0000 0.0000 65.6375 0.0000 -51.5364
# 5 -11.2725 5.7422 6.2833 0.0000 23.8331 0.0000
# 6 0.0000 0.0000 0.0000 -51.5364 0.0000 134.6876
#
#
#
# Elastic Compliance Matrix: (Units=1/GPa)
#
#
# Indices 1 2 3 4 5 6 
#
# 1 0.025386 -0.004135 -0.010635 0.000000 0.015807 0.000000
# 2 -0.004135 0.006678 -0.005543 0.000000 -0.002103 0.000000
# 3 -0.010635 -0.005543 0.028468 0.000000 -0.011200 0.000000
# 4 0.000000 0.000000 0.000000 0.021778 0.000000 0.008333
# 5 0.015807 -0.002103 -0.011200 0.000000 0.052894 0.000000
# 6 0.000000 0.000000 0.000000 0.008333 0.000000 0.010613
#
#
# Mechanical properties :
#
#
# Convention : Reuss Voigt Hill
#
# Bulk Modulus (GPa) = 50.23606 87.86782 69.05194
# Shear Modulus (GPa) = 25.89590 59.08076 42.48833
#
# Velocity S-wave (km/s) = 3.56384 5.38301 4.56496
# Velocity P-wave (km/s) = 6.44775 9.04055 7.85191
#
# Compressibility (1/GPa) = 0.01990602
#
# Stress axis : x y z
#
# Youngs Moduli (GPa) = 39.39178 149.73444 35.12663
#
# Poissons Ratio (x) = 0.61916 0.37357
# Poissons Ratio (y) = 0.16289 0.19472
# Poissons Ratio (z) = 0.41893 0.83003
#
# Static dielectric constant tensor:
#      x y z
#    x 1.781660 0.000000 -0.056390 
#    y 0.000000 1.781460 0.000000 
#    z -0.056390 0.000000 1.706110 
# 
# From -- ./inp_files/62568.got.cif
#   From: 2010.05.17/outbox.cif.g08.bks.cpg/sg10_32_cif.got.tgz:62568.got - 2010.06.03 11:33:40.
