data_PCOD9152047
_publ_section_title
;
Structure prediction by ZEFSAII (Michael W. Deem and Ramdas Pophale) SiO2 
 PCOD9152047
Probable space group: P 2/M
;
_chemical_formula_sum "Si O2"
_cell_formula_units_Z 22
_cell_length_a 20.236306
_cell_length_b 10.147393
_cell_length_c 5.586889
_cell_angle_alpha 90.000000
_cell_angle_beta 95.753976
_cell_angle_gamma 90.000000
_cell_volume 1141.463595
_symmetry_space_group_name_H-M "P 2/M"
_symmetry_group_IT_number 10
_symmetry_cell_setting 'monoclinic'
loop_
_space_group_symop_operation_xyz
x,y,z
-x,y,-z
-x,-y,-z
x,-y,z
loop_
_atom_site_type_symbol
_atom_site_label
_atom_site_fract_x
_atom_site_fract_y
_atom_site_fract_z
Si Si1 0.642534 0.658693 0.579339
Si Si2 0.787128 0.647164 0.445117
Si Si3 0.422497 0.339697 0.945591
Si Si4 0.000000 0.755245 0.500000
Si Si5 0.912157 0.641952 0.844963
Si Si6 0.127967 0.849022 0.790165
O O1 0.632967 0.500000 0.581744
O O2 0.720488 0.681577 0.563313
O O3 0.605641 0.705885 0.322686
O O4 0.615953 0.706509 0.827743
O O5 0.776967 0.500000 0.330475
O O6 0.849392 0.636461 0.644456
O O7 0.809881 0.761229 0.273874
O O8 0.417372 0.500000 0.940153
O O9 0.500000 0.306515 0.000000
O O10 0.977715 0.663647 0.711413
O O11 0.934493 0.838611 0.415147
O O12 0.913000 0.500000 0.973733
O O13 0.900415 0.770876 0.994958
O O14 0.144857 0.000000 0.838758
#
# Coordination Sequence:
#
# PCOD9152047 Si02
#       6
#     4   4   4   2   4   4
#     4   9  17  28  47  72 106 148 186 223 273 331
#     4   9  20  36  54  76 104 143 184 225 271 328
#     4   9  16  26  43  72 110 148 182 220 272 333
#     4  10  22  38  56  76 102 136 178 222 272 336
#     4  10  21  36  56  79 105 136 178 225 274 330
#     4  11  23  37  55  77 105 139 177 225 279 332
#
# _framework density 19.273499999999999
#
# number of rings (size 3 to 8) (size 9 to 14) (size 15 to 20)
#    0.000    2.364    0.000    2.182    2.545    9.455 
#    0.000    0.000    0.000    0.000    0.000    0.000 
#    0.000    4.364    0.000    0.000    0.000    0.000 
#
# Total GULP energy -122604.471888 kJ/mol
# GULP energy per Si atom -5572.930540 kJ/mol
# Density = 1.922963 g / cm^3
# Si number density = 19.273500 Si / 1000 Ang^3
#
#
#
# Elastic Constant Matrix: (Units=GPa)
#
#
# Indices 1 2 3 4 5 6 
#
# 1 72.5295 17.5830 20.5196 0.0000 -26.7028 0.0000
# 2 17.5830 106.5505 31.0204 0.0000 -17.1994 0.0000
# 3 20.5196 31.0204 84.2502 0.0000 -27.6518 0.0000
# 4 0.0000 0.0000 0.0000 5.5723 0.0000 10.6674
# 5 -26.7028 -17.1994 -27.6518 0.0000 32.1786 0.0000
# 6 0.0000 0.0000 0.0000 10.6674 0.0000 -30.9643
#
#
#
# Elastic Compliance Matrix: (Units=1/GPa)
#
#
# Indices 1 2 3 4 5 6 
#
# 1 0.019958 -0.000850 0.001029 0.000000 0.016992 0.000000
# 2 -0.000850 0.010789 -0.002931 0.000000 0.002543 0.000000
# 3 0.001029 -0.002931 0.017360 0.000000 0.014205 0.000000
# 4 0.000000 0.000000 0.000000 0.108140 0.000000 0.037255
# 5 0.016992 0.002543 0.014205 0.000000 0.058743 0.000000
# 6 0.000000 0.000000 0.000000 0.037255 0.000000 -0.019461
#
#
# Mechanical properties :
#
#
# Convention : Reuss Voigt Hill
#
# Bulk Modulus (GPa) = 23.47230 44.61959 34.04594
# Shear Modulus (GPa) = 23.23040 14.30446 18.76743
#
# Velocity S-wave (km/s) = 3.47551 2.72726 3.12387
# Velocity P-wave (km/s) = 5.32077 5.75485 5.54206
#
# Compressibility (1/GPa) = 0.04260341
#
# Stress axis : x y z
#
# Youngs Moduli (GPa) = 50.10455 92.68477 57.60260
#
# Poissons Ratio (x) = 0.07881 -0.05927
# Poissons Ratio (y) = 0.04260 0.16883
# Poissons Ratio (z) = -0.05156 0.27165
#
# Static dielectric constant tensor:
#      x y z
#    x 1.679930 0.000000 0.027090 
#    y 0.000000 1.650520 0.000000 
#    z 0.027090 0.000000 1.749060 
# 
# From -- ./inp_files/12031.got.cif
#   From: 2010.05.17/outbox.cif.g08.bks.cpg/sg10_7_cif.got.tgz:12031.got - 2010.06.03 11:33:40.
