data_PCOD9152589
_publ_section_title
;
Structure prediction by ZEFSAII (Michael W. Deem and Ramdas Pophale) SiO2 
 PCOD9152589
Probable space group: P 2/M
;
_chemical_formula_sum "Si O2"
_cell_formula_units_Z 32
_cell_length_a 12.252700
_cell_length_b 14.101274
_cell_length_c 18.187312
_cell_angle_alpha 90.000000
_cell_angle_beta 151.752193
_cell_angle_gamma 90.000000
_cell_volume 1487.244192
_symmetry_space_group_name_H-M "P 2/M"
_symmetry_group_IT_number 10
_symmetry_cell_setting 'monoclinic'
loop_
_space_group_symop_operation_xyz
x,y,z
-x,y,-z
-x,-y,-z
x,-y,z
loop_
_atom_site_type_symbol
_atom_site_label
_atom_site_fract_x
_atom_site_fract_y
_atom_site_fract_z
Si Si1 0.332798 0.393174 0.840636
Si Si2 0.828403 0.189207 0.582846
Si Si3 0.897263 0.109021 0.770684
Si Si4 0.464568 0.390321 0.758172
Si Si5 0.321581 0.887685 0.825656
Si Si6 0.408136 0.889738 0.269926
Si Si7 0.676982 0.201457 0.924698
Si Si8 0.203432 0.395780 0.447501
O O1 0.428764 0.500000 0.891778
O O2 0.324809 0.367057 0.750156
O O3 0.073432 0.397437 0.713467
O O4 0.500000 0.343277 0.000000
O O5 0.782573 0.118872 0.623259
O O6 0.649165 0.165085 0.412429
O O7 0.759799 0.294848 0.568750
O O8 0.087783 0.169057 0.708049
O O9 0.733617 0.134031 0.741144
O O10 0.978232 0.000000 0.827140
O O11 0.108007 0.182893 0.894754
O O12 0.548899 0.500000 0.810092
O O13 0.653152 0.307495 0.878528
O O14 0.312072 0.385177 0.593913
O O15 0.454788 0.838948 0.836483
O O16 0.270109 0.000000 0.781108
O O17 0.500000 0.885894 0.000000
O O18 0.275136 0.863752 0.117408
O O19 0.456263 0.000000 0.299946
O O20 0.279794 0.500000 0.464526
#
# Coordination Sequence:
#
# PCOD9152589 Si02
#       8
#     4   4   4   4   4   4   4   4
#     4   9  18  31  54  86 118 159 211 257 299 359
#     4  12  23  40  66  96 127 169 211 257 315 384
#     4  11  24  43  68  92 125 167 211 265 322 373
#     4  10  21  38  58  84 125 171 211 258 313 373
#     4  11  23  39  61  92 136 174 198 243 321 395
#     4  11  24  43  66  94 123 161 219 271 308 367
#     4  12  23  40  66  96 127 169 211 257 315 384
#     4  10  21  38  58  84 125 171 211 258 313 373
#
# _framework density 21.516306
#
# number of rings (size 3 to 8) (size 9 to 14) (size 15 to 20)
#    0.000    1.250    2.500    4.125    1.750    5.000 
#    0.000    1.250    0.000    4.500    0.000    0.000 
#    0.000    0.000    0.000    0.000    0.000    0.000 
#
# Total GULP energy -178385.932603 kJ/mol
# GULP energy per Si atom -5574.560394 kJ/mol
# Density = 2.146733 g / cm^3
# Si number density = 21.516306 Si / 1000 Ang^3
#
#
#
# Elastic Constant Matrix: (Units=GPa)
#
#
# Indices 1 2 3 4 5 6 
#
# 1 48.8272 22.8763 -5.4285 0.0000 -6.9417 0.0000
# 2 22.8763 132.3437 20.7338 0.0000 8.0766 0.0000
# 3 -5.4285 20.7338 67.5024 0.0000 -3.5772 0.0000
# 4 0.0000 0.0000 0.0000 22.4568 0.0000 -7.9995
# 5 -6.9417 8.0766 -3.5772 0.0000 22.2618 0.0000
# 6 0.0000 0.0000 0.0000 -7.9995 0.0000 -2.1156
#
#
#
# Elastic Compliance Matrix: (Units=1/GPa)
#
#
# Indices 1 2 3 4 5 6 
#
# 1 0.025119 -0.005665 0.004321 0.000000 0.010582 0.000000
# 2 -0.005665 0.009463 -0.003669 0.000000 -0.005789 0.000000
# 3 0.004321 -0.003669 0.016572 0.000000 0.005341 0.000000
# 4 0.000000 0.000000 0.000000 0.018974 0.000000 -0.071743
# 5 0.010582 -0.005789 0.005341 0.000000 0.051178 0.000000
# 6 0.000000 0.000000 0.000000 -0.071743 0.000000 -0.201403
#
#
# Mechanical properties :
#
#
# Convention : Reuss Voigt Hill
#
# Bulk Modulus (GPa) = 24.31404 36.11516 30.21460
# Shear Modulus (GPa) = -88.71454 22.55338 -33.08058
#
# Velocity S-wave (km/s) = -6.42813 3.24110 -3.92531
# Velocity P-wave (km/s) = 6.61586 5.55228 2.54380
#
# Compressibility (1/GPa) = 0.04112850
#
# Stress axis : x y z
#
# Youngs Moduli (GPa) = 39.81005 105.67040 60.34346
#
# Poissons Ratio (x) = 0.59859 -0.26073
# Poissons Ratio (y) = 0.22551 0.22141
# Poissons Ratio (z) = -0.17201 0.38771
#
# Static dielectric constant tensor:
#      x y z
#    x 1.784160 0.000000 0.016820 
#    y 0.000000 1.862850 0.000000 
#    z 0.016820 0.000000 1.747870 
# 
# From -- ./inp_files/76987.got.cif
#   From: 2010.05.17/outbox.cif.g08.bks.cpg/sg10_39_cif.got.tgz:76987.got - 2010.06.03 11:33:40.
