data_PCOD9152335
_publ_section_title
;
Structure prediction by ZEFSAII (Michael W. Deem and Ramdas Pophale) SiO2 
 PCOD9152335
Probable space group: P 2/M
;
_chemical_formula_sum "Si O2"
_cell_formula_units_Z 28
_cell_length_a 14.527711
_cell_length_b 7.456677
_cell_length_c 19.511986
_cell_angle_alpha 90.000000
_cell_angle_beta 35.319805
_cell_angle_gamma 90.000000
_cell_volume 1222.015712
_symmetry_space_group_name_H-M "P 2/M"
_symmetry_group_IT_number 10
_symmetry_cell_setting 'monoclinic'
loop_
_space_group_symop_operation_xyz
x,y,z
-x,y,-z
-x,-y,-z
x,-y,z
loop_
_atom_site_type_symbol
_atom_site_label
_atom_site_fract_x
_atom_site_fract_y
_atom_site_fract_z
Si Si1 0.514290 0.216905 0.681230
Si Si2 0.970810 0.713442 0.298908
Si Si3 0.163384 0.781418 0.934331
Si Si4 0.602985 0.217139 0.781279
Si Si5 0.354650 0.705446 0.545718
Si Si6 0.743171 0.215414 0.971660
Si Si7 0.046975 0.292559 0.398864
O O1 0.327797 0.269981 0.797159
O O2 0.589738 0.269619 0.708810
O O3 0.597577 0.291310 0.563331
O O4 0.521673 0.000000 0.673284
O O5 0.944345 0.500000 0.320331
O O6 0.140141 0.736949 0.160283
O O7 0.976098 0.788151 0.372749
O O8 0.822583 0.786334 0.344910
O O9 0.161111 0.000000 0.935263
O O10 0.180998 0.723553 0.002400
O O11 0.000000 0.718748 0.000000
O O12 0.762215 0.286926 0.718978
O O13 0.608962 0.000000 0.779251
O O14 0.439891 0.276436 0.917028
O O15 0.500000 0.789497 0.500000
O O16 0.341761 0.500000 0.578727
O O17 0.736274 0.000000 0.978468
O O18 0.993801 0.500000 0.433245
O O19 0.000000 0.208241 0.500000
#
# Coordination Sequence:
#
# PCOD9152335 Si02
#       7
#     4   4   4   4   4   4   4
#     4   9  18  33  54  80 105 133 176 222 263 315
#     4  10  22  38  54  77 110 142 179 227 269 318
#     4   8  15  29  51  77 104 135 172 217 262 307
#     4   9  19  36  56  82 113 140 173 222 274 319
#     4  10  22  38  54  74 107 147 179 218 274 323
#     4   9  19  35  55  80 110 143 178 217 268 325
#     4  10  21  37  58  81 105 142 188 224 264 320
#
# _framework density 22.912960999999999
#
# number of rings (size 3 to 8) (size 9 to 14) (size 15 to 20)
#    0.000    2.714    0.000    2.571    2.000    4.571 
#    0.000    5.000    0.000    0.857    0.000    0.000 
#    0.000    0.000    0.000    0.000    0.000    0.000 
#
# Total GULP energy -156381.911772 kJ/mol
# GULP energy per Si atom -5585.068278 kJ/mol
# Density = 2.286081 g / cm^3
# Si number density = 22.912961 Si / 1000 Ang^3
#
#
#
# Elastic Constant Matrix: (Units=GPa)
#
#
# Indices 1 2 3 4 5 6 
#
# 1 82.3366 -0.8209 39.3951 0.0000 -22.8848 0.0000
# 2 -0.8209 71.1918 -7.3287 0.0000 -1.2494 0.0000
# 3 39.3951 -7.3287 89.5122 0.0000 -0.2963 0.0000
# 4 0.0000 0.0000 0.0000 20.7523 0.0000 3.7440
# 5 -22.8848 -1.2494 -0.2963 0.0000 32.3687 0.0000
# 6 0.0000 0.0000 0.0000 3.7440 0.0000 9.6690
#
#
#
# Elastic Compliance Matrix: (Units=1/GPa)
#
#
# Indices 1 2 3 4 5 6 
#
# 1 0.020421 -0.000437 -0.008976 0.000000 0.014339 0.000000
# 2 -0.000437 0.014185 0.001355 0.000000 0.000251 0.000000
# 3 -0.008976 0.001355 0.015212 0.000000 -0.006154 0.000000
# 4 0.000000 0.000000 0.000000 0.051807 0.000000 -0.020060
# 5 0.014339 0.000251 -0.006154 0.000000 0.040985 0.000000
# 6 0.000000 0.000000 0.000000 -0.020060 0.000000 0.111191
#
#
# Mechanical properties :
#
#
# Convention : Reuss Voigt Hill
#
# Bulk Modulus (GPa) = 29.67136 33.94795 31.80966
# Shear Modulus (GPa) = 17.78400 26.67765 22.23083
#
# Velocity S-wave (km/s) = 2.78898 3.41589 3.11823
# Velocity P-wave (km/s) = 4.83207 5.51416 5.18435
#
# Compressibility (1/GPa) = 0.03370253
#
# Stress axis : x y z
#
# Youngs Moduli (GPa) = 48.96985 70.49519 65.73563
#
# Poissons Ratio (x) = 0.03080 0.59002
# Poissons Ratio (y) = 0.02139 -0.08904
# Poissons Ratio (z) = 0.43954 -0.09549
#
# Static dielectric constant tensor:
#      x y z
#    x 1.846880 0.000000 -0.023270 
#    y 0.000000 1.922030 0.000000 
#    z -0.023270 0.000000 1.857430 
# 
# From -- ./inp_files/68582.got.cif
#   From: 2010.05.17/outbox.cif.g08.bks.cpg/sg10_35_cif.got.tgz:68582.got - 2010.06.03 11:33:40.
