data_PCOD9152932
_publ_section_title
;
Structure prediction by ZEFSAII (Michael W. Deem and Ramdas Pophale) SiO2 
 PCOD9152932
Probable space group: P 2/M
;
_chemical_formula_sum "Si O2"
_cell_formula_units_Z 25
_cell_length_a 12.281859
_cell_length_b 7.289852
_cell_length_c 25.731790
_cell_angle_alpha 90.000000
_cell_angle_beta 31.184452
_cell_angle_gamma 90.000000
_cell_volume 1192.917926
_symmetry_space_group_name_H-M "P 2/M"
_symmetry_group_IT_number 10
_symmetry_cell_setting 'monoclinic'
loop_
_space_group_symop_operation_xyz
x,y,z
-x,y,-z
-x,-y,-z
x,-y,z
loop_
_atom_site_type_symbol
_atom_site_label
_atom_site_fract_x
_atom_site_fract_y
_atom_site_fract_z
Si Si1 0.368816 0.000000 0.135077
Si Si2 0.853250 0.278275 0.607737
Si Si3 0.700950 0.277475 0.387466
Si Si4 0.829481 0.283751 0.223161
Si Si5 0.909630 0.281356 0.700067
Si Si6 0.813571 0.000000 0.907253
Si Si7 0.000000 0.000000 0.000000
Si Si8 0.641414 0.279315 0.186558
O O1 0.294823 0.823644 0.197074
O O2 0.259283 0.000000 0.122857
O O3 0.612800 0.000000 0.025324
O O4 0.846071 0.500000 0.605826
O O5 0.956768 0.233948 0.621148
O O6 0.606541 0.224061 0.713535
O O7 0.000000 0.213369 0.500000
O O8 0.500000 0.210186 0.500000
O O9 0.695884 0.500000 0.390345
O O10 0.707272 0.223405 0.324929
O O11 0.907360 0.224396 0.335089
O O12 0.868544 0.500000 0.211373
O O13 0.709755 0.250276 0.218749
O O14 0.045500 0.174590 0.137149
O O15 0.883110 0.500000 0.713961
O O16 0.187770 0.839330 0.915144
O O17 0.654394 0.500000 0.169641
#
# Coordination Sequence:
#
# PCOD9152932 Si02
#       8
#     2   4   4   4   4   2   1   4
#     4  11  24  40  59  85 120 158 203 249 295 358
#     4   9  20  39  65  94 127 165 205 250 307 374
#     4   9  18  33  59  89 118 157 195 237 297 359
#     4  10  21  39  62  91 125 154 195 248 301 360
#     4  10  21  39  61  89 123 159 199 244 297 358
#     4  11  23  40  60  86 120 159 200 247 304 355
#     4  12  24  44  66  88 122 166 212 266 304 352
#     4  10  23  41  65  95 124 163 208 256 310 365
#
# _framework density 20.957014999999998
#
# number of rings (size 3 to 8) (size 9 to 14) (size 15 to 20)
#    0.000    2.080    1.600    0.720    2.240    3.840 
#    0.000    8.000    0.000    0.000    0.000    0.000 
#    0.000    0.000    0.000    0.000    0.000    0.000 
#
# Total GULP energy -139320.470491 kJ/mol
# GULP energy per Si atom -5572.818820 kJ/mol
# Density = 2.090932 g / cm^3
# Si number density = 20.957015 Si / 1000 Ang^3
#
#
#
# Elastic Constant Matrix: (Units=GPa)
#
#
# Indices 1 2 3 4 5 6 
#
# 1 30.4737 8.1878 11.1275 0.0000 11.9560 0.0000
# 2 8.1878 84.9167 29.6142 0.0000 4.4982 0.0000
# 3 11.1275 29.6142 129.8809 0.0000 -1.7738 0.0000
# 4 0.0000 0.0000 0.0000 22.9833 0.0000 -0.8919
# 5 11.9560 4.4982 -1.7738 0.0000 24.4433 0.0000
# 6 0.0000 0.0000 0.0000 -0.8919 0.0000 11.0503
#
#
#
# Elastic Compliance Matrix: (Units=1/GPa)
#
#
# Indices 1 2 3 4 5 6 
#
# 1 0.042767 -0.001784 -0.003542 0.000000 -0.020848 0.000000
# 2 -0.001784 0.013031 -0.002842 0.000000 -0.001732 0.000000
# 3 -0.003542 -0.002842 0.008690 0.000000 0.002886 0.000000
# 4 0.000000 0.000000 0.000000 0.043647 0.000000 0.003523
# 5 -0.020848 -0.001732 0.002886 0.000000 0.051636 0.000000
# 6 0.000000 0.000000 0.000000 0.003523 0.000000 0.090780
#
#
# Mechanical properties :
#
#
# Convention : Reuss Voigt Hill
#
# Bulk Modulus (GPa) = 20.76740 38.12558 29.44649
# Shear Modulus (GPa) = 17.67168 24.78483 21.22826
#
# Velocity S-wave (km/s) = 2.90700 3.44270 3.18613
# Velocity P-wave (km/s) = 4.60419 5.83392 5.25515
#
# Compressibility (1/GPa) = 0.04815239
#
# Stress axis : x y z
#
# Youngs Moduli (GPa) = 23.38237 76.73924 115.07158
#
# Poissons Ratio (x) = 0.13691 0.40758
# Poissons Ratio (y) = 0.04172 0.32704
# Poissons Ratio (z) = 0.08282 0.21810
#
# Static dielectric constant tensor:
#      x y z
#    x 1.775700 0.000000 0.009470 
#    y 0.000000 1.723650 0.000000 
#    z 0.009470 0.000000 1.733210 
# 
# From -- ./inp_files/88644.got.cif
#   From: 2010.05.17/outbox.cif.g08.bks.cpg/sg10_45_cif.got.tgz:88644.got - 2010.06.03 11:33:40.
