data_PCOD9152043
_publ_section_title
;
Structure prediction by ZEFSAII (Michael W. Deem and Ramdas Pophale) SiO2 
 PCOD9152043
Probable space group: P 2/M
;
_chemical_formula_sum "Si O2"
_cell_formula_units_Z 32
_cell_length_a 16.575758
_cell_length_b 14.576712
_cell_length_c 11.585171
_cell_angle_alpha 90.000000
_cell_angle_beta 32.603422
_cell_angle_gamma 90.000000
_cell_volume 1508.273196
_symmetry_space_group_name_H-M "P 2/M"
_symmetry_group_IT_number 10
_symmetry_cell_setting 'monoclinic'
loop_
_space_group_symop_operation_xyz
x,y,z
-x,y,-z
-x,-y,-z
x,-y,z
loop_
_atom_site_type_symbol
_atom_site_label
_atom_site_fract_x
_atom_site_fract_y
_atom_site_fract_z
Si Si1 0.071405 0.762631 0.630039
Si Si2 0.538632 0.182204 0.088964
Si Si3 0.739764 0.734644 0.014160
Si Si4 0.239205 0.890310 0.580764
Si Si5 0.876607 0.608530 0.250264
Si Si6 0.172021 0.899811 0.336090
Si Si7 0.677474 0.897100 0.264001
Si Si8 0.668042 0.609856 0.303633
O O1 0.094065 0.842103 0.699584
O O2 0.110649 0.670934 0.652626
O O3 0.174604 0.806956 0.407961
O O4 0.909200 0.749434 0.769562
O O5 0.391169 0.145849 0.333769
O O6 0.500000 0.195323 0.000000
O O7 0.612637 0.267721 0.069356
O O8 0.681173 0.111769 0.920278
O O9 0.705707 0.822947 0.133446
O O10 0.746395 0.651764 0.097471
O O11 0.249159 0.867430 0.703834
O O12 0.235087 0.000000 0.578277
O O13 0.880486 0.500000 0.272887
O O14 0.729705 0.634035 0.354869
O O15 0.000000 0.623897 0.000000
O O16 0.000000 0.903888 0.500000
O O17 0.193457 0.000000 0.369287
O O18 0.500000 0.901217 0.500000
O O19 0.728614 0.000000 0.171383
O O20 0.500000 0.643890 0.500000
O O21 0.675598 0.500000 0.286812
#
# Coordination Sequence:
#
# PCOD9152043 Si02
#       8
#     4   4   4   4   4   4   4   4
#     4  12  24  38  62  91 124 164 208 260 315 372
#     4  12  25  41  63  87 116 167 219 269 318 363
#     4  12  24  39  63  90 126 165 205 257 320 380
#     4  11  24  40  60  90 126 165 212 263 312 377
#     4  10  21  40  65  96 131 163 200 251 311 381
#     4  11  24  42  61  86 122 164 219 273 313 362
#     4  10  21  36  55  85 122 159 199 244 308 380
#     4  10  22  39  65  99 132 163 201 251 313 381
#
# _framework density 21.216315999999999
#
# number of rings (size 3 to 8) (size 9 to 14) (size 15 to 20)
#    0.000    1.000    5.000    1.875    1.750    2.000 
#    0.000    1.250    0.000    1.500    0.000    0.000 
#    0.000    0.000    0.000    0.000    0.000    0.000 
#
# Total GULP energy -178475.519568 kJ/mol
# GULP energy per Si atom -5577.359986 kJ/mol
# Density = 2.116803 g / cm^3
# Si number density = 21.216316 Si / 1000 Ang^3
#
#
#
# Elastic Constant Matrix: (Units=GPa)
#
#
# Indices 1 2 3 4 5 6 
#
# 1 105.7685 20.1705 8.2267 0.0000 1.5177 0.0000
# 2 20.1705 78.7112 19.0375 0.0000 9.0110 0.0000
# 3 8.2267 19.0375 51.3590 0.0000 -6.2189 0.0000
# 4 0.0000 0.0000 0.0000 15.6603 0.0000 0.1528
# 5 1.5177 9.0110 -6.2189 0.0000 35.5522 0.0000
# 6 0.0000 0.0000 0.0000 0.1528 0.0000 24.7152
#
#
#
# Elastic Compliance Matrix: (Units=1/GPa)
#
#
# Indices 1 2 3 4 5 6 
#
# 1 0.009964 -0.002390 -0.000703 0.000000 0.000057 0.000000
# 2 -0.002390 0.015285 -0.005864 0.000000 -0.004798 0.000000
# 3 -0.000703 -0.005864 0.022415 0.000000 0.005437 0.000000
# 4 0.000000 0.000000 0.000000 0.063859 0.000000 -0.000395
# 5 0.000057 -0.004798 0.005437 0.000000 0.030292 0.000000
# 6 0.000000 0.000000 0.000000 -0.000395 0.000000 0.040463
#
#
# Mechanical properties :
#
#
# Convention : Reuss Voigt Hill
#
# Bulk Modulus (GPa) = 33.61302 36.74536 35.17919
# Shear Modulus (GPa) = 23.79707 27.74582 25.77144
#
# Velocity S-wave (km/s) = 3.35272 3.62022 3.48903
# Velocity P-wave (km/s) = 5.55563 5.90183 5.73135
#
# Compressibility (1/GPa) = 0.02975038
#
# Stress axis : x y z
#
# Youngs Moduli (GPa) = 100.35879 65.42539 44.61229
#
# Poissons Ratio (x) = 0.15636 0.03137
# Poissons Ratio (y) = 0.23985 0.26159
# Poissons Ratio (z) = 0.07058 0.38364
#
# Static dielectric constant tensor:
#      x y z
#    x 1.887030 0.000000 -0.019630 
#    y 0.000000 1.753430 0.000000 
#    z -0.019630 0.000000 1.839160 
# 
# From -- ./inp_files/54008.got.cif
#   From: 2010.05.17/outbox.cif.g08.bks.cpg/sg10_28_cif.got.tgz:54008.got - 2010.06.03 11:33:40.
