data_PCOD9152642
_publ_section_title
;
Structure prediction by ZEFSAII (Michael W. Deem and Ramdas Pophale) SiO2 
 PCOD9152642
Probable space group: P 2/M
;
_chemical_formula_sum "Si O2"
_cell_formula_units_Z 32
_cell_length_a 26.803380
_cell_length_b 14.370938
_cell_length_c 8.741904
_cell_angle_alpha 90.000000
_cell_angle_beta 149.352353
_cell_angle_gamma 90.000000
_cell_volume 1716.500507
_symmetry_space_group_name_H-M "P 2/M"
_symmetry_group_IT_number 10
_symmetry_cell_setting 'monoclinic'
loop_
_space_group_symop_operation_xyz
x,y,z
-x,y,-z
-x,-y,-z
x,-y,z
loop_
_atom_site_type_symbol
_atom_site_label
_atom_site_fract_x
_atom_site_fract_y
_atom_site_fract_z
Si Si1 0.623580 0.394357 0.964033
Si Si2 0.607481 0.609392 0.586351
Si Si3 0.256077 0.733727 0.218103
Si Si4 0.721501 0.758289 0.376169
Si Si5 0.597973 0.107050 0.849433
Si Si6 0.907264 0.390352 0.369371
Si Si7 0.789662 0.105769 0.138612
Si Si8 0.092164 0.759356 0.356115
O O1 0.654095 0.500000 0.037740
O O2 0.508292 0.390094 0.690784
O O3 0.648843 0.356304 0.861048
O O4 0.675239 0.342642 0.235377
O O5 0.634017 0.500000 0.629241
O O6 0.641750 0.682284 0.550768
O O7 0.247649 0.767235 0.368725
O O8 0.180439 0.655222 0.959598
O O9 0.236234 0.823808 0.064007
O O10 0.813586 0.755870 0.505750
O O11 0.637967 0.828868 0.092799
O O12 0.500000 0.140149 0.500000
O O13 0.578074 0.000000 0.845642
O O14 0.691754 0.105040 0.984788
O O15 0.891550 0.500000 0.362919
O O16 0.917132 0.327778 0.549967
O O17 0.000000 0.383139 0.500000
O O18 0.881741 0.150600 0.471416
O O19 0.809616 0.000000 0.144603
O O20 0.000000 0.766231 0.000000
#
# Coordination Sequence:
#
# PCOD9152642 Si02
#       8
#     4   4   4   4   4   4   4   4
#     4   9  19  34  53  76 105 145 191 231 269 323
#     4   9  18  34  54  75 105 147 190 229 272 325
#     4  11  22  35  53  82 117 151 182 233 280 334
#     4  11  23  34  55  84 113 148 186 230 280 340
#     4   9  19  37  59  80 106 144 189 237 284 339
#     4  10  21  38  60  84 115 152 188 231 283 335
#     4   9  20  38  59  83 110 147 189 230 284 341
#     4  10  21  39  61  85 114 145 187 236 280 333
#
# _framework density 18.642581
#
# number of rings (size 3 to 8) (size 9 to 14) (size 15 to 20)
#    0.000    2.250    0.000    4.125    3.500    4.000 
#    0.000    1.250    0.000   15.000    0.000    0.000 
#    0.000    0.000    0.000    0.000    0.000    0.000 
#
# Total GULP energy -178317.635129 kJ/mol
# GULP energy per Si atom -5572.426098 kJ/mol
# Density = 1.860015 g / cm^3
# Si number density = 18.642581 Si / 1000 Ang^3
#
#
#
# Elastic Constant Matrix: (Units=GPa)
#
#
# Indices 1 2 3 4 5 6 
#
# 1 70.9638 47.0493 20.8037 0.0000 -16.4646 0.0000
# 2 47.0493 109.4917 36.6515 0.0000 -3.9196 0.0000
# 3 20.8037 36.6515 87.0478 0.0000 -8.3924 0.0000
# 4 0.0000 0.0000 0.0000 12.8920 0.0000 10.0187
# 5 -16.4646 -3.9196 -8.3924 0.0000 21.7107 0.0000
# 6 0.0000 0.0000 0.0000 10.0187 0.0000 5.1444
#
#
#
# Elastic Compliance Matrix: (Units=1/GPa)
#
#
# Indices 1 2 3 4 5 6 
#
# 1 0.024620 -0.009953 -0.000069 0.000000 0.016847 0.000000
# 2 -0.009953 0.014656 -0.004430 0.000000 -0.006615 0.000000
# 3 -0.000069 -0.004430 0.013802 0.000000 0.004483 0.000000
# 4 0.000000 0.000000 0.000000 -0.151075 0.000000 0.294216
# 5 0.016847 -0.006615 0.004483 0.000000 0.059375 0.000000
# 6 0.000000 0.000000 0.000000 0.294216 0.000000 -0.378595
#
#
# Mechanical properties :
#
#
# Convention : Reuss Voigt Hill
#
# Bulk Modulus (GPa) = 41.36719 52.94581 47.15650
# Shear Modulus (GPa) = -13.14906 18.81600 2.83347
#
# Velocity S-wave (km/s) = -2.65868 3.18040 1.23418
# Velocity P-wave (km/s) = 3.57953 6.47678 5.23267
#
# Compressibility (1/GPa) = 0.02417375
#
# Stress axis : x y z
#
# Youngs Moduli (GPa) = 40.61804 68.23090 72.45397
#
# Poissons Ratio (x) = 0.67911 0.00499
# Poissons Ratio (y) = 0.40427 0.32097
# Poissons Ratio (z) = 0.00280 0.30226
#
# Static dielectric constant tensor:
#      x y z
#    x 1.678800 0.000000 0.018580 
#    y 0.000000 1.651400 0.000000 
#    z 0.018580 0.000000 1.683460 
# 
# From -- ./inp_files/37738.got.cif
#   From: 2010.05.17/outbox.cif.g08.bks.cpg/sg10_19_cif.got.tgz:37738.got - 2010.06.03 11:33:40.
