data_PCOD9152110
_publ_section_title
;
Structure prediction by ZEFSAII (Michael W. Deem and Ramdas Pophale) SiO2 
 PCOD9152110
Probable space group: P 2/M
;
_chemical_formula_sum "Si O2"
_cell_formula_units_Z 32
_cell_length_a 13.907212
_cell_length_b 14.394180
_cell_length_c 11.104892
_cell_angle_alpha 90.000000
_cell_angle_beta 42.547640
_cell_angle_gamma 90.000000
_cell_volume 1503.205782
_symmetry_space_group_name_H-M "P 2/M"
_symmetry_group_IT_number 10
_symmetry_cell_setting 'monoclinic'
loop_
_space_group_symop_operation_xyz
x,y,z
-x,y,-z
-x,-y,-z
x,-y,z
loop_
_atom_site_type_symbol
_atom_site_label
_atom_site_fract_x
_atom_site_fract_y
_atom_site_fract_z
Si Si1 0.046365 0.390558 0.731405
Si Si2 0.540433 0.297159 0.270310
Si Si3 0.731465 0.700768 0.331894
Si Si4 0.257627 0.609448 0.092302
Si Si5 0.647674 0.103557 0.110879
Si Si6 0.152905 0.730509 0.410957
Si Si7 0.669070 0.106776 0.825329
Si Si8 0.833738 0.897159 0.178720
O O1 0.068796 0.500000 0.690344
O O2 0.126994 0.358597 0.777301
O O3 0.118740 0.328532 0.560575
O O4 0.877869 0.373518 0.871588
O O5 0.387866 0.325870 0.460223
O O6 0.652233 0.310326 0.277277
O O7 0.542909 0.188038 0.234929
O O8 0.601629 0.352579 0.101152
O O9 0.772589 0.809308 0.305479
O O10 0.266165 0.500000 0.106200
O O11 0.223220 0.663511 0.246265
O O12 0.756867 0.103414 0.120050
O O13 0.582214 0.000000 0.164365
O O14 0.723886 0.120161 0.912618
O O15 0.255167 0.818787 0.328086
O O16 0.000000 0.761769 0.500000
O O17 0.692843 0.000000 0.767911
O O18 0.500000 0.121300 0.000000
O O19 0.809886 0.000000 0.254835
O O20 0.000000 0.884808 0.000000
#
# Coordination Sequence:
#
# PCOD9152110 Si02
#       8
#     4   4   4   4   4   4   4   4
#     4  10  23  40  59  85 115 152 194 243 300 353
#     4  10  21  38  56  86 115 152 195 238 291 345
#     4  10  23  36  57  85 121 152 190 243 288 342
#     4  10  21  39  63  85 109 148 198 245 297 355
#     4   9  18  34  58  81 115 157 193 237 286 344
#     4  10  21  38  62  87 117 149 192 246 295 345
#     4  10  21  36  57  87 120 155 194 234 284 349
#     4   9  19  35  59  90 121 155 198 243 290 347
#
# _framework density 21.287837
#
# number of rings (size 3 to 8) (size 9 to 14) (size 15 to 20)
#    0.000    2.250    1.250    0.375    5.250    3.250 
#    0.000    5.625    0.000    2.250    0.000    0.000 
#    0.000    0.000    0.000    0.000    0.000    0.000 
#
# Total GULP energy -178715.987104 kJ/mol
# GULP energy per Si atom -5584.874597 kJ/mol
# Density = 2.123938 g / cm^3
# Si number density = 21.287837 Si / 1000 Ang^3
#
#
#
# Elastic Constant Matrix: (Units=GPa)
#
#
# Indices 1 2 3 4 5 6 
#
# 1 47.0998 17.8269 0.5325 0.0000 -5.8807 0.0000
# 2 17.8269 88.4000 39.6769 0.0000 -13.4213 0.0000
# 3 0.5325 39.6769 87.3396 0.0000 -3.1276 0.0000
# 4 0.0000 0.0000 0.0000 11.5206 0.0000 0.3693
# 5 -5.8807 -13.4213 -3.1276 0.0000 11.1165 0.0000
# 6 0.0000 0.0000 0.0000 0.3693 0.0000 -30.6318
#
#
#
# Elastic Compliance Matrix: (Units=1/GPa)
#
#
# Indices 1 2 3 4 5 6 
#
# 1 0.023931 -0.004675 0.002252 0.000000 0.007648 0.000000
# 2 -0.004675 0.018369 -0.007688 0.000000 0.017541 0.000000
# 3 0.002252 -0.007688 0.014788 0.000000 -0.003930 0.000000
# 4 0.000000 0.000000 0.000000 0.086768 0.000000 0.001046
# 5 0.007648 0.017541 -0.003930 0.000000 0.114074 0.000000
# 6 0.000000 0.000000 0.000000 0.001046 0.000000 -0.032633
#
#
# Mechanical properties :
#
#
# Convention : Reuss Voigt Hill
#
# Bulk Modulus (GPa) = 27.12670 37.65689 32.39180
# Shear Modulus (GPa) = 19.39435 9.38793 14.39114
#
# Velocity S-wave (km/s) = 3.02164 2.10228 2.60287
# Velocity P-wave (km/s) = 4.99442 4.86010 4.92772
#
# Compressibility (1/GPa) = 0.03686404
#
# Stress axis : x y z
#
# Youngs Moduli (GPa) = 41.78750 54.43984 67.62405
#
# Poissons Ratio (x) = 0.25453 -0.15229
# Poissons Ratio (y) = 0.19538 0.51990
# Poissons Ratio (z) = -0.09410 0.41854
#
# Static dielectric constant tensor:
#      x y z
#    x 1.816060 0.000000 0.015710 
#    y 0.000000 1.754460 0.000000 
#    z 0.015710 0.000000 1.731620 
# 
# From -- ./inp_files/51602.got.cif
#   From: 2010.05.17/outbox.cif.g08.bks.cpg/sg10_26_cif.got.tgz:51602.got - 2010.06.03 11:33:40.
