data_PCOD9152863
_publ_section_title
;
Structure prediction by ZEFSAII (Michael W. Deem and Ramdas Pophale) SiO2 
 PCOD9152863
Probable space group: P 2/M
;
_chemical_formula_sum "Si O2"
_cell_formula_units_Z 28
_cell_length_a 18.353517
_cell_length_b 15.194101
_cell_length_c 5.580841
_cell_angle_alpha 90.000000
_cell_angle_beta 114.479533
_cell_angle_gamma 90.000000
_cell_volume 1416.405264
_symmetry_space_group_name_H-M "P 2/M"
_symmetry_group_IT_number 10
_symmetry_cell_setting 'monoclinic'
loop_
_space_group_symop_operation_xyz
x,y,z
-x,y,-z
-x,-y,-z
x,-y,z
loop_
_atom_site_type_symbol
_atom_site_label
_atom_site_fract_x
_atom_site_fract_y
_atom_site_fract_z
Si Si1 0.155498 0.102226 0.188999
Si Si2 0.718308 0.403955 0.620268
Si Si3 0.747112 0.102202 0.176373
Si Si4 0.429398 0.402051 0.224208
Si Si5 0.000000 0.222757 0.000000
Si Si6 0.000000 0.328396 0.500000
Si Si7 0.317226 0.717845 0.818057
Si Si8 0.173285 0.399648 0.837027
O O1 0.200835 0.113429 0.506960
O O2 0.130581 0.000000 0.145883
O O3 0.206554 0.116963 0.013552
O O4 0.079165 0.164178 0.082077
O O5 0.710411 0.500000 0.481725
O O6 0.651456 0.410749 0.732443
O O7 0.697886 0.311768 0.472386
O O8 0.806611 0.397409 0.852181
O O9 0.683459 0.180801 0.114324
O O10 0.719678 0.000000 0.137217
O O11 0.500000 0.376368 0.500000
O O12 0.448309 0.500000 0.154378
O O13 0.400364 0.330688 0.995525
O O14 0.992322 0.275310 0.739419
O O15 0.083000 0.380303 0.645269
O O16 0.237001 0.670442 0.819517
O O17 0.192356 0.500000 0.793283
#
# Coordination Sequence:
#
# PCOD9152863 Si02
#       8
#     4   4   4   4   2   2   4   4
#     4  10  21  39  58  82 111 146 191 254 313 355
#     4   9  19  34  57  84 111 150 197 241 290 347
#     4  10  23  38  60  87 116 148 193 247 297 354
#     4   9  19  35  55  88 127 155 189 237 291 351
#     4  12  23  38  55  84 106 152 198 248 302 370
#     4  12  27  38  55  80 118 160 203 244 298 346
#     4  11  20  34  61  83 114 153 199 242 298 351
#     4  10  22  39  54  79 113 155 202 249 294 344
#
# _framework density 19.768355
#
# number of rings (size 3 to 8) (size 9 to 14) (size 15 to 20)
#    0.000    1.857    0.000    5.143    8.000    0.571 
#    0.000    5.714    0.000    0.429    0.000    1.000 
#    0.000    0.000    0.000    0.000    0.000    0.000 
#
# Total GULP energy -155890.749159 kJ/mol
# GULP energy per Si atom -5567.526756 kJ/mol
# Density = 1.972336 g / cm^3
# Si number density = 19.768355 Si / 1000 Ang^3
#
#
#
# Elastic Constant Matrix: (Units=GPa)
#
#
# Indices 1 2 3 4 5 6 
#
# 1 35.1051 10.6441 36.3788 0.0000 0.9768 0.0000
# 2 10.6441 64.2897 28.7952 0.0000 -1.2416 0.0000
# 3 36.3788 28.7952 108.7081 0.0000 8.7634 0.0000
# 4 0.0000 0.0000 0.0000 2.7667 0.0000 12.3428
# 5 0.9768 -1.2416 8.7634 0.0000 43.1347 0.0000
# 6 0.0000 0.0000 0.0000 12.3428 0.0000 62.6136
#
#
#
# Elastic Compliance Matrix: (Units=1/GPa)
#
#
# Indices 1 2 3 4 5 6 
#
# 1 0.043805 -0.000656 -0.014644 0.000000 0.001964 0.000000
# 2 -0.000656 0.017752 -0.004601 0.000000 0.001460 0.000000
# 3 -0.014644 -0.004601 0.015557 0.000000 -0.002961 0.000000
# 4 0.000000 0.000000 0.000000 2.997808 0.000000 -0.590948
# 5 0.001964 0.001460 -0.002961 0.000000 0.023782 0.000000
# 6 0.000000 0.000000 0.000000 -0.590948 0.000000 0.132462
#
#
# Mechanical properties :
#
#
# Convention : Reuss Voigt Hill
#
# Bulk Modulus (GPa) = 26.79976 39.97100 33.38538
# Shear Modulus (GPa) = 1.52281 30.52198 16.02240
#
# Velocity S-wave (km/s) = 0.87863 3.93362 2.85003
# Velocity P-wave (km/s) = 3.82304 6.39490 5.26832
#
# Compressibility (1/GPa) = 0.03731377
#
# Stress axis : x y z
#
# Youngs Moduli (GPa) = 22.82823 56.33191 64.28032
#
# Poissons Ratio (x) = 0.03693 0.94132
# Poissons Ratio (y) = 0.01497 0.29572
# Poissons Ratio (z) = 0.33430 0.25916
#
# Static dielectric constant tensor:
#      x y z
#    x 1.693140 0.000000 -0.064720 
#    y 0.000000 1.706940 0.000000 
#    z -0.064720 0.000000 1.804460 
# 
# From -- ./inp_files/11326.got.cif
#   From: 2010.05.17/outbox.cif.g08.bks.cpg/sg10_6_cif.got.tgz:11326.got - 2010.06.03 11:33:40.
