data_PCOD9152515
_publ_section_title
;
Structure prediction by ZEFSAII (Michael W. Deem and Ramdas Pophale) SiO2 
 PCOD9152515
Probable space group: P 2/M
;
_chemical_formula_sum "Si O2"
_cell_formula_units_Z 24
_cell_length_a 5.426663
_cell_length_b 17.133816
_cell_length_c 12.365730
_cell_angle_alpha 90.000000
_cell_angle_beta 103.911243
_cell_angle_gamma 90.000000
_cell_volume 1116.035516
_symmetry_space_group_name_H-M "P 2/M"
_symmetry_group_IT_number 10
_symmetry_cell_setting 'monoclinic'
loop_
_space_group_symop_operation_xyz
x,y,z
-x,y,-z
-x,-y,-z
x,-y,z
loop_
_atom_site_type_symbol
_atom_site_label
_atom_site_fract_x
_atom_site_fract_y
_atom_site_fract_z
Si Si1 0.290481 0.678291 0.068956
Si Si2 0.789504 0.911483 0.069776
Si Si3 0.075664 0.662384 0.389734
Si Si4 0.667352 0.500000 0.844710
Si Si5 0.879710 0.197652 0.277066
Si Si6 0.911914 0.500000 0.296264
Si Si7 0.399212 0.763242 0.310437
O O1 0.317324 0.584503 0.094375
O O2 0.346183 0.730802 0.182584
O O3 0.500000 0.698320 0.000000
O O4 0.000000 0.692394 0.000000
O O5 0.813315 0.847042 0.163279
O O6 0.837830 0.000000 0.115759
O O7 0.500000 0.909571 0.000000
O O8 0.000000 0.897079 0.000000
O O9 0.904408 0.707589 0.281404
O O10 0.002159 0.574455 0.371589
O O11 0.000000 0.691686 0.500000
O O12 0.356517 0.686951 0.380605
O O13 0.388695 0.500000 0.758712
O O14 0.914169 0.500000 0.793077
O O15 0.656376 0.188968 0.338363
O O16 0.173645 0.181067 0.328852
#
# Coordination Sequence:
#
# PCOD9152515 Si02
#       7
#     4   4   4   2   4   2   4
#     4  12  23  35  54  77 109 151 192 236 296 362
#     4  10  21  37  63  99 135 167 198 236 290 356
#     4  10  24  43  64  87 114 157 206 265 321 358
#     4  12  22  41  53  76 109 147 189 245 306 368
#     4  10  21  39  59  89 123 160 197 246 293 359
#     4  12  23  41  64  80 117 147 207 268 316 361
#     4  10  22  38  56  86 115 154 201 249 289 358
#
# _framework density 21.504694000000001
#
# number of rings (size 3 to 8) (size 9 to 14) (size 15 to 20)
#    1.000    0.333    1.667    4.750    0.000    4.667 
#    0.000    0.833    0.000    0.500    0.000    1.167 
#    0.000    0.000    0.000    0.000    0.000    0.000 
#
# Total GULP energy -133705.270006 kJ/mol
# GULP energy per Si atom -5571.052917 kJ/mol
# Density = 2.145575 g / cm^3
# Si number density = 21.504694 Si / 1000 Ang^3
#
#
#
# Elastic Constant Matrix: (Units=GPa)
#
#
# Indices 1 2 3 4 5 6 
#
# 1 174.1840 19.9306 32.7903 0.0000 -25.1687 0.0000
# 2 19.9306 90.7827 44.5505 0.0000 -0.4387 0.0000
# 3 32.7903 44.5505 77.5702 0.0000 -11.0450 0.0000
# 4 0.0000 0.0000 0.0000 -95.9211 0.0000 -10.6401
# 5 -25.1687 -0.4387 -11.0450 0.0000 27.7097 0.0000
# 6 0.0000 0.0000 0.0000 -10.6401 0.0000 7.5756
#
#
#
# Elastic Compliance Matrix: (Units=1/GPa)
#
#
# Indices 1 2 3 4 5 6 
#
# 1 0.006957 -0.000624 -0.001785 0.000000 0.005598 0.000000
# 2 -0.000624 0.015715 -0.009337 0.000000 -0.004040 0.000000
# 3 -0.001785 -0.009337 0.019885 0.000000 0.006157 0.000000
# 4 0.000000 0.000000 0.000000 -0.009020 0.000000 -0.012669
# 5 0.005598 -0.004040 0.006157 0.000000 0.043563 0.000000
# 6 0.000000 0.000000 0.000000 -0.012669 0.000000 0.114210
#
#
# Mechanical properties :
#
#
# Convention : Reuss Voigt Hill
#
# Bulk Modulus (GPa) = 52.45310 59.67552 56.06431
# Shear Modulus (GPa) = 22.60830 4.22388 13.41609
#
# Velocity S-wave (km/s) = 3.24592 1.40301 2.50044
# Velocity P-wave (km/s) = 6.20423 5.51678 5.87057
#
# Compressibility (1/GPa) = 0.01906465
#
# Stress axis : x y z
#
# Youngs Moduli (GPa) = 143.73051 63.63475 50.28861
#
# Poissons Ratio (x) = 0.03972 0.08979
# Poissons Ratio (y) = 0.08972 0.46953
# Poissons Ratio (z) = 0.25663 0.59414
#
# Static dielectric constant tensor:
#      x y z
#    x 1.922320 0.000000 -0.007330 
#    y 0.000000 1.781380 0.000000 
#    z -0.007330 0.000000 1.817440 
# 
# From -- ./inp_files/39398.got.cif
#   From: 2010.05.17/outbox.cif.g08.bks.cpg/sg10_20_cif.got.tgz:39398.got - 2010.06.03 11:33:40.
