data_PCOD9152714
_publ_section_title
;
Structure prediction by ZEFSAII (Michael W. Deem and Ramdas Pophale) SiO2 
 PCOD9152714
Probable space group: P 2/M
;
_chemical_formula_sum "Si O2"
_cell_formula_units_Z 32
_cell_length_a 12.351015
_cell_length_b 7.870960
_cell_length_c 28.981285
_cell_angle_alpha 90.000000
_cell_angle_beta 32.932992
_cell_angle_gamma 90.000000
_cell_volume 1531.699740
_symmetry_space_group_name_H-M "P 2/M"
_symmetry_group_IT_number 10
_symmetry_cell_setting 'monoclinic'
loop_
_space_group_symop_operation_xyz
x,y,z
-x,y,-z
-x,-y,-z
x,-y,z
loop_
_atom_site_type_symbol
_atom_site_label
_atom_site_fract_x
_atom_site_fract_y
_atom_site_fract_z
Si Si1 0.843111 0.200674 0.752693
Si Si2 0.561318 0.195088 0.357095
Si Si3 0.704901 0.296874 0.904116
Si Si4 0.301402 0.304890 0.594813
Si Si5 0.143039 0.794259 0.907694
Si Si6 0.397209 0.792221 0.251154
Si Si7 0.774495 0.792046 0.588525
Si Si8 0.918623 0.299989 0.172372
O O1 0.748776 0.265726 0.834469
O O2 0.730540 0.267271 0.747272
O O3 0.081534 0.230788 0.665304
O O4 0.812414 0.000000 0.764488
O O5 0.651168 0.293911 0.367944
O O6 0.361906 0.264944 0.405333
O O7 0.723285 0.202196 0.258690
O O8 0.530967 0.000000 0.382754
O O9 0.701068 0.500000 0.911600
O O10 0.893413 0.233870 0.866078
O O11 0.500000 0.229903 0.000000
O O12 0.500000 0.227681 0.500000
O O13 0.288988 0.500000 0.583800
O O14 0.371717 0.741022 0.833765
O O15 0.060562 0.724875 0.889220
O O16 0.141752 0.000000 0.905717
O O17 0.000000 0.740534 0.000000
O O18 0.307431 0.736810 0.332448
O O19 0.391309 0.000000 0.253179
O O20 0.000000 0.740393 0.500000
O O21 0.765113 0.000000 0.591458
O O22 0.890929 0.500000 0.192406
#
# Coordination Sequence:
#
# PCOD9152714 Si02
#       8
#     4   4   4   4   4   4   4   4
#     4  11  23  38  62  91 120 154 199 253 300 353
#     4  11  21  37  65  91 115 151 200 250 297 350
#     4  10  23  42  61  83 119 164 201 242 301 361
#     4  11  25  43  61  84 122 164 199 243 302 361
#     4  10  21  38  61  86 117 156 197 245 296 345
#     4   9  19  36  54  83 121 151 188 239 294 346
#     4   9  18  33  57  87 118 150 184 234 296 346
#     4  11  22  38  61  86 119 157 197 246 297 354
#
# _framework density 20.891822999999999
#
# number of rings (size 3 to 8) (size 9 to 14) (size 15 to 20)
#    0.000    1.750    2.500    1.500    3.500    2.000 
#    0.000    1.250    0.000    1.500    0.000    0.000 
#    0.000    0.000    0.000    0.000    0.000    0.000 
#
# Total GULP energy -178723.600824 kJ/mol
# GULP energy per Si atom -5585.112526 kJ/mol
# Density = 2.084427 g / cm^3
# Si number density = 20.891823 Si / 1000 Ang^3
#
#
#
# Elastic Constant Matrix: (Units=GPa)
#
#
# Indices 1 2 3 4 5 6 
#
# 1 109.3024 0.5081 17.2227 0.0000 -9.0559 0.0000
# 2 0.5081 19.7250 2.3938 0.0000 -6.2227 0.0000
# 3 17.2227 2.3938 101.6548 0.0000 -3.7046 0.0000
# 4 0.0000 0.0000 0.0000 9.1681 0.0000 -5.7231
# 5 -9.0559 -6.2227 -3.7046 0.0000 37.6306 0.0000
# 6 0.0000 0.0000 0.0000 -5.7231 0.0000 -1.1113
#
#
#
# Elastic Compliance Matrix: (Units=1/GPa)
#
#
# Indices 1 2 3 4 5 6 
#
# 1 0.009578 0.000655 -0.001556 0.000000 0.002260 0.000000
# 2 0.000655 0.053622 -0.001049 0.000000 0.008922 0.000000
# 3 -0.001556 -0.001049 0.010142 0.000000 0.000451 0.000000
# 4 0.000000 0.000000 0.000000 0.025879 0.000000 -0.133272
# 5 0.002260 0.008922 0.000451 0.000000 0.028638 0.000000
# 6 0.000000 0.000000 0.000000 -0.133272 0.000000 -0.213493
#
#
# Mechanical properties :
#
#
# Convention : Reuss Voigt Hill
#
# Bulk Modulus (GPa) = 14.40017 30.10349 22.25183
# Shear Modulus (GPa) = -85.34292 23.17463 -31.08414
#
# Velocity S-wave (km/s) = -6.39833 3.33418 -3.86147
# Velocity P-wave (km/s) = 6.90486 5.40951 3.03432
#
# Compressibility (1/GPa) = 0.06944363
#
# Stress axis : x y z
#
# Youngs Moduli (GPa) = 104.40264 18.64905 98.60066
#
# Poissons Ratio (x) = -0.01222 0.15341
# Poissons Ratio (y) = -0.06839 0.10339
# Poissons Ratio (z) = 0.16243 0.01955
#
# Static dielectric constant tensor:
#      x y z
#    x 1.758850 0.000000 0.011480 
#    y 0.000000 1.757800 0.000000 
#    z 0.011480 0.000000 1.764380 
# 
# From -- ./inp_files/95009.got.cif
#   From: 2010.05.17/outbox.cif.g08.bks.cpg/sg10_48_cif.got.tgz:95009.got - 2010.06.03 11:33:40.
