data_PCOD9152881
_publ_section_title
;
Structure prediction by ZEFSAII (Michael W. Deem and Ramdas Pophale) SiO2 
 PCOD9152881
Probable space group: P 2/M
;
_chemical_formula_sum "Si O2"
_cell_formula_units_Z 28
_cell_length_a 14.869750
_cell_length_b 8.069876
_cell_length_c 11.415053
_cell_angle_alpha 90.000000
_cell_angle_beta 66.711650
_cell_angle_gamma 90.000000
_cell_volume 1258.172788
_symmetry_space_group_name_H-M "P 2/M"
_symmetry_group_IT_number 10
_symmetry_cell_setting 'monoclinic'
loop_
_space_group_symop_operation_xyz
x,y,z
-x,y,-z
-x,-y,-z
x,-y,z
loop_
_atom_site_type_symbol
_atom_site_label
_atom_site_fract_x
_atom_site_fract_y
_atom_site_fract_z
Si Si1 0.742276 0.190083 0.182464
Si Si2 0.936114 0.690587 0.189990
Si Si3 0.471809 0.693063 0.143066
Si Si4 0.153851 0.199956 0.090320
Si Si5 0.745328 0.805806 0.725539
Si Si6 0.454513 0.693504 0.644131
Si Si7 0.904789 0.695470 0.481732
O O1 0.851585 0.200682 0.176757
O O2 0.662852 0.290842 0.295820
O O3 0.709709 0.000000 0.198195
O O4 0.758774 0.252458 0.041438
O O5 0.916731 0.500000 0.167952
O O6 0.923546 0.711172 0.335391
O O7 0.048729 0.731955 0.106367
O O8 0.503010 0.500000 0.123902
O O9 0.355266 0.708183 0.216451
O O10 0.514399 0.764964 0.243934
O O11 0.500000 0.765130 0.000000
O O12 0.182624 0.249330 0.206521
O O13 0.147847 0.000000 0.088120
O O14 0.806116 0.780511 0.576101
O O15 0.723252 0.000000 0.754035
O O16 0.500000 0.764511 0.500000
O O17 0.484221 0.500000 0.631418
O O18 0.895732 0.500000 0.514863
O O19 0.000000 0.763086 0.500000
#
# Coordination Sequence:
#
# PCOD9152881 Si02
#       7
#     4   4   4   4   4   4   4
#     4  11  24  41  62  87 121 160 198 243 300 360
#     4  11  23  38  61  89 119 158 204 248 292 352
#     4  10  22  41  65  91 120 158 204 254 306 360
#     4  10  22  40  59  87 126 162 194 240 297 355
#     4  11  23  37  61  92 122 157 198 245 301 359
#     4  10  23  43  64  88 119 157 203 255 306 356
#     4  10  21  39  59  84 119 159 200 245 297 352
#
# _framework density 22.254493
#
# number of rings (size 3 to 8) (size 9 to 14) (size 15 to 20)
#    0.000    1.571    1.429    2.571    2.000    6.000 
#    0.000    0.000    0.000    0.000    0.000    0.000 
#    0.000    0.000    0.000    0.000    0.000    0.000 
#
# Total GULP energy -156429.121214 kJ/mol
# GULP energy per Si atom -5586.754329 kJ/mol
# Density = 2.220384 g / cm^3
# Si number density = 22.254493 Si / 1000 Ang^3
#
#
#
# Elastic Constant Matrix: (Units=GPa)
#
#
# Indices 1 2 3 4 5 6 
#
# 1 69.7156 1.9284 27.3690 0.0000 -4.5791 0.0000
# 2 1.9284 18.2431 21.9997 0.0000 10.2868 0.0000
# 3 27.3690 21.9997 138.8865 0.0000 -15.0879 0.0000
# 4 0.0000 0.0000 0.0000 34.8060 0.0000 -27.0400
# 5 -4.5791 10.2868 -15.0879 0.0000 33.4312 0.0000
# 6 0.0000 0.0000 0.0000 -27.0400 0.0000 49.5099
#
#
#
# Elastic Compliance Matrix: (Units=1/GPa)
#
#
# Indices 1 2 3 4 5 6 
#
# 1 0.015645 0.002848 -0.003572 0.000000 -0.000345 0.000000
# 2 0.002848 0.103573 -0.021438 0.000000 -0.041154 0.000000
# 3 -0.003572 -0.021438 0.012580 0.000000 0.011785 0.000000
# 4 0.000000 0.000000 0.000000 0.049905 0.000000 0.027256
# 5 -0.000345 -0.041154 0.011785 0.000000 0.047847 0.000000
# 6 0.000000 0.000000 0.000000 0.027256 0.000000 0.035084
#
#
# Mechanical properties :
#
#
# Convention : Reuss Voigt Hill
#
# Bulk Modulus (GPa) = 11.43193 36.60437 24.01815
# Shear Modulus (GPa) = 14.78790 35.25261 25.02026
#
# Velocity S-wave (km/s) = 2.58057 3.98435 3.35666
# Velocity P-wave (km/s) = 3.74529 6.13600 5.08319
#
# Compressibility (1/GPa) = 0.08747428
#
# Stress axis : x y z
#
# Youngs Moduli (GPa) = 63.91951 9.65507 79.49147
#
# Poissons Ratio (x) = -0.02750 0.28391
# Poissons Ratio (y) = -0.18205 1.70414
# Poissons Ratio (z) = 0.22830 0.20699
#
# Static dielectric constant tensor:
#      x y z
#    x 1.801760 0.000000 0.039800 
#    y 0.000000 1.803400 0.000000 
#    z 0.039800 0.000000 1.838520 
# 
# From -- ./inp_files/49588.got.cif
#   From: 2010.05.17/outbox.cif.g08.bks.cpg/sg10_25_cif.got.tgz:49588.got - 2010.06.03 11:33:40.
