data_PCOD9152317
_publ_section_title
;
Structure prediction by ZEFSAII (Michael W. Deem and Ramdas Pophale) SiO2 
 PCOD9152317
Probable space group: P 2/M
;
_chemical_formula_sum "Si O2"
_cell_formula_units_Z 30
_cell_length_a 5.488513
_cell_length_b 9.282259
_cell_length_c 25.869649
_cell_angle_alpha 90.000000
_cell_angle_beta 92.401008
_cell_angle_gamma 90.000000
_cell_volume 1316.792906
_symmetry_space_group_name_H-M "P 2/M"
_symmetry_group_IT_number 10
_symmetry_cell_setting 'monoclinic'
loop_
_space_group_symop_operation_xyz
x,y,z
-x,y,-z
-x,-y,-z
x,-y,z
loop_
_atom_site_type_symbol
_atom_site_label
_atom_site_fract_x
_atom_site_fract_y
_atom_site_fract_z
Si Si1 0.210735 0.161299 0.350728
Si Si2 0.760574 0.329703 0.031229
Si Si3 0.820191 0.343413 0.834244
Si Si4 0.743682 0.500000 0.468007
Si Si5 0.213621 0.843773 0.780236
Si Si6 0.460627 0.656308 0.273636
Si Si7 0.274894 0.828168 0.584075
Si Si8 0.511764 0.842204 0.111741
O O1 0.247230 0.279629 0.306599
O O2 0.457575 0.174790 0.387244
O O3 0.963911 0.175249 0.381266
O O4 0.218977 0.000000 0.328480
O O5 0.773055 0.500000 0.043485
O O6 0.725827 0.231127 0.081256
O O7 0.500000 0.306652 0.000000
O O8 0.000000 0.293087 0.000000
O O9 0.915071 0.500000 0.849128
O O10 0.623382 0.361321 0.786370
O O11 0.709591 0.268149 0.883546
O O12 0.018676 0.252930 0.806507
O O13 0.500000 0.500000 0.500000
O O14 0.738232 0.665450 0.442469
O O15 0.000000 0.500000 0.500000
O O16 0.326644 0.772396 0.730551
O O17 0.409263 0.861346 0.828090
O O18 0.112725 0.000000 0.767460
O O19 0.540050 0.500000 0.293956
O O20 0.262738 0.000000 0.561130
O O21 0.448323 0.000000 0.090208
#
# Coordination Sequence:
#
# PCOD9152317 Si02
#       8
#     4   4   4   2   4   4   4   4
#     4  10  22  41  64  92 131 179 219 267 325 387
#     4  10  23  42  63  90 120 153 196 245 308 381
#     4  10  21  37  57  84 118 155 206 255 306 369
#     4  12  26  44  74 106 136 176 226 280 342 396
#     4  10  21  37  57  83 119 157 203 255 307 372
#     4  10  22  36  56  86 118 163 215 263 310 365
#     4  10  24  44  67  99 138 177 224 272 335 402
#     4  10  22  39  59  85 114 154 197 248 313 366
#
# _framework density 22.782627000000002
#
# number of rings (size 3 to 8) (size 9 to 14) (size 15 to 20)
#    0.000    1.867    0.000    2.400    5.600    4.267 
#    0.000    0.000    0.000    0.000    0.000    0.000 
#    0.000    0.000    0.000    0.000    0.000    0.000 
#
# Total GULP energy -167083.100101 kJ/mol
# GULP energy per Si atom -5569.436670 kJ/mol
# Density = 2.273077 g / cm^3
# Si number density = 22.782627 Si / 1000 Ang^3
#
#
#
# Elastic Constant Matrix: (Units=GPa)
#
#
# Indices 1 2 3 4 5 6 
#
# 1 99.7306 35.9582 38.1823 0.0000 -18.4200 0.0000
# 2 35.9582 202.5803 66.9277 0.0000 -33.8192 0.0000
# 3 38.1823 66.9277 69.0022 0.0000 -21.1979 0.0000
# 4 0.0000 0.0000 0.0000 30.0979 0.0000 -9.6205
# 5 -18.4200 -33.8192 -21.1979 0.0000 52.2861 0.0000
# 6 0.0000 0.0000 0.0000 -9.6205 0.0000 27.6357
#
#
#
# Elastic Compliance Matrix: (Units=1/GPa)
#
#
# Indices 1 2 3 4 5 6 
#
# 1 0.012894 0.000290 -0.006812 0.000000 0.001969 0.000000
# 2 0.000290 0.007479 -0.006736 0.000000 0.002209 0.000000
# 3 -0.006812 -0.006736 0.025952 0.000000 0.003765 0.000000
# 4 0.000000 0.000000 0.000000 0.037385 0.000000 0.013014
# 5 0.001969 0.002209 0.003765 0.000000 0.022774 0.000000
# 6 0.000000 0.000000 0.000000 0.013014 0.000000 0.040716
#
#
# Mechanical properties :
#
#
# Convention : Reuss Voigt Hill
#
# Bulk Modulus (GPa) = 50.48087 72.60548 61.54318
# Shear Modulus (GPa) = 27.72891 37.35361 32.54126
#
# Velocity S-wave (km/s) = 3.49249 4.05355 3.78343
# Velocity P-wave (km/s) = 6.20234 7.33800 6.79394
#
# Compressibility (1/GPa) = 0.01980948
#
# Stress axis : x y z
#
# Youngs Moduli (GPa) = 77.55680 133.70728 38.53295
#
# Poissons Ratio (x) = -0.03883 0.26247
# Poissons Ratio (y) = -0.02252 0.25957
# Poissons Ratio (z) = 0.52829 0.90069
#
# Static dielectric constant tensor:
#      x y z
#    x 1.908100 0.000000 0.107020 
#    y 0.000000 2.028540 0.000000 
#    z 0.107020 0.000000 1.856890 
# 
# From -- ./inp_files/94320.got.cif
#   From: 2010.05.17/outbox.cif.g08.bks.cpg/sg10_48_cif.got.tgz:94320.got - 2010.06.03 11:33:40.
