data_PCOD9152830
_publ_section_title
;
Structure prediction by ZEFSAII (Michael W. Deem and Ramdas Pophale) SiO2 
 PCOD9152830
Probable space group: P 2/M
;
_chemical_formula_sum "Si O2"
_cell_formula_units_Z 18
_cell_length_a 5.070498
_cell_length_b 18.187237
_cell_length_c 8.877767
_cell_angle_alpha 90.000000
_cell_angle_beta 120.865820
_cell_angle_gamma 90.000000
_cell_volume 702.742429
_symmetry_space_group_name_H-M "P 2/M"
_symmetry_group_IT_number 10
_symmetry_cell_setting 'monoclinic'
loop_
_space_group_symop_operation_xyz
x,y,z
-x,y,-z
-x,-y,-z
x,-y,z
loop_
_atom_site_type_symbol
_atom_site_label
_atom_site_fract_x
_atom_site_fract_y
_atom_site_fract_z
Si Si1 0.828042 0.084484 0.142179
Si Si2 0.000000 0.341366 0.000000
Si Si3 0.480714 0.124164 0.661759
Si Si4 0.786352 0.417865 0.203078
Si Si5 0.548582 0.706678 0.338359
O O1 0.756389 0.084561 0.298968
O O2 0.152833 0.119659 0.191295
O O3 0.829876 0.000000 0.090198
O O4 0.500000 0.121334 0.000000
O O5 0.277212 0.289641 0.131630
O O6 0.039591 0.395899 0.155298
O O7 0.500000 0.092892 0.500000
O O8 0.361397 0.208356 0.621892
O O9 0.812329 0.500000 0.270398
O O10 0.757423 0.354302 0.316793
O O11 0.500000 0.414739 0.000000
O O12 0.500000 0.684475 0.500000
#
# Coordination Sequence:
#
# PCOD9152830 Si02
#       5
#     4   2   4   4   4
#     4  11  25  44  69 102 137 176 225 279 339 408
#     4  10  21  38  64  88 123 172 218 278 343 404
#     4  11  25  43  68  98 136 181 226 280 338 408
#     4   9  19  38  63  91 126 169 222 277 340 405
#     4  10  24  40  60  95 131 170 226 279 337 408
#
# _framework density 25.613935999999999
#
# number of rings (size 3 to 8) (size 9 to 14) (size 15 to 20)
#    0.000    1.778    0.000    2.333    6.222    7.556 
#    0.000    1.111    0.000    0.000    0.000    0.000 
#    0.000    0.000    0.000    0.000    0.000    0.000 
#
# Total GULP energy -100243.797265 kJ/mol
# GULP energy per Si atom -5569.099848 kJ/mol
# Density = 2.555564 g / cm^3
# Si number density = 25.613936 Si / 1000 Ang^3
#
#
#
# Elastic Constant Matrix: (Units=GPa)
#
#
# Indices 1 2 3 4 5 6 
#
# 1 130.9917 46.4984 35.7018 0.0000 -12.3366 0.0000
# 2 46.4984 129.0905 12.0070 0.0000 -29.8956 0.0000
# 3 35.7018 12.0070 121.3904 0.0000 0.1722 0.0000
# 4 0.0000 0.0000 0.0000 114.7147 0.0000 17.7375
# 5 -12.3366 -29.8956 0.1722 0.0000 55.1193 0.0000
# 6 0.0000 0.0000 0.0000 17.7375 0.0000 13.3357
#
#
#
# Elastic Compliance Matrix: (Units=1/GPa)
#
#
# Indices 1 2 3 4 5 6 
#
# 1 0.009439 -0.003064 -0.002474 0.000000 0.000459 0.000000
# 2 -0.003064 0.009949 -0.000090 0.000000 0.004711 0.000000
# 3 -0.002474 -0.000090 0.008975 0.000000 -0.000630 0.000000
# 4 0.000000 0.000000 0.000000 0.010974 0.000000 -0.014597
# 5 0.000459 0.004711 -0.000630 0.000000 0.020802 0.000000
# 6 0.000000 0.000000 0.000000 -0.014597 0.000000 0.094401
#
#
# Mechanical properties :
#
#
# Convention : Reuss Voigt Hill
#
# Bulk Modulus (GPa) = 58.44750 63.32079 60.88414
# Shear Modulus (GPa) = 29.15479 55.78496 42.46988
#
# Velocity S-wave (km/s) = 3.37744 4.67188 4.07637
# Velocity P-wave (km/s) = 6.17071 7.34008 6.78065
#
# Compressibility (1/GPa) = 0.01710937
#
# Stress axis : x y z
#
# Youngs Moduli (GPa) = 105.94375 100.50908 111.41823
#
# Poissons Ratio (x) = 0.30792 0.27561
# Poissons Ratio (y) = 0.32457 0.01000
# Poissons Ratio (z) = 0.26207 0.00902
#
# Static dielectric constant tensor:
#      x y z
#    x 2.511180 0.000000 0.076660 
#    y 0.000000 1.913080 0.000000 
#    z 0.076660 0.000000 2.318690 
# 
# From -- ./inp_files/14848.got.cif
#   From: 2010.05.17/outbox.cif.g08.bks.cpg/sg10_8_cif.got.tgz:14848.got - 2010.06.03 11:33:40.
