data_PCOD9152067
_publ_section_title
;
Structure prediction by ZEFSAII (Michael W. Deem and Ramdas Pophale) SiO2 
 PCOD9152067
Probable space group: P 2/M
;
_chemical_formula_sum "Si O2"
_cell_formula_units_Z 24
_cell_length_a 17.767217
_cell_length_b 8.706069
_cell_length_c 14.365831
_cell_angle_alpha 90.000000
_cell_angle_beta 36.087309
_cell_angle_gamma 90.000000
_cell_volume 1308.881620
_symmetry_space_group_name_H-M "P 2/M"
_symmetry_group_IT_number 10
_symmetry_cell_setting 'monoclinic'
loop_
_space_group_symop_operation_xyz
x,y,z
-x,y,-z
-x,-y,-z
x,-y,z
loop_
_atom_site_type_symbol
_atom_site_label
_atom_site_fract_x
_atom_site_fract_y
_atom_site_fract_z
Si Si1 0.509631 0.185430 0.382220
Si Si2 0.012875 0.316377 0.878155
Si Si3 0.141994 0.183244 0.257302
Si Si4 0.251637 0.817189 0.530771
Si Si5 0.142206 0.316900 0.457444
Si Si6 0.751255 0.683486 0.031761
O O1 0.500000 0.232804 0.500000
O O2 0.380651 0.226619 0.455795
O O3 0.522290 0.000000 0.367778
O O4 0.630696 0.258242 0.210219
O O5 0.034514 0.500000 0.846145
O O6 0.130601 0.229162 0.714468
O O7 0.880889 0.278378 0.958446
O O8 0.000000 0.281736 0.000000
O O9 0.181138 0.246317 0.319312
O O10 0.234607 0.238141 0.082867
O O11 0.000737 0.253136 0.379667
O O12 0.132287 0.000000 0.269398
O O13 0.232461 0.734640 0.451213
O O14 0.252102 0.000000 0.515612
O O15 0.135483 0.500000 0.457709
O O16 0.745720 0.500000 0.026229
#
# Coordination Sequence:
#
# PCOD9152067 Si02
#       6
#     4   4   4   4   4   4
#     4  10  23  42  61  84 119 162 204 247 297 354
#     4  10  21  36  56  84 117 151 193 248 300 351
#     4  11  21  36  60  89 121 155 194 241 295 355
#     4  11  22  37  59  87 117 156 201 245 297 354
#     4  11  21  36  59  88 122 155 193 243 297 354
#     4  11  22  37  59  88 120 157 199 244 296 354
#
# _framework density 18.336264
#
# number of rings (size 3 to 8) (size 9 to 14) (size 15 to 20)
#    0.000    1.333    1.667    6.000    0.000    2.667 
#    0.000    0.833    0.000    5.000    0.000    0.000 
#    0.000    0.000    0.000    0.000    0.000    0.000 
#
# Total GULP energy -134182.925705 kJ/mol
# GULP energy per Si atom -5590.955238 kJ/mol
# Density = 1.829453 g / cm^3
# Si number density = 18.336264 Si / 1000 Ang^3
#
#
#
# Elastic Constant Matrix: (Units=GPa)
#
#
# Indices 1 2 3 4 5 6 
#
# 1 137.7799 64.3859 70.6709 0.0000 14.8806 0.0000
# 2 64.3859 95.1849 62.9972 0.0000 3.8614 0.0000
# 3 70.6709 62.9972 137.1031 0.0000 14.3677 0.0000
# 4 0.0000 0.0000 0.0000 37.9002 0.0000 6.2830
# 5 14.8806 3.8614 14.3677 0.0000 30.6707 0.0000
# 6 0.0000 0.0000 0.0000 6.2830 0.0000 25.4466
#
#
#
# Elastic Compliance Matrix: (Units=1/GPa)
#
#
# Indices 1 2 3 4 5 6 
#
# 1 0.012003 -0.005933 -0.003080 0.000000 -0.003634 0.000000
# 2 -0.005933 0.018089 -0.005591 0.000000 0.003220 0.000000
# 3 -0.003080 -0.005591 0.011799 0.000000 -0.003329 0.000000
# 4 0.000000 0.000000 0.000000 0.027511 0.000000 -0.006793
# 5 -0.003634 0.003220 -0.003329 0.000000 0.035521 0.000000
# 6 0.000000 0.000000 0.000000 -0.006793 0.000000 0.040975
#
#
# Mechanical properties :
#
#
# Convention : Reuss Voigt Hill
#
# Bulk Modulus (GPa) = 78.84581 85.13064 81.98823
# Shear Modulus (GPa) = 27.88093 30.27109 29.07601
#
# Velocity S-wave (km/s) = 3.90363 4.06752 3.98642
# Velocity P-wave (km/s) = 7.96311 8.28178 8.12401
#
# Compressibility (1/GPa) = 0.01268298
#
# Stress axis : x y z
#
# Youngs Moduli (GPa) = 83.31361 55.28269 84.75234
#
# Poissons Ratio (x) = 0.32801 0.26103
# Poissons Ratio (y) = 0.49432 0.47383
# Poissons Ratio (z) = 0.25660 0.30907
#
# Static dielectric constant tensor:
#      x y z
#    x 1.629990 0.000000 0.009790 
#    y 0.000000 1.615080 0.000000 
#    z 0.009790 0.000000 1.595780 
# 
# From -- ./inp_files/68479.got.cif
#   From: 2010.05.17/outbox.cif.g08.bks.cpg/sg10_35_cif.got.tgz:68479.got - 2010.06.03 11:33:40.
