data_PCOD9152693
_publ_section_title
;
Structure prediction by ZEFSAII (Michael W. Deem and Ramdas Pophale) SiO2 
 PCOD9152693
Probable space group: P 2/M
;
_chemical_formula_sum "Si O2"
_cell_formula_units_Z 24
_cell_length_a 10.254374
_cell_length_b 8.781598
_cell_length_c 14.419401
_cell_angle_alpha 90.000000
_cell_angle_beta 89.938196
_cell_angle_gamma 90.000000
_cell_volume 1298.463280
_symmetry_space_group_name_H-M "P 2/M"
_symmetry_group_IT_number 10
_symmetry_cell_setting 'monoclinic'
loop_
_space_group_symop_operation_xyz
x,y,z
-x,y,-z
-x,-y,-z
x,-y,z
loop_
_atom_site_type_symbol
_atom_site_label
_atom_site_fract_x
_atom_site_fract_y
_atom_site_fract_z
Si Si1 0.628915 0.319987 0.438431
Si Si2 0.780313 0.816502 0.753473
Si Si3 0.487796 0.317462 0.757447
Si Si4 0.867580 0.816929 0.548512
Si Si5 0.867496 0.317503 0.945129
Si Si6 0.369167 0.176490 0.938699
O O1 0.500000 0.299067 0.500000
O O2 0.660051 0.500000 0.437447
O O3 0.589568 0.272079 0.335225
O O4 0.746814 0.232550 0.485442
O O5 0.631151 0.757459 0.758695
O O6 0.841899 0.766615 0.654755
O O7 0.857051 0.752340 0.842249
O O8 0.779056 0.000000 0.757669
O O9 0.504580 0.500000 0.756948
O O10 0.404929 0.264761 0.845403
O O11 0.000000 0.760252 0.500000
O O12 0.873437 0.000000 0.551537
O O13 0.857903 0.500000 0.938218
O O14 0.746520 0.253249 0.003997
O O15 0.000000 0.279206 0.000000
O O16 0.337505 0.000000 0.919317
O O17 0.500000 0.179766 0.000000
#
# Coordination Sequence:
#
# PCOD9152693 Si02
#       6
#     4   4   4   4   4   4
#     4  10  21  38  60  90 121 155 204 251 298 356
#     4  11  22  38  62  90 121 161 207 251 307 366
#     4  11  22  37  62  92 125 161 204 255 305 359
#     4  10  23  41  61  89 125 163 204 250 303 363
#     4  11  25  43  64  91 124 162 205 251 306 367
#     4  11  23  39  62  93 123 156 204 251 300 362
#
# _framework density 18.483387
#
# number of rings (size 3 to 8) (size 9 to 14) (size 15 to 20)
#    0.000    1.333    3.333    2.000    0.000    6.000 
#    0.000    3.333    0.000    0.000    0.000    0.000 
#    0.000    0.000    0.000    0.000    0.000    0.000 
#
# Total GULP energy -134112.731174 kJ/mol
# GULP energy per Si atom -5588.030466 kJ/mol
# Density = 1.844132 g / cm^3
# Si number density = 18.483387 Si / 1000 Ang^3
#
#
#
# Elastic Constant Matrix: (Units=GPa)
#
#
# Indices 1 2 3 4 5 6 
#
# 1 102.9563 36.9105 65.7408 0.0000 5.4122 0.0000
# 2 36.9105 50.4049 46.7059 0.0000 4.8359 0.0000
# 3 65.7408 46.7059 171.4838 0.0000 8.8064 0.0000
# 4 0.0000 0.0000 0.0000 25.7750 0.0000 9.4195
# 5 5.4122 4.8359 8.8064 0.0000 26.9910 0.0000
# 6 0.0000 0.0000 0.0000 9.4195 0.0000 -80.4486
#
#
#
# Elastic Compliance Matrix: (Units=1/GPa)
#
#
# Indices 1 2 3 4 5 6 
#
# 1 0.014675 -0.007372 -0.003595 0.000000 -0.000449 0.000000
# 2 -0.007372 0.030398 -0.005339 0.000000 -0.002226 0.000000
# 3 -0.003595 -0.005339 0.008724 0.000000 -0.001169 0.000000
# 4 0.000000 0.000000 0.000000 0.037205 0.000000 0.004356
# 5 -0.000449 -0.002226 -0.001169 0.000000 0.037920 0.000000
# 6 0.000000 0.000000 0.000000 0.004356 0.000000 -0.011920
#
#
# Mechanical properties :
#
#
# Convention : Reuss Voigt Hill
#
# Bulk Modulus (GPa) = 47.20225 69.28436 58.24331
# Shear Modulus (GPa) = 31.91321 6.16267 19.03794
#
# Velocity S-wave (km/s) = 4.15973 1.82795 3.21285
# Velocity P-wave (km/s) = 6.97598 6.48238 6.73370
#
# Compressibility (1/GPa) = 0.02118543
#
# Stress axis : x y z
#
# Youngs Moduli (GPa) = 68.14411 32.89652 114.62924
#
# Poissons Ratio (x) = 0.24251 0.41208
# Poissons Ratio (y) = 0.50235 0.61200
# Poissons Ratio (z) = 0.24497 0.17563
#
# Static dielectric constant tensor:
#      x y z
#    x 1.556190 0.000000 -0.242440 
#    y 0.000000 1.628660 0.000000 
#    z -0.242440 0.000000 0.246590 
# 
# From -- ./inp_files/60264.got.cif
#   From: 2010.05.17/outbox.cif.g08.bks.cpg/sg10_31_cif.got.tgz:60264.got - 2010.06.03 11:33:40.
