data_PCOD9152942
_publ_section_title
;
Structure prediction by ZEFSAII (Michael W. Deem and Ramdas Pophale) SiO2 
 PCOD9152942
Probable space group: P 2/M
;
_chemical_formula_sum "Si O2"
_cell_formula_units_Z 26
_cell_length_a 15.890945
_cell_length_b 15.986914
_cell_length_c 9.195731
_cell_angle_alpha 90.000000
_cell_angle_beta 145.485544
_cell_angle_gamma 90.000000
_cell_volume 1323.695333
_symmetry_space_group_name_H-M "P 2/M"
_symmetry_group_IT_number 10
_symmetry_cell_setting 'monoclinic'
loop_
_space_group_symop_operation_xyz
x,y,z
-x,y,-z
-x,-y,-z
x,-y,z
loop_
_atom_site_type_symbol
_atom_site_label
_atom_site_fract_x
_atom_site_fract_y
_atom_site_fract_z
Si Si1 0.178114 0.849574 0.757830
Si Si2 0.358505 0.295073 0.888481
Si Si3 0.182040 0.000000 0.264654
Si Si4 0.792771 0.596187 0.559709
Si Si5 0.000000 0.279245 0.000000
Si Si6 0.323972 0.000000 0.787197
Si Si7 0.439761 0.670421 0.559199
Si Si8 0.750958 0.828484 0.799787
O O1 0.225902 0.768001 0.734203
O O2 0.269799 0.921946 0.806997
O O3 0.000000 0.863959 0.500000
O O4 0.230738 0.839932 0.000673
O O5 0.299208 0.372092 0.709970
O O6 0.500000 0.257284 0.000000
O O7 0.428296 0.321580 0.139233
O O8 0.235350 0.000000 0.507803
O O9 0.247927 0.918346 0.277216
O O10 0.000000 0.000000 0.000000
O O11 0.834621 0.500000 0.610662
O O12 0.926349 0.659582 0.777373
O O13 0.687781 0.616256 0.547800
O O14 0.108482 0.219500 0.066602
O O15 0.500000 0.000000 0.000000
O O16 0.500000 0.630358 0.500000
O O17 0.378270 0.763592 0.432039
#
# Coordination Sequence:
#
# PCOD9152942 Si02
#       8
#     4   4   2   4   2   2   4   4
#     4  12  24  42  66  95 131 173 226 276 330 395
#     4  10  22  39  66  91 131 171 219 263 335 394
#     4  12  25  42  66  96 133 175 222 277 328 395
#     4  10  22  39  66  95 128 169 216 269 334 406
#     4  10  21  41  68  96 126 174 214 269 331 408
#     4  12  30  44  66  99 138 179 224 283 338 388
#     4  10  21  39  61  94 124 168 219 270 322 388
#     4  11  23  40  68  92 131 171 223 266 330 386
#
# _framework density 19.641981999999999
#
# number of rings (size 3 to 8) (size 9 to 14) (size 15 to 20)
#    0.000    1.231    2.308    3.231    8.615    3.077 
#    0.000    1.154    0.000    1.385    0.000    0.000 
#    0.000    0.000    0.000    0.000    0.000    0.000 
#
# Total GULP energy -145146.315267 kJ/mol
# GULP energy per Si atom -5582.550587 kJ/mol
# Density = 1.959728 g / cm^3
# Si number density = 19.641982 Si / 1000 Ang^3
#
#
#
# Elastic Constant Matrix: (Units=GPa)
#
#
# Indices 1 2 3 4 5 6 
#
# 1 106.0675 44.7465 38.0015 0.0000 -15.0908 0.0000
# 2 44.7465 109.4407 21.2277 0.0000 -10.0799 0.0000
# 3 38.0015 21.2277 101.8964 0.0000 -19.9175 0.0000
# 4 0.0000 0.0000 0.0000 5.5272 0.0000 -5.2599
# 5 -15.0908 -10.0799 -19.9175 0.0000 45.0364 0.0000
# 6 0.0000 0.0000 0.0000 -5.2599 0.0000 8.8936
#
#
#
# Elastic Compliance Matrix: (Units=1/GPa)
#
#
# Indices 1 2 3 4 5 6 
#
# 1 0.012785 -0.004385 -0.003513 0.000000 0.001749 0.000000
# 2 -0.004385 0.011104 -0.000525 0.000000 0.000784 0.000000
# 3 -0.003513 -0.000525 0.012019 0.000000 0.004021 0.000000
# 4 0.000000 0.000000 0.000000 0.413848 0.000000 0.244758
# 5 0.001749 0.000784 0.004021 0.000000 0.024744 0.000000
# 6 0.000000 0.000000 0.000000 0.244758 0.000000 0.257195
#
#
# Mechanical properties :
#
#
# Convention : Reuss Voigt Hill
#
# Bulk Modulus (GPa) = 52.45549 58.37289 55.41419
# Shear Modulus (GPa) = 6.62344 26.12003 16.37173
#
# Velocity S-wave (km/s) = 1.83831 3.65061 2.89018
# Velocity P-wave (km/s) = 5.59193 6.89581 6.27781
#
# Compressibility (1/GPa) = 0.01906378
#
# Stress axis : x y z
#
# Youngs Moduli (GPa) = 78.21522 90.05590 83.19988
#
# Poissons Ratio (x) = 0.39489 0.29226
# Poissons Ratio (y) = 0.34297 0.04366
# Poissons Ratio (z) = 0.27475 0.04725
#
# Static dielectric constant tensor:
#      x y z
#    x 1.714940 0.000000 -0.015900 
#    y 0.000000 1.672600 0.000000 
#    z -0.015900 0.000000 1.760930 
# 
# From -- ./inp_files/29856.got.cif
#   From: 2010.05.17/outbox.cif.g08.bks.cpg/sg10_15_cif.got.tgz:29856.got - 2010.06.03 11:33:40.
