data_PCOD9152247
_publ_section_title
;
Structure prediction by ZEFSAII (Michael W. Deem and Ramdas Pophale) SiO2 
 PCOD9152247
Probable space group: P 2/M
;
_chemical_formula_sum "Si O2"
_cell_formula_units_Z 29
_cell_length_a 21.559663
_cell_length_b 7.498101
_cell_length_c 19.334630
_cell_angle_alpha 90.000000
_cell_angle_beta 22.957109
_cell_angle_gamma 90.000000
_cell_volume 1219.103075
_symmetry_space_group_name_H-M "P 2/M"
_symmetry_group_IT_number 10
_symmetry_cell_setting 'monoclinic'
loop_
_space_group_symop_operation_xyz
x,y,z
-x,y,-z
-x,-y,-z
x,-y,z
loop_
_atom_site_type_symbol
_atom_site_label
_atom_site_fract_x
_atom_site_fract_y
_atom_site_fract_z
Si Si1 0.558974 0.784695 0.514450
Si Si2 0.122824 0.204308 0.521703
Si Si3 0.529640 0.205557 0.830148
Si Si4 0.040859 0.709412 0.179118
Si Si5 0.605951 0.709928 0.172634
Si Si6 0.000000 0.500000 0.500000
Si Si7 0.189838 0.782800 0.239850
Si Si8 0.080161 0.784560 0.846836
O O1 0.500000 0.721617 0.500000
O O2 0.453435 0.734259 0.688417
O O3 0.738381 0.722661 0.342640
O O4 0.559584 0.000000 0.511284
O O5 0.297465 0.286084 0.331243
O O6 0.091307 0.205155 0.636544
O O7 0.954980 0.275646 0.663632
O O8 0.128340 0.000000 0.491538
O O9 0.503844 0.209621 0.773930
O O10 0.537854 0.000000 0.844342
O O11 0.363486 0.271172 0.033428
O O12 0.037700 0.500000 0.197957
O O13 0.009727 0.731520 0.130136
O O14 0.215458 0.783209 0.016907
O O15 0.610659 0.500000 0.153497
O O16 0.138372 0.660078 0.356295
O O17 0.186679 0.000000 0.252485
O O18 0.080584 0.000000 0.848401
O O19 0.000000 0.721708 0.000000
#
# Coordination Sequence:
#
# PCOD9152247 Si02
#       8
#     4   4   4   4   4   1   4   4
#     4  10  21  37  56  78 107 150 204 258 317 386
#     4  10  21  39  65  94 126 167 213 263 318 376
#     4  10  21  39  65  94 126 167 213 263 318 376
#     4  11  23  36  55  85 121 158 203 258 321 383
#     4  11  23  36  55  85 121 158 203 258 321 383
#     4  12  26  44  78 102 140 182 222 260 306 414
#     4  10  23  45  69 100 139 177 216 271 323 372
#     4  10  21  37  56  78 107 150 204 258 317 386
#
# _framework density 23.787980999999998
#
# number of rings (size 3 to 8) (size 9 to 14) (size 15 to 20)
#    0.000    1.655    1.379    2.690    1.931    7.724 
#    0.000    1.379    0.000    3.310    0.000    0.000 
#    0.000    0.000    0.000    0.000    0.000    0.000 
#
# Total GULP energy -161778.733555 kJ/mol
# GULP energy per Si atom -5578.577019 kJ/mol
# Density = 2.373384 g / cm^3
# Si number density = 23.787981 Si / 1000 Ang^3
#
#
#
# Elastic Constant Matrix: (Units=GPa)
#
#
# Indices 1 2 3 4 5 6 
#
# 1 96.9809 -2.9683 54.9502 0.0000 -17.2753 0.0000
# 2 -2.9683 91.6035 16.8184 0.0000 -6.2835 0.0000
# 3 54.9502 16.8184 203.5992 0.0000 -16.3197 0.0000
# 4 0.0000 0.0000 0.0000 33.1174 0.0000 36.4818
# 5 -17.2753 -6.2835 -16.3197 0.0000 42.3419 0.0000
# 6 0.0000 0.0000 0.0000 36.4818 0.0000 23.4494
#
#
#
# Elastic Compliance Matrix: (Units=1/GPa)
#
#
# Indices 1 2 3 4 5 6 
#
# 1 0.012954 0.001309 -0.003266 0.000000 0.004221 0.000000
# 2 0.001309 0.011290 -0.001144 0.000000 0.001769 0.000000
# 3 -0.003266 -0.001144 0.005951 0.000000 0.000791 0.000000
# 4 0.000000 0.000000 0.000000 -0.042302 0.000000 0.065812
# 5 0.004221 0.001769 0.000791 0.000000 0.025907 0.000000
# 6 0.000000 0.000000 0.000000 0.065812 0.000000 -0.059742
#
#
# Mechanical properties :
#
#
# Convention : Reuss Voigt Hill
#
# Bulk Modulus (GPa) = 41.67937 58.86491 50.27214
# Shear Modulus (GPa) = -157.51850 41.34063 -58.08894
#
# Velocity S-wave (km/s) = -8.14625 4.17331 -4.94696
# Velocity P-wave (km/s) = 8.42156 6.92975 3.38388
#
# Compressibility (1/GPa) = 0.02399268
#
# Stress axis : x y z
#
# Youngs Moduli (GPa) = 77.19808 88.57081 168.03850
#
# Poissons Ratio (x) = -0.11593 0.54880
# Poissons Ratio (y) = -0.10104 0.19226
# Poissons Ratio (z) = 0.25212 0.10134
#
# Static dielectric constant tensor:
#      x y z
#    x 1.964420 0.000000 0.019780 
#    y 0.000000 1.919910 0.000000 
#    z 0.019780 0.000000 1.903480 
# 
# From -- ./inp_files/86498.got.cif
#   From: 2010.05.17/outbox.cif.g08.bks.cpg/sg10_44_cif.got.tgz:86498.got - 2010.06.03 11:33:40.
