data_PCOD9152670
_publ_section_title
;
Structure prediction by ZEFSAII (Michael W. Deem and Ramdas Pophale) SiO2 
 PCOD9152670
Probable space group: P 2/M
;
_chemical_formula_sum "Si O2"
_cell_formula_units_Z 28
_cell_length_a 13.041161
_cell_length_b 7.835409
_cell_length_c 14.984496
_cell_angle_alpha 90.000000
_cell_angle_beta 57.843309
_cell_angle_gamma 90.000000
_cell_volume 1296.271984
_symmetry_space_group_name_H-M "P 2/M"
_symmetry_group_IT_number 10
_symmetry_cell_setting 'monoclinic'
loop_
_space_group_symop_operation_xyz
x,y,z
-x,y,-z
-x,-y,-z
x,-y,z
loop_
_atom_site_type_symbol
_atom_site_label
_atom_site_fract_x
_atom_site_fract_y
_atom_site_fract_z
Si Si1 0.492629 0.294623 0.105019
Si Si2 0.451249 0.791439 0.426072
Si Si3 0.080218 0.295432 0.880984
Si Si4 0.818976 0.797289 0.494167
Si Si5 0.980870 0.700355 0.739240
Si Si6 0.229036 0.707023 0.284418
Si Si7 0.351500 0.797055 0.806884
O O1 0.486123 0.500000 0.104894
O O2 0.367460 0.232957 0.208612
O O3 0.607273 0.249212 0.112596
O O4 0.500000 0.232155 0.000000
O O5 0.500000 0.740458 0.500000
O O6 0.314442 0.734271 0.472595
O O7 0.543565 0.729876 0.307653
O O8 0.449490 0.000000 0.424145
O O9 0.065347 0.500000 0.885601
O O10 0.034161 0.226934 0.806711
O O11 0.220558 0.263281 0.836357
O O12 0.000000 0.227739 0.000000
O O13 0.920721 0.716858 0.384904
O O14 0.827588 0.762519 0.595377
O O15 0.825312 0.000000 0.476723
O O16 0.959015 0.500000 0.765314
O O17 0.855438 0.770132 0.757406
O O18 0.229512 0.500000 0.283629
O O19 0.351202 0.000000 0.799666
#
# Coordination Sequence:
#
# PCOD9152670 Si02
#       7
#     4   4   4   4   4   4   4
#     4  10  22  39  64  91 118 157 204 248 295 353
#     4   9  18  33  54  80 114 155 191 230 284 346
#     4  10  23  42  65  88 117 157 203 250 294 349
#     4  11  21  36  58  86 120 157 197 239 295 359
#     4  10  22  39  59  86 119 157 200 246 296 347
#     4  10  21  38  60  87 120 156 196 246 297 349
#     4  11  22  39  62  89 124 157 193 244 301 356
#
# _framework density 21.600404999999999
#
# number of rings (size 3 to 8) (size 9 to 14) (size 15 to 20)
#    0.000    1.857    1.429    2.143    2.000    4.571 
#    0.000    0.000    0.000    3.429    0.000    0.000 
#    0.000    0.000    0.000    0.000    0.000    0.000 
#
# Total GULP energy -156484.412466 kJ/mol
# GULP energy per Si atom -5588.729017 kJ/mol
# Density = 2.155124 g / cm^3
# Si number density = 21.600405 Si / 1000 Ang^3
#
#
#
# Elastic Constant Matrix: (Units=GPa)
#
#
# Indices 1 2 3 4 5 6 
#
# 1 159.3011 -2.7404 28.4971 0.0000 24.2212 0.0000
# 2 -2.7404 24.7028 -6.8122 0.0000 2.2736 0.0000
# 3 28.4971 -6.8122 59.5917 0.0000 24.0387 0.0000
# 4 0.0000 0.0000 0.0000 -1.2240 0.0000 5.9465
# 5 24.2212 2.2736 24.0387 0.0000 40.5892 0.0000
# 6 0.0000 0.0000 0.0000 5.9465 0.0000 -0.6101
#
#
#
# Elastic Compliance Matrix: (Units=1/GPa)
#
#
# Indices 1 2 3 4 5 6 
#
# 1 0.007126 0.000478 -0.002138 0.000000 -0.003013 0.000000
# 2 0.000478 0.043308 0.007641 0.000000 -0.007237 0.000000
# 3 -0.002138 0.007641 0.024090 0.000000 -0.013419 0.000000
# 4 0.000000 0.000000 0.000000 0.017626 0.000000 0.171794
# 5 -0.003013 -0.007237 -0.013419 0.000000 0.034788 0.000000
# 6 0.000000 0.000000 0.000000 0.171794 0.000000 0.035362
#
#
# Mechanical properties :
#
#
# Convention : Reuss Voigt Hill
#
# Bulk Modulus (GPa) = 11.56235 31.27606 21.41921
# Shear Modulus (GPa) = 27.90721 22.72776 25.31748
#
# Velocity S-wave (km/s) = 3.59831 3.24727 3.42728
# Velocity P-wave (km/s) = 4.75691 5.34514 5.05958
#
# Compressibility (1/GPa) = 0.08648758
#
# Stress axis : x y z
#
# Youngs Moduli (GPa) = 140.32717 23.09066 41.51128
#
# Poissons Ratio (x) = -0.01105 0.08873
# Poissons Ratio (y) = -0.06714 -0.31719
# Poissons Ratio (z) = 0.29996 -0.17644
#
# Static dielectric constant tensor:
#      x y z
#    x 1.782080 0.000000 0.009930 
#    y 0.000000 1.779590 0.000000 
#    z 0.009930 0.000000 1.764640 
# 
# From -- ./inp_files/49548.got.cif
#   From: 2010.05.17/outbox.cif.g08.bks.cpg/sg10_25_cif.got.tgz:49548.got - 2010.06.03 11:33:40.
