data_PCOD9152939
_publ_section_title
;
Structure prediction by ZEFSAII (Michael W. Deem and Ramdas Pophale) SiO2 
 PCOD9152939
Probable space group: P 2/M
;
_chemical_formula_sum "Si O2"
_cell_formula_units_Z 32
_cell_length_a 8.806359
_cell_length_b 22.260229
_cell_length_c 14.565968
_cell_angle_alpha 90.000000
_cell_angle_beta 148.513956
_cell_angle_gamma 90.000000
_cell_volume 1491.343875
_symmetry_space_group_name_H-M "P 2/M"
_symmetry_group_IT_number 10
_symmetry_cell_setting 'monoclinic'
loop_
_space_group_symop_operation_xyz
x,y,z
-x,y,-z
-x,-y,-z
x,-y,z
loop_
_atom_site_type_symbol
_atom_site_label
_atom_site_fract_x
_atom_site_fract_y
_atom_site_fract_z
Si Si1 0.377901 0.093905 0.341538
Si Si2 0.671816 0.067003 0.307737
Si Si3 0.823155 0.235315 0.150619
Si Si4 0.649006 0.337933 0.336297
Si Si5 0.714472 0.632896 0.037788
Si Si6 0.837120 0.142033 0.013133
Si Si7 0.616044 0.229726 0.460338
Si Si8 0.778942 0.431564 0.798720
O O1 0.500000 0.072189 0.500000
O O2 0.502558 0.062499 0.317097
O O3 0.475849 0.164069 0.378771
O O4 0.030808 0.094381 0.168807
O O5 0.000000 0.084964 0.500000
O O6 0.674957 0.000000 0.266888
O O7 0.487773 0.117637 0.160650
O O8 0.889145 0.205721 0.087159
O O9 0.044821 0.218265 0.344010
O O10 0.500000 0.213515 0.000000
O O11 0.819492 0.306404 0.140567
O O12 0.472097 0.346028 0.148567
O O13 0.585363 0.275795 0.359816
O O14 0.498693 0.390167 0.320858
O O15 0.000000 0.342782 0.500000
O O16 0.500000 0.601435 0.000000
O O17 0.002824 0.595980 0.163559
O O18 0.000000 0.142849 0.000000
O O19 0.500000 0.254568 0.500000
O O20 0.693013 0.500000 0.734974
O O21 0.000000 0.431967 0.000000
#
# Coordination Sequence:
#
# PCOD9152939 Si02
#       8
#     4   4   4   4   4   4   4   4
#     4  10  21  39  61  91 121 162 207 258 314 376
#     4  10  24  43  63  89 124 165 210 264 311 371
#     4  11  22  36  57  87 125 160 195 257 317 379
#     4  11  23  37  61  91 126 170 209 264 330 383
#     4  10  22  39  60  91 126 168 217 260 321 387
#     4  10  22  37  61  88 120 161 206 249 311 378
#     4  11  22  39  59  89 130 160 205 265 322 385
#     4   9  20  39  63  89 122 170 218 266 316 375
#
# _framework density 21.457158
#
# number of rings (size 3 to 8) (size 9 to 14) (size 15 to 20)
#    0.000    1.750    2.500    2.250    5.250    4.000 
#    0.000    0.000    0.000   10.500    0.000    0.000 
#    0.000    0.000    0.000    0.000    0.000    0.000 
#
# Total GULP energy -178439.972718 kJ/mol
# GULP energy per Si atom -5576.249147 kJ/mol
# Density = 2.140832 g / cm^3
# Si number density = 21.457158 Si / 1000 Ang^3
#
#
#
# Elastic Constant Matrix: (Units=GPa)
#
#
# Indices 1 2 3 4 5 6 
#
# 1 69.9095 29.2115 5.5822 0.0000 11.3537 0.0000
# 2 29.2115 88.2177 20.7252 0.0000 9.6499 0.0000
# 3 5.5822 20.7252 70.6428 0.0000 14.3157 0.0000
# 4 0.0000 0.0000 0.0000 18.7992 0.0000 13.2652
# 5 11.3537 9.6499 14.3157 0.0000 37.2837 0.0000
# 6 0.0000 0.0000 0.0000 13.2652 0.0000 1.4439
#
#
#
# Elastic Compliance Matrix: (Units=1/GPa)
#
#
# Indices 1 2 3 4 5 6 
#
# 1 0.017199 -0.005492 0.001112 0.000000 -0.004243 0.000000
# 2 -0.005492 0.014058 -0.003570 0.000000 -0.000595 0.000000
# 3 0.001112 -0.003570 0.016262 0.000000 -0.005659 0.000000
# 4 0.000000 0.000000 0.000000 -0.009703 0.000000 0.089135
# 5 -0.004243 -0.000595 -0.005659 0.000000 0.030440 0.000000
# 6 0.000000 0.000000 0.000000 0.089135 0.000000 -0.126321
#
#
# Mechanical properties :
#
#
# Convention : Reuss Voigt Hill
#
# Bulk Modulus (GPa) = 31.62610 37.75641 34.69126
# Shear Modulus (GPa) = -158.10991 23.05544 -67.52724
#
# Velocity S-wave (km/s) = -8.59339 3.28149 -5.61596
# Velocity P-wave (km/s) = 9.14825 5.65615 5.08422
#
# Compressibility (1/GPa) = 0.03161945
#
# Stress axis : x y z
#
# Youngs Moduli (GPa) = 58.14124 71.13361 61.49361
#
# Poissons Ratio (x) = 0.39069 -0.06839
# Poissons Ratio (y) = 0.31933 0.21951
# Poissons Ratio (z) = -0.06466 0.25393
#
# Static dielectric constant tensor:
#      x y z
#    x 1.854920 0.000000 0.005800 
#    y 0.000000 1.768920 0.000000 
#    z 0.005800 0.000000 1.840020 
# 
# From -- ./inp_files/62694.got.cif
#   From: 2010.05.17/outbox.cif.g08.bks.cpg/sg10_32_cif.got.tgz:62694.got - 2010.06.03 11:33:40.
