data_PCOD9152465
_publ_section_title
;
Structure prediction by ZEFSAII (Michael W. Deem and Ramdas Pophale) SiO2 
 PCOD9152465
Probable space group: P 2/M
;
_chemical_formula_sum "Si O2"
_cell_formula_units_Z 30
_cell_length_a 22.587485
_cell_length_b 11.990093
_cell_length_c 5.099166
_cell_angle_alpha 90.000000
_cell_angle_beta 76.153708
_cell_angle_gamma 90.000000
_cell_volume 1340.857196
_symmetry_space_group_name_H-M "P 2/M"
_symmetry_group_IT_number 10
_symmetry_cell_setting 'monoclinic'
loop_
_space_group_symop_operation_xyz
x,y,z
-x,y,-z
-x,-y,-z
x,-y,z
loop_
_atom_site_type_symbol
_atom_site_label
_atom_site_fract_x
_atom_site_fract_y
_atom_site_fract_z
Si Si1 0.395143 0.128919 0.540816
Si Si2 0.136127 0.000000 0.300706
Si Si3 0.689473 0.375465 0.792886
Si Si4 0.839078 0.799824 0.482487
Si Si5 0.929304 0.367522 0.674256
Si Si6 0.067157 0.160899 0.012200
Si Si7 0.274786 0.747886 0.748923
Si Si8 0.566886 0.736818 0.005951
O O1 0.323422 0.152337 0.672971
O O2 0.411718 0.173514 0.235448
O O3 0.409871 0.000000 0.552666
O O4 0.430524 0.203036 0.716941
O O5 0.184904 0.896622 0.300402
O O6 0.087641 0.903365 0.246492
O O7 0.710199 0.500000 0.816507
O O8 0.696879 0.344199 0.480865
O O9 0.619115 0.356570 0.943431
O O10 0.726654 0.295824 0.952207
O O11 0.876513 0.694176 0.558344
O O12 0.789649 0.768321 0.317942
O O13 0.887462 0.874367 0.264572
O O14 0.918978 0.500000 0.711766
O O15 0.927486 0.293436 0.940283
O O16 0.000000 0.352208 0.500000
O O17 0.000000 0.134158 0.000000
O O18 0.500000 0.697207 0.000000
#
# Coordination Sequence:
#
# PCOD9152465 Si02
#       8
#     4   2   4   4   4   4   4   4
#     4  10  21  38  58  87 124 170 201 250 307 357
#     4  10  25  39  63  89 117 154 200 254 312 381
#     4  10  22  43  65  89 125 165 204 253 308 358
#     4  11  24  42  59  90 117 158 205 257 313 376
#     4  10  22  40  60  86 120 154 197 253 316 382
#     4  11  22  40  62  88 119 155 199 252 321 384
#     4  10  24  41  62  90 123 160 213 256 301 369
#     4  10  21  37  60  94 126 157 207 253 297 364
#
# _framework density 22.373745
#
# number of rings (size 3 to 8) (size 9 to 14) (size 15 to 20)
#    0.000    1.733    1.333    1.800    4.667    4.267 
#    0.000    0.000    0.000    4.800    0.000    0.000 
#    0.000    0.000    0.000    0.000    0.000    0.000 
#
# Total GULP energy -167007.208760 kJ/mol
# GULP energy per Si atom -5566.906959 kJ/mol
# Density = 2.232282 g / cm^3
# Si number density = 22.373745 Si / 1000 Ang^3
#
#
#
# Elastic Constant Matrix: (Units=GPa)
#
#
# Indices 1 2 3 4 5 6 
#
# 1 67.5041 3.6214 0.3845 0.0000 25.6771 0.0000
# 2 3.6214 112.2937 0.4484 0.0000 5.9257 0.0000
# 3 0.3845 0.4484 54.8329 0.0000 14.4536 0.0000
# 4 0.0000 0.0000 0.0000 64.8537 0.0000 0.8837
# 5 25.6771 5.9257 14.4536 0.0000 31.7320 0.0000
# 6 0.0000 0.0000 0.0000 0.8837 0.0000 -3.9690
#
#
#
# Elastic Compliance Matrix: (Units=1/GPa)
#
#
# Indices 1 2 3 4 5 6 
#
# 1 0.022702 0.000348 0.005338 0.000000 -0.020867 0.000000
# 2 0.000348 0.009008 0.000502 0.000000 -0.002192 0.000000
# 3 0.005338 0.000502 0.022000 0.000000 -0.014434 0.000000
# 4 0.000000 0.000000 0.000000 0.015373 0.000000 0.003423
# 5 -0.020867 -0.002192 -0.014434 0.000000 0.055383 0.000000
# 6 0.000000 0.000000 0.000000 0.003423 0.000000 -0.251193
#
#
# Mechanical properties :
#
#
# Convention : Reuss Voigt Hill
#
# Bulk Modulus (GPa) = 15.13194 27.05993 21.09594
# Shear Modulus (GPa) = -42.70814 33.86846 -4.41984
#
# Velocity S-wave (km/s) = -4.37378 3.89493 -1.40703
# Velocity P-wave (km/s) = 4.32766 5.68753 2.60954
#
# Compressibility (1/GPa) = 0.06608536
#
# Stress axis : x y z
#
# Youngs Moduli (GPa) = 44.04893 111.01649 45.45357
#
# Poissons Ratio (x) = -0.03860 -0.24264
# Poissons Ratio (y) = -0.01531 -0.02280
# Poissons Ratio (z) = -0.23514 -0.05570
#
# Static dielectric constant tensor:
#      x y z
#    x 1.852950 0.000000 -0.002540 
#    y 0.000000 1.745150 0.000000 
#    z -0.002540 0.000000 1.969100 
# 
# From -- ./inp_files/12427.got.cif
#   From: 2010.05.17/outbox.cif.g08.bks.cpg/sg10_7_cif.got.tgz:12427.got - 2010.06.03 11:33:40.
