data_PCOD9152062
_publ_section_title
;
Structure prediction by ZEFSAII (Michael W. Deem and Ramdas Pophale) SiO2 
 PCOD9152062
Probable space group: P 2/M
;
_chemical_formula_sum "Si O2"
_cell_formula_units_Z 28
_cell_length_a 15.866990
_cell_length_b 8.431939
_cell_length_c 21.127460
_cell_angle_alpha 90.000000
_cell_angle_beta 150.710927
_cell_angle_gamma 90.000000
_cell_volume 1382.834031
_symmetry_space_group_name_H-M "P 2/M"
_symmetry_group_IT_number 10
_symmetry_cell_setting 'monoclinic'
loop_
_space_group_symop_operation_xyz
x,y,z
-x,y,-z
-x,-y,-z
x,-y,z
loop_
_atom_site_type_symbol
_atom_site_label
_atom_site_fract_x
_atom_site_fract_y
_atom_site_fract_z
Si Si1 0.562567 0.184480 0.636922
Si Si2 0.251263 0.316749 0.360959
Si Si3 0.271620 0.692380 0.661202
Si Si4 0.816601 0.308460 0.907526
Si Si5 0.090249 0.813685 0.801423
Si Si6 0.032600 0.308114 0.624013
Si Si7 0.660979 0.691786 0.936825
O O1 0.391128 0.281802 0.507297
O O2 0.689570 0.214063 0.660369
O O3 0.662163 0.242732 0.763775
O O4 0.518883 0.000000 0.612513
O O5 0.260865 0.500000 0.347947
O O6 0.064041 0.276000 0.263651
O O7 0.274406 0.500000 0.660090
O O8 0.168194 0.732956 0.657459
O O9 0.467988 0.745903 0.793425
O O10 0.154563 0.743914 0.525234
O O11 0.812324 0.500000 0.900895
O O12 0.785163 0.264107 0.959694
O O13 0.000000 0.254427 0.000000
O O14 0.081705 0.765785 0.722692
O O15 0.063094 0.000000 0.790360
O O16 0.265739 0.763116 0.950841
O O17 0.031371 0.500000 0.629473
O O18 0.660257 0.500000 0.941553
#
# Coordination Sequence:
#
# PCOD9152062 Si02
#       7
#     4   4   4   4   4   4   4
#     4  11  22  37  58  87 121 154 192 246 308 359
#     4  11  22  39  61  83 113 155 205 249 291 348
#     4   8  17  36  63  92 116 147 201 254 296 353
#     4  10  21  36  56  83 117 159 208 249 289 347
#     4  12  25  39  56  87 124 158 195 245 308 365
#     4   9  18  37  64  90 117 152 195 249 304 358
#     4  10  21  38  60  86 117 159 208 253 296 352
#
# _framework density 20.248272
#
# number of rings (size 3 to 8) (size 9 to 14) (size 15 to 20)
#    0.000    1.857    0.000    6.429    2.000    2.571 
#    0.000    5.714    0.000    0.000    0.000    0.000 
#    0.000    0.000    0.000    0.000    0.000    0.000 
#
# Total GULP energy -156502.643724 kJ/mol
# GULP energy per Si atom -5589.380133 kJ/mol
# Density = 2.020219 g / cm^3
# Si number density = 20.248272 Si / 1000 Ang^3
#
#
#
# Elastic Constant Matrix: (Units=GPa)
#
#
# Indices 1 2 3 4 5 6 
#
# 1 56.9534 6.0614 58.3326 0.0000 -12.3676 0.0000
# 2 6.0614 26.0647 12.2348 0.0000 -0.6814 0.0000
# 3 58.3326 12.2348 121.0586 0.0000 -16.0412 0.0000
# 4 0.0000 0.0000 0.0000 -606.5594 0.0000 243.4329
# 5 -12.3676 -0.6814 -16.0412 0.0000 36.9546 0.0000
# 6 0.0000 0.0000 0.0000 243.4329 0.0000 -82.0585
#
#
#
# Elastic Compliance Matrix: (Units=1/GPa)
#
#
# Indices 1 2 3 4 5 6 
#
# 1 0.035430 -0.000416 -0.016403 0.000000 0.004729 0.000000
# 2 -0.000416 0.040323 -0.004026 0.000000 -0.001143 0.000000
# 3 -0.016403 -0.004026 0.016801 0.000000 0.001729 0.000000
# 4 0.000000 0.000000 0.000000 0.008650 0.000000 0.025662
# 5 0.004729 -0.001143 0.001729 0.000000 0.029372 0.000000
# 6 0.000000 0.000000 0.000000 0.025662 0.000000 0.063941
#
#
# Mechanical properties :
#
#
# Convention : Reuss Voigt Hill
#
# Bulk Modulus (GPa) = 19.66103 39.70382 29.68242
# Shear Modulus (GPa) = 19.75017 -121.83612 -51.04298
#
# Velocity S-wave (km/s) = 3.12653 -7.76542 -5.02626
# Velocity P-wave (km/s) = 4.77123 7.79431 4.35813
#
# Compressibility (1/GPa) = 0.05086203
#
# Stress axis : x y z
#
# Youngs Moduli (GPa) = 28.22456 24.79988 59.52192
#
# Poissons Ratio (x) = 0.01032 0.97637
# Poissons Ratio (y) = 0.01174 0.23965
# Poissons Ratio (z) = 0.46298 0.09985
#
# Static dielectric constant tensor:
#      x y z
#    x 1.702830 0.000000 0.005700 
#    y 0.000000 1.683040 0.000000 
#    z 0.005700 0.000000 1.719890 
# 
# From -- ./inp_files/84999.got.cif
#   From: 2010.05.17/outbox.cif.g08.bks.cpg/sg10_43_cif.got.tgz:84999.got - 2010.06.03 11:33:40.
