data_PCOD9152064
_publ_section_title
;
Structure prediction by ZEFSAII (Michael W. Deem and Ramdas Pophale) SiO2 
 PCOD9152064
Probable space group: P 2/M
;
_chemical_formula_sum "Si O2"
_cell_formula_units_Z 29
_cell_length_a 14.611135
_cell_length_b 9.366184
_cell_length_c 12.392914
_cell_angle_alpha 90.000000
_cell_angle_beta 77.241527
_cell_angle_gamma 90.000000
_cell_volume 1654.103216
_symmetry_space_group_name_H-M "P 2/M"
_symmetry_group_IT_number 10
_symmetry_cell_setting 'monoclinic'
loop_
_space_group_symop_operation_xyz
x,y,z
-x,y,-z
-x,-y,-z
x,-y,z
loop_
_atom_site_type_symbol
_atom_site_label
_atom_site_fract_x
_atom_site_fract_y
_atom_site_fract_z
Si Si1 0.607629 0.669225 0.940672
Si Si2 0.283026 0.831201 0.519219
Si Si3 0.575950 0.833189 0.322945
Si Si4 0.387762 0.330639 0.315132
Si Si5 0.086412 0.330174 0.902106
Si Si6 0.887784 0.343988 0.348539
Si Si7 0.276928 0.831323 0.911135
Si Si8 0.000000 0.500000 0.500000
O O1 0.621684 0.500000 0.957976
O O2 0.621283 0.695200 0.810292
O O3 0.500000 0.703097 0.000000
O O4 0.676553 0.760422 0.996331
O O5 0.368095 0.805742 0.581349
O O6 0.307386 0.746520 0.404494
O O7 0.188546 0.770757 0.596636
O O8 0.276842 0.000000 0.502558
O O9 0.486776 0.734165 0.327711
O O10 0.649759 0.812452 0.206542
O O11 0.545982 0.000000 0.330627
O O12 0.385044 0.500000 0.334236
O O13 0.100901 0.500000 0.916250
O O14 0.067837 0.309824 0.779157
O O15 0.180248 0.245847 0.907238
O O16 0.000000 0.285402 0.000000
O O17 0.837592 0.500000 0.347182
O O18 0.961715 0.377607 0.423540
O O19 0.262669 0.000000 0.929460
#
# Coordination Sequence:
#
# PCOD9152064 Si02
#       8
#     4   4   4   4   4   4   4   1
#     4  10  21  39  58  81 117 159 203 247 291 345
#     4  11  22  38  59  86 122 158 198 244 296 352
#     4  10  21  36  56  83 121 160 196 242 292 344
#     4  11  23  37  56  86 119 161 207 248 287 344
#     4  10  21  39  63  91 116 150 196 248 306 353
#     4   9  19  39  63  85 116 150 193 244 292 357
#     4  11  22  37  60  89 120 156 198 243 297 355
#     4   8  20  40  64  88 110 152 194 242 296 354
#
# _framework density 17.532160000000001
#
# number of rings (size 3 to 8) (size 9 to 14) (size 15 to 20)
#    0.414    1.379    2.759    1.655    0.000    4.966 
#    2.483    0.345    0.000    0.000    0.000    0.000 
#    0.000    0.000    0.000    0.000    0.000    0.000 
#
# Total GULP energy -161561.856586 kJ/mol
# GULP energy per Si atom -5571.098503 kJ/mol
# Density = 1.749226 g / cm^3
# Si number density = 17.532160 Si / 1000 Ang^3
#
#
#
# Elastic Constant Matrix: (Units=GPa)
#
#
# Indices 1 2 3 4 5 6 
#
# 1 67.4906 37.7803 52.6055 0.0000 11.7435 0.0000
# 2 37.7803 60.8703 66.2011 0.0000 5.7521 0.0000
# 3 52.6055 66.2011 130.4634 0.0000 2.5107 0.0000
# 4 0.0000 0.0000 0.0000 -21.1404 0.0000 52.5245
# 5 11.7435 5.7521 2.5107 0.0000 26.7961 0.0000
# 6 0.0000 0.0000 0.0000 52.5245 0.0000 -45.5919
#
#
#
# Elastic Compliance Matrix: (Units=1/GPa)
#
#
# Indices 1 2 3 4 5 6 
#
# 1 0.025826 -0.009044 -0.005654 0.000000 -0.008847 0.000000
# 2 -0.009044 0.040863 -0.017027 0.000000 -0.003213 0.000000
# 3 -0.005654 -0.017027 0.018500 0.000000 0.004400 0.000000
# 4 0.000000 0.000000 0.000000 0.025399 0.000000 0.029262
# 5 -0.008847 -0.003213 0.004400 0.000000 0.041474 0.000000
# 6 0.000000 0.000000 0.000000 0.029262 0.000000 0.011777
#
#
# Mechanical properties :
#
#
# Convention : Reuss Voigt Hill
#
# Bulk Modulus (GPa) = 45.99907 63.55534 54.77721
# Shear Modulus (GPa) = 21.31865 -1.17142 10.07362
#
# Velocity S-wave (km/s) = 3.49087 -0.81829 2.39964
# Velocity P-wave (km/s) = 6.52243 5.95287 6.24415
#
# Compressibility (1/GPa) = 0.02173957
#
# Stress axis : x y z
#
# Youngs Moduli (GPa) = 38.72032 24.47186 54.05419
#
# Poissons Ratio (x) = 0.22133 0.30562
# Poissons Ratio (y) = 0.35020 0.92036
# Poissons Ratio (z) = 0.21893 0.41667
#
# Static dielectric constant tensor:
#      x y z
#    x 1.562730 0.000000 -0.007480 
#    y 0.000000 1.587940 0.000000 
#    z -0.007480 0.000000 1.608350 
# 
# From -- ./inp_files/49244.got.cif
#   From: 2010.05.17/outbox.cif.g08.bks.cpg/sg10_25_cif.got.tgz:49244.got - 2010.06.03 11:33:40.
