data_PCOD9152999
_publ_section_title
;
Structure prediction by ZEFSAII (Michael W. Deem and Ramdas Pophale) SiO2 
 PCOD9152999
Probable space group: P 2/M
;
_chemical_formula_sum "Si O2"
_cell_formula_units_Z 25
_cell_length_a 10.246948
_cell_length_b 20.545296
_cell_length_c 9.601622
_cell_angle_alpha 90.000000
_cell_angle_beta 43.992543
_cell_angle_gamma 90.000000
_cell_volume 1403.990838
_symmetry_space_group_name_H-M "P 2/M"
_symmetry_group_IT_number 10
_symmetry_cell_setting 'monoclinic'
loop_
_space_group_symop_operation_xyz
x,y,z
-x,y,-z
-x,-y,-z
x,-y,z
loop_
_atom_site_type_symbol
_atom_site_label
_atom_site_fract_x
_atom_site_fract_y
_atom_site_fract_z
Si Si1 0.931822 0.195108 0.896788
Si Si2 0.412821 0.348630 0.415573
Si Si3 0.000497 0.346977 0.830741
Si Si4 0.146629 0.133483 0.491481
Si Si5 0.502417 0.220023 0.164367
Si Si6 0.366877 0.576388 0.971368
Si Si7 0.000000 0.000000 0.500000
O O1 0.047920 0.145218 0.714000
O O2 0.984206 0.269590 0.820770
O O3 0.707997 0.193567 0.048184
O O4 0.000000 0.184560 0.000000
O O5 0.500000 0.334740 0.500000
O O6 0.196710 0.365585 0.609704
O O7 0.450908 0.285364 0.289552
O O8 0.517922 0.406785 0.256547
O O9 0.000000 0.358377 0.000000
O O10 0.824289 0.382636 0.895887
O O11 0.346338 0.166680 0.322503
O O12 0.000000 0.169317 0.500000
O O13 0.861133 0.058572 0.547963
O O14 0.500000 0.232114 0.000000
O O15 0.324329 0.500000 0.014336
O O16 0.500000 0.594340 0.000000
#
# Coordination Sequence:
#
# PCOD9152999 Si02
#       7
#     4   4   4   4   4   4   1
#     4  11  22  38  62  98 130 157 208 269 311 357
#     4  12  23  40  65  95 125 160 207 268 316 362
#     4  11  22  41  63  91 126 161 207 261 315 365
#     4  10  21  39  63  90 124 169 204 249 307 360
#     4  12  22  37  64  96 123 164 210 252 312 369
#     4  11  26  45  62  89 128 164 205 261 318 376
#     4   8  20  44  60  90 142 160 202 264 288 372
#
# _framework density 17.806384000000001
#
# number of rings (size 3 to 8) (size 9 to 14) (size 15 to 20)
#    0.480    0.480    6.400    1.440    0.000    1.920 
#    0.000    5.600    0.000    0.960    0.000    0.000 
#    0.000    0.000    0.000    0.000    0.000    0.000 
#
# Total GULP energy -139217.434190 kJ/mol
# GULP energy per Si atom -5568.697368 kJ/mol
# Density = 1.776586 g / cm^3
# Si number density = 17.806384 Si / 1000 Ang^3
#
#
#
# Elastic Constant Matrix: (Units=GPa)
#
#
# Indices 1 2 3 4 5 6 
#
# 1 109.3846 8.7842 36.4991 0.0000 -2.9377 0.0000
# 2 8.7842 24.8948 -4.7437 0.0000 13.5922 0.0000
# 3 36.4991 -4.7437 90.6036 0.0000 -14.7203 0.0000
# 4 0.0000 0.0000 0.0000 7.1237 0.0000 -2.7363
# 5 -2.9377 13.5922 -14.7203 0.0000 26.6463 0.0000
# 6 0.0000 0.0000 0.0000 -2.7363 0.0000 8.8439
#
#
#
# Elastic Compliance Matrix: (Units=1/GPa)
#
#
# Indices 1 2 3 4 5 6 
#
# 1 0.011153 -0.005688 -0.004526 0.000000 0.001631 0.000000
# 2 -0.005688 0.058865 0.000432 0.000000 -0.030415 0.000000
# 3 -0.004526 0.000432 0.014025 0.000000 0.007029 0.000000
# 4 0.000000 0.000000 0.000000 0.159309 0.000000 0.049290
# 5 0.001631 -0.030415 0.007029 0.000000 0.057106 0.000000
# 6 0.000000 0.000000 0.000000 0.049290 0.000000 0.128323
#
#
# Mechanical properties :
#
#
# Convention : Reuss Voigt Hill
#
# Bulk Modulus (GPa) = 15.50908 33.99579 24.75244
# Shear Modulus (GPa) = 10.64199 20.81233 15.72716
#
# Velocity S-wave (km/s) = 2.44734 3.42250 2.97515
# Velocity P-wave (km/s) = 4.08836 5.89503 5.07277
#
# Compressibility (1/GPa) = 0.06447834
#
# Stress axis : x y z
#
# Youngs Moduli (GPa) = 89.66403 16.98810 71.30252
#
# Poissons Ratio (x) = 0.09663 0.32269
# Poissons Ratio (y) = 0.51002 -0.03079
# Poissons Ratio (z) = 0.40579 -0.00734
#
# Static dielectric constant tensor:
#      x y z
#    x 1.640400 0.000000 -0.037700 
#    y 0.000000 1.571160 0.000000 
#    z -0.037700 0.000000 1.652140 
# 
# From -- ./inp_files/20555.got.cif
#   From: 2010.05.17/outbox.cif.g08.bks.cpg/sg10_11_cif.got.tgz:20555.got - 2010.06.03 11:33:40.
