data_PCOD9152611
_publ_section_title
;
Structure prediction by ZEFSAII (Michael W. Deem and Ramdas Pophale) SiO2 
 PCOD9152611
Probable space group: P 2/M
;
_chemical_formula_sum "Si O2"
_cell_formula_units_Z 24
_cell_length_a 9.367585
_cell_length_b 15.867686
_cell_length_c 8.834368
_cell_angle_alpha 90.000000
_cell_angle_beta 121.047367
_cell_angle_gamma 90.000000
_cell_volume 1125.035921
_symmetry_space_group_name_H-M "P 2/M"
_symmetry_group_IT_number 10
_symmetry_cell_setting 'monoclinic'
loop_
_space_group_symop_operation_xyz
x,y,z
-x,y,-z
-x,-y,-z
x,-y,z
loop_
_atom_site_type_symbol
_atom_site_label
_atom_site_fract_x
_atom_site_fract_y
_atom_site_fract_z
Si Si1 0.679649 0.400767 0.667793
Si Si2 0.861201 0.134701 0.032983
Si Si3 0.520213 0.101858 0.690005
Si Si4 0.005611 0.319844 0.829352
Si Si5 0.823230 0.095843 0.353330
Si Si6 0.667770 0.600100 0.019373
O O1 0.500000 0.386268 0.500000
O O2 0.724306 0.500000 0.673035
O O3 0.661385 0.384065 0.836525
O O4 0.822940 0.343071 0.673567
O O5 0.946108 0.223070 0.126070
O O6 0.821839 0.092544 0.171377
O O7 0.688080 0.143153 0.847713
O O8 0.000000 0.093545 0.000000
O O9 0.500000 0.115868 0.500000
O O10 0.350654 0.131865 0.679801
O O11 0.539111 0.000000 0.725152
O O12 0.159195 0.362114 0.828079
O O13 0.000000 0.355420 0.000000
O O14 0.000000 0.135750 0.500000
O O15 0.826010 0.000000 0.418105
O O16 0.671683 0.500000 0.046284
O O17 0.500000 0.635451 0.000000
#
# Coordination Sequence:
#
# PCOD9152611 Si02
#       6
#     4   4   4   4   4   4
#     4   9  17  33  58  82 105 139 184 230 272 318
#     4  11  22  36  54  81 115 151 188 226 281 342
#     4  10  21  38  61  86 110 141 186 240 290 336
#     4   9  19  35  52  76 109 146 183 217 267 331
#     4  10  21  38  59  83 111 145 189 236 280 331
#     4   9  17  31  52  77 104 137 178 221 265 316
#
# _framework density 21.332653000000001
#
# number of rings (size 3 to 8) (size 9 to 14) (size 15 to 20)
#    0.000    2.333    0.000    2.500    0.000    7.333 
#    0.000   15.000    0.000    4.000    0.000    0.000 
#    0.000    0.000    0.000    0.000    0.000    0.000 
#
# Total GULP energy -133877.078375 kJ/mol
# GULP energy per Si atom -5578.211599 kJ/mol
# Density = 2.128410 g / cm^3
# Si number density = 21.332653 Si / 1000 Ang^3
#
#
#
# Elastic Constant Matrix: (Units=GPa)
#
#
# Indices 1 2 3 4 5 6 
#
# 1 170.3222 58.6792 41.4913 0.0000 33.1889 0.0000
# 2 58.6792 46.2857 37.4442 0.0000 20.7488 0.0000
# 3 41.4913 37.4442 88.5350 0.0000 25.7537 0.0000
# 4 0.0000 0.0000 0.0000 15.4725 0.0000 8.6021
# 5 33.1889 20.7488 25.7537 0.0000 35.4267 0.0000
# 6 0.0000 0.0000 0.0000 8.6021 0.0000 20.7174
#
#
#
# Elastic Compliance Matrix: (Units=1/GPa)
#
#
# Indices 1 2 3 4 5 6 
#
# 1 0.010769 -0.013448 0.001629 0.000000 -0.003397 0.000000
# 2 -0.013448 0.053868 -0.013909 0.000000 -0.008840 0.000000
# 3 0.001629 -0.013909 0.018374 0.000000 -0.006737 0.000000
# 4 0.000000 0.000000 0.000000 0.084028 0.000000 -0.034890
# 5 -0.003397 -0.008840 -0.006737 0.000000 0.041484 0.000000
# 6 0.000000 0.000000 0.000000 -0.034890 0.000000 0.062755
#
#
# Mechanical properties :
#
#
# Convention : Reuss Voigt Hill
#
# Bulk Modulus (GPa) = 31.69027 64.48583 48.08805
# Shear Modulus (GPa) = 15.00356 25.49186 20.24771
#
# Velocity S-wave (km/s) = 2.65488 3.46058 3.08416
# Velocity P-wave (km/s) = 4.92802 6.80160 5.93916
#
# Compressibility (1/GPa) = 0.03155543
#
# Stress axis : x y z
#
# Youngs Moduli (GPa) = 92.85525 18.56376 54.42526
#
# Poissons Ratio (x) = 0.24964 -0.08864
# Poissons Ratio (y) = 1.24870 0.75700
# Poissons Ratio (z) = -0.15122 0.25820
#
# Static dielectric constant tensor:
#      x y z
#    x 1.801090 0.000000 0.024250 
#    y 0.000000 1.825470 0.000000 
#    z 0.024250 0.000000 1.788640 
# 
# From -- ./inp_files/20258.got.cif
#   From: 2010.05.17/outbox.cif.g08.bks.cpg/sg10_11_cif.got.tgz:20258.got - 2010.06.03 11:33:40.
