data_PCOD9152152
_publ_section_title
;
Structure prediction by ZEFSAII (Michael W. Deem and Ramdas Pophale) SiO2 
 PCOD9152152
Probable space group: P 2/M
;
_chemical_formula_sum "Si O2"
_cell_formula_units_Z 28
_cell_length_a 27.198796
_cell_length_b 7.890863
_cell_length_c 9.736793
_cell_angle_alpha 90.000000
_cell_angle_beta 138.258832
_cell_angle_gamma 90.000000
_cell_volume 1391.272369
_symmetry_space_group_name_H-M "P 2/M"
_symmetry_group_IT_number 10
_symmetry_cell_setting 'monoclinic'
loop_
_space_group_symop_operation_xyz
x,y,z
-x,y,-z
-x,-y,-z
x,-y,z
loop_
_atom_site_type_symbol
_atom_site_label
_atom_site_fract_x
_atom_site_fract_y
_atom_site_fract_z
Si Si1 0.893963 0.000000 0.384607
Si Si2 0.730065 0.197426 0.453269
Si Si3 0.848445 0.690865 0.914257
Si Si4 0.051432 0.000000 0.819256
Si Si5 0.673883 0.205330 0.047649
Si Si6 0.493053 0.795253 0.326946
Si Si7 0.427245 0.698150 0.768115
Si Si8 0.205819 0.692910 0.891397
O O1 0.843925 0.167394 0.289079
O O2 0.924603 0.000000 0.291830
O O3 0.963000 0.000000 0.630860
O O4 0.789915 0.290741 0.670258
O O5 0.720671 0.259766 0.277795
O O6 0.648404 0.212775 0.348397
O O7 0.750985 0.000000 0.493576
O O8 0.878649 0.500000 0.981073
O O9 0.911444 0.833269 0.039047
O O10 0.805198 0.719564 0.968732
O O11 0.711559 0.276741 0.989916
O O12 0.674634 0.000000 0.042096
O O13 0.589183 0.256892 0.890422
O O14 0.500000 0.747094 0.500000
O O15 0.553271 0.719333 0.350978
O O16 0.498669 0.000000 0.329924
O O17 0.418965 0.500000 0.785089
O O18 0.500000 0.764975 0.000000
O O19 0.183424 0.500000 0.814781
#
# Coordination Sequence:
#
# PCOD9152152 Si02
#       8
#     2   4   4   2   4   4   4   4
#     4   9  18  36  61  89 125 151 189 232 278 350
#     4  11  22  37  60  82 110 155 199 242 294 342
#     4  10  21  37  58  90 121 151 195 237 284 345
#     4   9  18  36  61  91 121 157 183 231 292 331
#     4  10  21  37  57  81 114 152 197 244 288 347
#     4  10  22  39  57  80 107 146 194 243 295 341
#     4  11  23  38  55  79 113 149 192 245 294 343
#     4  10  21  36  59  88 119 156 192 235 289 341
#
# _framework density 20.125461999999999
#
# number of rings (size 3 to 8) (size 9 to 14) (size 15 to 20)
#    0.000    1.857    2.857    0.857    2.000    3.143 
#    0.000    2.857    0.000    1.714    0.000    2.000 
#    0.000    0.000    0.000    0.000    0.000    0.000 
#
# Total GULP energy -156390.459221 kJ/mol
# GULP energy per Si atom -5585.373544 kJ/mol
# Density = 2.007966 g / cm^3
# Si number density = 20.125462 Si / 1000 Ang^3
#
#
#
# Elastic Constant Matrix: (Units=GPa)
#
#
# Indices 1 2 3 4 5 6 
#
# 1 17.8511 -1.9987 -8.6390 0.0000 -8.2308 0.0000
# 2 -1.9987 69.0081 22.8282 0.0000 -2.4667 0.0000
# 3 -8.6390 22.8282 78.8059 0.0000 -6.1647 0.0000
# 4 0.0000 0.0000 0.0000 9.4181 0.0000 -3.7134
# 5 -8.2308 -2.4667 -6.1647 0.0000 22.8142 0.0000
# 6 0.0000 0.0000 0.0000 -3.7134 0.0000 7.7744
#
#
#
# Elastic Compliance Matrix: (Units=1/GPa)
#
#
# Indices 1 2 3 4 5 6 
#
# 1 0.074901 -0.000279 0.010628 0.000000 0.029864 0.000000
# 2 -0.000279 0.016033 -0.004645 0.000000 0.000378 0.000000
# 3 0.010628 -0.004645 0.015795 0.000000 0.007600 0.000000
# 4 0.000000 0.000000 0.000000 0.130814 0.000000 0.062483
# 5 0.029864 0.000378 0.007600 0.000000 0.056701 0.000000
# 6 0.000000 0.000000 0.000000 0.062483 0.000000 0.158472
#
#
# Mechanical properties :
#
#
# Convention : Reuss Voigt Hill
#
# Bulk Modulus (GPa) = 8.46483 21.11622 14.79053
# Shear Modulus (GPa) = 10.40177 18.23299 14.31738
#
# Velocity S-wave (km/s) = 2.27589 3.01319 2.67011
# Velocity P-wave (km/s) = 3.33488 4.75614 4.10745
#
# Compressibility (1/GPa) = 0.11813584
#
# Stress axis : x y z
#
# Youngs Moduli (GPa) = 13.35098 62.37052 63.31256
#
# Poissons Ratio (x) = 0.01739 -0.67288
# Poissons Ratio (y) = 0.00372 0.29412
# Poissons Ratio (z) = -0.14189 0.28974
#
# Static dielectric constant tensor:
#      x y z
#    x 1.686870 0.000000 -0.016130 
#    y 0.000000 1.717690 0.000000 
#    z -0.016130 0.000000 1.708110 
# 
# From -- ./inp_files/37402.got.cif
#   From: 2010.05.17/outbox.cif.g08.bks.cpg/sg10_19_cif.got.tgz:37402.got - 2010.06.03 11:33:40.
