data_PCOD9152744
_publ_section_title
;
Structure prediction by ZEFSAII (Michael W. Deem and Ramdas Pophale) SiO2 
 PCOD9152744
Probable space group: P 2/M
;
_chemical_formula_sum "Si O2"
_cell_formula_units_Z 30
_cell_length_a 5.105496
_cell_length_b 22.057992
_cell_length_c 11.902191
_cell_angle_alpha 90.000000
_cell_angle_beta 92.390799
_cell_angle_gamma 90.000000
_cell_volume 1339.222172
_symmetry_space_group_name_H-M "P 2/M"
_symmetry_group_IT_number 10
_symmetry_cell_setting 'monoclinic'
loop_
_space_group_symop_operation_xyz
x,y,z
-x,y,-z
-x,-y,-z
x,-y,z
loop_
_atom_site_type_symbol
_atom_site_label
_atom_site_fract_x
_atom_site_fract_y
_atom_site_fract_z
Si Si1 0.645041 0.753435 0.190446
Si Si2 0.000000 0.372684 0.500000
Si Si3 0.123775 0.815854 0.119481
Si Si4 0.344763 0.431144 0.693062
Si Si5 0.625370 0.316784 0.626249
Si Si6 0.481371 0.071288 0.376125
Si Si7 0.953533 0.929684 0.232445
Si Si8 0.750046 0.376062 0.076951
O O1 0.425850 0.797384 0.131878
O O2 0.502275 0.734948 0.303328
O O3 0.681815 0.691746 0.119958
O O4 0.933119 0.782187 0.205287
O O5 0.816727 0.417466 0.424178
O O6 0.924886 0.325156 0.598433
O O7 0.060499 0.886264 0.137564
O O8 0.000000 0.796161 0.000000
O O9 0.435871 0.500000 0.694807
O O10 0.568414 0.380248 0.687715
O O11 0.206552 0.415760 0.809492
O O12 0.500000 0.317669 0.500000
O O13 0.500000 0.099442 0.500000
O O14 0.686254 0.093527 0.286146
O O15 0.184960 0.073705 0.328716
O O16 0.556501 0.000000 0.388119
O O17 0.922744 0.000000 0.197359
O O18 0.500000 0.397848 0.000000
O O19 0.000000 0.374527 0.000000
#
# Coordination Sequence:
#
# PCOD9152744 Si02
#       8
#     4   2   4   4   4   4   4   4
#     4  11  24  42  67  91 122 162 211 263 315 376
#     4  10  21  40  64  94 122 172 215 260 322 384
#     4  12  25  42  63  92 121 160 210 262 311 371
#     4  10  23  39  62  94 131 171 215 264 316 384
#     4   9  22  40  64  90 125 164 206 260 319 371
#     4   9  17  33  59  87 119 159 199 237 287 358
#     4  10  21  38  61  90 125 163 201 250 308 370
#     4  11  24  42  67  95 126 169 218 268 326 379
#
# _framework density 22.401064000000002
#
# number of rings (size 3 to 8) (size 9 to 14) (size 15 to 20)
#    0.000    1.733    0.000    3.800    9.333    5.333 
#    0.000    4.000    0.000    4.000    0.000    0.000 
#    0.000    0.000    0.000    0.000    0.000    0.000 
#
# Total GULP energy -167289.591256 kJ/mol
# GULP energy per Si atom -5576.319709 kJ/mol
# Density = 2.235008 g / cm^3
# Si number density = 22.401064 Si / 1000 Ang^3
#
#
#
# Elastic Constant Matrix: (Units=GPa)
#
#
# Indices 1 2 3 4 5 6 
#
# 1 87.1884 3.7125 12.5904 0.0000 -14.4005 0.0000
# 2 3.7125 49.7635 18.3096 0.0000 -2.8264 0.0000
# 3 12.5904 18.3096 85.9223 0.0000 -16.1582 0.0000
# 4 0.0000 0.0000 0.0000 16.3440 0.0000 1.0303
# 5 -14.4005 -2.8264 -16.1582 0.0000 30.8438 0.0000
# 6 0.0000 0.0000 0.0000 1.0303 0.0000 14.5553
#
#
#
# Elastic Compliance Matrix: (Units=1/GPa)
#
#
# Indices 1 2 3 4 5 6 
#
# 1 0.012484 -0.000353 -0.000737 0.000000 0.005411 0.000000
# 2 -0.000353 0.021821 -0.004718 0.000000 -0.000637 0.000000
# 3 -0.000737 -0.004718 0.013983 0.000000 0.006549 0.000000
# 4 0.000000 0.000000 0.000000 0.061459 0.000000 -0.004350
# 5 0.005411 -0.000637 0.006549 0.000000 0.038320 0.000000
# 6 0.000000 0.000000 0.000000 -0.004350 0.000000 0.069011
#
#
# Mechanical properties :
#
#
# Convention : Reuss Voigt Hill
#
# Bulk Modulus (GPa) = 27.26763 32.45547 29.86155
# Shear Modulus (GPa) = 20.75385 24.89939 22.82662
#
# Velocity S-wave (km/s) = 3.04709 3.33757 3.19564
# Velocity P-wave (km/s) = 4.95768 5.41963 5.19379
#
# Compressibility (1/GPa) = 0.03667353
#
# Stress axis : x y z
#
# Youngs Moduli (GPa) = 80.09962 45.82716 71.51349
#
# Poissons Ratio (x) = 0.01618 0.05268
# Poissons Ratio (y) = 0.02828 0.33740
# Poissons Ratio (z) = 0.05901 0.21621
#
# Static dielectric constant tensor:
#      x y z
#    x 2.017320 0.000000 -0.051510 
#    y 0.000000 1.842240 0.000000 
#    z -0.051510 0.000000 1.867970 
# 
# From -- ./inp_files/39756.got.cif
#   From: 2010.05.17/outbox.cif.g08.bks.cpg/sg10_20_cif.got.tgz:39756.got - 2010.06.03 11:33:40.
