data_PCOD9152463
_publ_section_title
;
Structure prediction by ZEFSAII (Michael W. Deem and Ramdas Pophale) SiO2 
 PCOD9152463
Probable space group: P 2/M
;
_chemical_formula_sum "Si O2"
_cell_formula_units_Z 28
_cell_length_a 12.161589
_cell_length_b 15.583208
_cell_length_c 8.565933
_cell_angle_alpha 90.000000
_cell_angle_beta 121.367289
_cell_angle_gamma 90.000000
_cell_volume 1386.125281
_symmetry_space_group_name_H-M "P 2/M"
_symmetry_group_IT_number 10
_symmetry_cell_setting 'monoclinic'
loop_
_space_group_symop_operation_xyz
x,y,z
-x,y,-z
-x,-y,-z
x,-y,z
loop_
_atom_site_type_symbol
_atom_site_label
_atom_site_fract_x
_atom_site_fract_y
_atom_site_fract_z
Si Si1 0.480106 0.746506 0.169682
Si Si2 0.386465 0.591985 0.783985
Si Si3 0.899048 0.601149 0.282701
Si Si4 0.590086 0.091858 0.415297
Si Si5 0.081776 0.095838 0.716146
Si Si6 0.185379 0.758084 0.970693
Si Si7 0.849963 0.098976 0.789328
O O1 0.571262 0.669490 0.293279
O O2 0.528994 0.834536 0.271443
O O3 0.500000 0.752039 0.000000
O O4 0.332204 0.729054 0.099669
O O5 0.382818 0.500000 0.700968
O O6 0.247004 0.606322 0.757670
O O7 0.500000 0.587218 0.000000
O O8 0.918286 0.500000 0.248014
O O9 0.899729 0.675678 0.148585
O O10 0.000000 0.617874 0.500000
O O11 0.500000 0.086242 0.500000
O O12 0.732409 0.109554 0.582892
O O13 0.590291 0.000000 0.333421
O O14 0.178064 0.173033 0.822805
O O15 0.000000 0.110255 0.500000
O O16 0.978744 0.097552 0.781789
O O17 0.138875 0.000000 0.749594
O O18 0.154263 0.819691 0.096701
O O19 0.834773 0.000000 0.844891
#
# Coordination Sequence:
#
# PCOD9152463 Si02
#       7
#     4   4   4   4   4   4   4
#     4  11  22  34  57  91 120 153 205 257 296 361
#     4   9  17  35  59  84 119 158 196 244 302 358
#     4  10  21  37  60  93 129 164 206 255 309 369
#     4  10  21  38  56  79 119 163 200 247 306 360
#     4  10  23  40  59  84 115 153 203 257 304 364
#     4  12  21  35  60  88 119 156 201 253 306 364
#     4  10  22  41  62  83 115 165 212 249 307 377
#
# _framework density 20.200192000000001
#
# number of rings (size 3 to 8) (size 9 to 14) (size 15 to 20)
#    0.000    1.714    4.286    1.286    2.000    3.143 
#    0.000    0.000    0.000    3.000    0.000    0.000 
#    0.000    0.000    0.000    0.000    0.000    0.000 
#
# Total GULP energy -155996.695312 kJ/mol
# GULP energy per Si atom -5571.310547 kJ/mol
# Density = 2.015422 g / cm^3
# Si number density = 20.200192 Si / 1000 Ang^3
#
#
#
# Elastic Constant Matrix: (Units=GPa)
#
#
# Indices 1 2 3 4 5 6 
#
# 1 47.6205 9.1183 7.1511 0.0000 8.4806 0.0000
# 2 9.1183 159.6766 50.7330 0.0000 -13.2606 0.0000
# 3 7.1511 50.7330 50.9138 0.0000 6.4754 0.0000
# 4 0.0000 0.0000 0.0000 23.3495 0.0000 6.7995
# 5 8.4806 -13.2606 6.4754 0.0000 31.3377 0.0000
# 6 0.0000 0.0000 0.0000 6.7995 0.0000 11.3860
#
#
#
# Elastic Compliance Matrix: (Units=1/GPa)
#
#
# Indices 1 2 3 4 5 6 
#
# 1 0.022601 -0.001614 -0.000720 0.000000 -0.006650 0.000000
# 2 -0.001614 0.010490 -0.011139 0.000000 0.007177 0.000000
# 3 -0.000720 -0.011139 0.032264 0.000000 -0.011185 0.000000
# 4 0.000000 0.000000 0.000000 0.051843 0.000000 -0.030960
# 5 -0.006650 0.007177 -0.011185 0.000000 0.039059 0.000000
# 6 0.000000 0.000000 0.000000 -0.030960 0.000000 0.106316
#
#
# Mechanical properties :
#
#
# Convention : Reuss Voigt Hill
#
# Bulk Modulus (GPa) = 26.03583 43.57952 34.80768
# Shear Modulus (GPa) = 16.53869 25.96185 21.25027
#
# Velocity S-wave (km/s) = 2.86447 3.58890 3.24695
# Velocity P-wave (km/s) = 4.88437 6.22850 5.59693
#
# Compressibility (1/GPa) = 0.03840861
#
# Stress axis : x y z
#
# Youngs Moduli (GPa) = 44.24594 95.32938 30.99426
#
# Poissons Ratio (x) = 0.15387 0.02232
# Poissons Ratio (y) = 0.07142 0.34524
# Poissons Ratio (z) = 0.03187 1.06186
#
# Static dielectric constant tensor:
#      x y z
#    x 1.736290 0.000000 0.004590 
#    y 0.000000 1.885200 0.000000 
#    z 0.004590 0.000000 1.737590 
# 
# From -- ./inp_files/25433.got.cif
#   From: 2010.05.17/outbox.cif.g08.bks.cpg/sg10_13_cif.got.tgz:25433.got - 2010.06.03 11:33:40.
