data_PCOD9152018
_publ_section_title
;
Structure prediction by ZEFSAII (Michael W. Deem and Ramdas Pophale) SiO2 
 PCOD9152018
Probable space group: P 2/M
;
_chemical_formula_sum "Si O2"
_cell_formula_units_Z 24
_cell_length_a 20.356426
_cell_length_b 7.529935
_cell_length_c 6.867560
_cell_angle_alpha 90.000000
_cell_angle_beta 65.707961
_cell_angle_gamma 90.000000
_cell_volume 959.473639
_symmetry_space_group_name_H-M "P 2/M"
_symmetry_group_IT_number 10
_symmetry_cell_setting 'monoclinic'
loop_
_space_group_symop_operation_xyz
x,y,z
-x,y,-z
-x,-y,-z
x,-y,z
loop_
_atom_site_type_symbol
_atom_site_label
_atom_site_fract_x
_atom_site_fract_y
_atom_site_fract_z
Si Si1 0.787163 0.710889 0.056040
Si Si2 0.177915 0.212222 0.432288
Si Si3 0.516040 0.713936 0.758581
Si Si4 0.666646 0.210792 0.694004
Si Si5 0.921237 0.294878 0.128595
Si Si6 0.632555 0.705075 0.180333
O O1 0.781236 0.500000 0.102951
O O2 0.809983 0.733151 0.803844
O O3 0.853429 0.787915 0.097576
O O4 0.706158 0.788217 0.173689
O O5 0.252040 0.270781 0.451834
O O6 0.106774 0.289473 0.616667
O O7 0.172762 0.000000 0.448192
O O8 0.510233 0.500000 0.761517
O O9 0.600563 0.753994 0.628430
O O10 0.448471 0.781479 0.714024
O O11 0.500000 0.776149 0.000000
O O12 0.669465 0.000000 0.721646
O O13 0.647449 0.295723 0.926871
O O14 0.925923 0.500000 0.056271
O O15 0.000000 0.215591 0.000000
O O16 0.628776 0.500000 0.249096
#
# Coordination Sequence:
#
# PCOD9152018 Si02
#       6
#     4   4   4   4   4   4
#     4   9  18  35  58  80 106 141 178 218 263 312
#     4  10  21  36  55  80 110 143 177 215 261 316
#     4   8  13  21  36  62  95 129 167 210 251 293
#     4   9  16  25  40  66  98 132 171 209 248 298
#     4  10  22  39  59  83 107 134 173 220 269 320
#     4   8  14  25  42  66  96 131 170 209 252 300
#
# _framework density 25.013715999999999
#
# number of rings (size 3 to 8) (size 9 to 14) (size 15 to 20)
#    0.000    3.000    0.000    2.000    0.000    6.667 
#    0.000    3.333    0.000    1.000    0.000    7.000 
#    0.000    0.000    0.000    0.000    0.000    0.000 
#
# Total GULP energy -134050.695192 kJ/mol
# GULP energy per Si atom -5585.445633 kJ/mol
# Density = 2.495678 g / cm^3
# Si number density = 25.013716 Si / 1000 Ang^3
#
#
#
# Elastic Constant Matrix: (Units=GPa)
#
#
# Indices 1 2 3 4 5 6 
#
# 1 140.5903 11.0502 63.6057 0.0000 -37.4860 0.0000
# 2 11.0502 92.6839 -2.1657 0.0000 -5.9358 0.0000
# 3 63.6057 -2.1657 139.4745 0.0000 -47.2486 0.0000
# 4 0.0000 0.0000 0.0000 33.6566 0.0000 -11.0546
# 5 -37.4860 -5.9358 -47.2486 0.0000 54.9712 0.0000
# 6 0.0000 0.0000 0.0000 -11.0546 0.0000 1.2293
#
#
#
# Elastic Compliance Matrix: (Units=1/GPa)
#
#
# Indices 1 2 3 4 5 6 
#
# 1 0.009605 -0.000977 -0.003121 0.000000 0.003762 0.000000
# 2 -0.000977 0.011027 0.001121 0.000000 0.001488 0.000000
# 3 -0.003121 0.001121 0.011188 0.000000 0.007609 0.000000
# 4 0.000000 0.000000 0.000000 -0.015209 0.000000 -0.136766
# 5 0.003762 0.001488 0.007609 0.000000 0.027457 0.000000
# 6 0.000000 0.000000 0.000000 -0.136766 0.000000 -0.416397
#
#
# Mechanical properties :
#
#
# Convention : Reuss Voigt Hill
#
# Bulk Modulus (GPa) = 38.66148 57.52548 48.09348
# Shear Modulus (GPa) = -13.97616 37.98866 12.00625
#
# Velocity S-wave (km/s) = -2.36633 3.90129 2.19324
# Velocity P-wave (km/s) = 2.83260 6.58339 5.06777
#
# Compressibility (1/GPa) = 0.02586554
#
# Stress axis : x y z
#
# Youngs Moduli (GPa) = 104.11669 90.68378 89.38036
#
# Poissons Ratio (x) = 0.08861 0.27895
# Poissons Ratio (y) = 0.10174 -0.10018
# Poissons Ratio (z) = 0.32495 -0.10164
#
# Static dielectric constant tensor:
#      x y z
#    x 2.045550 0.000000 0.009990 
#    y 0.000000 1.891590 0.000000 
#    z 0.009990 0.000000 2.022990 
# 
# From -- ./inp_files/33756.got.cif
#   From: 2010.05.17/outbox.cif.g08.bks.cpg/sg10_17_cif.got.tgz:33756.got - 2010.06.03 11:33:40.
