data_PCOD9152349
_publ_section_title
;
Structure prediction by ZEFSAII (Michael W. Deem and Ramdas Pophale) SiO2 
 PCOD9152349
Probable space group: P 2/M
;
_chemical_formula_sum "Si O2"
_cell_formula_units_Z 32
_cell_length_a 21.911428
_cell_length_b 8.895134
_cell_length_c 28.097623
_cell_angle_alpha 90.000000
_cell_angle_beta 161.425887
_cell_angle_gamma 90.000000
_cell_volume 1744.393855
_symmetry_space_group_name_H-M "P 2/M"
_symmetry_group_IT_number 10
_symmetry_cell_setting 'monoclinic'
loop_
_space_group_symop_operation_xyz
x,y,z
-x,y,-z
-x,-y,-z
x,-y,z
loop_
_atom_site_type_symbol
_atom_site_label
_atom_site_fract_x
_atom_site_fract_y
_atom_site_fract_z
Si Si1 0.406321 0.825082 0.569439
Si Si2 0.093508 0.680446 0.930854
Si Si3 0.522793 0.681524 0.835973
Si Si4 0.766702 0.680534 0.463301
Si Si5 0.814467 0.818826 0.230128
Si Si6 0.498535 0.819437 0.921138
Si Si7 0.155412 0.175133 0.077216
Si Si8 0.668323 0.317980 0.587892
O O1 0.310798 0.747046 0.544436
O O2 0.634257 0.817602 0.745444
O O3 0.360963 0.745274 0.486386
O O4 0.348156 0.000000 0.524908
O O5 0.092040 0.500000 0.927908
O O6 0.878966 0.732216 0.760596
O O7 0.263592 0.731831 0.021691
O O8 0.147661 0.732563 0.023349
O O9 0.520248 0.500000 0.836218
O O10 0.372550 0.726599 0.683484
O O11 0.477710 0.745912 0.854420
O O12 0.764514 0.500000 0.464058
O O13 0.981806 0.739890 0.615375
O O14 0.677104 0.782684 0.173312
O O15 0.839240 0.000000 0.247384
O O16 0.693195 0.775639 0.093248
O O17 0.502240 0.000000 0.918969
O O18 0.111322 0.000000 0.034020
O O19 0.000000 0.231284 0.000000
O O20 0.500000 0.270347 0.500000
O O21 0.664837 0.500000 0.583771
#
# Coordination Sequence:
#
# PCOD9152349 Si02
#       8
#     4   4   4   4   4   4   4   4
#     4  11  23  38  58  85 116 151 192 240 290 343
#     4  10  21  38  57  81 114 152 192 236 284 337
#     4  10  22  38  56  83 118 153 195 239 281 337
#     4  11  23  39  59  84 117 155 193 237 285 338
#     4   9  20  40  62  89 120 150 190 234 280 338
#     4   9  20  39  63  88 118 153 189 232 281 338
#     4  10  21  37  58  84 113 147 190 238 286 339
#     4  10  22  39  59  85 116 151 194 241 290 346
#
# _framework density 18.344480999999998
#
# number of rings (size 3 to 8) (size 9 to 14) (size 15 to 20)
#    0.000    2.000    1.250    2.250    1.750    4.500 
#    0.000    3.750    0.000    0.000    0.000    0.000 
#    0.000    0.000    0.000    0.000    0.000    0.000 
#
# Total GULP energy -178656.363957 kJ/mol
# GULP energy per Si atom -5583.011374 kJ/mol
# Density = 1.830273 g / cm^3
# Si number density = 18.344481 Si / 1000 Ang^3
#
#
#
# Elastic Constant Matrix: (Units=GPa)
#
#
# Indices 1 2 3 4 5 6 
#
# 1 335.5328 105.0541 221.7063 0.0000 -31.6741 0.0000
# 2 105.0541 45.9442 93.7854 0.0000 -5.8725 0.0000
# 3 221.7063 93.7854 242.7545 0.0000 -14.9962 0.0000
# 4 0.0000 0.0000 0.0000 25.4535 0.0000 -3.0891
# 5 -31.6741 -5.8725 -14.9962 0.0000 33.1237 0.0000
# 6 0.0000 0.0000 0.0000 -3.0891 0.0000 35.5138
#
#
#
# Elastic Compliance Matrix: (Units=1/GPa)
#
#
# Indices 1 2 3 4 5 6 
#
# 1 0.011844 -0.023608 -0.001292 0.000000 0.006556 0.000000
# 2 -0.023608 0.150030 -0.037193 0.000000 -0.012814 0.000000
# 3 -0.001292 -0.037193 0.019736 0.000000 0.001106 0.000000
# 4 0.000000 0.000000 0.000000 0.039707 0.000000 0.003454
# 5 0.006556 -0.012814 0.001106 0.000000 0.034688 0.000000
# 6 0.000000 0.000000 0.000000 0.003454 0.000000 0.028458
#
#
# Mechanical properties :
#
#
# Convention : Reuss Voigt Hill
#
# Bulk Modulus (GPa) = 17.41381 162.81366 90.11374
# Shear Modulus (GPa) = 11.68797 32.39724 22.04260
#
# Velocity S-wave (km/s) = 2.52690 4.20700 3.47016
# Velocity P-wave (km/s) = 4.24581 10.60870 8.07996
#
# Compressibility (1/GPa) = 0.05742567
#
# Stress axis : x y z
#
# Youngs Moduli (GPa) = 84.42968 6.66532 50.66781
#
# Poissons Ratio (x) = 0.15735 0.06544
# Poissons Ratio (y) = 1.99322 1.88449
# Poissons Ratio (z) = 0.10905 0.24790
#
# Static dielectric constant tensor:
#      x y z
#    x 1.603410 0.000000 0.017290 
#    y 0.000000 1.614190 0.000000 
#    z 0.017290 0.000000 1.628620 
# 
# From -- ./inp_files/93798.got.cif
#   From: 2010.05.17/outbox.cif.g08.bks.cpg/sg10_47_cif.got.tgz:93798.got - 2010.06.03 11:33:40.
