data_PCOD9152385
_publ_section_title
;
Structure prediction by ZEFSAII (Michael W. Deem and Ramdas Pophale) SiO2 
 PCOD9152385
Probable space group: P 2/M
;
_chemical_formula_sum "Si O2"
_cell_formula_units_Z 14
_cell_length_a 11.479582
_cell_length_b 9.914339
_cell_length_c 6.300911
_cell_angle_alpha 90.000000
_cell_angle_beta 85.533277
_cell_angle_gamma 90.000000
_cell_volume 714.944138
_symmetry_space_group_name_H-M "P 2/M"
_symmetry_group_IT_number 10
_symmetry_cell_setting 'monoclinic'
loop_
_space_group_symop_operation_xyz
x,y,z
-x,y,-z
-x,-y,-z
x,-y,z
loop_
_atom_site_type_symbol
_atom_site_label
_atom_site_fract_x
_atom_site_fract_y
_atom_site_fract_z
Si Si1 0.832739 0.851026 0.677221
Si Si2 0.369066 0.154974 0.945961
Si Si3 0.788650 0.345344 0.303077
Si Si4 0.000000 0.745579 0.000000
O O1 0.829777 0.733126 0.506698
O O2 0.837521 0.000000 0.576566
O O3 0.717011 0.842028 0.839147
O O4 0.940032 0.832801 0.823845
O O5 0.316372 0.258920 0.784546
O O6 0.367010 0.000000 0.864134
O O7 0.500000 0.186701 0.000000
O O8 0.757604 0.500000 0.348963
O O9 0.895987 0.338142 0.121735
#
# Coordination Sequence:
#
# PCOD9152385 Si02
#       4
#     4   4   4   2
#     4  10  21  37  59  85 111 143 186 232 276 324
#     4   9  20  40  62  82 108 145 188 231 273 322
#     4  11  23  37  56  83 115 149 183 224 277 333
#     4  10  22  38  58  80 110 150 190 228 270 324
#
# _framework density 19.581948000000001
#
# number of rings (size 3 to 8) (size 9 to 14) (size 15 to 20)
#    0.000    2.000    0.000    2.571    0.000   13.143 
#    0.000    5.714    0.000    0.000    0.000    0.000 
#    0.000    0.000    0.000    0.000    0.000    0.000 
#
# Total GULP energy -78204.482766 kJ/mol
# GULP energy per Si atom -5586.034483 kJ/mol
# Density = 1.953738 g / cm^3
# Si number density = 19.581948 Si / 1000 Ang^3
#
#
#
# Elastic Constant Matrix: (Units=GPa)
#
#
# Indices 1 2 3 4 5 6 
#
# 1 116.0825 46.8967 28.6361 0.0000 31.7647 0.0000
# 2 46.8967 168.9521 73.8551 0.0000 28.8265 0.0000
# 3 28.6361 73.8551 86.0463 0.0000 28.9773 0.0000
# 4 0.0000 0.0000 0.0000 -1.0885 0.0000 -24.6493
# 5 31.7647 28.8265 28.9773 0.0000 21.1894 0.0000
# 6 0.0000 0.0000 0.0000 -24.6493 0.0000 -19.8738
#
#
#
# Elastic Compliance Matrix: (Units=1/GPa)
#
#
# Indices 1 2 3 4 5 6 
#
# 1 0.016213 -0.002282 0.006863 0.000000 -0.030586 0.000000
# 2 -0.002282 0.009919 -0.008086 0.000000 0.000984 0.000000
# 3 0.006863 -0.008086 0.029730 0.000000 -0.039945 0.000000
# 4 0.000000 0.000000 0.000000 0.033917 0.000000 -0.042067
# 5 -0.030586 0.000984 -0.039945 0.000000 0.146332 0.000000
# 6 0.000000 0.000000 0.000000 -0.042067 0.000000 0.001858
#
#
# Mechanical properties :
#
#
# Convention : Reuss Voigt Hill
#
# Bulk Modulus (GPa) = 20.46966 74.42851 47.44908
# Shear Modulus (GPa) = 19.13800 14.82496 16.98148
#
# Velocity S-wave (km/s) = 3.12962 2.75448 2.94802
# Velocity P-wave (km/s) = 4.85133 6.94316 5.98928
#
# Compressibility (1/GPa) = 0.04885280
#
# Stress axis : x y z
#
# Youngs Moduli (GPa) = 61.67951 100.81909 33.63637
#
# Poissons Ratio (x) = 0.23006 -0.23085
# Poissons Ratio (y) = 0.14075 0.27197
# Poissons Ratio (z) = -0.42332 0.81518
#
# Static dielectric constant tensor:
#      x y z
#    x 1.678440 0.000000 -0.014560 
#    y 0.000000 1.674160 0.000000 
#    z -0.014560 0.000000 1.679450 
# 
# From -- ./inp_files/5786.got.cif
#   From: 2010.05.17/outbox.cif.g08.bks.cpg/sg10_3_cif.got.tgz:5786.got - 2010.06.03 11:33:40.
