data_PCOD9152514
_publ_section_title
;
Structure prediction by ZEFSAII (Michael W. Deem and Ramdas Pophale) SiO2 
 PCOD9152514
Probable space group: P 2/M
;
_chemical_formula_sum "Si O2"
_cell_formula_units_Z 13
_cell_length_a 7.444377
_cell_length_b 7.820754
_cell_length_c 11.511998
_cell_angle_alpha 90.000000
_cell_angle_beta 52.577211
_cell_angle_gamma 90.000000
_cell_volume 532.283245
_symmetry_space_group_name_H-M "P 2/M"
_symmetry_group_IT_number 10
_symmetry_cell_setting 'monoclinic'
loop_
_space_group_symop_operation_xyz
x,y,z
-x,y,-z
-x,-y,-z
x,-y,z
loop_
_atom_site_type_symbol
_atom_site_label
_atom_site_fract_x
_atom_site_fract_y
_atom_site_fract_z
Si Si1 0.100050 0.811920 0.114088
Si Si2 0.440547 0.196979 0.649358
Si Si3 0.185709 0.696382 0.333459
Si Si4 0.000000 0.500000 0.000000
O O1 0.827579 0.804285 0.235142
O O2 0.192754 0.790637 0.207954
O O3 0.140481 0.651164 0.016344
O O4 0.166751 0.000000 0.041775
O O5 0.500000 0.271025 0.500000
O O6 0.576850 0.293661 0.694189
O O7 0.520826 0.000000 0.620960
O O8 0.121416 0.500000 0.333465
O O9 0.000000 0.763294 0.500000
#
# Coordination Sequence:
#
# PCOD9152514 Si02
#       4
#     4   4   4   1
#     4  11  24  44  68  95 130 171 218 267 317 383
#     4  10  21  37  63  98 132 165 204 261 330 393
#     4  11  22  36  63 101 137 167 204 261 330 395
#     4  12  26  48  66  90 124 182 230 266 310 366
#
# _framework density 24.423088
#
# number of rings (size 3 to 8) (size 9 to 14) (size 15 to 20)
#    0.000    1.231    4.615    1.385    2.154    1.846 
#    0.000    3.077    0.000    5.538    0.000    0.000 
#    0.000    0.000    0.000    0.000    0.000    0.000 
#
# Total GULP energy -72510.135784 kJ/mol
# GULP energy per Si atom -5577.702753 kJ/mol
# Density = 2.436750 g / cm^3
# Si number density = 24.423088 Si / 1000 Ang^3
#
#
#
# Elastic Constant Matrix: (Units=GPa)
#
#
# Indices 1 2 3 4 5 6 
#
# 1 106.1618 16.1312 29.6926 0.0000 34.8467 0.0000
# 2 16.1312 160.9619 42.2551 0.0000 20.1800 0.0000
# 3 29.6926 42.2551 80.0996 0.0000 33.5546 0.0000
# 4 0.0000 0.0000 0.0000 15.3181 0.0000 18.5531
# 5 34.8467 20.1800 33.5546 0.0000 52.0390 0.0000
# 6 0.0000 0.0000 0.0000 18.5531 0.0000 24.8319
#
#
#
# Elastic Compliance Matrix: (Units=1/GPa)
#
#
# Indices 1 2 3 4 5 6 
#
# 1 0.012206 0.000088 -0.001552 0.000000 -0.007207 0.000000
# 2 0.000088 0.007220 -0.003622 0.000000 -0.000523 0.000000
# 3 -0.001552 -0.003622 0.019108 0.000000 -0.009877 0.000000
# 4 0.000000 0.000000 0.000000 0.686727 0.000000 -0.513086
# 5 -0.007207 -0.000523 -0.009877 0.000000 0.030614 0.000000
# 6 0.000000 0.000000 0.000000 -0.513086 0.000000 0.423622
#
#
# Mechanical properties :
#
#
# Convention : Reuss Voigt Hill
#
# Bulk Modulus (GPa) = 35.25955 58.15344 46.70650
# Shear Modulus (GPa) = 4.16971 35.71411 19.94191
#
# Velocity S-wave (km/s) = 1.30805 3.82816 2.86058
# Velocity P-wave (km/s) = 4.09263 6.58804 5.48416
#
# Compressibility (1/GPa) = 0.02836111
#
# Stress axis : x y z
#
# Youngs Moduli (GPa) = 81.92793 138.49708 52.33328
#
# Poissons Ratio (x) = -0.01214 0.08122
# Poissons Ratio (y) = -0.00718 0.18957
# Poissons Ratio (z) = 0.12715 0.50169
#
# Static dielectric constant tensor:
#      x y z
#    x 1.893070 0.000000 -0.023410 
#    y 0.000000 2.011900 0.000000 
#    z -0.023410 0.000000 1.975070 
# 
# From -- ./inp_files/5785.got.cif
#   From: 2010.05.17/outbox.cif.g08.bks.cpg/sg10_3_cif.got.tgz:5785.got - 2010.06.03 11:33:40.
