data_PCOD9152490
_publ_section_title
;
Structure prediction by ZEFSAII (Michael W. Deem and Ramdas Pophale) SiO2 
 PCOD9152490
Probable space group: P 2/M
;
_chemical_formula_sum "Si O2"
_cell_formula_units_Z 32
_cell_length_a 10.308100
_cell_length_b 13.678053
_cell_length_c 16.516780
_cell_angle_alpha 90.000000
_cell_angle_beta 144.357338
_cell_angle_gamma 90.000000
_cell_volume 1357.045323
_symmetry_space_group_name_H-M "P 2/M"
_symmetry_group_IT_number 10
_symmetry_cell_setting 'monoclinic'
loop_
_space_group_symop_operation_xyz
x,y,z
-x,y,-z
-x,-y,-z
x,-y,z
loop_
_atom_site_type_symbol
_atom_site_label
_atom_site_fract_x
_atom_site_fract_y
_atom_site_fract_z
Si Si1 0.006478 0.710834 0.414065
Si Si2 0.647241 0.844772 0.450524
Si Si3 0.184394 0.182666 0.292856
Si Si4 0.158034 0.117187 0.005611
Si Si5 0.355644 0.616897 0.852150
Si Si6 0.677782 0.890322 0.285298
Si Si7 0.320566 0.384141 0.119241
Si Si8 0.846881 0.383384 0.792596
O O1 0.894202 0.651434 0.285188
O O2 0.857284 0.811061 0.345697
O O3 0.000000 0.663668 0.500000
O O4 0.259623 0.736975 0.523050
O O5 0.779292 0.864083 0.600830
O O6 0.390010 0.854965 0.342306
O O7 0.700109 0.897699 0.393949
O O8 0.205576 0.300914 0.300024
O O9 0.956394 0.154201 0.134226
O O10 0.149125 0.000000 0.002931
O O11 0.419307 0.142198 0.142623
O O12 0.000000 0.152502 0.000000
O O13 0.360170 0.500000 0.859861
O O14 0.471021 0.648488 0.826942
O O15 0.500000 0.655779 0.000000
O O16 0.708200 0.000000 0.266353
O O17 0.342902 0.500000 0.140582
O O18 0.280594 0.350249 0.189783
O O19 0.103842 0.372327 0.952299
O O20 0.811902 0.500000 0.757164
#
# Coordination Sequence:
#
# PCOD9152490 Si02
#       8
#     4   4   4   4   4   4   4   4
#     4  10  24  41  61  86 126 163 212 246 297 367
#     4  10  24  41  55  91 123 164 206 240 299 385
#     4  11  23  38  63  88 128 160 197 254 318 350
#     4  10  21  37  61  95 119 146 197 253 307 361
#     4  10  22  38  61  91 123 164 208 256 309 357
#     4  10  22  43  69  92 119 157 205 254 305 368
#     4   8  17  32  52  85 115 146 204 252 294 353
#     4   9  19  33  56  87 118 159 207 250 296 354
#
# _framework density 23.580642000000001
#
# number of rings (size 3 to 8) (size 9 to 14) (size 15 to 20)
#    0.000    2.250    1.250    0.750    8.750    3.000 
#    0.000    3.125    0.000    2.625    0.000    0.000 
#    0.000    0.000    0.000    0.000    0.000    0.000 
#
# Total GULP energy -178639.007741 kJ/mol
# GULP energy per Si atom -5582.468992 kJ/mol
# Density = 2.352697 g / cm^3
# Si number density = 23.580642 Si / 1000 Ang^3
#
#
#
# Elastic Constant Matrix: (Units=GPa)
#
#
# Indices 1 2 3 4 5 6 
#
# 1 57.8816 -2.1281 6.2140 0.0000 8.8446 0.0000
# 2 -2.1281 76.4601 24.7937 0.0000 4.0724 0.0000
# 3 6.2140 24.7937 120.6018 0.0000 0.1135 0.0000
# 4 0.0000 0.0000 0.0000 -67.2113 0.0000 -28.1521
# 5 8.8446 4.0724 0.1135 0.0000 27.1057 0.0000
# 6 0.0000 0.0000 0.0000 -28.1521 0.0000 -5.9377
#
#
#
# Elastic Compliance Matrix: (Units=1/GPa)
#
#
# Indices 1 2 3 4 5 6 
#
# 1 0.018395 0.001229 -0.001195 0.000000 -0.006182 0.000000
# 2 0.001229 0.014215 -0.002983 0.000000 -0.002524 0.000000
# 3 -0.001195 -0.002983 0.008966 0.000000 0.000800 0.000000
# 4 0.000000 0.000000 0.000000 0.015091 0.000000 -0.071551
# 5 -0.006182 -0.002524 0.000800 0.000000 0.039286 0.000000
# 6 0.000000 0.000000 0.000000 -0.071551 0.000000 0.170822
#
#
# Mechanical properties :
#
#
# Convention : Reuss Voigt Hill
#
# Bulk Modulus (GPa) = 28.02938 34.74474 31.38706
# Shear Modulus (GPa) = 17.57069 5.86227 11.71648
#
# Velocity S-wave (km/s) = 2.73267 1.57843 2.23147
# Velocity P-wave (km/s) = 4.67644 4.25304 4.46976
#
# Compressibility (1/GPa) = 0.03567685
#
# Stress axis : x y z
#
# Youngs Moduli (GPa) = 54.36357 70.34965 111.53432
#
# Poissons Ratio (x) = -0.08643 0.13323
# Poissons Ratio (y) = -0.06679 0.33273
# Poissons Ratio (z) = 0.06494 0.20987
#
# Static dielectric constant tensor:
#      x y z
#    x 1.925720 0.000000 0.013160 
#    y 0.000000 1.914550 0.000000 
#    z 0.013160 0.000000 1.903280 
# 
# From -- ./inp_files/77025.got.cif
#   From: 2010.05.17/outbox.cif.g08.bks.cpg/sg10_39_cif.got.tgz:77025.got - 2010.06.03 11:33:40.
