data_PCOD9152990
_publ_section_title
;
Structure prediction by ZEFSAII (Michael W. Deem and Ramdas Pophale) SiO2 
 PCOD9152990
Probable space group: P 2/M
;
_chemical_formula_sum "Si O2"
_cell_formula_units_Z 24
_cell_length_a 25.108621
_cell_length_b 8.634676
_cell_length_c 17.689593
_cell_angle_alpha 90.000000
_cell_angle_beta 160.373970
_cell_angle_gamma 90.000000
_cell_volume 1288.161375
_symmetry_space_group_name_H-M "P 2/M"
_symmetry_group_IT_number 10
_symmetry_cell_setting 'monoclinic'
loop_
_space_group_symop_operation_xyz
x,y,z
-x,y,-z
-x,-y,-z
x,-y,z
loop_
_atom_site_type_symbol
_atom_site_label
_atom_site_fract_x
_atom_site_fract_y
_atom_site_fract_z
Si Si1 0.684730 0.185810 0.239729
Si Si2 0.809666 0.320414 0.249346
Si Si3 0.965967 0.315180 0.714892
Si Si4 0.079818 0.187695 0.027240
Si Si5 0.557819 0.188239 0.494727
Si Si6 0.253612 0.814612 0.996849
O O1 0.749701 0.243512 0.246003
O O2 0.801307 0.253340 0.459640
O O3 0.693614 0.000000 0.255100
O O4 0.500000 0.231726 0.000000
O O5 0.760110 0.500000 0.181294
O O6 0.753552 0.233028 0.099624
O O7 0.000000 0.315915 0.500000
O O8 0.964395 0.500000 0.711867
O O9 0.999423 0.254901 0.844373
O O10 0.109242 0.257066 0.852126
O O11 0.075854 0.000000 0.014954
O O12 0.262745 0.239842 0.276348
O O13 0.000000 0.229550 0.000000
O O14 0.500000 0.235568 0.500000
O O15 0.561040 0.000000 0.496870
O O16 0.422581 0.238010 0.256027
O O17 0.241094 0.000000 0.988013
#
# Coordination Sequence:
#
# PCOD9152990 Si02
#       6
#     4   4   4   4   4   4
#     4  11  25  44  67  93 121 160 212 259 305 367
#     4  11  23  39  61  93 129 162 201 250 311 373
#     4  12  24  39  61  90 125 162 200 248 317 377
#     4  10  21  39  63  89 120 159 204 253 302 361
#     4   9  17  33  58  88 117 150 198 252 299 342
#     4  11  21  36  63  91 121 162 213 260 301 356
#
# _framework density 18.631207
#
# number of rings (size 3 to 8) (size 9 to 14) (size 15 to 20)
#    0.000    1.333    3.333    3.000    0.000    3.667 
#    0.000    5.833    0.000    0.000    0.000    0.000 
#    0.000    0.000    0.000    0.000    0.000    0.000 
#
# Total GULP energy -134083.917926 kJ/mol
# GULP energy per Si atom -5586.829914 kJ/mol
# Density = 1.858880 g / cm^3
# Si number density = 18.631207 Si / 1000 Ang^3
#
#
#
# Elastic Constant Matrix: (Units=GPa)
#
#
# Indices 1 2 3 4 5 6 
#
# 1 131.0717 42.0845 91.6606 0.0000 1.3990 0.0000
# 2 42.0845 71.8535 53.5935 0.0000 0.9389 0.0000
# 3 91.6606 53.5935 178.8074 0.0000 -1.4467 0.0000
# 4 0.0000 0.0000 0.0000 -21.4330 0.0000 21.0499
# 5 1.3990 0.9389 -1.4467 0.0000 33.7256 0.0000
# 6 0.0000 0.0000 0.0000 21.0499 0.0000 -121.4312
#
#
#
# Elastic Compliance Matrix: (Units=1/GPa)
#
#
# Indices 1 2 3 4 5 6 
#
# 1 0.012474 -0.003251 -0.005426 0.000000 -0.000660 0.000000
# 2 -0.003251 0.018789 -0.003970 0.000000 -0.000559 0.000000
# 3 -0.005426 -0.003970 0.009570 0.000000 0.000746 0.000000
# 4 0.000000 0.000000 0.000000 -0.056230 0.000000 -0.009747
# 5 -0.000660 -0.000559 0.000746 0.000000 0.029726 0.000000
# 6 0.000000 0.000000 0.000000 -0.009747 0.000000 -0.009925
#
#
# Mechanical properties :
#
#
# Convention : Reuss Voigt Hill
#
# Bulk Modulus (GPa) = 64.34509 84.04552 74.19531
# Shear Modulus (GPa) = 143.35790 -8.86811 67.24490
#
# Velocity S-wave (km/s) = 8.78135 -2.18407 6.01423
# Velocity P-wave (km/s) = 11.72294 6.23280 9.38816
#
# Compressibility (1/GPa) = 0.01554120
#
# Stress axis : x y z
#
# Youngs Moduli (GPa) = 80.16367 53.22132 104.49521
#
# Poissons Ratio (x) = 0.17301 0.56696
# Poissons Ratio (y) = 0.26060 0.41482
# Poissons Ratio (z) = 0.43494 0.21128
#
# Static dielectric constant tensor:
#      x y z
#    x 1.603150 0.000000 0.026700 
#    y 0.000000 1.631400 0.000000 
#    z 0.026700 0.000000 1.482330 
# 
# From -- ./inp_files/80449.got.cif
#   From: 2010.05.17/outbox.cif.g08.bks.cpg/sg10_41_cif.got.tgz:80449.got - 2010.06.03 11:33:40.
