data_PCOD9152954
_publ_section_title
;
Structure prediction by ZEFSAII (Michael W. Deem and Ramdas Pophale) SiO2 
 PCOD9152954
Probable space group: P 2/M
;
_chemical_formula_sum "Si O2"
_cell_formula_units_Z 28
_cell_length_a 15.419675
_cell_length_b 9.054279
_cell_length_c 20.954507
_cell_angle_alpha 90.000000
_cell_angle_beta 152.073100
_cell_angle_gamma 90.000000
_cell_volume 1370.162687
_symmetry_space_group_name_H-M "P 2/M"
_symmetry_group_IT_number 10
_symmetry_cell_setting 'monoclinic'
loop_
_space_group_symop_operation_xyz
x,y,z
-x,y,-z
-x,-y,-z
x,-y,z
loop_
_atom_site_type_symbol
_atom_site_label
_atom_site_fract_x
_atom_site_fract_y
_atom_site_fract_z
Si Si1 0.306604 0.676970 0.904939
Si Si2 0.691386 0.679459 0.589484
Si Si3 0.459707 0.324460 0.642271
Si Si4 0.863205 0.828908 0.318231
Si Si5 0.802501 0.831081 0.904905
Si Si6 0.103756 0.320640 0.901436
Si Si7 0.279705 0.828742 0.642967
O O1 0.316610 0.500000 0.913522
O O2 0.156251 0.728565 0.755737
O O3 0.237559 0.724985 0.929695
O O4 0.500000 0.732768 0.000000
O O5 0.500000 0.727170 0.500000
O O6 0.692353 0.500000 0.592893
O O7 0.669089 0.722819 0.500596
O O8 0.890124 0.725514 0.747309
O O9 0.470625 0.500000 0.648492
O O10 0.661404 0.254165 0.767263
O O11 0.392706 0.268360 0.667347
O O12 0.731353 0.777899 0.290865
O O13 0.070112 0.826121 0.480065
O O14 0.818752 0.000000 0.274544
O O15 0.740730 0.000000 0.873696
O O16 0.824661 0.749973 0.986870
O O17 0.000000 0.831681 0.000000
O O18 0.106796 0.500000 0.908087
O O19 0.339301 0.000000 0.681270
#
# Coordination Sequence:
#
# PCOD9152954 Si02
#       7
#     4   4   4   4   4   4   4
#     4  10  22  37  54  81 119 155 196 249 294 341
#     4   9  18  34  58  87 115 145 189 244 298 356
#     4  11  22  36  61  91 117 151 196 241 297 360
#     4   9  19  36  57  80 112 155 197 235 285 346
#     4  11  25  43  61  86 122 160 199 247 300 355
#     4  10  21  39  62  87 120 159 198 246 302 358
#     4   9  19  36  56  82 116 150 188 240 291 341
#
# _framework density 20.435528000000001
#
# number of rings (size 3 to 8) (size 9 to 14) (size 15 to 20)
#    0.000    2.143    0.000    3.429    2.000    5.429 
#    0.000    2.857    0.000    3.857    0.000    0.000 
#    0.000    0.000    0.000    0.000    0.000    0.000 
#
# Total GULP energy -156284.454972 kJ/mol
# GULP energy per Si atom -5581.587678 kJ/mol
# Density = 2.038902 g / cm^3
# Si number density = 20.435528 Si / 1000 Ang^3
#
#
#
# Elastic Constant Matrix: (Units=GPa)
#
#
# Indices 1 2 3 4 5 6 
#
# 1 87.8207 14.0757 7.2732 0.0000 -2.3213 0.0000
# 2 14.0757 22.1889 8.2435 0.0000 -2.2650 0.0000
# 3 7.2732 8.2435 57.6164 0.0000 -5.2775 0.0000
# 4 0.0000 0.0000 0.0000 27.8045 0.0000 11.2657
# 5 -2.3213 -2.2650 -5.2775 0.0000 35.4575 0.0000
# 6 0.0000 0.0000 0.0000 11.2657 0.0000 -9.1657
#
#
#
# Elastic Compliance Matrix: (Units=1/GPa)
#
#
# Indices 1 2 3 4 5 6 
#
# 1 0.012690 -0.007855 -0.000454 0.000000 0.000261 0.000000
# 2 -0.007855 0.052608 -0.006361 0.000000 0.001899 0.000000
# 3 -0.000454 -0.006361 0.018536 0.000000 0.002323 0.000000
# 4 0.000000 0.000000 0.000000 0.024009 0.000000 0.029510
# 5 0.000261 0.001899 0.002323 0.000000 0.028687 0.000000
# 6 0.000000 0.000000 0.000000 0.029510 0.000000 -0.072832
#
#
# Mechanical properties :
#
#
# Convention : Reuss Voigt Hill
#
# Bulk Modulus (GPa) = 18.35072 25.20119 21.77596
# Shear Modulus (GPa) = 44.96269 20.02150 32.49209
#
# Velocity S-wave (km/s) = 4.69574 3.13348 3.99178
# Velocity P-wave (km/s) = 6.19672 5.04484 5.65021
#
# Compressibility (1/GPa) = 0.05449376
#
# Stress axis : x y z
#
# Youngs Moduli (GPa) = 78.80034 19.00869 53.94788
#
# Poissons Ratio (x) = 0.14931 0.02450
# Poissons Ratio (y) = 0.61896 0.34318
# Poissons Ratio (z) = 0.03579 0.12092
#
# Static dielectric constant tensor:
#      x y z
#    x 1.754310 0.000000 0.049240 
#    y 0.000000 1.683190 0.000000 
#    z 0.049240 0.000000 1.747600 
# 
# From -- ./inp_files/84899.got.cif
#   From: 2010.05.17/outbox.cif.g08.bks.cpg/sg10_43_cif.got.tgz:84899.got - 2010.06.03 11:33:40.
