data_PCOD9152420
_publ_section_title
;
Structure prediction by ZEFSAII (Michael W. Deem and Ramdas Pophale) SiO2 
 PCOD9152420
Probable space group: P 2/M
;
_chemical_formula_sum "Si O2"
_cell_formula_units_Z 32
_cell_length_a 20.250056
_cell_length_b 14.982498
_cell_length_c 14.521016
_cell_angle_alpha 90.000000
_cell_angle_beta 159.058814
_cell_angle_gamma 90.000000
_cell_volume 1574.611732
_symmetry_space_group_name_H-M "P 2/M"
_symmetry_group_IT_number 10
_symmetry_cell_setting 'monoclinic'
loop_
_space_group_symop_operation_xyz
x,y,z
-x,y,-z
-x,-y,-z
x,-y,z
loop_
_atom_site_type_symbol
_atom_site_label
_atom_site_fract_x
_atom_site_fract_y
_atom_site_fract_z
Si Si1 0.545706 0.658589 0.323019
Si Si2 0.104971 0.104220 0.053386
Si Si3 0.099752 0.106232 0.846214
Si Si4 0.491890 0.821393 0.593435
Si Si5 0.225384 0.397592 0.020006
Si Si6 0.656341 0.399073 0.127229
Si Si7 0.021968 0.268775 0.420331
Si Si8 0.034801 0.607246 0.148604
O O1 0.549580 0.755534 0.376020
O O2 0.442815 0.605760 0.274346
O O3 0.752218 0.634490 0.558246
O O4 0.423593 0.639067 0.072919
O O5 0.043939 0.139301 0.875519
O O6 0.058323 0.000000 0.988058
O O7 0.320859 0.113112 0.354435
O O8 0.000000 0.148728 0.000000
O O9 0.989859 0.169094 0.633925
O O10 0.073434 0.000000 0.799868
O O11 0.318812 0.128635 0.133880
O O12 0.500000 0.777507 0.500000
O O13 0.165658 0.500000 0.925672
O O14 0.137725 0.325127 0.837500
O O15 0.130636 0.370386 0.994686
O O16 0.732607 0.500000 0.209478
O O17 0.798946 0.329877 0.357455
O O18 0.500000 0.407664 0.000000
O O19 0.000000 0.264076 0.500000
O O20 0.034661 0.500000 0.147128
O O21 0.000000 0.640160 0.000000
#
# Coordination Sequence:
#
# PCOD9152420 Si02
#       8
#     4   4   4   4   4   4   4   4
#     4  12  23  39  63  89 126 164 215 263 308 377
#     4   9  19  36  61  92 122 159 204 253 317 382
#     4  10  21  40  62  89 126 162 202 256 312 382
#     4  10  21  37  59  90 125 163 210 252 310 379
#     4  11  23  40  63  89 125 169 212 264 317 375
#     4  11  24  42  64  90 123 165 214 271 329 379
#     4  12  23  39  62  90 119 155 217 267 319 377
#     4  10  24  41  59  89 127 170 213 255 317 383
#
# _framework density 20.322471
#
# number of rings (size 3 to 8) (size 9 to 14) (size 15 to 20)
#    0.000    1.375    2.500    2.625    1.750    6.750 
#    0.000    1.875    0.000    0.375    0.000    0.000 
#    0.000    0.000    0.000    0.000    0.000    0.000 
#
# Total GULP energy -178246.293893 kJ/mol
# GULP energy per Si atom -5570.196684 kJ/mol
# Density = 2.027622 g / cm^3
# Si number density = 20.322471 Si / 1000 Ang^3
#
#
#
# Elastic Constant Matrix: (Units=GPa)
#
#
# Indices 1 2 3 4 5 6 
#
# 1 114.7576 17.1268 2.0038 0.0000 9.7061 0.0000
# 2 17.1268 89.0813 9.9441 0.0000 -11.0071 0.0000
# 3 2.0038 9.9441 44.8060 0.0000 8.2703 0.0000
# 4 0.0000 0.0000 0.0000 -4.3453 0.0000 -37.5907
# 5 9.7061 -11.0071 8.2703 0.0000 24.7213 0.0000
# 6 0.0000 0.0000 0.0000 -37.5907 0.0000 -18.3270
#
#
#
# Elastic Compliance Matrix: (Units=1/GPa)
#
#
# Indices 1 2 3 4 5 6 
#
# 1 0.009531 -0.002611 0.001128 0.000000 -0.005282 0.000000
# 2 -0.002611 0.013252 -0.004373 0.000000 0.008389 0.000000
# 3 0.001128 -0.004373 0.025238 0.000000 -0.010833 0.000000
# 4 0.000000 0.000000 0.000000 0.013744 0.000000 -0.028191
# 5 -0.005282 0.008389 -0.010833 0.000000 0.049884 0.000000
# 6 0.000000 0.000000 0.000000 -0.028191 0.000000 0.003259
#
#
# Mechanical properties :
#
#
# Convention : Reuss Voigt Hill
#
# Bulk Modulus (GPa) = 27.54064 34.08827 30.81445
# Shear Modulus (GPa) = 36.04319 15.04782 25.54551
#
# Velocity S-wave (km/s) = 4.21594 2.72408 3.54928
# Velocity P-wave (km/s) = 6.10574 5.16761 5.65616
#
# Compressibility (1/GPa) = 0.03630998
#
# Stress axis : x y z
#
# Youngs Moduli (GPa) = 104.92380 75.45852 39.62271
#
# Poissons Ratio (x) = 0.19702 -0.04470
# Poissons Ratio (y) = 0.27395 0.17326
# Poissons Ratio (z) = -0.11837 0.32996
#
# Static dielectric constant tensor:
#      x y z
#    x 1.802490 0.000000 0.026000 
#    y 0.000000 1.733750 0.000000 
#    z 0.026000 0.000000 1.776060 
# 
# From -- ./inp_files/70777.got.cif
#   From: 2010.05.17/outbox.cif.g08.bks.cpg/sg10_36_cif.got.tgz:70777.got - 2010.06.03 11:33:40.
