data_PCOD9152083
_publ_section_title
;
Structure prediction by ZEFSAII (Michael W. Deem and Ramdas Pophale) SiO2 
 PCOD9152083
Probable space group: P 2/M
;
_chemical_formula_sum "Si O2"
_cell_formula_units_Z 28
_cell_length_a 31.173269
_cell_length_b 7.688430
_cell_length_c 9.773617
_cell_angle_alpha 90.000000
_cell_angle_beta 143.865744
_cell_angle_gamma 90.000000
_cell_volume 1381.310252
_symmetry_space_group_name_H-M "P 2/M"
_symmetry_group_IT_number 10
_symmetry_cell_setting 'monoclinic'
loop_
_space_group_symop_operation_xyz
x,y,z
-x,y,-z
-x,-y,-z
x,-y,z
loop_
_atom_site_type_symbol
_atom_site_label
_atom_site_fract_x
_atom_site_fract_y
_atom_site_fract_z
Si Si1 0.931257 0.712574 0.729977
Si Si2 0.932766 0.709634 0.419692
Si Si3 0.575727 0.000000 0.112954
Si Si4 0.793746 0.299791 0.539131
Si Si5 0.317776 0.691859 0.992987
Si Si6 0.311334 0.704299 0.510092
Si Si7 0.573066 0.000000 0.775529
Si Si8 0.232643 0.793929 0.038218
O O1 0.926201 0.500000 0.709361
O O2 0.936674 0.773155 0.587268
O O3 0.860758 0.779249 0.629918
O O4 0.000000 0.755900 0.000000
O O5 0.938287 0.500000 0.437507
O O6 0.852205 0.751820 0.156977
O O7 0.000000 0.773365 0.500000
O O8 0.622870 0.830532 0.279209
O O9 0.500000 0.000000 0.000000
O O10 0.564299 0.000000 0.918562
O O11 0.815006 0.500000 0.624709
O O12 0.760047 0.228345 0.590934
O O13 0.726316 0.299694 0.261748
O O14 0.349021 0.500000 0.090795
O O15 0.379364 0.834735 0.146500
O O16 0.258465 0.723457 0.958237
O O17 0.324771 0.500000 0.579256
O O18 0.287051 0.716819 0.290873
O O19 0.500000 0.000000 0.500000
O O20 0.241604 0.000000 0.061752
#
# Coordination Sequence:
#
# PCOD9152083 Si02
#       8
#     4   4   2   4   4   4   2   4
#     4   9  17  30  52  86 124 163 213 271 323 376
#     4  10  21  36  56  88 130 174 221 276 336 396
#     4  12  28  48  70 102 143 172 213 265 324 400
#     4   9  18  35  63  91 120 167 221 269 318 375
#     4  11  22  43  70  97 131 172 222 275 326 388
#     4  11  24  44  69  97 131 176 223 270 330 394
#     4  12  28  46  72 104 137 174 214 262 329 395
#     4  12  24  40  66  96 130 175 226 283 339 393
#
# _framework density 20.270610000000001
#
# number of rings (size 3 to 8) (size 9 to 14) (size 15 to 20)
#    0.000    1.429    4.286    1.286    4.000    0.857 
#    0.000    0.000    0.000    0.429    0.000    0.000 
#    0.000    0.000    0.000    0.000    0.000    0.000 
#
# Total GULP energy -156360.772561 kJ/mol
# GULP energy per Si atom -5584.313306 kJ/mol
# Density = 2.022447 g / cm^3
# Si number density = 20.270610 Si / 1000 Ang^3
#
#
#
# Elastic Constant Matrix: (Units=GPa)
#
#
# Indices 1 2 3 4 5 6 
#
# 1 79.1348 21.6976 16.3503 0.0000 15.6704 0.0000
# 2 21.6976 101.9545 25.8190 0.0000 17.4330 0.0000
# 3 16.3503 25.8190 81.7974 0.0000 10.7196 0.0000
# 4 0.0000 0.0000 0.0000 22.0086 0.0000 0.5104
# 5 15.6704 17.4330 10.7196 0.0000 35.8180 0.0000
# 6 0.0000 0.0000 0.0000 0.5104 0.0000 9.7415
#
#
#
# Elastic Compliance Matrix: (Units=1/GPa)
#
#
# Indices 1 2 3 4 5 6 
#
# 1 0.014457 -0.001808 -0.001671 0.000000 -0.004945 0.000000
# 2 -0.001808 0.011581 -0.002768 0.000000 -0.004017 0.000000
# 3 -0.001671 -0.002768 0.013698 0.000000 -0.002021 0.000000
# 4 0.000000 0.000000 0.000000 0.045492 0.000000 -0.002383
# 5 -0.004945 -0.004017 -0.002021 0.000000 0.032643 0.000000
# 6 0.000000 0.000000 0.000000 -0.002383 0.000000 0.102779
#
#
# Mechanical properties :
#
#
# Convention : Reuss Voigt Hill
#
# Bulk Modulus (GPa) = 36.70761 43.40225 40.05493
# Shear Modulus (GPa) = 20.64217 26.78161 23.71189
#
# Velocity S-wave (km/s) = 3.19459 3.63878 3.42390
# Velocity P-wave (km/s) = 5.63518 6.25397 5.95263
#
# Compressibility (1/GPa) = 0.02724231
#
# Stress axis : x y z
#
# Youngs Moduli (GPa) = 69.17146 86.34965 73.00427
#
# Poissons Ratio (x) = 0.15612 0.12199
# Poissons Ratio (y) = 0.12506 0.20205
# Poissons Ratio (z) = 0.11559 0.23898
#
# Static dielectric constant tensor:
#      x y z
#    x 1.725580 0.000000 0.000220 
#    y 0.000000 1.731750 0.000000 
#    z 0.000220 0.000000 1.670740 
# 
# From -- ./inp_files/37391.got.cif
#   From: 2010.05.17/outbox.cif.g08.bks.cpg/sg10_19_cif.got.tgz:37391.got - 2010.06.03 11:33:40.
