data_PCOD9152218
_publ_section_title
;
Structure prediction by ZEFSAII (Michael W. Deem and Ramdas Pophale) SiO2 
 PCOD9152218
Probable space group: P 2/M
;
_chemical_formula_sum "Si O2"
_cell_formula_units_Z 24
_cell_length_a 12.571659
_cell_length_b 22.671147
_cell_length_c 14.524888
_cell_angle_alpha 90.000000
_cell_angle_beta 20.162969
_cell_angle_gamma 90.000000
_cell_volume 1426.952563
_symmetry_space_group_name_H-M "P 2/M"
_symmetry_group_IT_number 10
_symmetry_cell_setting 'monoclinic'
loop_
_space_group_symop_operation_xyz
x,y,z
-x,y,-z
-x,-y,-z
x,-y,z
loop_
_atom_site_type_symbol
_atom_site_label
_atom_site_fract_x
_atom_site_fract_y
_atom_site_fract_z
Si Si1 0.776033 0.067096 0.591596
Si Si2 0.184041 0.628095 0.523281
Si Si3 0.861596 0.743763 0.715146
Si Si4 0.364187 0.432563 0.712402
Si Si5 0.552829 0.569230 0.065452
Si Si6 0.276673 0.132327 0.092855
O O1 0.000000 0.069065 0.500000
O O2 0.997172 0.086968 0.329799
O O3 0.664243 0.000000 0.675086
O O4 0.501183 0.113785 0.828362
O O5 0.470497 0.615046 0.357339
O O6 0.066384 0.693360 0.595583
O O7 0.893875 0.594548 0.804559
O O8 0.294925 0.600354 0.336411
O O9 0.848362 0.801866 0.789939
O O10 0.000000 0.756839 0.500000
O O11 0.500000 0.724798 0.000000
O O12 0.500000 0.429588 0.500000
O O13 0.420380 0.500000 0.702450
O O14 0.000000 0.424019 0.000000
O O15 0.543737 0.500000 0.092277
O O16 0.500000 0.578178 0.000000
O O17 0.500000 0.124660 0.000000
#
# Coordination Sequence:
#
# PCOD9152218 Si02
#       6
#     4   4   4   4   4   4
#     4   9  15  23  37  56  78 109 153 197 226 247
#     4  12  22  35  53  71  92 122 156 187 231 283
#     4  11  21  33  47  65  93 126 158 188 220 269
#     4  10  21  37  55  73  91 112 145 192 242 288
#     4  11  22  34  49  71  97 121 148 186 229 274
#     4   9  16  26  38  55  82 115 150 189 223 251
#
# _framework density 16.81906
#
# number of rings (size 3 to 8) (size 9 to 14) (size 15 to 20)
#    0.000    1.667    0.000    8.500    0.000    4.667 
#    0.000    0.000    0.000    0.000    0.000    0.000 
#    0.000    0.000    0.000    0.000    0.000   16.667 
#
# Total GULP energy -133870.494681 kJ/mol
# GULP energy per Si atom -5577.937278 kJ/mol
# Density = 1.678078 g / cm^3
# Si number density = 16.819060 Si / 1000 Ang^3
#
#
#
# Elastic Constant Matrix: (Units=GPa)
#
#
# Indices 1 2 3 4 5 6 
#
# 1 38.9246 23.7184 16.5392 0.0000 -2.1648 0.0000
# 2 23.7184 115.0310 49.3353 0.0000 -0.9204 0.0000
# 3 16.5392 49.3353 104.1407 0.0000 11.9283 0.0000
# 4 0.0000 0.0000 0.0000 33.9249 0.0000 3.0922
# 5 -2.1648 -0.9204 11.9283 0.0000 18.8063 0.0000
# 6 0.0000 0.0000 0.0000 3.0922 0.0000 -2.6034
#
#
#
# Elastic Compliance Matrix: (Units=1/GPa)
#
#
# Indices 1 2 3 4 5 6 
#
# 1 0.030264 -0.004871 -0.003095 0.000000 0.005209 0.000000
# 2 -0.004871 0.011997 -0.005298 0.000000 0.003387 0.000000
# 3 -0.003095 -0.005298 0.013667 0.000000 -0.009284 0.000000
# 4 0.000000 0.000000 0.000000 0.026597 0.000000 0.031591
# 5 0.005209 0.003387 -0.009284 0.000000 0.059828 0.000000
# 6 0.000000 0.000000 0.000000 0.031591 0.000000 -0.346584
#
#
# Mechanical properties :
#
#
# Convention : Reuss Voigt Hill
#
# Bulk Modulus (GPa) = 34.01397 48.58691 41.30044
# Shear Modulus (GPa) = -29.77896 21.25910 -4.25993
#
# Velocity S-wave (km/s) = -4.21235 3.55912 -1.59320
# Velocity P-wave (km/s) = 1.84152 6.77056 4.60702
#
# Compressibility (1/GPa) = 0.02939968
#
# Stress axis : x y z
#
# Youngs Moduli (GPa) = 33.04293 83.35531 73.16821
#
# Poissons Ratio (x) = 0.40601 0.22649
# Poissons Ratio (y) = 0.16095 0.38762
# Poissons Ratio (z) = 0.10228 0.44159
#
# Static dielectric constant tensor:
#      x y z
#    x 1.561720 0.000000 0.005530 
#    y 0.000000 1.595700 0.000000 
#    z 0.005530 0.000000 1.592670 
# 
# From -- ./inp_files/65467.got.cif
#   From: 2010.05.17/outbox.cif.g08.bks.cpg/sg10_33_cif.got.tgz:65467.got - 2010.06.03 11:33:40.
