data_PCOD9152289
_publ_section_title
;
Structure prediction by ZEFSAII (Michael W. Deem and Ramdas Pophale) SiO2 
 PCOD9152289
Probable space group: P 2/M
;
_chemical_formula_sum "Si O2"
_cell_formula_units_Z 28
_cell_length_a 9.535719
_cell_length_b 8.414442
_cell_length_c 30.215630
_cell_angle_alpha 90.000000
_cell_angle_beta 37.910402
_cell_angle_gamma 90.000000
_cell_volume 1489.641403
_symmetry_space_group_name_H-M "P 2/M"
_symmetry_group_IT_number 10
_symmetry_cell_setting 'monoclinic'
loop_
_space_group_symop_operation_xyz
x,y,z
-x,y,-z
-x,-y,-z
x,-y,z
loop_
_atom_site_type_symbol
_atom_site_label
_atom_site_fract_x
_atom_site_fract_y
_atom_site_fract_z
Si Si1 0.067457 0.308073 0.708122
Si Si2 0.673974 0.809908 0.865758
Si Si3 0.391934 0.308072 0.708122
Si Si4 0.839914 0.309963 0.000000
Si Si5 0.085976 0.305676 0.430223
Si Si6 0.997235 0.190092 0.865759
Si Si7 0.762908 0.694324 0.430223
O O1 0.061352 0.500000 0.709627
O O2 0.260223 0.258864 0.695911
O O3 0.132145 0.254739 0.642849
O O4 0.827490 0.246551 0.786436
O O5 0.418649 0.746721 0.929182
O O6 0.809312 0.755060 0.876275
O O7 0.668609 0.000000 0.867714
O O8 0.390509 0.500000 0.709628
O O9 0.653609 0.254740 0.642849
O O10 0.240331 0.246550 0.786436
O O11 0.842041 0.500000 0.000001
O O12 0.935442 0.253281 0.929182
O O13 0.000000 0.250785 0.000000
O O14 0.085535 0.500000 0.430345
O O15 0.000000 0.255311 0.500000
O O16 0.916273 0.254297 0.433491
O O17 0.992817 0.000000 0.867716
O O18 0.500000 0.744689 0.500000
O O19 0.762739 0.500000 0.430345
#
# Coordination Sequence:
#
# PCOD9152289 Si02
#       7
#     4   4   4   4   4   4   4
#     4   9  17  30  49  73 101 133 169 210 256 305
#     4  10  21  37  57  80 106 138 175 213 257 312
#     4   9  17  30  49  73 101 133 169 210 256 305
#     4  11  24  39  56  80 108 137 172 215 260 306
#     4   9  16  26  43  69 100 132 167 210 258 305
#     4  10  21  37  57  80 106 138 175 213 257 312
#     4   9  16  26  43  69 100 132 167 210 258 305
#
# _framework density 18.796471
#
# number of rings (size 3 to 8) (size 9 to 14) (size 15 to 20)
#    0.000    2.429    0.000    2.571    0.000    9.143 
#    0.000    2.857    0.000    0.857    0.000    0.000 
#    0.000    0.000    0.000    0.000    0.000    0.000 
#
# Total GULP energy -156307.321148 kJ/mol
# GULP energy per Si atom -5582.404327 kJ/mol
# Density = 1.875369 g / cm^3
# Si number density = 18.796471 Si / 1000 Ang^3
#
#
#
# Elastic Constant Matrix: (Units=GPa)
#
#
# Indices 1 2 3 4 5 6 
#
# 1 147.5299 20.7743 143.0666 0.0000 -3.6839 0.0000
# 2 20.7743 12.0491 27.6357 0.0000 -0.3577 0.0000
# 3 143.0666 27.6357 222.1906 0.0000 -0.2139 0.0000
# 4 0.0000 0.0000 0.0000 -37.4102 0.0000 2.6321
# 5 -3.6839 -0.3577 -0.2139 0.0000 37.3219 0.0000
# 6 0.0000 0.0000 0.0000 2.6321 0.0000 12.9867
#
#
#
# Elastic Compliance Matrix: (Units=1/GPa)
#
#
# Indices 1 2 3 4 5 6 
#
# 1 0.018497 -0.006335 -0.011120 0.000000 0.001701 0.000000
# 2 -0.006335 0.118328 -0.010638 0.000000 0.000448 0.000000
# 3 -0.011120 -0.010638 0.012983 0.000000 -0.001125 0.000000
# 4 0.000000 0.000000 0.000000 -0.026355 0.000000 0.005342
# 5 0.001701 0.000448 -0.001125 0.000000 0.026960 0.000000
# 6 0.000000 0.000000 0.000000 0.005342 0.000000 0.075919
#
#
# Mechanical properties :
#
#
# Convention : Reuss Voigt Hill
#
# Bulk Modulus (GPa) = 10.68134 84.96919 47.82526
# Shear Modulus (GPa) = 15.93751 15.26588 15.60170
#
# Velocity S-wave (km/s) = 2.91503 2.85295 2.88416
# Velocity P-wave (km/s) = 4.12612 7.49369 6.04898
#
# Compressibility (1/GPa) = 0.09362125
#
# Stress axis : x y z
#
# Youngs Moduli (GPa) = 54.06372 8.45109 77.02398
#
# Poissons Ratio (x) = 0.05354 0.85653
# Poissons Ratio (y) = 0.34249 0.81938
# Poissons Ratio (z) = 0.60121 0.08990
#
# Static dielectric constant tensor:
#      x y z
#    x 1.645740 0.000000 0.001500 
#    y 0.000000 1.637370 0.000000 
#    z 0.001500 0.000000 1.617030 
# 
# From -- ./inp_files/91976.got.cif
#   From: 2010.05.17/outbox.cif.g08.bks.cpg/sg10_46_cif.got.tgz:91976.got - 2010.06.03 11:33:40.
