data_PCOD9152551
_publ_section_title
;
Structure prediction by ZEFSAII (Michael W. Deem and Ramdas Pophale) SiO2 
 PCOD9152551
Probable space group: P 2/M
;
_chemical_formula_sum "Si O2"
_cell_formula_units_Z 20
_cell_length_a 18.302557
_cell_length_b 8.331682
_cell_length_c 7.367458
_cell_angle_alpha 90.000000
_cell_angle_beta 120.208847
_cell_angle_gamma 90.000000
_cell_volume 970.900975
_symmetry_space_group_name_H-M "P 2/M"
_symmetry_group_IT_number 10
_symmetry_cell_setting 'monoclinic'
loop_
_space_group_symop_operation_xyz
x,y,z
-x,y,-z
-x,-y,-z
x,-y,z
loop_
_atom_site_type_symbol
_atom_site_label
_atom_site_fract_x
_atom_site_fract_y
_atom_site_fract_z
Si Si1 0.490464 0.804648 0.693918
Si Si2 0.056839 0.687377 0.317649
Si Si3 0.118983 0.184062 0.039358
Si Si4 0.190290 0.690551 0.778526
Si Si5 0.363872 0.806033 0.837149
O O1 0.500000 0.746360 0.500000
O O2 0.406826 0.754843 0.700925
O O3 0.488494 0.000000 0.686035
O O4 0.570004 0.761887 0.920455
O O5 0.033363 0.500000 0.307073
O O6 0.116754 0.708666 0.216618
O O7 0.972644 0.785321 0.167568
O O8 0.891011 0.740528 0.442441
O O9 0.186361 0.228619 0.970399
O O10 0.127439 0.000000 0.104805
O O11 0.184821 0.500000 0.795431
O O12 0.273742 0.734494 0.772299
O O13 0.357184 0.000000 0.826824
#
# Coordination Sequence:
#
# PCOD9152551 Si02
#       5
#     4   4   4   4   4
#     4   8  15  31  54  77 103 135 169 212 267 317
#     4  10  21  38  57  77 108 148 184 220 269 325
#     4  11  22  36  57  82 107 139 184 233 272 313
#     4  11  23  37  54  78 112 149 180 218 270 323
#     4   9  18  32  52  79 105 132 175 222 260 311
#
# _framework density 20.599423000000002
#
# number of rings (size 3 to 8) (size 9 to 14) (size 15 to 20)
#    0.000    2.200    0.000    6.000    0.000    7.200 
#    0.000    4.000    0.000    1.200    0.000    0.000 
#    0.000    0.000    0.000    0.000    0.000    0.000 
#
# Total GULP energy -111696.041692 kJ/mol
# GULP energy per Si atom -5584.802085 kJ/mol
# Density = 2.055254 g / cm^3
# Si number density = 20.599423 Si / 1000 Ang^3
#
#
#
# Elastic Constant Matrix: (Units=GPa)
#
#
# Indices 1 2 3 4 5 6 
#
# 1 74.5971 2.3907 19.9800 0.0000 -26.8448 0.0000
# 2 2.3907 23.4849 1.4571 0.0000 -0.5846 0.0000
# 3 19.9800 1.4571 68.5378 0.0000 -37.4423 0.0000
# 4 0.0000 0.0000 0.0000 20.2838 0.0000 -46.2041
# 5 -26.8448 -0.5846 -37.4423 0.0000 30.7990 0.0000
# 6 0.0000 0.0000 0.0000 -46.2041 0.0000 107.2645
#
#
#
# Elastic Compliance Matrix: (Units=1/GPa)
#
#
# Indices 1 2 3 4 5 6 
#
# 1 0.022718 -0.002220 0.012562 0.000000 0.035030 0.000000
# 2 -0.002220 0.042862 -0.002610 0.000000 -0.004295 0.000000
# 3 0.012562 -0.002610 0.050432 0.000000 0.072210 0.000000
# 4 0.000000 0.000000 0.000000 2.621216 0.000000 1.129086
# 5 0.035030 -0.004295 0.072210 0.000000 0.150705 0.000000
# 6 0.000000 0.000000 0.000000 1.129086 0.000000 0.495675
#
#
# Mechanical properties :
#
#
# Convention : Reuss Voigt Hill
#
# Bulk Modulus (GPa) = 7.60605 23.80840 15.70722
# Shear Modulus (GPa) = 1.46543 41.18894 21.32718
#
# Velocity S-wave (km/s) = 0.84436 4.47645 3.22114
# Velocity P-wave (km/s) = 2.15661 6.18878 4.63422
#
# Compressibility (1/GPa) = 0.13147436
#
# Stress axis : x y z
#
# Youngs Moduli (GPa) = 44.01762 23.33092 19.82859
#
# Poissons Ratio (x) = 0.05180 -0.24908
# Poissons Ratio (y) = 0.09772 0.05176
# Poissons Ratio (z) = -0.55293 0.06090
#
# Static dielectric constant tensor:
#      x y z
#    x 1.757780 0.000000 -0.028850 
#    y 0.000000 1.703890 0.000000 
#    z -0.028850 0.000000 1.734180 
# 
# From -- ./inp_files/30988.got.cif
#   From: 2010.05.17/outbox.cif.g08.bks.cpg/sg10_16_cif.got.tgz:30988.got - 2010.06.03 11:33:40.
