data_PCOD9152695
_publ_section_title
;
Structure prediction by ZEFSAII (Michael W. Deem and Ramdas Pophale) SiO2 
 PCOD9152695
Probable space group: P 2/M
;
_chemical_formula_sum "Si O2"
_cell_formula_units_Z 32
_cell_length_a 14.623290
_cell_length_b 15.177149
_cell_length_c 19.665858
_cell_angle_alpha 90.000000
_cell_angle_beta 160.700987
_cell_angle_gamma 90.000000
_cell_volume 1442.504583
_symmetry_space_group_name_H-M "P 2/M"
_symmetry_group_IT_number 10
_symmetry_cell_setting 'monoclinic'
loop_
_space_group_symop_operation_xyz
x,y,z
-x,y,-z
-x,-y,-z
x,-y,z
loop_
_atom_site_type_symbol
_atom_site_label
_atom_site_fract_x
_atom_site_fract_y
_atom_site_fract_z
Si Si1 0.912195 0.599673 0.343321
Si Si2 0.150863 0.732004 0.310778
Si Si3 0.597930 0.102767 0.775497
Si Si4 0.118104 0.217905 0.507160
Si Si5 0.681573 0.905410 0.191863
Si Si6 0.305273 0.400190 0.964208
Si Si7 0.266277 0.252850 0.230708
Si Si8 0.850646 0.097803 0.094391
O O1 0.005201 0.500000 0.424372
O O2 0.810200 0.599874 0.193976
O O3 0.128359 0.677725 0.506283
O O4 0.631463 0.620494 0.188520
O O5 0.419636 0.705490 0.544604
O O6 0.203817 0.741818 0.267171
O O7 0.889787 0.667707 0.134681
O O8 0.052140 0.828593 0.263740
O O9 0.366736 0.163933 0.649449
O O10 0.686471 0.156944 0.770877
O O11 0.830523 0.100890 0.998264
O O12 0.521419 0.000000 0.709981
O O13 0.000000 0.194791 0.500000
O O14 0.854206 0.176968 0.285591
O O15 0.461370 0.887724 0.097031
O O16 0.831516 0.000000 0.312240
O O17 0.500000 0.921451 0.000000
O O18 0.277961 0.500000 0.971469
O O19 0.000000 0.289059 0.000000
O O20 0.933503 0.000000 0.174011
#
# Coordination Sequence:
#
# PCOD9152695 Si02
#       8
#     4   4   4   4   4   4   4   4
#     4   9  20  37  61  97 136 169 209 257 315 395
#     4  11  23  42  69  93 124 168 218 276 331 398
#     4  11  24  41  61  89 130 177 224 275 328 386
#     4  12  23  35  59  90 128 174 212 258 321 388
#     4  10  22  36  53  85 129 168 210 262 311 387
#     4   9  19  39  68  99 130 167 210 259 324 397
#     4  11  25  44  64  91 124 168 219 278 334 385
#     4  10  21  38  60  90 125 166 217 267 324 388
#
# _framework density 22.183638999999999
#
# number of rings (size 3 to 8) (size 9 to 14) (size 15 to 20)
#    0.000    1.625    2.500    2.625    5.250    2.000 
#    0.000    2.500    0.000    2.250    0.000    0.000 
#    0.000    0.000    0.000    0.000    0.000    0.000 
#
# Total GULP energy -178256.577218 kJ/mol
# GULP energy per Si atom -5570.518038 kJ/mol
# Density = 2.213315 g / cm^3
# Si number density = 22.183639 Si / 1000 Ang^3
#
#
#
# Elastic Constant Matrix: (Units=GPa)
#
#
# Indices 1 2 3 4 5 6 
#
# 1 110.4359 32.5951 14.5133 0.0000 3.1084 0.0000
# 2 32.5951 77.0159 31.7422 0.0000 23.6062 0.0000
# 3 14.5133 31.7422 54.9138 0.0000 -1.9189 0.0000
# 4 0.0000 0.0000 0.0000 31.1745 0.0000 2.1272
# 5 3.1084 23.6062 -1.9189 0.0000 33.3409 0.0000
# 6 0.0000 0.0000 0.0000 2.1272 0.0000 -1.3956
#
#
#
# Elastic Compliance Matrix: (Units=1/GPa)
#
#
# Indices 1 2 3 4 5 6 
#
# 1 0.010558 -0.005636 0.000574 0.000000 0.003039 0.000000
# 2 -0.005636 0.027817 -0.015290 0.000000 -0.020050 0.000000
# 3 0.000574 -0.015290 0.027328 0.000000 0.012345 0.000000
# 4 0.000000 0.000000 0.000000 0.029056 0.000000 0.044287
# 5 0.003039 -0.020050 0.012345 0.000000 0.044616 0.000000
# 6 0.000000 0.000000 0.000000 0.044287 0.000000 -0.649053
#
#
# Mechanical properties :
#
#
# Convention : Reuss Voigt Hill
#
# Bulk Modulus (GPa) = 40.00370 44.45185 42.22778
# Shear Modulus (GPa) = -10.85447 23.52498 6.33525
#
# Velocity S-wave (km/s) = -2.21441 3.26001 1.69175
# Velocity P-wave (km/s) = 3.39617 5.85251 4.78465
#
# Compressibility (1/GPa) = 0.02499769
#
# Stress axis : x y z
#
# Youngs Moduli (GPa) = 94.71811 35.94897 36.59200
#
# Poissons Ratio (x) = 0.20263 -0.02100
# Poissons Ratio (y) = 0.53388 0.55950
# Poissons Ratio (z) = -0.05437 0.54967
#
# Static dielectric constant tensor:
#      x y z
#    x 1.791190 0.000000 -0.013010 
#    y 0.000000 1.808430 0.000000 
#    z -0.013010 0.000000 1.915990 
# 
# From -- ./inp_files/85422.got.cif
#   From: 2010.05.17/outbox.cif.g08.bks.cpg/sg10_43_cif.got.tgz:85422.got - 2010.06.03 11:33:40.
