data_PCOD9152831
_publ_section_title
;
Structure prediction by ZEFSAII (Michael W. Deem and Ramdas Pophale) SiO2 
 PCOD9152831
Probable space group: P 2/M
;
_chemical_formula_sum "Si O2"
_cell_formula_units_Z 16
_cell_length_a 5.760734
_cell_length_b 25.455036
_cell_length_c 5.208705
_cell_angle_alpha 90.000000
_cell_angle_beta 78.541768
_cell_angle_gamma 90.000000
_cell_volume 748.580135
_symmetry_space_group_name_H-M "P 2/M"
_symmetry_group_IT_number 10
_symmetry_cell_setting 'monoclinic'
loop_
_space_group_symop_operation_xyz
x,y,z
-x,y,-z
-x,-y,-z
x,-y,z
loop_
_atom_site_type_symbol
_atom_site_label
_atom_site_fract_x
_atom_site_fract_y
_atom_site_fract_z
Si Si1 0.660556 0.886830 0.215114
Si Si2 0.000000 0.276553 0.500000
Si Si3 0.000000 0.206612 0.000000
Si Si4 0.157310 0.500000 0.214798
Si Si5 0.500000 0.337571 0.500000
Si Si6 0.332618 0.000000 0.784333
Si Si7 0.500000 0.406871 0.000000
O O1 0.500000 0.881680 0.500000
O O2 0.793676 0.943328 0.206614
O O3 0.500000 0.891107 0.000000
O O4 0.805869 0.834163 0.146027
O O5 0.250365 0.307146 0.496970
O O6 0.056361 0.242418 0.233039
O O7 0.308861 0.552891 0.159483
O O8 0.000000 0.500000 0.500000
O O9 0.000000 0.500000 0.000000
O O10 0.437125 0.371126 0.769411
O O11 0.500000 0.000000 0.500000
O O12 0.500000 0.000000 0.000000
#
# Coordination Sequence:
#
# PCOD9152831 Si02
#       7
#     4   2   2   2   2   2   2
#     4  10  21  38  64  90 131 168 215 282 350 437
#     4  12  30  48  74 102 140 188 248 308 350 412
#     4  12  26  43  68  98 128 181 232 296 368 412
#     4  11  24  43  76 113 157 188 234 289 344 429
#     4  12  28  51  76 104 146 193 248 298 350 412
#     4   8  16  33  56  91 122 165 209 264 348 429
#     4  11  26  46  76 112 146 198 238 287 356 414
#
# _framework density 21.373795000000001
#
# number of rings (size 3 to 8) (size 9 to 14) (size 15 to 20)
#    0.000    1.250    0.000    4.500   10.500    2.500 
#    0.000    0.000    0.000   10.500    0.000    0.000 
#    0.000    0.000    0.000    0.000    0.000    0.000 
#
# Total GULP energy -89240.681077 kJ/mol
# GULP energy per Si atom -5577.542567 kJ/mol
# Density = 2.132515 g / cm^3
# Si number density = 21.373795 Si / 1000 Ang^3
#
#
#
# Elastic Constant Matrix: (Units=GPa)
#
#
# Indices 1 2 3 4 5 6 
#
# 1 104.7968 90.4294 65.7383 0.0000 -14.0215 0.0000
# 2 90.4294 185.8982 94.8212 0.0000 5.9056 0.0000
# 3 65.7383 94.8212 236.0688 0.0000 -11.2524 0.0000
# 4 0.0000 0.0000 0.0000 73.8606 0.0000 -14.6185
# 5 -14.0215 5.9056 -11.2524 0.0000 42.3411 0.0000
# 6 0.0000 0.0000 0.0000 -14.6185 0.0000 33.1209
#
#
#
# Elastic Compliance Matrix: (Units=1/GPa)
#
#
# Indices 1 2 3 4 5 6 
#
# 1 0.018875 -0.008675 -0.001434 0.000000 0.007079 0.000000
# 2 -0.008675 0.010873 -0.002189 0.000000 -0.004971 0.000000
# 3 -0.001434 -0.002189 0.005577 0.000000 0.001312 0.000000
# 4 0.000000 0.000000 0.000000 0.014835 0.000000 0.006548
# 5 0.007079 -0.004971 0.001312 0.000000 0.027004 0.000000
# 6 0.000000 0.000000 0.000000 0.006548 0.000000 0.033082
#
#
# Mechanical properties :
#
#
# Convention : Reuss Voigt Hill
#
# Bulk Modulus (GPa) = 93.19975 114.30464 103.75219
# Shear Modulus (GPa) = 36.12224 48.24954 42.18589
#
# Velocity S-wave (km/s) = 4.11545 4.75638 4.44748
# Velocity P-wave (km/s) = 8.14137 9.15200 8.66144
#
# Compressibility (1/GPa) = 0.01072964
#
# Stress axis : x y z
#
# Youngs Moduli (GPa) = 52.98111 91.96693 179.30275
#
# Poissons Ratio (x) = 0.79780 0.25716
# Poissons Ratio (y) = 0.45960 0.39245
# Poissons Ratio (z) = 0.07599 0.20130
#
# Static dielectric constant tensor:
#      x y z
#    x 1.902620 0.000000 -0.028730 
#    y 0.000000 1.982900 0.000000 
#    z -0.028730 0.000000 1.702900 
# 
# From -- ./inp_files/1266.got.cif
#   From: 2010.05.17/outbox.cif.g08.bks.cpg/sg10_1_cif.got.tgz:1266.got - 2010.06.03 11:33:40.
