data_PCOD9152126
_publ_section_title
;
Structure prediction by ZEFSAII (Michael W. Deem and Ramdas Pophale) SiO2 
 PCOD9152126
Probable space group: P 2/M
;
_chemical_formula_sum "Si O2"
_cell_formula_units_Z 32
_cell_length_a 20.774236
_cell_length_b 8.743316
_cell_length_c 14.987060
_cell_angle_alpha 90.000000
_cell_angle_beta 142.492738
_cell_angle_gamma 90.000000
_cell_volume 1657.435117
_symmetry_space_group_name_H-M "P 2/M"
_symmetry_group_IT_number 10
_symmetry_cell_setting 'monoclinic'
loop_
_space_group_symop_operation_xyz
x,y,z
-x,y,-z
-x,-y,-z
x,-y,z
loop_
_atom_site_type_symbol
_atom_site_label
_atom_site_fract_x
_atom_site_fract_y
_atom_site_fract_z
Si Si1 0.514648 0.316052 0.913179
Si Si2 0.899903 0.831663 0.619735
Si Si3 0.778649 0.182162 0.905301
Si Si4 0.782434 0.184338 0.715199
Si Si5 0.007279 0.675200 0.123988
Si Si6 0.277608 0.316994 0.966289
Si Si7 0.672315 0.822384 0.406269
Si Si8 0.929314 0.174369 0.345977
O O1 0.519300 0.500000 0.922972
O O2 0.418724 0.269277 0.742838
O O3 0.500000 0.260531 0.000000
O O4 0.621544 0.263438 0.980544
O O5 0.929514 0.691143 0.714017
O O6 0.777788 0.816001 0.460932
O O7 0.986693 0.838273 0.640582
O O8 0.904963 0.000000 0.673267
O O9 0.733475 0.226890 0.757655
O O10 0.772135 0.000000 0.908810
O O11 0.729150 0.256106 0.939250
O O12 0.901675 0.230000 0.029790
O O13 0.900961 0.256784 0.839501
O O14 0.713658 0.225112 0.551391
O O15 0.793205 0.000000 0.727676
O O16 0.981120 0.500000 0.075679
O O17 0.278978 0.500000 0.971852
O O18 0.172888 0.260636 0.800420
O O19 0.639812 0.000000 0.378274
O O20 0.000000 0.250374 0.500000
O O21 0.899567 0.000000 0.341160
#
# Coordination Sequence:
#
# PCOD9152126 Si02
#       8
#     4   4   4   4   4   4   4   4
#     4  10  24  45  64  84 115 155 195 240 296 353
#     4   9  18  34  54  81 119 156 189 237 291 344
#     4  11  21  36  58  82 115 159 197 238 296 354
#     4   9  20  37  57  83 118 157 196 240 292 348
#     4  11  20  30  50  83 121 158 197 237 278 339
#     4  11  24  41  60  86 119 155 199 249 295 350
#     4   9  19  37  61  88 115 146 197 249 287 336
#     4  10  21  36  58  86 118 155 192 234 295 360
#
# _framework density 19.306939
#
# number of rings (size 3 to 8) (size 9 to 14) (size 15 to 20)
#    0.000    2.000    1.250    3.000    1.750    6.000 
#    0.000    0.625    0.000    3.750    0.000    0.000 
#    0.000    0.000    0.000    0.000    0.000    0.000 
#
# Total GULP energy -178223.857892 kJ/mol
# GULP energy per Si atom -5569.495559 kJ/mol
# Density = 1.926300 g / cm^3
# Si number density = 19.306939 Si / 1000 Ang^3
#
#
#
# Elastic Constant Matrix: (Units=GPa)
#
#
# Indices 1 2 3 4 5 6 
#
# 1 133.8927 29.7491 69.2447 0.0000 4.8339 0.0000
# 2 29.7491 35.1160 18.2888 0.0000 0.0748 0.0000
# 3 69.2447 18.2888 102.1586 0.0000 1.7679 0.0000
# 4 0.0000 0.0000 0.0000 133.6158 0.0000 -32.7207
# 5 4.8339 0.0748 1.7679 0.0000 19.9707 0.0000
# 6 0.0000 0.0000 0.0000 -32.7207 0.0000 39.3702
#
#
#
# Elastic Compliance Matrix: (Units=1/GPa)
#
#
# Indices 1 2 3 4 5 6 
#
# 1 0.013023 -0.007116 -0.007511 0.000000 -0.002461 0.000000
# 2 -0.007116 0.035296 -0.001526 0.000000 0.001725 0.000000
# 3 -0.007511 -0.001526 0.015144 0.000000 0.000483 0.000000
# 4 0.000000 0.000000 0.000000 0.009397 0.000000 0.007810
# 5 -0.002461 0.001725 0.000483 0.000000 0.050620 0.000000
# 6 0.000000 0.000000 0.000000 0.007810 0.000000 0.031890
#
#
# Mechanical properties :
#
#
# Convention : Reuss Voigt Hill
#
# Bulk Modulus (GPa) = 32.09297 56.19249 44.14273
# Shear Modulus (GPa) = 25.24493 48.85033 37.04763
#
# Velocity S-wave (km/s) = 3.61994 5.03556 4.38525
# Velocity P-wave (km/s) = 5.84213 7.93582 6.96806
#
# Compressibility (1/GPa) = 0.03115947
#
# Stress axis : x y z
#
# Youngs Moduli (GPa) = 76.78920 28.33178 66.03181
#
# Poissons Ratio (x) = 0.20160 0.49593
# Poissons Ratio (y) = 0.54640 0.10074
# Poissons Ratio (z) = 0.57673 0.04322
#
# Static dielectric constant tensor:
#      x y z
#    x 1.772580 0.000000 -0.072930 
#    y 0.000000 1.681200 0.000000 
#    z -0.072930 0.000000 1.702110 
# 
# From -- ./inp_files/70037.got.cif
#   From: 2010.05.17/outbox.cif.g08.bks.cpg/sg10_36_cif.got.tgz:70037.got - 2010.06.03 11:33:40.
