data_PCOD9152082
_publ_section_title
;
Structure prediction by ZEFSAII (Michael W. Deem and Ramdas Pophale) SiO2 
 PCOD9152082
Probable space group: P 2/M
;
_chemical_formula_sum "Si O2"
_cell_formula_units_Z 30
_cell_length_a 5.081366
_cell_length_b 32.263245
_cell_length_c 9.908282
_cell_angle_alpha 90.000000
_cell_angle_beta 116.182492
_cell_angle_gamma 90.000000
_cell_volume 1457.705108
_symmetry_space_group_name_H-M "P 2/M"
_symmetry_group_IT_number 10
_symmetry_cell_setting 'monoclinic'
loop_
_space_group_symop_operation_xyz
x,y,z
-x,y,-z
-x,-y,-z
x,-y,z
loop_
_atom_site_type_symbol
_atom_site_label
_atom_site_fract_x
_atom_site_fract_y
_atom_site_fract_z
Si Si1 0.109368 0.328751 0.177478
Si Si2 0.847016 0.500000 0.108176
Si Si3 0.345868 0.046938 0.104435
Si Si4 0.661851 0.634350 0.396491
Si Si5 0.239571 0.588387 0.829627
Si Si6 0.656193 0.881921 0.678256
Si Si7 0.160657 0.245193 0.891990
Si Si8 0.159196 0.170470 0.680113
O O1 0.967022 0.371679 0.196414
O O2 0.991218 0.285710 0.207967
O O3 0.457636 0.332132 0.274627
O O4 0.000000 0.327062 0.000000
O O5 0.912147 0.543905 0.191785
O O6 0.500000 0.500000 0.000000
O O7 0.000000 0.500000 0.000000
O O8 0.379588 0.078666 0.234302
O O9 0.452608 0.000000 0.158762
O O10 0.500000 0.060579 0.000000
O O11 0.000000 0.044956 0.000000
O O12 0.500000 0.627072 0.500000
O O13 0.645822 0.594692 0.295388
O O14 0.000000 0.645642 0.500000
O O15 0.500000 0.591004 0.000000
O O16 0.500000 0.889565 0.500000
O O17 0.483460 0.844642 0.713950
O O18 0.981094 0.866848 0.712761
O O19 0.152346 0.208035 0.783214
O O20 0.500000 0.254882 0.000000
O O21 0.000000 0.235872 0.000000
O O22 0.000000 0.179516 0.500000
#
# Coordination Sequence:
#
# PCOD9152082 Si02
#       8
#     4   2   4   4   4   4   4   4
#     4  11  23  43  73  94 129 171 217 265 325 378
#     4  10  24  38  68 109 130 165 228 269 308 381
#     4  10  21  36  56  88 126 162 207 263 321 372
#     4  12  26  43  66  99 134 169 213 260 319 386
#     4  11  22  43  73  97 135 174 218 269 319 379
#     4  10  21  38  62  86 118 168 212 256 312 382
#     4  11  25  41  65  97 124 159 215 267 320 386
#     4  10  22  42  61  87 127 163 207 259 325 384
#
# _framework density 20.580293999999999
#
# number of rings (size 3 to 8) (size 9 to 14) (size 15 to 20)
#    0.000    1.333    2.667    2.400    3.733    3.467 
#    2.400    1.333    0.000    4.800    0.000    0.000 
#    0.000    0.000    0.000    0.000    0.000    0.000 
#
# Total GULP energy -167496.934115 kJ/mol
# GULP energy per Si atom -5583.231137 kJ/mol
# Density = 2.053345 g / cm^3
# Si number density = 20.580294 Si / 1000 Ang^3
#
#
#
# Elastic Constant Matrix: (Units=GPa)
#
#
# Indices 1 2 3 4 5 6 
#
# 1 123.1090 23.1883 51.3724 0.0000 -10.9008 0.0000
# 2 23.1883 124.8318 61.0934 0.0000 -11.3254 0.0000
# 3 51.3724 61.0934 101.9302 0.0000 -10.8216 0.0000
# 4 0.0000 0.0000 0.0000 -40.3854 0.0000 -5.0862
# 5 -10.9008 -11.3254 -10.8216 0.0000 37.6324 0.0000
# 6 0.0000 0.0000 0.0000 -5.0862 0.0000 28.7286
#
#
#
# Elastic Compliance Matrix: (Units=1/GPa)
#
#
# Indices 1 2 3 4 5 6 
#
# 1 0.010459 0.000994 -0.005687 0.000000 0.001693 0.000000
# 2 0.000994 0.011514 -0.007224 0.000000 0.001676 0.000000
# 3 -0.005687 -0.007224 0.017124 0.000000 0.001103 0.000000
# 4 0.000000 0.000000 0.000000 -0.024221 0.000000 -0.004288
# 5 0.001693 0.001676 0.001103 0.000000 0.027885 0.000000
# 6 0.000000 0.000000 0.000000 -0.004288 0.000000 0.034049
#
#
# Mechanical properties :
#
#
# Convention : Reuss Voigt Hill
#
# Bulk Modulus (GPa) = 65.52189 69.01992 67.27091
# Shear Modulus (GPa) = 47.28991 19.47624 33.38308
#
# Velocity S-wave (km/s) = 4.79876 3.07962 4.03189
# Velocity P-wave (km/s) = 7.91268 6.80111 7.37786
#
# Compressibility (1/GPa) = 0.01526207
#
# Stress axis : x y z
#
# Youngs Moduli (GPa) = 95.61295 86.85367 58.39766
#
# Poissons Ratio (x) = -0.08635 0.33213
# Poissons Ratio (y) = -0.09506 0.42187
# Poissons Ratio (z) = 0.54379 0.62744
#
# Static dielectric constant tensor:
#      x y z
#    x 1.801960 0.000000 0.006890 
#    y 0.000000 1.752900 0.000000 
#    z 0.006890 0.000000 1.768730 
# 
# From -- ./inp_files/15910.got.cif
#   From: 2010.05.17/outbox.cif.g08.bks.cpg/sg10_8_cif.got.tgz:15910.got - 2010.06.03 11:33:40.
