data_PCOD9152632
_publ_section_title
;
Structure prediction by ZEFSAII (Michael W. Deem and Ramdas Pophale) SiO2 
 PCOD9152632
Probable space group: P 2/M
;
_chemical_formula_sum "Si O2"
_cell_formula_units_Z 24
_cell_length_a 11.734313
_cell_length_b 11.984641
_cell_length_c 17.165154
_cell_angle_alpha 90.000000
_cell_angle_beta 26.993048
_cell_angle_gamma 90.000000
_cell_volume 1095.654763
_symmetry_space_group_name_H-M "P 2/M"
_symmetry_group_IT_number 10
_symmetry_cell_setting 'monoclinic'
loop_
_space_group_symop_operation_xyz
x,y,z
-x,y,-z
-x,-y,-z
x,-y,z
loop_
_atom_site_type_symbol
_atom_site_label
_atom_site_fract_x
_atom_site_fract_y
_atom_site_fract_z
Si Si1 0.597263 0.000000 0.186313
Si Si2 0.895091 0.370834 0.895821
Si Si3 0.146414 0.000000 0.796750
Si Si4 0.673268 0.371972 0.726922
Si Si5 0.656961 0.759996 0.333691
Si Si6 0.733297 0.196419 0.564693
Si Si7 0.224824 0.773338 0.184320
O O1 0.731254 0.000000 0.190439
O O2 0.410914 0.895236 0.295547
O O3 0.842692 0.000000 0.982515
O O4 0.947483 0.500000 0.842941
O O5 0.872919 0.291829 0.832768
O O6 0.104158 0.317393 0.823745
O O7 0.627476 0.366970 0.100366
O O8 0.244880 0.883941 0.702385
O O9 0.747219 0.500000 0.682379
O O10 0.784031 0.301443 0.588580
O O11 0.716009 0.317851 0.785245
O O12 0.500000 0.710392 0.500000
O O13 0.469778 0.771382 0.376387
O O14 0.990127 0.159214 0.364809
O O15 0.500000 0.827695 0.000000
#
# Coordination Sequence:
#
# PCOD9152632 Si02
#       7
#     2   4   2   4   4   4   4
#     4   9  20  38  60  89 119 152 189 241 297 350
#     4  10  21  38  59  88 126 158 189 239 300 350
#     4   9  19  36  62  85 118 158 195 232 284 352
#     4  10  22  39  62  88 115 158 207 242 281 347
#     4  11  21  37  59  92 121 154 194 241 295 354
#     4  11  22  39  62  89 119 152 195 249 294 349
#     4  10  21  40  60  83 118 160 202 242 285 344
#
# _framework density 21.904710000000001
#
# number of rings (size 3 to 8) (size 9 to 14) (size 15 to 20)
#    0.000    1.833    1.667    2.250    0.000    7.000 
#    0.000    3.750    0.000    2.000    0.000    0.000 
#    0.000    0.000    0.000    0.000    0.000    0.000 
#
# Total GULP energy -133982.857392 kJ/mol
# GULP energy per Si atom -5582.619058 kJ/mol
# Density = 2.185485 g / cm^3
# Si number density = 21.904710 Si / 1000 Ang^3
#
#
#
# Elastic Constant Matrix: (Units=GPa)
#
#
# Indices 1 2 3 4 5 6 
#
# 1 62.5474 7.2217 20.8338 0.0000 -18.5837 0.0000
# 2 7.2217 27.9883 7.2205 0.0000 -12.3428 0.0000
# 3 20.8338 7.2205 140.5745 0.0000 -25.4824 0.0000
# 4 0.0000 0.0000 0.0000 13.8180 0.0000 5.4364
# 5 -18.5837 -12.3428 -25.4824 0.0000 35.0101 0.0000
# 6 0.0000 0.0000 0.0000 5.4364 0.0000 8.6502
#
#
#
# Elastic Compliance Matrix: (Units=1/GPa)
#
#
# Indices 1 2 3 4 5 6 
#
# 1 0.019150 -0.000629 -0.001156 0.000000 0.009102 0.000000
# 2 -0.000629 0.042373 0.000650 0.000000 0.015078 0.000000
# 3 -0.001156 0.000650 0.008274 0.000000 0.005638 0.000000
# 4 0.000000 0.000000 0.000000 0.096141 0.000000 -0.060422
# 5 0.009102 0.015078 0.005638 0.000000 0.042814 0.000000
# 6 0.000000 0.000000 0.000000 -0.060422 0.000000 0.153577
#
#
# Mechanical properties :
#
#
# Convention : Reuss Voigt Hill
#
# Bulk Modulus (GPa) = 14.80898 33.51802 24.16350
# Shear Modulus (GPa) = 12.91634 24.55129 18.73381
#
# Velocity S-wave (km/s) = 2.43093 3.35150 2.92762
# Velocity P-wave (km/s) = 3.82812 5.50561 4.74164
#
# Compressibility (1/GPa) = 0.06752658
#
# Stress axis : x y z
#
# Youngs Moduli (GPa) = 52.21982 23.59990 120.86752
#
# Poissons Ratio (x) = 0.01484 0.13970
# Poissons Ratio (y) = 0.03285 -0.07856
# Poissons Ratio (z) = 0.06036 -0.01534
#
# Static dielectric constant tensor:
#      x y z
#    x 1.796550 0.000000 -0.045180 
#    y 0.000000 1.785780 0.000000 
#    z -0.045180 0.000000 1.857150 
# 
# From -- ./inp_files/85188.got.cif
#   From: 2010.05.17/outbox.cif.g08.bks.cpg/sg10_43_cif.got.tgz:85188.got - 2010.06.03 11:33:40.
