data_PCOD9152071
_publ_section_title
;
Structure prediction by ZEFSAII (Michael W. Deem and Ramdas Pophale) SiO2 
 PCOD9152071
Probable space group: P 2/M
;
_chemical_formula_sum "Si O2"
_cell_formula_units_Z 28
_cell_length_a 8.863671
_cell_length_b 14.619967
_cell_length_c 17.282757
_cell_angle_alpha 90.000000
_cell_angle_beta 40.072738
_cell_angle_gamma 90.000000
_cell_volume 1441.772578
_symmetry_space_group_name_H-M "P 2/M"
_symmetry_group_IT_number 10
_symmetry_cell_setting 'monoclinic'
loop_
_space_group_symop_operation_xyz
x,y,z
-x,y,-z
-x,-y,-z
x,-y,z
loop_
_atom_site_type_symbol
_atom_site_label
_atom_site_fract_x
_atom_site_fract_y
_atom_site_fract_z
Si Si1 0.744783 0.000000 0.304364
Si Si2 0.816807 0.000000 0.450111
Si Si3 0.483017 0.604271 0.912617
Si Si4 0.120486 0.746139 0.245280
Si Si5 0.100249 0.252158 0.072293
Si Si6 0.353732 0.164272 0.760742
Si Si7 0.509831 0.893392 0.124808
Si Si8 0.164988 0.799255 0.503910
O O1 0.869725 0.000000 0.337848
O O2 0.465436 0.000000 0.430825
O O3 0.779891 0.910443 0.239325
O O4 0.894874 0.906695 0.458923
O O5 0.483255 0.500000 0.885628
O O6 0.704689 0.664218 0.798768
O O7 0.500000 0.604222 0.000000
O O8 0.249277 0.661036 0.985719
O O9 0.055612 0.734583 0.181556
O O10 0.279436 0.837654 0.190455
O O11 0.903176 0.753360 0.388455
O O12 0.847670 0.233850 0.134613
O O13 0.272217 0.164632 0.994413
O O14 0.463975 0.116027 0.792487
O O15 0.566254 0.205967 0.628051
O O16 0.509678 0.000000 0.103280
O O17 0.000000 0.764300 0.500000
#
# Coordination Sequence:
#
# PCOD9152071 Si02
#       8
#     2   2   4   4   4   4   4   4
#     4   9  18  32  45  71  99 147 188 224 262 298
#     4   9  19  30  48  67 103 140 195 234 247 292
#     4   8  16  36  63  86 108 135 174 225 277 331
#     4  10  21  36  56  85 108 137 188 228 270 325
#     4  10  22  35  55  85 109 139 184 229 275 321
#     4  11  21  35  52  75 112 150 188 222 267 325
#     4  11  22  36  53  75 112 155 189 221 268 321
#     4  11  21  34  53  76 105 151 187 225 272 319
#
# _framework density 19.420539000000002
#
# number of rings (size 3 to 8) (size 9 to 14) (size 15 to 20)
#    0.000    2.000    2.143    2.786    2.000    3.429 
#    0.000    0.000    0.000    8.143    0.000    4.000 
#    0.000    0.000    0.000    0.000    0.000    0.000 
#
# Total GULP energy -156365.693527 kJ/mol
# GULP energy per Si atom -5584.489055 kJ/mol
# Density = 1.937634 g / cm^3
# Si number density = 19.420539 Si / 1000 Ang^3
#
#
#
# Elastic Constant Matrix: (Units=GPa)
#
#
# Indices 1 2 3 4 5 6 
#
# 1 40.0453 4.6630 -0.8041 0.0000 2.8976 0.0000
# 2 4.6630 112.6680 28.1948 0.0000 -12.2676 0.0000
# 3 -0.8041 28.1948 107.9210 0.0000 -5.7250 0.0000
# 4 0.0000 0.0000 0.0000 12.4524 0.0000 -0.7693
# 5 2.8976 -12.2676 -5.7250 0.0000 32.4120 0.0000
# 6 0.0000 0.0000 0.0000 -0.7693 0.0000 15.5823
#
#
#
# Elastic Compliance Matrix: (Units=1/GPa)
#
#
# Indices 1 2 3 4 5 6 
#
# 1 0.025348 -0.001453 0.000423 0.000000 -0.002741 0.000000
# 2 -0.001453 0.009917 -0.002418 0.000000 0.003456 0.000000
# 3 0.000423 -0.002418 0.009944 0.000000 0.000803 0.000000
# 4 0.000000 0.000000 0.000000 0.080551 0.000000 0.003977
# 5 -0.002741 0.003456 0.000803 0.000000 0.032548 0.000000
# 6 0.000000 0.000000 0.000000 0.003977 0.000000 0.064372
#
#
# Mechanical properties :
#
#
# Convention : Reuss Voigt Hill
#
# Bulk Modulus (GPa) = 26.10195 36.08243 31.09219
# Shear Modulus (GPa) = 20.63150 27.32803 23.97977
#
# Velocity S-wave (km/s) = 3.26291 3.75530 3.51773
# Velocity P-wave (km/s) = 5.25976 6.11742 5.70473
#
# Compressibility (1/GPa) = 0.03831131
#
# Stress axis : x y z
#
# Youngs Moduli (GPa) = 39.45111 100.83363 100.56701
#
# Poissons Ratio (x) = 0.14656 -0.04255
# Poissons Ratio (y) = 0.05734 0.24321
# Poissons Ratio (z) = -0.01669 0.24386
#
# Static dielectric constant tensor:
#      x y z
#    x 1.693480 0.000000 0.018690 
#    y 0.000000 1.673380 0.000000 
#    z 0.018690 0.000000 1.702440 
# 
# From -- ./inp_files/24961.got.cif
#   From: 2010.05.17/outbox.cif.g08.bks.cpg/sg10_13_cif.got.tgz:24961.got - 2010.06.03 11:33:40.
