data_PCOD9152031
_publ_section_title
;
Structure prediction by ZEFSAII (Michael W. Deem and Ramdas Pophale) SiO2 
 PCOD9152031
Probable space group: P 2/M
;
_chemical_formula_sum "Si O2"
_cell_formula_units_Z 32
_cell_length_a 11.759030
_cell_length_b 16.860632
_cell_length_c 14.147844
_cell_angle_alpha 90.000000
_cell_angle_beta 147.503339
_cell_angle_gamma 90.000000
_cell_volume 1506.997058
_symmetry_space_group_name_H-M "P 2/M"
_symmetry_group_IT_number 10
_symmetry_cell_setting 'monoclinic'
loop_
_space_group_symop_operation_xyz
x,y,z
-x,y,-z
-x,-y,-z
x,-y,z
loop_
_atom_site_type_symbol
_atom_site_label
_atom_site_fract_x
_atom_site_fract_y
_atom_site_fract_z
Si Si1 0.810411 0.341855 0.140663
Si Si2 0.626194 0.586612 0.686764
Si Si3 0.197459 0.587049 0.503736
Si Si4 0.371499 0.686690 0.780452
Si Si5 0.100881 0.091087 0.471127
Si Si6 0.967507 0.173869 0.182740
Si Si7 0.541944 0.841917 0.802175
Si Si8 0.312874 0.238191 0.291627
O O1 0.730615 0.316445 0.188591
O O2 0.900794 0.265018 0.152683
O O3 0.007848 0.399582 0.296492
O O4 0.589974 0.365696 0.936103
O O5 0.500000 0.583091 0.500000
O O6 0.733217 0.500000 0.775184
O O7 0.428659 0.592779 0.619579
O O8 0.751691 0.669948 0.775236
O O9 0.171385 0.500000 0.527894
O O10 0.207894 0.653753 0.589989
O O11 0.445423 0.773527 0.802015
O O12 0.354166 0.096559 0.657423
O O13 0.000000 0.120459 0.500000
O O14 0.042763 0.139985 0.336080
O O15 0.031731 0.000000 0.410713
O O16 0.138926 0.182664 0.219617
O O17 0.758920 0.128817 0.000740
O O18 0.602084 0.800258 0.745108
O O19 0.500000 0.243499 0.500000
#
# Coordination Sequence:
#
# PCOD9152031 Si02
#       8
#     4   4   4   4   4   4   4   4
#     4  10  21  36  55  82 115 154 201 258 307 365
#     4   9  18  32  55  85 118 160 209 260 316 370
#     4  11  21  35  54  77 112 157 202 255 315 370
#     4  10  21  36  55  82 115 152 203 257 309 364
#     4  11  25  45  70 100 133 167 202 247 307 375
#     4  11  23  40  66  97 127 164 210 258 312 373
#     4  11  22  41  65  96 128 165 209 260 311 373
#     4  11  19  37  66  92 127 170 214 267 319 369
#
# _framework density 21.234282
#
# number of rings (size 3 to 8) (size 9 to 14) (size 15 to 20)
#    0.000    1.500    2.500    3.750    0.000    3.500 
#    0.000    3.750    0.000    3.750    0.000    0.000 
#    0.000    0.000    0.000    0.000    0.000    0.000 
#
# Total GULP energy -178559.476060 kJ/mol
# GULP energy per Si atom -5579.983627 kJ/mol
# Density = 2.118595 g / cm^3
# Si number density = 21.234282 Si / 1000 Ang^3
#
#
#
# Elastic Constant Matrix: (Units=GPa)
#
#
# Indices 1 2 3 4 5 6 
#
# 1 90.3008 22.5402 15.8503 0.0000 -4.0048 0.0000
# 2 22.5402 32.4326 9.8159 0.0000 6.7499 0.0000
# 3 15.8503 9.8159 100.6974 0.0000 7.6965 0.0000
# 4 0.0000 0.0000 0.0000 4.4967 0.0000 2.9794
# 5 -4.0048 6.7499 7.6965 0.0000 18.4765 0.0000
# 6 0.0000 0.0000 0.0000 2.9794 0.0000 20.9171
#
#
#
# Elastic Compliance Matrix: (Units=1/GPa)
#
#
# Indices 1 2 3 4 5 6 
#
# 1 0.014550 -0.011232 -0.001808 0.000000 0.008010 0.000000
# 2 -0.011232 0.042611 -0.001043 0.000000 -0.017567 0.000000
# 3 -0.001808 -0.001043 0.010657 0.000000 -0.004450 0.000000
# 4 0.000000 0.000000 0.000000 0.245558 0.000000 -0.034976
# 5 0.008010 -0.017567 -0.004450 0.000000 0.064130 0.000000
# 6 0.000000 0.000000 0.000000 -0.034976 0.000000 0.052790
#
#
# Mechanical properties :
#
#
# Convention : Reuss Voigt Hill
#
# Bulk Modulus (GPa) = 25.21889 35.53819 30.37854
# Shear Modulus (GPa) = 10.60041 20.45969 15.53005
#
# Velocity S-wave (km/s) = 2.23673 3.10743 2.70731
# Velocity P-wave (km/s) = 4.30963 5.44494 4.91021
#
# Compressibility (1/GPa) = 0.03965282
#
# Stress axis : x y z
#
# Youngs Moduli (GPa) = 68.72682 23.46794 93.83443
#
# Poissons Ratio (x) = 0.26360 0.16962
# Poissons Ratio (y) = 0.77196 0.09787
# Poissons Ratio (z) = 0.12423 0.02448
#
# Static dielectric constant tensor:
#      x y z
#    x 2.004780 0.000000 -0.038560 
#    y 0.000000 1.760640 0.000000 
#    z -0.038560 0.000000 1.813110 
# 
# From -- ./inp_files/65429.got.cif
#   From: 2010.05.17/outbox.cif.g08.bks.cpg/sg10_33_cif.got.tgz:65429.got - 2010.06.03 11:33:40.
