data_PCOD9152731
_publ_section_title
;
Structure prediction by ZEFSAII (Michael W. Deem and Ramdas Pophale) SiO2 
 PCOD9152731
Probable space group: P 2/M
;
_chemical_formula_sum "Si O2"
_cell_formula_units_Z 28
_cell_length_a 22.050089
_cell_length_b 8.775147
_cell_length_c 14.836068
_cell_angle_alpha 90.000000
_cell_angle_beta 150.184694
_cell_angle_gamma 90.000000
_cell_volume 1427.314613
_symmetry_space_group_name_H-M "P 2/M"
_symmetry_group_IT_number 10
_symmetry_cell_setting 'monoclinic'
loop_
_space_group_symop_operation_xyz
x,y,z
-x,y,-z
-x,-y,-z
x,-y,z
loop_
_atom_site_type_symbol
_atom_site_label
_atom_site_fract_x
_atom_site_fract_y
_atom_site_fract_z
Si Si1 0.446312 0.322183 0.829846
Si Si2 0.875464 0.183092 0.789752
Si Si3 0.822484 0.818541 0.518894
Si Si4 0.618495 0.182800 0.757001
Si Si5 0.349323 0.681770 0.391369
Si Si6 0.887453 0.318392 0.418319
Si Si7 0.670284 0.819383 0.023640
O O1 0.447007 0.500000 0.805051
O O2 0.310538 0.257989 0.653709
O O3 0.500000 0.309463 0.000000
O O4 0.535085 0.228653 0.879472
O O5 0.882312 0.216648 0.692314
O O6 0.758377 0.263069 0.682672
O O7 0.860081 0.000000 0.780264
O O8 0.000000 0.227957 0.000000
O O9 0.893570 0.757954 0.523811
O O10 0.808295 0.000000 0.493236
O O11 0.675423 0.262130 0.742819
O O12 0.478898 0.241403 0.583164
O O13 0.617673 0.000000 0.743603
O O14 0.684253 0.218087 0.936071
O O15 0.362307 0.500000 0.410676
O O16 0.885710 0.500000 0.427056
O O17 0.764892 0.266561 0.209511
O O18 0.000000 0.274572 0.500000
O O19 0.685788 0.000000 0.055372
#
# Coordination Sequence:
#
# PCOD9152731 Si02
#       7
#     4   4   4   4   4   4   4
#     4  11  22  36  59  90 125 161 193 239 304 361
#     4  10  23  43  64  87 119 160 204 250 301 356
#     4  11  23  40  65  92 119 156 203 253 299 352
#     4  10  21  38  61  88 121 159 197 243 300 357
#     4  11  22  37  60  91 122 155 198 248 301 356
#     4  11  25  43  61  84 120 161 197 241 298 358
#     4  11  23  38  61  91 119 155 203 248 292 352
#
# _framework density 19.617259000000001
#
# number of rings (size 3 to 8) (size 9 to 14) (size 15 to 20)
#    0.000    1.286    1.429    5.143    0.000   10.000 
#    0.000    4.286    0.000    0.000    0.000    0.000 
#    0.000    0.000    0.000    0.000    0.000    0.000 
#
# Total GULP energy -156607.595210 kJ/mol
# GULP energy per Si atom -5593.128400 kJ/mol
# Density = 1.957261 g / cm^3
# Si number density = 19.617259 Si / 1000 Ang^3
#
#
#
# Elastic Constant Matrix: (Units=GPa)
#
#
# Indices 1 2 3 4 5 6 
#
# 1 91.0568 17.1903 31.5723 0.0000 -11.2985 0.0000
# 2 17.1903 37.0074 18.8509 0.0000 -8.9257 0.0000
# 3 31.5723 18.8509 63.2041 0.0000 -13.7587 0.0000
# 4 0.0000 0.0000 0.0000 -16.4341 0.0000 20.0500
# 5 -11.2985 -8.9257 -13.7587 0.0000 28.3572 0.0000
# 6 0.0000 0.0000 0.0000 20.0500 0.0000 23.3101
#
#
#
# Elastic Compliance Matrix: (Units=1/GPa)
#
#
# Indices 1 2 3 4 5 6 
#
# 1 0.013711 -0.003120 -0.005527 0.000000 0.001799 0.000000
# 2 -0.003120 0.033531 -0.007173 0.000000 0.005831 0.000000
# 3 -0.005527 -0.007173 0.022084 0.000000 0.006255 0.000000
# 4 0.000000 0.000000 0.000000 -0.029691 0.000000 0.025539
# 5 0.001799 0.005831 0.006255 0.000000 0.040851 0.000000
# 6 0.000000 0.000000 0.000000 0.025539 0.000000 0.020933
#
#
# Mechanical properties :
#
#
# Convention : Reuss Voigt Hill
#
# Bulk Modulus (GPa) = 26.53489 36.27726 31.40607
# Shear Modulus (GPa) = 34.33612 15.29029 24.81321
#
# Velocity S-wave (km/s) = 4.18820 2.79486 3.56035
# Velocity P-wave (km/s) = 6.07813 5.38030 5.73983
#
# Compressibility (1/GPa) = 0.03768624
#
# Stress axis : x y z
#
# Youngs Moduli (GPa) = 72.93595 29.82324 45.28253
#
# Poissons Ratio (x) = 0.09303 0.25027
# Poissons Ratio (y) = 0.22753 0.32482
# Poissons Ratio (z) = 0.40310 0.21393
#
# Static dielectric constant tensor:
#      x y z
#    x 1.689600 0.000000 -0.020290 
#    y 0.000000 1.654250 0.000000 
#    z -0.020290 0.000000 1.666980 
# 
# From -- ./inp_files/70288.got.cif
#   From: 2010.05.17/outbox.cif.g08.bks.cpg/sg10_36_cif.got.tgz:70288.got - 2010.06.03 11:33:40.
