data_PCOD9152079
_publ_section_title
;
Structure prediction by ZEFSAII (Michael W. Deem and Ramdas Pophale) SiO2 
 PCOD9152079
Probable space group: P 2/M
;
_chemical_formula_sum "Si O2"
_cell_formula_units_Z 32
_cell_length_a 10.236754
_cell_length_b 29.922136
_cell_length_c 12.847104
_cell_angle_alpha 90.000000
_cell_angle_beta 24.098730
_cell_angle_gamma 90.000000
_cell_volume 1606.757578
_symmetry_space_group_name_H-M "P 2/M"
_symmetry_group_IT_number 10
_symmetry_cell_setting 'monoclinic'
loop_
_space_group_symop_operation_xyz
x,y,z
-x,y,-z
-x,-y,-z
x,-y,z
loop_
_atom_site_type_symbol
_atom_site_label
_atom_site_fract_x
_atom_site_fract_y
_atom_site_fract_z
Si Si1 0.298789 0.596649 0.349060
Si Si2 0.377273 0.783511 0.211189
Si Si3 0.573931 0.687398 0.065683
Si Si4 0.925616 0.547848 0.932829
Si Si5 0.204298 0.360190 0.644624
Si Si6 0.154585 0.947249 0.282300
Si Si7 0.270211 0.093537 0.578523
Si Si8 0.232952 0.848311 0.920806
O O1 0.424323 0.638885 0.193131
O O2 0.555331 0.557743 0.178931
O O3 0.255353 0.621498 0.491090
O O4 0.000000 0.579640 0.500000
O O5 0.428764 0.732595 0.217531
O O6 0.589967 0.814652 0.130558
O O7 0.000000 0.793894 0.500000
O O8 0.500000 0.787789 0.000000
O O9 0.500000 0.695134 0.000000
O O10 0.939914 0.678549 0.830771
O O11 0.026441 0.500000 0.811390
O O12 0.000000 0.544774 0.000000
O O13 0.089702 0.593667 0.780373
O O14 0.500000 0.344975 0.500000
O O15 0.000000 0.927700 0.500000
O O16 0.912915 0.940092 0.363532
O O17 0.203367 0.000000 0.265682
O O18 0.500000 0.927566 0.000000
O O19 0.500000 0.073240 0.500000
O O20 0.497250 0.123901 0.339219
O O21 0.000322 0.121350 0.837759
O O22 0.000000 0.828323 0.000000
#
# Coordination Sequence:
#
# PCOD9152079 Si02
#       8
#     4   4   4   4   4   4   4   4
#     4  11  21  38  62  82 114 151 185 232 292 341
#     4  11  24  41  64  91 120 157 203 246 295 365
#     4  10  22  39  61  85 115 149 186 238 291 345
#     4  10  22  38  57  85 117 148 189 237 284 340
#     4  11  22  39  60  88 112 149 195 233 281 351
#     4  10  21  36  56  87 123 158 205 265 317 364
#     4  10  21  38  61  84 120 165 207 251 308 373
#     4  10  22  41  59  88 124 160 201 255 310 358
#
# _framework density 19.915886
#
# number of rings (size 3 to 8) (size 9 to 14) (size 15 to 20)
#    0.000    1.625    2.500    1.875    1.750    4.250 
#    2.250    1.250    0.000    4.500    0.000    0.000 
#    0.000    0.000    0.000    0.000    0.000    0.000 
#
# Total GULP energy -178259.301003 kJ/mol
# GULP energy per Si atom -5570.603156 kJ/mol
# Density = 1.987056 g / cm^3
# Si number density = 19.915886 Si / 1000 Ang^3
#
#
#
# Elastic Constant Matrix: (Units=GPa)
#
#
# Indices 1 2 3 4 5 6 
#
# 1 95.5602 -20.3921 47.3038 0.0000 -14.9413 0.0000
# 2 -20.3921 -36.3441 9.3201 0.0000 12.9472 0.0000
# 3 47.3038 9.3201 90.2872 0.0000 -5.5361 0.0000
# 4 0.0000 0.0000 0.0000 -3.1794 0.0000 -11.9314
# 5 -14.9413 12.9472 -5.5361 0.0000 35.3756 0.0000
# 6 0.0000 0.0000 0.0000 -11.9314 0.0000 32.8703
#
#
#
# Elastic Compliance Matrix: (Units=1/GPa)
#
#
# Indices 1 2 3 4 5 6 
#
# 1 0.013047 -0.006330 -0.005758 0.000000 0.006926 0.000000
# 2 -0.006330 -0.020446 0.005777 0.000000 0.005714 0.000000
# 3 -0.005758 0.005777 0.013345 0.000000 -0.002458 0.000000
# 4 0.000000 0.000000 0.000000 -0.133151 0.000000 -0.048332
# 5 0.006926 0.005714 -0.002458 0.000000 0.028717 0.000000
# 6 0.000000 0.000000 0.000000 -0.048332 0.000000 0.012879
#
#
# Mechanical properties :
#
#
# Convention : Reuss Voigt Hill
#
# Bulk Modulus (GPa) = -149.83533 24.66302 -62.58616
# Shear Modulus (GPa) = -66.47716 20.56474 -22.95621
#
# Velocity S-wave (km/s) = -5.78372 3.21686 -3.39877
# Velocity P-wave (km/s) = 10.95442 5.11938 6.84804
#
# Compressibility (1/GPa) = -0.00667399
#
# Stress axis : x y z
#
# Youngs Moduli (GPa) = 76.64644 -48.90850 74.93309
#
# Poissons Ratio (x) = -0.30957 0.43143
# Poissons Ratio (y) = 0.48514 -0.43290
# Poissons Ratio (z) = 0.44130 0.28255
#
# Static dielectric constant tensor:
#      x y z
#    x 1.658770 0.000000 -0.053000 
#    y 0.000000 1.821090 0.000000 
#    z -0.053000 0.000000 1.770090 
# 
# From -- ./inp_files/43765.got.cif
#   From: 2010.05.17/outbox.cif.g08.bks.cpg/sg10_22_cif.got.tgz:43765.got - 2010.06.03 11:33:40.
