data_PCOD9152652
_publ_section_title
;
Structure prediction by ZEFSAII (Michael W. Deem and Ramdas Pophale) SiO2 
 PCOD9152652
Probable space group: P 2/M
;
_chemical_formula_sum "Si O2"
_cell_formula_units_Z 28
_cell_length_a 10.488524
_cell_length_b 8.886120
_cell_length_c 31.692882
_cell_angle_alpha 90.000000
_cell_angle_beta 147.484026
_cell_angle_gamma 90.000000
_cell_volume 1587.796382
_symmetry_space_group_name_H-M "P 2/M"
_symmetry_group_IT_number 10
_symmetry_cell_setting 'monoclinic'
loop_
_space_group_symop_operation_xyz
x,y,z
-x,y,-z
-x,-y,-z
x,-y,z
loop_
_atom_site_type_symbol
_atom_site_label
_atom_site_fract_x
_atom_site_fract_y
_atom_site_fract_z
Si Si1 0.663229 0.680182 0.265362
Si Si2 0.665567 0.318863 0.168079
Si Si3 0.178052 0.819424 0.165869
Si Si4 0.047320 0.180328 0.582114
Si Si5 0.164161 0.180886 0.006302
Si Si6 0.873110 0.319538 0.756195
Si Si7 0.614992 0.180498 0.403490
O O1 0.643699 0.500000 0.262405
O O2 0.691759 0.724649 0.224493
O O3 0.424018 0.754229 0.216730
O O4 0.876325 0.736635 0.354341
O O5 0.650351 0.500000 0.162318
O O6 0.422243 0.251782 0.082438
O O7 0.893979 0.272786 0.204769
O O8 0.127079 0.751782 0.197374
O O9 0.197910 0.000000 0.174260
O O10 0.972795 0.781249 0.074968
O O11 0.792958 0.220690 0.491192
O O12 0.241709 0.214140 0.599843
O O13 0.051802 0.000000 0.589652
O O14 0.185669 0.000000 0.014541
O O15 0.000000 0.229393 0.000000
O O16 0.869572 0.500000 0.758517
O O17 0.633969 0.263600 0.666762
O O18 0.579460 0.000000 0.394466
#
# Coordination Sequence:
#
# PCOD9152652 Si02
#       7
#     4   4   4   4   4   4   4
#     4  11  21  35  57  86 113 147 191 230 276 335
#     4  10  24  41  57  81 118 155 186 228 283 337
#     4  11  22  37  59  85 114 145 185 238 284 328
#     4   9  18  33  56  85 115 145 185 234 280 328
#     4  10  21  38  60  86 112 144 190 237 280 330
#     4  11  23  39  57  83 117 153 190 228 277 339
#     4   9  18  34  56  83 115 149 184 230 282 330
#
# _framework density 17.634502000000001
#
# number of rings (size 3 to 8) (size 9 to 14) (size 15 to 20)
#    0.000    1.857    2.857    2.143    0.000    4.286 
#    0.000    5.000    0.000    4.286    0.000    0.000 
#    0.000    0.000    0.000    0.000    0.000    0.000 
#
# Total GULP energy -156364.560187 kJ/mol
# GULP energy per Si atom -5584.448578 kJ/mol
# Density = 1.759436 g / cm^3
# Si number density = 17.634502 Si / 1000 Ang^3
#
#
#
# Elastic Constant Matrix: (Units=GPa)
#
#
# Indices 1 2 3 4 5 6 
#
# 1 141.6314 45.7368 92.5464 0.0000 5.5228 0.0000
# 2 45.7368 36.5542 55.6359 0.0000 -0.5344 0.0000
# 3 92.5464 55.6359 170.3992 0.0000 1.7467 0.0000
# 4 0.0000 0.0000 0.0000 68.6005 0.0000 -26.3050
# 5 5.5228 -0.5344 1.7467 0.0000 28.3705 0.0000
# 6 0.0000 0.0000 0.0000 -26.3050 0.0000 33.5870
#
#
#
# Elastic Compliance Matrix: (Units=1/GPa)
#
#
# Indices 1 2 3 4 5 6 
#
# 1 0.012954 -0.011084 -0.003390 0.000000 -0.002522 0.000000
# 2 -0.011084 0.063993 -0.014918 0.000000 0.004282 0.000000
# 3 -0.003390 -0.014918 0.012585 0.000000 -0.000396 0.000000
# 4 0.000000 0.000000 0.000000 0.020834 0.000000 0.016317
# 5 -0.002522 0.004282 -0.000396 0.000000 0.035844 0.000000
# 6 0.000000 0.000000 0.000000 0.016317 0.000000 0.042553
#
#
# Mechanical properties :
#
#
# Convention : Reuss Voigt Hill
#
# Bulk Modulus (GPa) = 32.52411 81.82478 57.17445
# Shear Modulus (GPa) = 19.39517 36.42265 27.90891
#
# Velocity S-wave (km/s) = 3.31999 4.54962 3.98255
# Velocity P-wave (km/s) = 5.76020 8.60813 7.32392
#
# Compressibility (1/GPa) = 0.03074642
#
# Stress axis : x y z
#
# Youngs Moduli (GPa) = 77.19720 15.62667 79.46147
#
# Poissons Ratio (x) = 0.17321 0.26941
# Poissons Ratio (y) = 0.85569 1.18538
# Poissons Ratio (z) = 0.26173 0.23311
#
# Static dielectric constant tensor:
#      x y z
#    x 1.576310 0.000000 -0.009040 
#    y 0.000000 1.589470 0.000000 
#    z -0.009040 0.000000 1.594220 
# 
# From -- ./inp_files/37348.got.cif
#   From: 2010.05.17/outbox.cif.g08.bks.cpg/sg10_19_cif.got.tgz:37348.got - 2010.06.03 11:33:40.
