data_PCOD9152909
_publ_section_title
;
Structure prediction by ZEFSAII (Michael W. Deem and Ramdas Pophale) SiO2 
 PCOD9152909
Probable space group: P 2/M
;
_chemical_formula_sum "Si O2"
_cell_formula_units_Z 26
_cell_length_a 13.945830
_cell_length_b 11.731846
_cell_length_c 13.709301
_cell_angle_alpha 90.000000
_cell_angle_beta 35.750279
_cell_angle_gamma 90.000000
_cell_volume 1310.471083
_symmetry_space_group_name_H-M "P 2/M"
_symmetry_group_IT_number 10
_symmetry_cell_setting 'monoclinic'
loop_
_space_group_symop_operation_xyz
x,y,z
-x,y,-z
-x,-y,-z
x,-y,z
loop_
_atom_site_type_symbol
_atom_site_label
_atom_site_fract_x
_atom_site_fract_y
_atom_site_fract_z
Si Si1 0.333778 0.629692 0.080723
Si Si2 0.498392 0.000000 0.385295
Si Si3 0.066494 0.219557 0.217761
Si Si4 0.702682 0.174112 0.579682
Si Si5 0.566028 0.000000 0.836152
Si Si6 0.763879 0.000000 0.015620
Si Si7 0.463384 0.373341 0.752978
Si Si8 0.115983 0.637610 0.992217
O O1 0.285514 0.500000 0.152810
O O2 0.190611 0.724209 0.194623
O O3 0.500000 0.662661 0.000000
O O4 0.386847 0.620367 0.924313
O O5 0.500000 0.000000 0.500000
O O6 0.395131 0.104028 0.423228
O O7 0.685245 0.000000 0.188614
O O8 0.141823 0.112690 0.096451
O O9 0.045274 0.315103 0.151747
O O10 0.895381 0.180823 0.403909
O O11 0.621762 0.297197 0.635865
O O12 0.662520 0.110364 0.715049
O O13 0.500000 0.000000 0.000000
O O14 0.400550 0.000000 0.911393
O O15 0.503173 0.500000 0.684720
O O16 0.306895 0.324756 0.822647
O O17 0.120604 0.500000 0.991612
O O18 0.000000 0.674394 0.000000
#
# Coordination Sequence:
#
# PCOD9152909 Si02
#       8
#     4   2   4   4   2   2   4   4
#     4   9  18  35  59  83 109 150 198 235 283 351
#     4  10  21  39  61  83 113 156 205 249 288 343
#     4  11  21  36  57  84 121 152 187 246 302 348
#     4  10  22  37  56  88 119 147 195 246 297 360
#     4  10  21  41  63  77 105 152 196 242 295 349
#     4  10  22  38  58  82 112 152 194 231 287 356
#     4   9  18  34  55  80 116 154 186 231 287 344
#     4   9  18  34  57  84 113 155 206 240 279 350
#
# _framework density 19.840194
#
# number of rings (size 3 to 8) (size 9 to 14) (size 15 to 20)
#    0.000    2.462    0.000    6.000    0.000    6.154 
#    0.000    5.000    0.000    6.000    0.000    0.000 
#    0.000    0.000    0.000    0.000    0.000    0.000 
#
# Total GULP energy -144883.696593 kJ/mol
# GULP energy per Si atom -5572.449869 kJ/mol
# Density = 1.979504 g / cm^3
# Si number density = 19.840194 Si / 1000 Ang^3
#
#
#
# Elastic Constant Matrix: (Units=GPa)
#
#
# Indices 1 2 3 4 5 6 
#
# 1 103.4135 24.4126 49.5850 0.0000 -4.7364 0.0000
# 2 24.4126 79.1987 56.9994 0.0000 -12.3707 0.0000
# 3 49.5850 56.9994 148.1188 0.0000 -13.7928 0.0000
# 4 0.0000 0.0000 0.0000 2.2837 0.0000 -0.7376
# 5 -4.7364 -12.3707 -13.7928 0.0000 26.5308 0.0000
# 6 0.0000 0.0000 0.0000 -0.7376 0.0000 8.0879
#
#
#
# Elastic Compliance Matrix: (Units=1/GPa)
#
#
# Indices 1 2 3 4 5 6 
#
# 1 0.011587 -0.001110 -0.003475 0.000000 -0.000256 0.000000
# 2 -0.001110 0.018193 -0.006156 0.000000 0.005085 0.000000
# 3 -0.003475 -0.006156 0.010465 0.000000 0.001950 0.000000
# 4 0.000000 0.000000 0.000000 0.451180 0.000000 0.041147
# 5 -0.000256 0.005085 0.001950 0.000000 0.041031 0.000000
# 6 0.000000 0.000000 0.000000 0.041147 0.000000 0.127394
#
#
# Mechanical properties :
#
#
# Convention : Reuss Voigt Hill
#
# Bulk Modulus (GPa) = 53.29932 65.85832 59.57882
# Shear Modulus (GPa) = 7.27180 20.69607 13.98394
#
# Velocity S-wave (km/s) = 1.91654 3.23327 2.65774
# Velocity P-wave (km/s) = 5.64094 6.87060 6.28591
#
# Compressibility (1/GPa) = 0.01876197
#
# Stress axis : x y z
#
# Youngs Moduli (GPa) = 86.30591 54.96482 95.55335
#
# Poissons Ratio (x) = 0.06103 0.33209
# Poissons Ratio (y) = 0.09582 0.58824
# Poissons Ratio (z) = 0.29995 0.33837
#
# Static dielectric constant tensor:
#      x y z
#    x 1.730240 0.000000 0.002500 
#    y 0.000000 1.812670 0.000000 
#    z 0.002500 0.000000 1.725090 
# 
# From -- ./inp_files/67293.got.cif
#   From: 2010.05.17/outbox.cif.g08.bks.cpg/sg10_34_cif.got.tgz:67293.got - 2010.06.03 11:33:40.
