data_PCOD9152597
_publ_section_title
;
Structure prediction by ZEFSAII (Michael W. Deem and Ramdas Pophale) SiO2 
 PCOD9152597
Probable space group: P 2/M
;
_chemical_formula_sum "Si O2"
_cell_formula_units_Z 16
_cell_length_a 12.673340
_cell_length_b 11.591678
_cell_length_c 14.412115
_cell_angle_alpha 90.000000
_cell_angle_beta 20.195111
_cell_angle_gamma 90.000000
_cell_volume 730.901230
_symmetry_space_group_name_H-M "P 2/M"
_symmetry_group_IT_number 10
_symmetry_cell_setting 'monoclinic'
loop_
_space_group_symop_operation_xyz
x,y,z
-x,y,-z
-x,-y,-z
x,-y,z
loop_
_atom_site_type_symbol
_atom_site_label
_atom_site_fract_x
_atom_site_fract_y
_atom_site_fract_z
Si Si1 0.571910 0.636815 0.050841
Si Si2 0.642389 0.500000 0.280702
Si Si3 0.167533 0.772255 0.532719
Si Si4 0.359093 0.753244 0.718378
Si Si5 0.856828 0.000000 0.718455
O O1 0.549893 0.500000 0.091371
O O2 0.917810 0.683045 0.782043
O O3 0.500000 0.649751 0.000000
O O4 0.331593 0.711072 0.309455
O O5 0.500000 0.500000 0.500000
O O6 0.580771 0.623931 0.289159
O O7 0.000000 0.500000 0.000000
O O8 0.434465 0.821087 0.380022
O O9 0.966210 0.882958 0.675228
O O10 0.500000 0.758668 0.500000
O O11 0.000000 0.774802 0.000000
O O12 0.000000 0.000000 0.500000
O O13 0.500000 0.000000 0.000000
#
# Coordination Sequence:
#
# PCOD9152597 Si02
#       5
#     4   2   4   4   2
#     4  11  24  41  64  97 134 168 211 273 339 400
#     4   8  16  30  50  76 113 160 197 244 294 352
#     4  12  24  42  68  95 130 175 223 262 335 383
#     4  10  21  38  58  90 131 168 215 263 312 385
#     4  12  26  46  72  96 126 168 226 280 321 386
#
# _framework density 21.890782999999999
#
# number of rings (size 3 to 8) (size 9 to 14) (size 15 to 20)
#    0.000    1.250    0.000    6.750    3.500    2.000 
#    4.500    1.250    0.000    0.000    0.000    0.000 
#    0.000    0.000    0.000    0.000    0.000    0.000 
#
# Total GULP energy -89358.490662 kJ/mol
# GULP energy per Si atom -5584.905666 kJ/mol
# Density = 2.184096 g / cm^3
# Si number density = 21.890783 Si / 1000 Ang^3
#
#
#
# Elastic Constant Matrix: (Units=GPa)
#
#
# Indices 1 2 3 4 5 6 
#
# 1 86.2566 40.6604 55.4777 0.0000 -20.7395 0.0000
# 2 40.6604 96.5209 57.4152 0.0000 -8.9999 0.0000
# 3 55.4777 57.4152 210.7413 0.0000 -11.8926 0.0000
# 4 0.0000 0.0000 0.0000 33.4728 0.0000 -8.7300
# 5 -20.7395 -8.9999 -11.8926 0.0000 46.5753 0.0000
# 6 0.0000 0.0000 0.0000 -8.7300 0.0000 5.1156
#
#
#
# Elastic Compliance Matrix: (Units=1/GPa)
#
#
# Indices 1 2 3 4 5 6 
#
# 1 0.017211 -0.005011 -0.002829 0.000000 0.005973 0.000000
# 2 -0.005011 0.013935 -0.002487 0.000000 -0.000174 0.000000
# 3 -0.002829 -0.002487 0.006158 0.000000 -0.000168 0.000000
# 4 0.000000 0.000000 0.000000 0.053837 0.000000 0.091875
# 5 0.005973 -0.000174 -0.000168 0.000000 0.024054 0.000000
# 6 0.000000 0.000000 0.000000 0.091875 0.000000 0.352267
#
#
# Mechanical properties :
#
#
# Convention : Reuss Voigt Hill
#
# Bulk Modulus (GPa) = 60.05823 77.84728 68.95275
# Shear Modulus (GPa) = 10.12835 33.03045 21.57940
#
# Velocity S-wave (km/s) = 2.15333 3.88864 3.14311
# Velocity P-wave (km/s) = 5.80322 7.47000 6.68873
#
# Compressibility (1/GPa) = 0.01665051
#
# Stress axis : x y z
#
# Youngs Moduli (GPa) = 58.10330 71.76430 162.39318
#
# Poissons Ratio (x) = 0.35959 0.45933
# Poissons Ratio (y) = 0.29114 0.40389
# Poissons Ratio (z) = 0.16435 0.17849
#
# Static dielectric constant tensor:
#      x y z
#    x 1.811000 0.000000 -0.017590 
#    y 0.000000 2.197180 0.000000 
#    z -0.017590 0.000000 1.779810 
# 
# From -- ./inp_files/64573.got.cif
#   From: 2010.05.17/outbox.cif.g08.bks.cpg/sg10_33_cif.got.tgz:64573.got - 2010.06.03 11:33:40.
