data_PCOD9152797
_publ_section_title
;
Structure prediction by ZEFSAII (Michael W. Deem and Ramdas Pophale) SiO2 
 PCOD9152797
Probable space group: P 2/M
;
_chemical_formula_sum "Si O2"
_cell_formula_units_Z 28
_cell_length_a 9.709465
_cell_length_b 14.463881
_cell_length_c 22.370579
_cell_angle_alpha 90.000000
_cell_angle_beta 150.233609
_cell_angle_gamma 90.000000
_cell_volume 1559.717250
_symmetry_space_group_name_H-M "P 2/M"
_symmetry_group_IT_number 10
_symmetry_cell_setting 'monoclinic'
loop_
_space_group_symop_operation_xyz
x,y,z
-x,y,-z
-x,-y,-z
x,-y,z
loop_
_atom_site_type_symbol
_atom_site_label
_atom_site_fract_x
_atom_site_fract_y
_atom_site_fract_z
Si Si1 0.644284 0.890472 0.492102
Si Si2 0.727639 0.109786 0.234556
Si Si3 0.824125 0.390472 0.492103
Si Si4 0.243229 0.745001 0.858213
Si Si5 0.289416 0.390214 0.765444
Si Si6 0.310375 0.245001 0.141787
Si Si7 0.342351 0.250000 0.296176
O O1 0.500000 0.860003 0.500000
O O2 0.505016 0.836712 0.385557
O O3 0.972709 0.874119 0.621760
O O4 0.597993 0.000000 0.468887
O O5 0.738698 0.162305 0.175262
O O6 0.490992 0.160400 0.183522
O O7 0.686343 0.000000 0.213056
O O8 0.777556 0.500000 0.468888
O O9 0.537211 0.336712 0.385557
O O10 0.000000 0.360003 0.500000
O O11 0.014333 0.374118 0.621761
O O12 0.256905 0.660400 0.816479
O O13 0.956580 0.743227 0.785962
O O14 0.500000 0.740867 0.000000
O O15 0.334119 0.500000 0.786944
O O16 0.537654 0.337695 0.824739
O O17 0.312732 0.243227 0.214038
O O18 0.000000 0.240866 0.000000
#
# Coordination Sequence:
#
# PCOD9152797 Si02
#       7
#     4   4   4   4   4   4   4
#     4  10  21  38  62  92 120 151 197 247 303 366
#     4  10  22  42  63  85 122 160 195 248 304 351
#     4  10  21  38  62  92 120 151 197 247 303 366
#     4  11  24  41  60  89 122 160 207 243 285 357
#     4  10  22  42  63  85 122 160 195 248 304 351
#     4  11  24  41  60  89 122 160 207 243 285 357
#     4  12  22  36  66  90 120 160 194 250 308 342
#
# _framework density 17.951971
#
# number of rings (size 3 to 8) (size 9 to 14) (size 15 to 20)
#    0.000    1.429    2.857    3.429    0.000    2.286 
#    0.000    5.714    0.000    0.000    0.000    0.000 
#    0.000    0.000    0.000    0.000    0.000    0.000 
#
# Total GULP energy -156459.244395 kJ/mol
# GULP energy per Si atom -5587.830157 kJ/mol
# Density = 1.791111 g / cm^3
# Si number density = 17.951971 Si / 1000 Ang^3
#
#
#
# Elastic Constant Matrix: (Units=GPa)
#
#
# Indices 1 2 3 4 5 6 
#
# 1 154.0411 76.8279 94.6086 0.0000 0.1739 0.0000
# 2 76.8279 125.1761 85.7032 0.0000 -0.0798 0.0000
# 3 94.6086 85.7032 178.8200 0.0000 -0.3979 0.0000
# 4 0.0000 0.0000 0.0000 3.1313 0.0000 0.1526
# 5 0.1739 -0.0798 -0.3979 0.0000 19.9835 0.0000
# 6 0.0000 0.0000 0.0000 0.1526 0.0000 20.1500
#
#
#
# Elastic Compliance Matrix: (Units=1/GPa)
#
#
# Indices 1 2 3 4 5 6 
#
# 1 0.010847 -0.004060 -0.003793 0.000000 -0.000186 0.000000
# 2 -0.004060 0.013411 -0.004279 0.000000 0.000004 0.000000
# 3 -0.003793 -0.004279 0.009650 0.000000 0.000208 0.000000
# 4 0.000000 0.000000 0.000000 0.319478 0.000000 -0.002420
# 5 -0.000186 0.000004 0.000208 0.000000 0.050047 0.000000
# 6 0.000000 0.000000 0.000000 -0.002420 0.000000 0.049646
#
#
# Mechanical properties :
#
#
# Convention : Reuss Voigt Hill
#
# Bulk Modulus (GPa) = 103.70708 108.03518 105.87113
# Shear Modulus (GPa) = 10.40456 22.04612 16.22534
#
# Velocity S-wave (km/s) = 2.41005 3.50817 3.00962
# Velocity P-wave (km/s) = 8.10179 8.75902 8.43681
#
# Compressibility (1/GPa) = 0.00964254
#
# Stress axis : x y z
#
# Youngs Moduli (GPa) = 92.19357 74.56810 103.62375
#
# Poissons Ratio (x) = 0.30278 0.39305
# Poissons Ratio (y) = 0.37435 0.44341
# Poissons Ratio (z) = 0.34970 0.31908
#
# Static dielectric constant tensor:
#      x y z
#    x 1.604220 0.000000 0.000140 
#    y 0.000000 1.612890 0.000000 
#    z 0.000140 0.000000 1.588990 
# 
# From -- ./inp_files/35242.got.cif
#   From: 2010.05.17/outbox.cif.g08.bks.cpg/sg10_18_cif.got.tgz:35242.got - 2010.06.03 11:33:40.
