data_PCOD9152668
_publ_section_title
;
Structure prediction by ZEFSAII (Michael W. Deem and Ramdas Pophale) SiO2 
 PCOD9152668
Probable space group: P 2/M
;
_chemical_formula_sum "Si O2"
_cell_formula_units_Z 32
_cell_length_a 15.541323
_cell_length_b 9.044022
_cell_length_c 12.202681
_cell_angle_alpha 90.000000
_cell_angle_beta 89.668231
_cell_angle_gamma 90.000000
_cell_volume 1715.132096
_symmetry_space_group_name_H-M "P 2/M"
_symmetry_group_IT_number 10
_symmetry_cell_setting 'monoclinic'
loop_
_space_group_symop_operation_xyz
x,y,z
-x,y,-z
-x,-y,-z
x,-y,z
loop_
_atom_site_type_symbol
_atom_site_label
_atom_site_fract_x
_atom_site_fract_y
_atom_site_fract_z
Si Si1 0.089677 0.674131 0.560574
Si Si2 0.099717 0.823384 0.004055
Si Si3 0.658016 0.323900 0.244629
Si Si4 0.599073 0.679632 0.002656
Si Si5 0.162355 0.826148 0.756611
Si Si6 0.595250 0.171803 0.451819
Si Si7 0.755651 0.320996 0.845962
Si Si8 0.745450 0.677986 0.589909
O O1 0.099152 0.500000 0.588369
O O2 0.092923 0.770195 0.670254
O O3 0.168426 0.714570 0.479220
O O4 0.000000 0.693316 0.500000
O O5 0.162128 0.744750 0.090662
O O6 0.100311 0.000000 0.026100
O O7 0.136639 0.798521 0.882029
O O8 0.000000 0.774382 0.000000
O O9 0.653876 0.500000 0.252296
O O10 0.635978 0.279171 0.121098
O O11 0.752796 0.266590 0.270542
O O12 0.597176 0.251505 0.334716
O O13 0.596438 0.500000 0.996648
O O14 0.500000 0.731542 0.000000
O O15 0.667433 0.726686 0.909208
O O16 0.178390 0.000000 0.743143
O O17 0.500000 0.182348 0.500000
O O18 0.664552 0.247679 0.531027
O O19 0.618489 0.000000 0.438181
O O20 0.760313 0.500000 0.852375
O O21 0.753351 0.279536 0.717777
O O22 0.734965 0.500000 0.585931
#
# Coordination Sequence:
#
# PCOD9152668 Si02
#       8
#     4   4   4   4   4   4   4   4
#     4  10  22  39  59  87 120 153 194 245 298 350
#     4  10  23  41  59  84 120 160 199 240 290 351
#     4  11  21  37  64  90 116 152 197 247 300 350
#     4   9  19  35  57  87 118 148 187 239 293 347
#     4  11  22  38  61  86 117 156 200 247 296 352
#     4  11  25  42  60  86 122 160 199 243 293 350
#     4  10  21  38  60  87 118 151 194 243 291 345
#     4  10  22  39  60  87 119 156 197 243 294 349
#
# _framework density 18.657456
#
# number of rings (size 3 to 8) (size 9 to 14) (size 15 to 20)
#    0.000    1.750    2.500    1.125    3.500    2.500 
#    0.000    0.000    0.000    1.875    0.000    0.000 
#    0.000    0.000    0.000    0.000    0.000    0.000 
#
# Total GULP energy -178673.261342 kJ/mol
# GULP energy per Si atom -5583.539417 kJ/mol
# Density = 1.861499 g / cm^3
# Si number density = 18.657456 Si / 1000 Ang^3
#
#
#
# Elastic Constant Matrix: (Units=GPa)
#
#
# Indices 1 2 3 4 5 6 
#
# 1 76.7611 20.3137 24.0726 0.0000 3.7204 0.0000
# 2 20.3137 32.2489 38.7975 0.0000 0.1322 0.0000
# 3 24.0726 38.7975 105.1624 0.0000 6.7002 0.0000
# 4 0.0000 0.0000 0.0000 8.0854 0.0000 -11.3677
# 5 3.7204 0.1322 6.7002 0.0000 22.3094 0.0000
# 6 0.0000 0.0000 0.0000 -11.3677 0.0000 13.4861
#
#
#
# Elastic Compliance Matrix: (Units=1/GPa)
#
#
# Indices 1 2 3 4 5 6 
#
# 1 0.015789 -0.010415 0.000400 0.000000 -0.002691 0.000000
# 2 -0.010415 0.063415 -0.021510 0.000000 0.007821 0.000000
# 3 0.000400 -0.021510 0.017688 0.000000 -0.005251 0.000000
# 4 0.000000 0.000000 0.000000 -0.668177 0.000000 -0.563219
# 5 -0.002691 0.007821 -0.005251 0.000000 0.046804 0.000000
# 6 0.000000 0.000000 0.000000 -0.563219 0.000000 -0.400598
#
#
# Mechanical properties :
#
#
# Convention : Reuss Voigt Hill
#
# Bulk Modulus (GPa) = 29.55001 42.28221 35.91611
# Shear Modulus (GPa) = -5.87718 17.50876 5.81579
#
# Velocity S-wave (km/s) = -1.77676 3.06671 1.76746
# Velocity P-wave (km/s) = 3.41517 5.93727 4.84327
#
# Compressibility (1/GPa) = 0.03384094
#
# Stress axis : x y z
#
# Youngs Moduli (GPa) = 63.33622 15.76907 56.53620
#
# Poissons Ratio (x) = 0.16424 -0.02261
# Poissons Ratio (y) = 0.65967 1.21609
# Poissons Ratio (z) = -0.02532 0.33919
#
# Static dielectric constant tensor:
#      x y z
#    x 1.649170 0.000000 -0.009980 
#    y 0.000000 1.631060 0.000000 
#    z -0.009980 0.000000 1.634910 
# 
# From -- ./inp_files/49829.got.cif
#   From: 2010.05.17/outbox.cif.g08.bks.cpg/sg10_25_cif.got.tgz:49829.got - 2010.06.03 11:33:40.
