data_PCOD9152980
_publ_section_title
;
Structure prediction by ZEFSAII (Michael W. Deem and Ramdas Pophale) SiO2 
 PCOD9152980
Probable space group: P 2/M
;
_chemical_formula_sum "Si O2"
_cell_formula_units_Z 20
_cell_length_a 7.793876
_cell_length_b 23.429323
_cell_length_c 9.486543
_cell_angle_alpha 90.000000
_cell_angle_beta 32.597148
_cell_angle_gamma 90.000000
_cell_volume 933.235916
_symmetry_space_group_name_H-M "P 2/M"
_symmetry_group_IT_number 10
_symmetry_cell_setting 'monoclinic'
loop_
_space_group_symop_operation_xyz
x,y,z
-x,y,-z
-x,-y,-z
x,-y,z
loop_
_atom_site_type_symbol
_atom_site_label
_atom_site_fract_x
_atom_site_fract_y
_atom_site_fract_z
Si Si1 0.260938 0.630519 0.530209
Si Si2 0.380082 0.936070 0.739484
Si Si3 0.437882 0.175642 0.878106
Si Si4 0.807644 0.760020 0.388271
Si Si5 0.238040 0.564639 0.971983
O O1 0.500000 0.629181 0.500000
O O2 0.120853 0.694050 0.626810
O O3 0.983312 0.585290 0.748427
O O4 0.483211 0.609866 0.249620
O O5 0.500000 0.920054 0.500000
O O6 0.506350 0.000000 0.683911
O O7 0.453813 0.887019 0.799221
O O8 0.000000 0.939455 0.000000
O O9 0.093959 0.207080 0.112126
O O10 0.500000 0.172593 0.000000
O O11 0.693523 0.210935 0.611578
O O12 0.500000 0.761756 0.500000
O O13 0.355077 0.500000 0.905972
O O14 0.000000 0.565197 0.000000
#
# Coordination Sequence:
#
# PCOD9152980 Si02
#       5
#     4   4   4   4   4
#     4   9  17  28  44  69 100 139 183 223 271 334
#     4  10  21  39  63  88 115 151 193 231 275 338
#     4  12  24  38  58  87 120 150 189 240 291 336
#     4  11  22  38  59  81 113 156 198 236 280 343
#     4   9  15  24  40  66 103 139 170 217 284 342
#
# _framework density 21.430807000000001
#
# number of rings (size 3 to 8) (size 9 to 14) (size 15 to 20)
#    0.000    1.800    0.000    6.000    0.000    6.000 
#    0.000    0.000    0.000    6.000    0.000    0.000 
#    0.000   56.000    0.000    0.000    0.000    0.000 
#
# Total GULP energy -111746.537662 kJ/mol
# GULP energy per Si atom -5587.326883 kJ/mol
# Density = 2.138203 g / cm^3
# Si number density = 21.430807 Si / 1000 Ang^3
#
#
#
# Elastic Constant Matrix: (Units=GPa)
#
#
# Indices 1 2 3 4 5 6 
#
# 1 36.5307 20.3598 9.2082 0.0000 10.6901 0.0000
# 2 20.3598 119.1847 25.0778 0.0000 8.6890 0.0000
# 3 9.2082 25.0778 126.8621 0.0000 5.1239 0.0000
# 4 0.0000 0.0000 0.0000 81.8831 0.0000 -76.8418
# 5 10.6901 8.6890 5.1239 0.0000 22.1086 0.0000
# 6 0.0000 0.0000 0.0000 -76.8418 0.0000 134.3887
#
#
#
# Elastic Compliance Matrix: (Units=1/GPa)
#
#
# Indices 1 2 3 4 5 6 
#
# 1 0.034477 -0.004613 -0.001000 0.000000 -0.014626 0.000000
# 2 -0.004613 0.009583 -0.001512 0.000000 -0.001185 0.000000
# 3 -0.001000 -0.001512 0.008288 0.000000 -0.000843 0.000000
# 4 0.000000 0.000000 0.000000 0.026353 0.000000 0.015068
# 5 -0.014626 -0.001185 -0.000843 0.000000 0.052965 0.000000
# 6 0.000000 0.000000 0.000000 0.015068 0.000000 0.016057
#
#
# Mechanical properties :
#
#
# Convention : Reuss Voigt Hill
#
# Bulk Modulus (GPa) = 26.24720 43.54101 34.89410
# Shear Modulus (GPa) = 28.62511 62.87153 45.74832
#
# Velocity S-wave (km/s) = 3.65869 5.42224 4.62529
# Velocity P-wave (km/s) = 5.48835 7.71764 6.69642
#
# Compressibility (1/GPa) = 0.03809930
#
# Stress axis : x y z
#
# Youngs Moduli (GPa) = 29.00460 104.35346 120.65603
#
# Poissons Ratio (x) = 0.48137 0.12064
# Poissons Ratio (y) = 0.13380 0.18238
# Poissons Ratio (z) = 0.02900 0.15774
#
# Static dielectric constant tensor:
#      x y z
#    x 1.806860 0.000000 -0.010370 
#    y 0.000000 1.788070 0.000000 
#    z -0.010370 0.000000 1.719230 
# 
# From -- ./inp_files/20589.got.cif
#   From: 2010.05.17/outbox.cif.g08.bks.cpg/sg10_11_cif.got.tgz:20589.got - 2010.06.03 11:33:40.
