data_PCOD9152014
_publ_section_title
;
Structure prediction by ZEFSAII (Michael W. Deem and Ramdas Pophale) SiO2 
 PCOD9152014
Probable space group: P 2/M
;
_chemical_formula_sum "Si O2"
_cell_formula_units_Z 28
_cell_length_a 8.955577
_cell_length_b 21.889980
_cell_length_c 15.190294
_cell_angle_alpha 90.000000
_cell_angle_beta 30.823656
_cell_angle_gamma 90.000000
_cell_volume 1525.850866
_symmetry_space_group_name_H-M "P 2/M"
_symmetry_group_IT_number 10
_symmetry_cell_setting 'monoclinic'
loop_
_space_group_symop_operation_xyz
x,y,z
-x,y,-z
-x,-y,-z
x,-y,z
loop_
_atom_site_type_symbol
_atom_site_label
_atom_site_fract_x
_atom_site_fract_y
_atom_site_fract_z
Si Si1 0.792362 0.366191 0.025675
Si Si2 0.161860 0.071585 0.654802
Si Si3 0.165409 0.367825 0.656781
Si Si4 0.818774 0.295781 0.682532
Si Si5 0.607595 0.500000 0.088635
Si Si6 0.360698 0.068453 0.971421
Si Si7 0.972882 0.500000 0.720821
Si Si8 0.841054 0.847023 0.673190
O O1 0.980350 0.363913 0.840699
O O2 0.498933 0.326568 0.165482
O O3 0.693529 0.436768 0.091254
O O4 0.000000 0.346216 0.000000
O O5 0.500000 0.080626 0.500000
O O6 0.976229 0.080545 0.838075
O O7 0.036568 0.117663 0.646043
O O8 0.113500 0.000000 0.653087
O O9 0.500000 0.348774 0.500000
O O10 0.997918 0.328805 0.668643
O O11 0.156129 0.438192 0.628889
O O12 0.795194 0.224065 0.716561
O O13 0.000000 0.302020 0.500000
O O14 0.266943 0.500000 0.235226
O O15 0.785233 0.500000 0.906358
O O16 0.400555 0.000000 0.916015
O O17 0.500000 0.069422 0.000000
O O18 0.533348 0.117924 0.829098
O O19 0.000000 0.851956 0.500000
#
# Coordination Sequence:
#
# PCOD9152014 Si02
#       8
#     4   4   4   4   2   4   2   4
#     4  11  22  39  62  86 115 149 188 238 294 350
#     4   9  18  34  57  85 115 145 182 229 276 330
#     4  11  22  38  61  85 114 151 188 235 291 347
#     4  11  24  41  56  80 116 152 200 244 285 339
#     4   9  17  34  60  87 114 144 182 235 292 347
#     4   8  15  30  53  80 108 140 178 217 263 325
#     4   9  17  34  58  87 114 142 186 233 282 353
#     4  10  21  36  55  79 109 147 188 233 276 329
#
# _framework density 18.350415999999999
#
# number of rings (size 3 to 8) (size 9 to 14) (size 15 to 20)
#    0.000    2.143    1.429    3.000    0.000    5.143 
#    0.000    6.429    0.000    2.571    0.000    0.000 
#    0.000    0.000    0.000    0.000    0.000    0.000 
#
# Total GULP energy -156232.126491 kJ/mol
# GULP energy per Si atom -5579.718803 kJ/mol
# Density = 1.830865 g / cm^3
# Si number density = 18.350416 Si / 1000 Ang^3
#
#
#
# Elastic Constant Matrix: (Units=GPa)
#
#
# Indices 1 2 3 4 5 6 
#
# 1 97.5433 63.0496 51.7390 0.0000 -22.2315 0.0000
# 2 63.0496 153.9933 78.6584 0.0000 -6.1534 0.0000
# 3 51.7390 78.6584 117.3974 0.0000 -29.3296 0.0000
# 4 0.0000 0.0000 0.0000 23.5486 0.0000 9.4036
# 5 -22.2315 -6.1534 -29.3296 0.0000 32.2214 0.0000
# 6 0.0000 0.0000 0.0000 9.4036 0.0000 9.1665
#
#
#
# Elastic Compliance Matrix: (Units=1/GPa)
#
#
# Indices 1 2 3 4 5 6 
#
# 1 0.016843 -0.005992 -0.001024 0.000000 0.009545 0.000000
# 2 -0.005992 0.012773 -0.008207 0.000000 -0.009165 0.000000
# 3 -0.001024 -0.008207 0.017992 0.000000 0.014103 0.000000
# 4 0.000000 0.000000 0.000000 0.071934 0.000000 -0.073795
# 5 0.009545 -0.009165 0.014103 0.000000 0.048708 0.000000
# 6 0.000000 0.000000 0.000000 -0.073795 0.000000 0.184798
#
#
# Mechanical properties :
#
#
# Convention : Reuss Voigt Hill
#
# Bulk Modulus (GPa) = 58.26777 83.98091 71.12434
# Shear Modulus (GPa) = 12.84639 24.68642 18.76640
#
# Velocity S-wave (km/s) = 2.64873 3.67178 3.20139
# Velocity P-wave (km/s) = 6.41687 7.99002 7.24626
#
# Compressibility (1/GPa) = 0.01716215
#
# Stress axis : x y z
#
# Youngs Moduli (GPa) = 59.37073 78.29053 55.58100
#
# Poissons Ratio (x) = 0.46910 0.05691
# Poissons Ratio (y) = 0.35573 0.45617
# Poissons Ratio (z) = 0.06079 0.64255
#
# Static dielectric constant tensor:
#      x y z
#    x 1.616890 0.000000 -0.010550 
#    y 0.000000 1.626810 0.000000 
#    z -0.010550 0.000000 1.643480 
# 
# From -- ./inp_files/62599.got.cif
#   From: 2010.05.17/outbox.cif.g08.bks.cpg/sg10_32_cif.got.tgz:62599.got - 2010.06.03 11:33:40.
