data_PCOD9152026
_publ_section_title
;
Structure prediction by ZEFSAII (Michael W. Deem and Ramdas Pophale) SiO2 
 PCOD9152026
Probable space group: P 2/M
;
_chemical_formula_sum "Si O2"
_cell_formula_units_Z 32
_cell_length_a 15.235683
_cell_length_b 12.904587
_cell_length_c 18.070972
_cell_angle_alpha 90.000000
_cell_angle_beta 147.507261
_cell_angle_gamma 90.000000
_cell_volume 1908.612093
_symmetry_space_group_name_H-M "P 2/M"
_symmetry_group_IT_number 10
_symmetry_cell_setting 'monoclinic'
loop_
_space_group_symop_operation_xyz
x,y,z
-x,y,-z
-x,-y,-z
x,-y,z
loop_
_atom_site_type_symbol
_atom_site_label
_atom_site_fract_x
_atom_site_fract_y
_atom_site_fract_z
Si Si1 0.899220 0.267143 0.740839
Si Si2 0.154231 0.875882 0.834302
Si Si3 0.330982 0.881799 0.333898
Si Si4 0.580763 0.377887 0.475126
Si Si5 0.386671 0.233802 0.227684
Si Si6 0.898838 0.384750 0.004185
Si Si7 0.151765 0.874709 0.658787
Si Si8 0.499598 0.875922 0.162187
O O1 0.807626 0.193921 0.734764
O O2 0.751487 0.317749 0.590672
O O3 0.026380 0.196166 0.786976
O O4 0.982936 0.361431 0.843609
O O5 0.140496 0.849120 0.737605
O O6 0.119103 0.000000 0.818197
O O7 0.338150 0.859252 0.996600
O O8 0.500000 0.866679 0.500000
O O9 0.359437 0.856111 0.268515
O O10 0.281163 0.000000 0.309396
O O11 0.500000 0.364573 0.500000
O O12 0.598167 0.500000 0.476199
O O13 0.469421 0.324608 0.334462
O O14 0.479436 0.186810 0.223831
O O15 0.222857 0.288229 0.083061
O O16 0.824173 0.500000 0.957050
O O17 0.000000 0.382616 0.000000
O O18 0.330408 0.844608 0.755465
O O19 0.000000 0.837294 0.500000
O O20 0.147644 0.000000 0.652516
O O21 0.506190 0.000000 0.181557
#
# Coordination Sequence:
#
# PCOD9152026 Si02
#       8
#     4   4   4   4   4   4   4   4
#     4  12  20  37  53  82 109 147 186 226 277 331
#     4  10  21  36  55  81 117 152 180 217 270 334
#     4  11  22  35  50  75 113 153 187 221 270 327
#     4  11  22  38  58  77 106 147 195 244 283 319
#     4  12  20  37  53  82 109 147 186 226 277 331
#     4  11  22  36  56  79 110 145 187 240 279 315
#     4   9  19  35  57  85 110 141 186 229 264 313
#     4  10  21  36  55  81 117 152 180 217 270 334
#
# _framework density 16.766110000000001
#
# number of rings (size 3 to 8) (size 9 to 14) (size 15 to 20)
#    0.000    1.250    5.000    1.875    1.750    3.500 
#    0.000    0.625    0.000    0.000    0.000    5.250 
#    0.000    0.000    0.000    0.000    0.000    0.000 
#
# Total GULP energy -178477.576081 kJ/mol
# GULP energy per Si atom -5577.424253 kJ/mol
# Density = 1.672795 g / cm^3
# Si number density = 16.766110 Si / 1000 Ang^3
#
#
#
# Elastic Constant Matrix: (Units=GPa)
#
#
# Indices 1 2 3 4 5 6 
#
# 1 108.6958 18.6756 37.3046 0.0000 -3.9063 0.0000
# 2 18.6756 57.5387 10.5107 0.0000 -1.1962 0.0000
# 3 37.3046 10.5107 60.1164 0.0000 4.7759 0.0000
# 4 0.0000 0.0000 0.0000 36.8779 0.0000 -3.3091
# 5 -3.9063 -1.1962 4.7759 0.0000 23.8043 0.0000
# 6 0.0000 0.0000 0.0000 -3.3091 0.0000 11.6656
#
#
#
# Elastic Compliance Matrix: (Units=1/GPa)
#
#
# Indices 1 2 3 4 5 6 
#
# 1 0.012326 -0.002566 -0.007470 0.000000 0.003393 0.000000
# 2 -0.002566 0.018544 -0.001718 0.000000 0.000855 0.000000
# 3 -0.007470 -0.001718 0.022025 0.000000 -0.005731 0.000000
# 4 0.000000 0.000000 0.000000 0.027825 0.000000 0.007893
# 5 0.003393 0.000855 -0.005731 0.000000 0.043759 0.000000
# 6 0.000000 0.000000 0.000000 0.007893 0.000000 0.087961
#
#
# Mechanical properties :
#
#
# Convention : Reuss Voigt Hill
#
# Bulk Modulus (GPa) = 34.02698 39.92583 36.97641
# Shear Modulus (GPa) = 20.34639 25.12690 22.73665
#
# Velocity S-wave (km/s) = 3.48737 3.87547 3.68653
# Velocity P-wave (km/s) = 6.04606 6.62501 6.34215
#
# Compressibility (1/GPa) = 0.02938844
#
# Stress axis : x y z
#
# Youngs Moduli (GPa) = 81.12634 53.92578 45.40193
#
# Poissons Ratio (x) = 0.13836 0.33915
# Poissons Ratio (y) = 0.20815 0.07800
# Poissons Ratio (z) = 0.60601 0.09265
#
# Static dielectric constant tensor:
#      x y z
#    x 1.514990 0.000000 0.019320 
#    y 0.000000 1.541730 0.000000 
#    z 0.019320 0.000000 1.562030 
# 
# From -- ./inp_files/29505.got.cif
#   From: 2010.05.17/outbox.cif.g08.bks.cpg/sg10_15_cif.got.tgz:29505.got - 2010.06.03 11:33:40.
