data_PCOD9152129
_publ_section_title
;
Structure prediction by ZEFSAII (Michael W. Deem and Ramdas Pophale) SiO2 
 PCOD9152129
Probable space group: P 2/M
;
_chemical_formula_sum "Si O2"
_cell_formula_units_Z 25
_cell_length_a 8.847806
_cell_length_b 10.915873
_cell_length_c 16.299465
_cell_angle_alpha 90.000000
_cell_angle_beta 131.298035
_cell_angle_gamma 90.000000
_cell_volume 1182.696075
_symmetry_space_group_name_H-M "P 2/M"
_symmetry_group_IT_number 10
_symmetry_cell_setting 'monoclinic'
loop_
_space_group_symop_operation_xyz
x,y,z
-x,y,-z
-x,-y,-z
x,-y,z
loop_
_atom_site_type_symbol
_atom_site_label
_atom_site_fract_x
_atom_site_fract_y
_atom_site_fract_z
Si Si1 0.574471 0.853861 0.619515
Si Si2 0.784907 0.148716 0.390505
Si Si3 0.651226 0.858272 0.160310
Si Si4 0.239334 0.243027 0.051182
Si Si5 0.000000 0.000000 0.000000
Si Si6 0.795660 0.500000 0.158061
Si Si7 0.003423 0.257548 0.809440
Si Si8 0.375720 0.500000 0.092298
O O1 0.500000 0.835575 0.500000
O O2 0.398507 0.813128 0.617575
O O3 0.780956 0.785877 0.712287
O O4 0.608650 0.000000 0.642778
O O5 0.736838 0.179893 0.279857
O O6 0.000000 0.193620 0.500000
O O7 0.791616 0.000000 0.396677
O O8 0.446131 0.784265 0.074427
O O9 0.834192 0.841359 0.163598
O O10 0.596762 0.000000 0.141909
O O11 0.299817 0.375922 0.109692
O O12 0.175784 0.111239 0.066825
O O13 0.055784 0.271841 0.923671
O O14 0.614237 0.500000 0.158262
O O15 0.931436 0.380193 0.213102
O O16 0.710599 0.500000 0.033222
#
# Coordination Sequence:
#
# PCOD9152129 Si02
#       8
#     4   4   4   4   1   2   4   2
#     4  10  21  36  58  87 118 157 201 246 312 378
#     4   9  19  35  55  79 117 157 196 245 304 370
#     4  11  21  33  55  89 119 154 198 251 315 368
#     4  11  24  37  60  86 128 163 207 244 312 359
#     4  12  28  38  54  92 136 162 206 264 304 360
#     4   9  18  36  61  86 113 152 220 252 299 349
#     4  11  22  36  61  87 118 156 203 259 302 368
#     4   9  18  41  60  82 116 177 208 249 286 387
#
# _framework density 21.138145999999999
#
# number of rings (size 3 to 8) (size 9 to 14) (size 15 to 20)
#    0.000    1.760    2.400    1.920    4.480    3.520 
#    0.000    0.400    0.000    0.960    0.000    3.920 
#    0.000    0.000    0.000    0.000    0.000    0.000 
#
# Total GULP energy -139257.402342 kJ/mol
# GULP energy per Si atom -5570.296094 kJ/mol
# Density = 2.109003 g / cm^3
# Si number density = 21.138146 Si / 1000 Ang^3
#
#
#
# Elastic Constant Matrix: (Units=GPa)
#
#
# Indices 1 2 3 4 5 6 
#
# 1 74.3003 38.1636 28.4771 0.0000 34.1625 0.0000
# 2 38.1636 131.3953 29.7302 0.0000 19.1622 0.0000
# 3 28.4771 29.7302 90.7249 0.0000 36.1120 0.0000
# 4 0.0000 0.0000 0.0000 278.7902 0.0000 99.8795
# 5 34.1625 19.1622 36.1120 0.0000 42.1879 0.0000
# 6 0.0000 0.0000 0.0000 99.8795 0.0000 66.9152
#
#
#
# Elastic Compliance Matrix: (Units=1/GPa)
#
#
# Indices 1 2 3 4 5 6 
#
# 1 0.023653 -0.004508 0.001307 0.000000 -0.018225 0.000000
# 2 -0.004508 0.009212 -0.002110 0.000000 0.001273 0.000000
# 3 0.001307 -0.002110 0.017205 0.000000 -0.014827 0.000000
# 4 0.000000 0.000000 0.000000 0.007710 0.000000 -0.011508
# 5 -0.018225 0.001273 -0.014827 0.000000 0.050575 0.000000
# 6 0.000000 0.000000 0.000000 -0.011508 0.000000 0.032121
#
#
# Mechanical properties :
#
#
# Convention : Reuss Voigt Hill
#
# Bulk Modulus (GPa) = 25.34978 54.35136 39.85057
# Shear Modulus (GPa) = 30.44185 90.91531 60.67858
#
# Velocity S-wave (km/s) = 3.79903 6.56532 5.36358
# Velocity P-wave (km/s) = 5.59124 9.12357 7.56642
#
# Compressibility (1/GPa) = 0.03944807
#
# Stress axis : x y z
#
# Youngs Moduli (GPa) = 42.27814 108.55615 58.12103
#
# Poissons Ratio (x) = 0.48936 -0.07597
# Poissons Ratio (y) = 0.19059 0.12265
# Poissons Ratio (z) = -0.05526 0.22908
#
# Static dielectric constant tensor:
#      x y z
#    x 1.827590 0.000000 -0.034530 
#    y 0.000000 1.785790 0.000000 
#    z -0.034530 0.000000 1.758010 
# 
# From -- ./inp_files/74896.got.cif
#   From: 2010.05.17/outbox.cif.g08.bks.cpg/sg10_38_cif.got.tgz:74896.got - 2010.06.03 11:33:40.
