data_PCOD9152042
_publ_section_title
;
Structure prediction by ZEFSAII (Michael W. Deem and Ramdas Pophale) SiO2 
 PCOD9152042
Probable space group: P 2/M
;
_chemical_formula_sum "Si O2"
_cell_formula_units_Z 32
_cell_length_a 16.393495
_cell_length_b 9.107395
_cell_length_c 24.940248
_cell_angle_alpha 90.000000
_cell_angle_beta 153.977740
_cell_angle_gamma 90.000000
_cell_volume 1633.631984
_symmetry_space_group_name_H-M "P 2/M"
_symmetry_group_IT_number 10
_symmetry_cell_setting 'monoclinic'
loop_
_space_group_symop_operation_xyz
x,y,z
-x,y,-z
-x,-y,-z
x,-y,z
loop_
_atom_site_type_symbol
_atom_site_label
_atom_site_fract_x
_atom_site_fract_y
_atom_site_fract_z
Si Si1 0.857257 0.825545 0.249960
Si Si2 0.245955 0.675684 0.489302
Si Si3 0.834650 0.172452 0.940386
Si Si4 0.749173 0.326867 0.081768
Si Si5 0.416224 0.671853 0.390994
Si Si6 0.971997 0.171155 0.830710
Si Si7 0.632811 0.325310 0.208577
Si Si8 0.558401 0.324001 0.285993
O O1 0.736863 0.758149 0.130366
O O2 0.778406 0.763066 0.259057
O O3 0.065242 0.764338 0.365477
O O4 0.852138 0.000000 0.245633
O O5 0.210231 0.500000 0.463792
O O6 0.423347 0.709090 0.556779
O O7 0.300729 0.711024 0.582885
O O8 0.641625 0.255123 0.819803
O O9 0.806820 0.000000 0.911488
O O10 0.000000 0.228552 0.000000
O O11 0.906190 0.184716 0.043449
O O12 0.767071 0.500000 0.102785
O O13 0.927862 0.266370 0.155620
O O14 0.569072 0.303826 0.938055
O O15 0.500000 0.686894 0.500000
O O16 0.366093 0.500000 0.353362
O O17 0.233330 0.769798 0.278528
O O18 0.967114 0.000000 0.812146
O O19 0.675086 0.500000 0.231161
O O20 0.623668 0.278765 0.265212
O O21 0.537042 0.500000 0.272221
#
# Coordination Sequence:
#
# PCOD9152042 Si02
#       8
#     4   4   4   4   4   4   4   4
#     4  12  26  41  62  91 122 157 201 251 309 374
#     4  10  22  41  63  88 122 163 209 258 304 355
#     4  10  21  36  55  84 123 163 198 239 298 360
#     4  11  22  40  65  90 122 159 201 253 307 363
#     4  10  21  37  58  85 118 161 208 252 302 358
#     4  11  22  35  57  89 123 159 199 245 301 361
#     4  10  22  41  64  90 120 157 202 253 310 362
#     4  10  21  39  63  90 118 157 209 257 298 352
#
# _framework density 19.588253999999999
#
# number of rings (size 3 to 8) (size 9 to 14) (size 15 to 20)
#    0.000    1.500    1.250    3.750    0.000    6.500 
#    0.000    2.500    0.000    0.000    0.000    0.000 
#    0.000    0.000    0.000    0.000    0.000    0.000 
#
# Total GULP energy -178946.290320 kJ/mol
# GULP energy per Si atom -5592.071572 kJ/mol
# Density = 1.954367 g / cm^3
# Si number density = 19.588254 Si / 1000 Ang^3
#
#
#
# Elastic Constant Matrix: (Units=GPa)
#
#
# Indices 1 2 3 4 5 6 
#
# 1 87.0919 19.8384 5.3180 0.0000 -5.3585 0.0000
# 2 19.8384 48.7759 33.2644 0.0000 2.8512 0.0000
# 3 5.3180 33.2644 50.3564 0.0000 -0.3998 0.0000
# 4 0.0000 0.0000 0.0000 -34.0095 0.0000 -88.2850
# 5 -5.3585 2.8512 -0.3998 0.0000 30.1004 0.0000
# 6 0.0000 0.0000 0.0000 -88.2850 0.0000 -135.7653
#
#
#
# Elastic Compliance Matrix: (Units=1/GPa)
#
#
# Indices 1 2 3 4 5 6 
#
# 1 0.013363 -0.008516 0.004240 0.000000 0.003242 0.000000
# 2 -0.008516 0.043192 -0.027680 0.000000 -0.005975 0.000000
# 3 0.004240 -0.027680 0.037726 0.000000 0.003878 0.000000
# 4 0.000000 0.000000 0.000000 0.042735 0.000000 -0.027789
# 5 0.003242 -0.005975 0.003878 0.000000 0.034417 0.000000
# 6 0.000000 0.000000 0.000000 -0.027789 0.000000 0.010705
#
#
# Mechanical properties :
#
#
# Convention : Reuss Voigt Hill
#
# Bulk Modulus (GPa) = 32.92817 33.67398 33.30107
# Shear Modulus (GPa) = 19.51809 -19.41465 0.05172
#
# Velocity S-wave (km/s) = 3.16003 -3.15165 0.16267
# Velocity P-wave (km/s) = 5.49191 1.99609 4.13191
#
# Compressibility (1/GPa) = 0.03036913
#
# Stress axis : x y z
#
# Youngs Moduli (GPa) = 74.83615 23.15234 26.50675
#
# Poissons Ratio (x) = 0.19717 -0.11239
# Poissons Ratio (y) = 0.63731 0.73371
# Poissons Ratio (z) = -0.31731 0.64086
#
# Static dielectric constant tensor:
#      x y z
#    x 1.691290 0.000000 -0.016770 
#    y 0.000000 1.654390 0.000000 
#    z -0.016770 0.000000 1.663430 
# 
# From -- ./inp_files/89650.got.cif
#   From: 2010.05.17/outbox.cif.g08.bks.cpg/sg10_45_cif.got.tgz:89650.got - 2010.06.03 11:33:40.
