data_PCOD9152746
_publ_section_title
;
Structure prediction by ZEFSAII (Michael W. Deem and Ramdas Pophale) SiO2 
 PCOD9152746
Probable space group: P 2/M
;
_chemical_formula_sum "Si O2"
_cell_formula_units_Z 15
_cell_length_a 5.252826
_cell_length_b 22.774615
_cell_length_c 5.001729
_cell_angle_alpha 90.000000
_cell_angle_beta 91.030943
_cell_angle_gamma 90.000000
_cell_volume 598.265431
_symmetry_space_group_name_H-M "P 2/M"
_symmetry_group_IT_number 10
_symmetry_cell_setting 'monoclinic'
loop_
_space_group_symop_operation_xyz
x,y,z
-x,y,-z
-x,-y,-z
x,-y,z
loop_
_atom_site_type_symbol
_atom_site_label
_atom_site_fract_x
_atom_site_fract_y
_atom_site_fract_z
Si Si1 0.500000 0.300952 0.500000
Si Si2 0.816511 0.125392 0.748577
Si Si3 0.500000 0.500000 0.500000
Si Si4 0.500000 0.227493 0.000000
Si Si5 0.810106 0.000000 0.746274
Si Si6 0.176187 0.404126 0.264198
O O1 0.383766 0.266820 0.757070
O O2 0.285046 0.341262 0.357120
O O3 0.659899 0.182768 0.817734
O O4 0.000000 0.133011 0.500000
O O5 0.669031 0.062753 0.734750
O O6 0.000000 0.118736 0.000000
O O7 0.410928 0.448403 0.284144
O O8 0.000000 0.000000 0.500000
O O9 0.000000 0.000000 0.000000
O O10 0.000000 0.428444 0.500000
O O11 0.000000 0.402184 0.000000
#
# Coordination Sequence:
#
# PCOD9152746 Si02
#       6
#     2   4   1   2   2   4
#     4  11  26  43  62  95 134 175 236 284 318 403
#     4  10  21  38  61  90 125 167 217 278 348 415
#     4  10  24  42  72 112 140 164 224 280 318 402
#     4  12  24  41  64  91 128 176 230 288 336 390
#     4   8  16  33  56  85 122 160 207 271 343 421
#     4  11  24  44  70  99 137 182 219 269 339 392
#
# _framework density 25.072482000000001
#
# number of rings (size 3 to 8) (size 9 to 14) (size 15 to 20)
#    0.000    1.600    0.000    4.000    0.000    9.067 
#    0.000    0.000    0.000   11.200    0.000    0.000 
#    0.000    0.000    0.000    0.000    0.000    0.000 
#
# Total GULP energy -83504.865855 kJ/mol
# GULP energy per Si atom -5566.991057 kJ/mol
# Density = 2.501542 g / cm^3
# Si number density = 25.072482 Si / 1000 Ang^3
#
#
#
# Elastic Constant Matrix: (Units=GPa)
#
#
# Indices 1 2 3 4 5 6 
#
# 1 52.9864 35.3571 62.5789 0.0000 24.4009 0.0000
# 2 35.3571 165.8144 76.9576 0.0000 17.9774 0.0000
# 3 62.5789 76.9576 263.9482 0.0000 23.4726 0.0000
# 4 0.0000 0.0000 0.0000 -1.7877 0.0000 2.7008
# 5 24.4009 17.9774 23.4726 0.0000 69.2569 0.0000
# 6 0.0000 0.0000 0.0000 2.7008 0.0000 40.8031
#
#
#
# Elastic Compliance Matrix: (Units=1/GPa)
#
#
# Indices 1 2 3 4 5 6 
#
# 1 0.031761 -0.003139 -0.005869 0.000000 -0.008386 0.000000
# 2 -0.003139 0.007376 -0.001376 0.000000 -0.000342 0.000000
# 3 -0.005869 -0.001376 0.005532 0.000000 0.000550 0.000000
# 4 0.000000 0.000000 0.000000 -0.508513 0.000000 0.033659
# 5 -0.008386 -0.000342 0.000550 0.000000 0.017296 0.000000
# 6 0.000000 0.000000 0.000000 0.033659 0.000000 0.022280
#
#
# Mechanical properties :
#
#
# Convention : Reuss Voigt Hill
#
# Bulk Modulus (GPa) = 41.83943 92.50402 67.17173
# Shear Modulus (GPa) = -12.64119 42.17816 14.76848
#
# Velocity S-wave (km/s) = -2.24784 4.10597 2.42963
# Velocity P-wave (km/s) = 3.16015 7.71060 5.89237
#
# Compressibility (1/GPa) = 0.02390090
#
# Stress axis : x y z
#
# Youngs Moduli (GPa) = 31.48501 135.57679 180.75538
#
# Poissons Ratio (x) = 0.42562 1.06087
# Poissons Ratio (y) = 0.09884 0.24868
# Poissons Ratio (z) = 0.18479 0.18653
#
# Static dielectric constant tensor:
#      x y z
#    x 2.211870 0.000000 -0.103200 
#    y 0.000000 2.157300 0.000000 
#    z -0.103200 0.000000 1.963860 
# 
# From -- ./inp_files/1376.got.cif
#   From: 2010.05.17/outbox.cif.g08.bks.cpg/sg10_1_cif.got.tgz:1376.got - 2010.06.03 11:33:40.
