data_PCOD9152333
_publ_section_title
;
Structure prediction by ZEFSAII (Michael W. Deem and Ramdas Pophale) SiO2 
 PCOD9152333
Probable space group: P 2/M
;
_chemical_formula_sum "Si O2"
_cell_formula_units_Z 32
_cell_length_a 13.556255
_cell_length_b 14.060996
_cell_length_c 8.974246
_cell_angle_alpha 90.000000
_cell_angle_beta 66.449491
_cell_angle_gamma 90.000000
_cell_volume 1568.140247
_symmetry_space_group_name_H-M "P 2/M"
_symmetry_group_IT_number 10
_symmetry_cell_setting 'monoclinic'
loop_
_space_group_symop_operation_xyz
x,y,z
-x,y,-z
-x,-y,-z
x,-y,z
loop_
_atom_site_type_symbol
_atom_site_label
_atom_site_fract_x
_atom_site_fract_y
_atom_site_fract_z
Si Si1 0.562486 0.111985 0.727628
Si Si2 0.939735 0.886587 0.188863
Si Si3 0.651440 0.111752 0.014660
Si Si4 0.715455 0.392975 0.641048
Si Si5 0.471652 0.390939 0.669760
Si Si6 0.616244 0.616164 0.987980
Si Si7 0.143286 0.885528 0.261991
Si Si8 0.230179 0.203207 0.515692
O O1 0.440095 0.148366 0.817800
O O2 0.646401 0.167968 0.575411
O O3 0.564016 0.000000 0.686854
O O4 0.606277 0.118510 0.871901
O O5 0.831013 0.834127 0.302631
O O6 0.024896 0.869310 0.270874
O O7 0.918619 0.000000 0.192649
O O8 0.000000 0.858999 0.000000
O O9 0.658406 0.000000 0.047228
O O10 0.772265 0.146946 0.917834
O O11 0.758401 0.500000 0.606626
O O12 0.588477 0.397899 0.677024
O O13 0.708561 0.356716 0.816689
O O14 0.770332 0.316476 0.503626
O O15 0.500000 0.339800 0.500000
O O16 0.436087 0.500000 0.656319
O O17 0.384095 0.355070 0.839933
O O18 0.612909 0.500000 0.986242
O O19 0.500000 0.651855 0.000000
O O20 0.172431 0.839897 0.402480
O O21 0.157162 0.000000 0.271192
#
# Coordination Sequence:
#
# PCOD9152333 Si02
#       8
#     4   4   4   4   4   4   4   4
#     4   8  13  23  41  69 103 130 155 195 245 298
#     4  10  21  37  58  80 104 132 162 212 277 322
#     4   7  11  22  40  66 101 130 153 191 239 288
#     4   9  18  31  45  68 104 140 175 220 271 310
#     4   8  13  25  46  66  89 132 185 225 257 299
#     4   7  11  23  40  59  87 121 161 210 254 290
#     4   9  17  32  55  81 102 127 171 218 252 301
#     4  11  19  30  52  79 104 132 177 218 260 309
#
# _framework density 20.406337000000001
#
# number of rings (size 3 to 8) (size 9 to 14) (size 15 to 20)
#    0.000    3.375    0.000    4.500    0.000    1.000 
#   13.500    1.250    0.000    1.875    0.000    4.375 
#    0.000    0.000    0.000    0.000    0.000    0.000 
#
# Total GULP energy -178185.498727 kJ/mol
# GULP energy per Si atom -5568.296835 kJ/mol
# Density = 2.035989 g / cm^3
# Si number density = 20.406337 Si / 1000 Ang^3
#
#
#
# Elastic Constant Matrix: (Units=GPa)
#
#
# Indices 1 2 3 4 5 6 
#
# 1 16.4380 9.2495 14.1798 0.0000 -18.4654 0.0000
# 2 9.2495 87.8790 34.4944 0.0000 -16.0123 0.0000
# 3 14.1798 34.4944 139.8353 0.0000 -30.5887 0.0000
# 4 0.0000 0.0000 0.0000 -2.4172 0.0000 -2.8679
# 5 -18.4654 -16.0123 -30.5887 0.0000 31.1360 0.0000
# 6 0.0000 0.0000 0.0000 -2.8679 0.0000 5.1476
#
#
#
# Elastic Compliance Matrix: (Units=1/GPa)
#
#
# Indices 1 2 3 4 5 6 
#
# 1 0.187210 -0.001054 0.006935 0.000000 0.117297 0.000000
# 2 -0.001054 0.013089 -0.002275 0.000000 0.003871 0.000000
# 3 0.006935 -0.002275 0.009748 0.000000 0.012519 0.000000
# 4 0.000000 0.000000 0.000000 -0.249067 0.000000 -0.138761
# 5 0.117297 0.003871 0.012519 0.000000 0.115971 0.000000
# 6 0.000000 0.000000 0.000000 -0.138761 0.000000 0.116957
#
#
# Mechanical properties :
#
#
# Convention : Reuss Voigt Hill
#
# Bulk Modulus (GPa) = 4.60282 39.99998 22.30140
# Shear Modulus (GPa) = 19.29645 19.18851 19.24248
#
# Velocity S-wave (km/s) = 3.07841 3.06979 3.07411
# Velocity P-wave (km/s) = 3.85953 5.67531 4.85310
#
# Compressibility (1/GPa) = 0.21725818
#
# Stress axis : x y z
#
# Youngs Moduli (GPa) = 5.34160 76.40271 102.58701
#
# Poissons Ratio (x) = 0.08051 -0.71142
# Poissons Ratio (y) = 0.00563 0.23339
# Poissons Ratio (z) = -0.03704 0.17382
#
# Static dielectric constant tensor:
#      x y z
#    x 1.758910 0.000000 0.018390 
#    y 0.000000 1.750390 0.000000 
#    z 0.018390 0.000000 1.819260 
# 
# From -- ./inp_files/29511.got.cif
#   From: 2010.05.17/outbox.cif.g08.bks.cpg/sg10_15_cif.got.tgz:29511.got - 2010.06.03 11:33:40.
