data_PCOD9152709
_publ_section_title
;
Structure prediction by ZEFSAII (Michael W. Deem and Ramdas Pophale) SiO2 
 PCOD9152709
Probable space group: P 2/M
;
_chemical_formula_sum "Si O2"
_cell_formula_units_Z 28
_cell_length_a 29.998788
_cell_length_b 8.176672
_cell_length_c 9.346900
_cell_angle_alpha 90.000000
_cell_angle_beta 38.836350
_cell_angle_gamma 90.000000
_cell_volume 1437.750011
_symmetry_space_group_name_H-M "P 2/M"
_symmetry_group_IT_number 10
_symmetry_cell_setting 'monoclinic'
loop_
_space_group_symop_operation_xyz
x,y,z
-x,y,-z
-x,-y,-z
x,-y,z
loop_
_atom_site_type_symbol
_atom_site_label
_atom_site_fract_x
_atom_site_fract_y
_atom_site_fract_z
Si Si1 0.345143 0.198332 0.721588
Si Si2 0.345142 0.198332 0.052699
Si Si3 0.931086 0.802744 0.258995
Si Si4 0.931086 0.802744 0.585573
Si Si5 0.792930 0.304448 0.104512
Si Si6 0.207070 0.695552 0.569162
Si Si7 0.500000 0.189414 0.325865
O O1 0.423219 0.260273 0.477299
O O2 0.348011 0.000000 0.714715
O O3 0.333523 0.249283 0.916193
O O4 0.280643 0.252824 0.784909
O O5 0.280643 0.252824 0.311875
O O6 0.348011 0.000000 0.045232
O O7 0.423219 0.260273 0.906607
O O8 0.930881 0.742021 0.422798
O O9 0.859156 0.757924 0.357458
O O10 0.935228 0.000000 0.253713
O O11 0.000000 0.742608 0.000000
O O12 0.859156 0.757924 0.846763
O O13 0.000000 0.742608 0.500000
O O14 0.935228 0.000000 0.570148
O O15 0.796031 0.500000 0.099440
O O16 0.797305 0.242729 0.256737
O O17 0.203969 0.500000 0.579593
O O18 0.500000 0.187517 0.500000
O O19 0.500000 0.000000 0.277794
#
# Coordination Sequence:
#
# PCOD9152709 Si02
#       7
#     4   4   4   4   4   4   4
#     4   9  17  32  56  82 105 133 173 220 268 316
#     4   9  17  32  56  82 105 133 173 220 268 316
#     4  10  21  38  61  86 108 133 169 213 261 312
#     4  10  21  38  61  86 108 133 169 213 261 312
#     4  11  24  38  51  73 108 147 182 215 256 307
#     4  11  24  38  51  73 108 147 182 215 256 307
#     4   7  12  26  50  79 106 130 164 215 268 315
#
# _framework density 19.474874
#
# number of rings (size 3 to 8) (size 9 to 14) (size 15 to 20)
#    0.000    2.429    0.000    4.286    0.000    8.571 
#    0.000    1.429    0.000    6.857    0.000    0.000 
#    0.000    0.000    0.000    0.000    0.000    0.000 
#
# Total GULP energy -156233.020022 kJ/mol
# GULP energy per Si atom -5579.750715 kJ/mol
# Density = 1.943055 g / cm^3
# Si number density = 19.474874 Si / 1000 Ang^3
#
#
#
# Elastic Constant Matrix: (Units=GPa)
#
#
# Indices 1 2 3 4 5 6 
#
# 1 178.3772 12.9978 117.2748 0.0000 -13.0469 0.0000
# 2 12.9978 10.2899 11.0391 0.0000 3.4462 0.0000
# 3 117.2748 11.0391 193.9243 0.0000 -14.3076 0.0000
# 4 0.0000 0.0000 0.0000 -70.4071 0.0000 12.1695
# 5 -13.0469 3.4462 -14.3076 0.0000 36.4769 0.0000
# 6 0.0000 0.0000 0.0000 12.1695 0.0000 -63.4799
#
#
#
# Elastic Compliance Matrix: (Units=1/GPa)
#
#
# Indices 1 2 3 4 5 6 
#
# 1 0.009825 -0.007357 -0.005368 0.000000 0.002104 0.000000
# 2 -0.007357 0.114810 -0.003173 0.000000 -0.014722 0.000000
# 3 -0.005368 -0.003173 0.008716 0.000000 0.001799 0.000000
# 4 0.000000 0.000000 0.000000 -0.014690 0.000000 -0.002816
# 5 0.002104 -0.014722 0.001799 0.000000 0.030263 0.000000
# 6 0.000000 0.000000 0.000000 -0.002816 0.000000 -0.016293
#
#
# Mechanical properties :
#
#
# Convention : Reuss Voigt Hill
#
# Bulk Modulus (GPa) = 9.84675 73.91278 41.87976
# Shear Modulus (GPa) = 25.21715 -3.39670 10.91023
#
# Velocity S-wave (km/s) = 3.60231 -1.32209 2.36947
# Velocity P-wave (km/s) = 4.72962 5.97534 5.38860
#
# Compressibility (1/GPa) = 0.10155633
#
# Stress axis : x y z
#
# Youngs Moduli (GPa) = 101.78103 8.71007 114.73134
#
# Poissons Ratio (x) = 0.06408 0.61584
# Poissons Ratio (y) = 0.74878 0.36402
# Poissons Ratio (z) = 0.54632 0.02764
#
# Static dielectric constant tensor:
#      x y z
#    x 1.671820 0.000000 -0.004270 
#    y 0.000000 1.684390 0.000000 
#    z -0.004270 0.000000 1.674250 
# 
# From -- ./inp_files/37118.got.cif
#   From: 2010.05.17/outbox.cif.g08.bks.cpg/sg10_19_cif.got.tgz:37118.got - 2010.06.03 11:33:40.
