data_PCOD9152448
_publ_section_title
;
Structure prediction by ZEFSAII (Michael W. Deem and Ramdas Pophale) SiO2 
 PCOD9152448
Probable space group: P 2/M
;
_chemical_formula_sum "Si O2"
_cell_formula_units_Z 28
_cell_length_a 27.422366
_cell_length_b 7.897199
_cell_length_c 9.541540
_cell_angle_alpha 90.000000
_cell_angle_beta 142.233231
_cell_angle_gamma 90.000000
_cell_volume 1265.511729
_symmetry_space_group_name_H-M "P 2/M"
_symmetry_group_IT_number 10
_symmetry_cell_setting 'monoclinic'
loop_
_space_group_symop_operation_xyz
x,y,z
-x,y,-z
-x,-y,-z
x,-y,z
loop_
_atom_site_type_symbol
_atom_site_label
_atom_site_fract_x
_atom_site_fract_y
_atom_site_fract_z
Si Si1 0.338169 0.794619 0.775128
Si Si2 0.198392 0.793287 0.644454
Si Si3 0.615362 0.690970 0.432465
Si Si4 0.247557 0.804359 0.058123
Si Si5 0.473297 0.805353 0.289597
Si Si6 0.076876 0.696306 0.758991
Si Si7 0.982522 0.202902 0.798720
O O1 0.250213 0.743414 0.627501
O O2 0.362929 0.737240 0.677120
O O3 0.341026 0.000000 0.779910
O O4 0.399943 0.732225 0.034285
O O5 0.106973 0.736230 0.438707
O O6 0.195837 0.000000 0.640687
O O7 0.242941 0.740910 0.888021
O O8 0.584773 0.500000 0.365804
O O9 0.693581 0.707040 0.706154
O O10 0.547589 0.801641 0.352247
O O11 0.273682 0.000000 0.116016
O O12 0.157412 0.793033 0.909118
O O13 0.500000 0.728616 0.500000
O O14 0.450115 0.000000 0.268824
O O15 0.088946 0.500000 0.747153
O O16 0.000000 0.763304 0.500000
O O17 0.049068 0.711814 0.855009
O O18 0.985821 0.000000 0.780669
O O19 0.000000 0.232223 0.000000
#
# Coordination Sequence:
#
# PCOD9152448 Si02
#       7
#     4   4   4   4   4   4   4
#     4  10  21  39  64  92 123 160 203 250 299 355
#     4   9  19  37  61  90 118 151 203 259 303 349
#     4  12  26  41  59  91 130 163 199 244 306 369
#     4  11  22  40  66  89 116 157 210 260 303 355
#     4  10  21  41  69  96 122 157 206 253 297 352
#     4  11  23  39  59  88 126 163 200 248 309 366
#     4  10  21  37  60  90 120 157 208 256 302 356
#
# _framework density 22.125436000000001
#
# number of rings (size 3 to 8) (size 9 to 14) (size 15 to 20)
#    0.000    1.571    1.429    3.429    2.000    5.714 
#    0.000    3.571    0.000    0.000    0.000    0.000 
#    0.000    0.000    0.000    0.000    0.000    0.000 
#
# Total GULP energy -156528.422579 kJ/mol
# GULP energy per Si atom -5590.300806 kJ/mol
# Density = 2.207508 g / cm^3
# Si number density = 22.125436 Si / 1000 Ang^3
#
#
#
# Elastic Constant Matrix: (Units=GPa)
#
#
# Indices 1 2 3 4 5 6 
#
# 1 114.1543 -2.8852 13.1268 0.0000 -7.5694 0.0000
# 2 -2.8852 33.0354 5.5574 0.0000 -9.2461 0.0000
# 3 13.1268 5.5574 64.8732 0.0000 -6.7726 0.0000
# 4 0.0000 0.0000 0.0000 -0.7799 0.0000 0.1516
# 5 -7.5694 -9.2461 -6.7726 0.0000 35.6679 0.0000
# 6 0.0000 0.0000 0.0000 0.1516 0.0000 -107.4459
#
#
#
# Elastic Compliance Matrix: (Units=1/GPa)
#
#
# Indices 1 2 3 4 5 6 
#
# 1 0.009142 0.001667 -0.001780 0.000000 0.002034 0.000000
# 2 0.001667 0.033187 -0.002291 0.000000 0.008522 0.000000
# 3 -0.001780 -0.002291 0.016191 0.000000 0.002103 0.000000
# 4 0.000000 0.000000 0.000000 -1.282512 0.000000 -0.001809
# 5 0.002034 0.008522 0.002103 0.000000 0.031076 0.000000
# 6 0.000000 0.000000 0.000000 -0.001809 0.000000 -0.009310
#
#
# Mechanical properties :
#
#
# Convention : Reuss Voigt Hill
#
# Bulk Modulus (GPa) = 18.61791 27.07345 22.84568
# Shear Modulus (GPa) = -4.23903 -1.42733 -2.83318
#
# Velocity S-wave (km/s) = -1.38567 -0.80406 -1.13282
# Velocity P-wave (km/s) = 2.42340 3.37652 2.93886
#
# Compressibility (1/GPa) = 0.05371173
#
# Stress axis : x y z
#
# Youngs Moduli (GPa) = 109.38744 30.13261 61.76397
#
# Poissons Ratio (x) = -0.05024 0.10996
# Poissons Ratio (y) = -0.18238 0.14148
# Poissons Ratio (z) = 0.19474 0.06902
#
# Static dielectric constant tensor:
#      x y z
#    x 1.791520 0.000000 -0.009040 
#    y 0.000000 1.837970 0.000000 
#    z -0.009040 0.000000 1.803400 
# 
# From -- ./inp_files/37357.got.cif
#   From: 2010.05.17/outbox.cif.g08.bks.cpg/sg10_19_cif.got.tgz:37357.got - 2010.06.03 11:33:40.
