data_PCOD9152657
_publ_section_title
;
Structure prediction by ZEFSAII (Michael W. Deem and Ramdas Pophale) SiO2 
 PCOD9152657
Probable space group: P 2/M
;
_chemical_formula_sum "Si O2"
_cell_formula_units_Z 24
_cell_length_a 18.412681
_cell_length_b 11.860267
_cell_length_c 12.670353
_cell_angle_alpha 90.000000
_cell_angle_beta 156.871293
_cell_angle_gamma 90.000000
_cell_volume 1086.849467
_symmetry_space_group_name_H-M "P 2/M"
_symmetry_group_IT_number 10
_symmetry_cell_setting 'monoclinic'
loop_
_space_group_symop_operation_xyz
x,y,z
-x,y,-z
-x,-y,-z
x,-y,z
loop_
_atom_site_type_symbol
_atom_site_label
_atom_site_fract_x
_atom_site_fract_y
_atom_site_fract_z
Si Si1 0.314184 0.705340 0.385167
Si Si2 0.727557 0.636167 0.902293
Si Si3 0.831096 0.500000 0.692340
Si Si4 0.617580 0.872112 0.046908
Si Si5 0.903196 0.733422 0.533504
Si Si6 0.278324 0.500000 0.690109
Si Si7 0.758109 0.863596 0.547641
O O1 0.533236 0.698859 0.658894
O O2 0.225082 0.660015 0.157339
O O3 0.279289 0.611582 0.426603
O O4 0.215991 0.816888 0.299148
O O5 0.709764 0.500000 0.893482
O O6 0.886389 0.692843 0.184044
O O7 0.837607 0.500000 0.575805
O O8 0.000000 0.500000 0.000000
O O9 0.812621 0.815324 0.327089
O O10 0.653287 0.000000 0.066071
O O11 0.500000 0.868674 0.000000
O O12 0.459539 0.830308 0.757558
O O13 0.786877 0.619885 0.355109
O O14 0.862325 0.796445 0.592424
O O15 0.500000 0.500000 0.000000
O O16 0.779617 0.000000 0.565641
#
# Coordination Sequence:
#
# PCOD9152657 Si02
#       7
#     4   4   2   4   4   2   4
#     4  11  22  39  61  82 117 155 199 240 300 351
#     4  11  22  40  57  85 118 160 192 242 296 366
#     4  12  22  36  65  93 113 155 214 248 292 363
#     4   8  16  34  57  80 110 150 193 236 288 343
#     4  11  20  34  58  87 118 150 193 236 295 353
#     4  12  22  31  55  97 129 145 186 258 317 346
#     4  10  21  38  60  86 115 151 197 248 291 344
#
# _framework density 22.082174999999999
#
# number of rings (size 3 to 8) (size 9 to 14) (size 15 to 20)
#    0.000    1.500    4.167    4.500    0.000    0.000 
#    0.000    6.667    0.000    4.000    0.000    0.000 
#    0.000    0.000    0.000    0.000    0.000    0.000 
#
# Total GULP energy -133741.199951 kJ/mol
# GULP energy per Si atom -5572.549998 kJ/mol
# Density = 2.203192 g / cm^3
# Si number density = 22.082175 Si / 1000 Ang^3
#
#
#
# Elastic Constant Matrix: (Units=GPa)
#
#
# Indices 1 2 3 4 5 6 
#
# 1 35.5485 17.0990 -8.0787 0.0000 1.0022 0.0000
# 2 17.0990 85.2908 20.7288 0.0000 9.5332 0.0000
# 3 -8.0787 20.7288 134.8837 0.0000 8.3700 0.0000
# 4 0.0000 0.0000 0.0000 33.0309 0.0000 -9.0155
# 5 1.0022 9.5332 8.3700 0.0000 12.1560 0.0000
# 6 0.0000 0.0000 0.0000 -9.0155 0.0000 10.6942
#
#
#
# Elastic Compliance Matrix: (Units=1/GPa)
#
#
# Indices 1 2 3 4 5 6 
#
# 1 0.032303 -0.007317 0.002996 0.000000 0.001012 0.000000
# 2 -0.007317 0.014770 -0.002117 0.000000 -0.009522 0.000000
# 3 0.002996 -0.002117 0.008180 0.000000 -0.004219 0.000000
# 4 0.000000 0.000000 0.000000 0.039323 0.000000 0.033150
# 5 0.001012 -0.009522 -0.004219 0.000000 0.092554 0.000000
# 6 0.000000 0.000000 0.000000 0.033150 0.000000 0.121455
#
#
# Mechanical properties :
#
#
# Convention : Reuss Voigt Hill
#
# Bulk Modulus (GPa) = 23.59756 35.02458 29.31107
# Shear Modulus (GPa) = 14.89927 26.24115 20.57021
#
# Velocity S-wave (km/s) = 2.60035 3.45097 3.05541
# Velocity P-wave (km/s) = 4.44131 5.63688 5.07443
#
# Compressibility (1/GPa) = 0.04237726
#
# Stress axis : x y z
#
# Youngs Moduli (GPa) = 30.95720 67.70259 122.24238
#
# Poissons Ratio (x) = 0.49540 -0.36629
# Poissons Ratio (y) = 0.22653 0.25882
# Poissons Ratio (z) = -0.09276 0.14335
#
# Static dielectric constant tensor:
#      x y z
#    x 1.993200 0.000000 0.002740 
#    y 0.000000 1.823660 0.000000 
#    z 0.002740 0.000000 1.860500 
# 
# From -- ./inp_files/70601.got.cif
#   From: 2010.05.17/outbox.cif.g08.bks.cpg/sg10_36_cif.got.tgz:70601.got - 2010.06.03 11:33:40.
