data_PCOD9152178
_publ_section_title
;
Structure prediction by ZEFSAII (Michael W. Deem and Ramdas Pophale) SiO2 
 PCOD9152178
Probable space group: P 2/M
;
_chemical_formula_sum "Si O2"
_cell_formula_units_Z 26
_cell_length_a 5.370014
_cell_length_b 20.446783
_cell_length_c 13.716134
_cell_angle_alpha 90.000000
_cell_angle_beta 124.236116
_cell_angle_gamma 90.000000
_cell_volume 1245.070021
_symmetry_space_group_name_H-M "P 2/M"
_symmetry_group_IT_number 10
_symmetry_cell_setting 'monoclinic'
loop_
_space_group_symop_operation_xyz
x,y,z
-x,y,-z
-x,-y,-z
x,-y,z
loop_
_atom_site_type_symbol
_atom_site_label
_atom_site_fract_x
_atom_site_fract_y
_atom_site_fract_z
Si Si1 0.500000 0.723622 0.000000
Si Si2 0.296516 0.621951 0.118005
Si Si3 0.080801 0.721812 0.229354
Si Si4 0.134982 0.647394 0.429162
Si Si5 0.843972 0.500000 0.613978
Si Si6 0.685039 0.851400 0.642097
Si Si7 0.189722 0.075067 0.643169
Si Si8 0.343152 0.500000 0.857604
O O1 0.597924 0.677210 0.933521
O O2 0.193094 0.754159 0.892211
O O3 0.215238 0.660856 0.197832
O O4 0.530278 0.563675 0.168756
O O5 0.000000 0.593384 0.000000
O O6 0.986983 0.688595 0.309973
O O7 0.299018 0.780247 0.306233
O O8 0.500000 0.653803 0.500000
O O9 0.055890 0.570584 0.403537
O O10 0.000000 0.672449 0.500000
O O11 0.500000 0.500000 0.500000
O O12 0.980407 0.500000 0.756079
O O13 0.500000 0.847444 0.500000
O O14 0.511199 0.897754 0.679641
O O15 0.008219 0.880207 0.679890
O O16 0.000000 0.075603 0.500000
O O17 0.202881 0.000000 0.679682
O O18 0.500000 0.500000 0.000000
#
# Coordination Sequence:
#
# PCOD9152178 Si02
#       8
#     2   4   4   4   2   4   4   2
#     4  10  22  43  62  86 125 164 218 276 348 384
#     4  10  23  41  63  96 122 159 214 292 351 401
#     4  11  25  40  64  93 130 169 219 272 325 404
#     4  11  26  44  66  90 126 174 213 266 331 404
#     4  10  25  47  62  90 126 170 221 271 342 419
#     4  10  21  36  60  96 132 174 212 257 315 390
#     4   9  18  35  60  93 133 170 211 260 315 373
#     4  12  23  41  73  95 120 165 227 301 355 406
#
# _framework density 20.882361
#
# number of rings (size 3 to 8) (size 9 to 14) (size 15 to 20)
#    0.000    1.692    0.769    2.308    8.615    4.308 
#    0.000    0.000    0.000    0.000    0.000    3.231 
#    0.000    0.000    0.000    0.000    0.000    0.000 
#
# Total GULP energy -145042.338008 kJ/mol
# GULP energy per Si atom -5578.551462 kJ/mol
# Density = 2.083483 g / cm^3
# Si number density = 20.882361 Si / 1000 Ang^3
#
#
#
# Elastic Constant Matrix: (Units=GPa)
#
#
# Indices 1 2 3 4 5 6 
#
# 1 102.9341 17.9836 46.8259 0.0000 -13.8697 0.0000
# 2 17.9836 80.3139 24.2313 0.0000 -8.1355 0.0000
# 3 46.8259 24.2313 110.2369 0.0000 -1.3021 0.0000
# 4 0.0000 0.0000 0.0000 12.3477 0.0000 -4.1801
# 5 -13.8697 -8.1355 -1.3021 0.0000 32.1439 0.0000
# 6 0.0000 0.0000 0.0000 -4.1801 0.0000 -23.7034
#
#
#
# Elastic Compliance Matrix: (Units=1/GPa)
#
#
# Indices 1 2 3 4 5 6 
#
# 1 0.012944 -0.000786 -0.005264 0.000000 0.005173 0.000000
# 2 -0.000786 0.013733 -0.002649 0.000000 0.003029 0.000000
# 3 -0.005264 -0.002649 0.011861 0.000000 -0.002462 0.000000
# 4 0.000000 0.000000 0.000000 0.076424 0.000000 -0.013477
# 5 0.005173 0.003029 -0.002462 0.000000 0.034009 0.000000
# 6 0.000000 0.000000 0.000000 -0.013477 0.000000 -0.039811
#
#
# Mechanical properties :
#
#
# Convention : Reuss Voigt Hill
#
# Bulk Modulus (GPa) = 47.30577 52.39628 49.85103
# Shear Modulus (GPa) = 37.42356 17.78726 27.60541
#
# Velocity S-wave (km/s) = 4.23793 2.92170 3.63981
# Velocity P-wave (km/s) = 6.83003 6.04379 6.44891
#
# Compressibility (1/GPa) = 0.02113907
#
# Stress axis : x y z
#
# Youngs Moduli (GPa) = 77.25462 72.81597 84.31129
#
# Poissons Ratio (x) = 0.05724 0.44386
# Poissons Ratio (y) = 0.06073 0.22334
# Poissons Ratio (z) = 0.40671 0.19289
#
# Static dielectric constant tensor:
#      x y z
#    x 1.815280 0.000000 0.129580 
#    y 0.000000 1.704040 0.000000 
#    z 0.129580 0.000000 1.891150 
# 
# From -- ./inp_files/59660.got.cif
#   From: 2010.05.17/outbox.cif.g08.bks.cpg/sg10_30_cif.got.tgz:59660.got - 2010.06.03 11:33:40.
