data_PCOD9152955
_publ_section_title
;
Structure prediction by ZEFSAII (Michael W. Deem and Ramdas Pophale) SiO2 
 PCOD9152955
Probable space group: P 2/M
;
_chemical_formula_sum "Si O2"
_cell_formula_units_Z 17
_cell_length_a 10.501996
_cell_length_b 7.239505
_cell_length_c 17.546565
_cell_angle_alpha 90.000000
_cell_angle_beta 34.838995
_cell_angle_gamma 90.000000
_cell_volume 762.107084
_symmetry_space_group_name_H-M "P 2/M"
_symmetry_group_IT_number 10
_symmetry_cell_setting 'monoclinic'
loop_
_space_group_symop_operation_xyz
x,y,z
-x,y,-z
-x,-y,-z
x,-y,z
loop_
_atom_site_type_symbol
_atom_site_label
_atom_site_fract_x
_atom_site_fract_y
_atom_site_fract_z
Si Si1 0.494599 0.779944 0.381994
Si Si2 0.543405 0.774596 0.892380
Si Si3 0.000753 0.775612 0.587949
Si Si4 0.500000 0.500000 0.500000
Si Si5 0.247027 0.223560 0.898656
O O1 0.606463 0.662018 0.392325
O O2 0.590423 0.735224 0.251660
O O3 0.234619 0.721339 0.510483
O O4 0.514605 0.000000 0.383336
O O5 0.782557 0.717007 0.740901
O O6 0.354515 0.715137 0.925165
O O7 0.544408 0.000000 0.892025
O O8 0.500000 0.715447 0.000000
O O9 0.000000 0.716819 0.500000
O O10 0.000050 0.000000 0.586984
O O11 0.236680 0.000000 0.908091
O O12 0.000000 0.288948 0.000000
#
# Coordination Sequence:
#
# PCOD9152955 Si02
#       5
#     4   4   4   1   4
#     4  10  21  39  62  87 120 161 203 250 304 363
#     4   9  16  26  47  84 121 152 198 252 297 354
#     4   9  15  29  56  83 110 151 199 243 296 356
#     4  12  26  40  56  90 124 156 208 258 300 364
#     4   9  17  31  55  87 122 161 201 243 304 374
#
# _framework density 22.306574999999999
#
# number of rings (size 3 to 8) (size 9 to 14) (size 15 to 20)
#    0.000    2.588    2.353    0.353    0.000    1.882 
#    0.000    8.235    0.000    0.000    0.000    3.294 
#    0.000    0.000    0.000    0.000    0.000    0.235 
#
# Total GULP energy -94733.261059 kJ/mol
# GULP energy per Si atom -5572.544768 kJ/mol
# Density = 2.225580 g / cm^3
# Si number density = 22.306575 Si / 1000 Ang^3
#
#
#
# Elastic Constant Matrix: (Units=GPa)
#
#
# Indices 1 2 3 4 5 6 
#
# 1 120.4312 21.2327 98.9622 0.0000 11.6503 0.0000
# 2 21.2327 115.8359 17.5403 0.0000 11.8398 0.0000
# 3 98.9622 17.5403 175.6210 0.0000 6.7328 0.0000
# 4 0.0000 0.0000 0.0000 3.2858 0.0000 47.9840
# 5 11.6503 11.8398 6.7328 0.0000 48.8893 0.0000
# 6 0.0000 0.0000 0.0000 47.9840 0.0000 61.2534
#
#
#
# Elastic Compliance Matrix: (Units=1/GPa)
#
#
# Indices 1 2 3 4 5 6 
#
# 1 0.015980 -0.001368 -0.008781 0.000000 -0.002267 0.000000
# 2 -0.001368 0.009084 -0.000065 0.000000 -0.001865 0.000000
# 3 -0.008781 -0.000065 0.010624 0.000000 0.000645 0.000000
# 4 0.000000 0.000000 0.000000 -0.029152 0.000000 0.022836
# 5 -0.002267 -0.001865 0.000645 0.000000 0.021358 0.000000
# 6 0.000000 0.000000 0.000000 0.022836 0.000000 -0.001564
#
#
# Mechanical properties :
#
#
# Convention : Reuss Voigt Hill
#
# Bulk Modulus (GPa) = 65.53022 76.37317 70.95169
# Shear Modulus (GPa) = 96.44362 40.96255 68.70309
#
# Velocity S-wave (km/s) = 6.58251 4.28991 5.55575
# Velocity P-wave (km/s) = 9.33881 7.67138 8.54586
#
# Compressibility (1/GPa) = 0.01526014
#
# Stress axis : x y z
#
# Youngs Moduli (GPa) = 62.58001 110.08271 94.12742
#
# Poissons Ratio (x) = 0.15055 0.82653
# Poissons Ratio (y) = 0.08559 0.00613
# Poissons Ratio (z) = 0.54951 0.00717
#
# Static dielectric constant tensor:
#      x y z
#    x 1.868900 0.000000 -0.011040 
#    y 0.000000 2.190780 0.000000 
#    z -0.011040 0.000000 1.784630 
# 
# From -- ./inp_files/40686.got.cif
#   From: 2010.05.17/outbox.cif.g08.bks.cpg/sg10_21_cif.got.tgz:40686.got - 2010.06.03 11:33:40.
