data_PCOD9152165
_publ_section_title
;
Structure prediction by ZEFSAII (Michael W. Deem and Ramdas Pophale) SiO2 
 PCOD9152165
Probable space group: P 2/M
;
_chemical_formula_sum "Si O2"
_cell_formula_units_Z 28
_cell_length_a 9.862334
_cell_length_b 10.857763
_cell_length_c 14.665421
_cell_angle_alpha 90.000000
_cell_angle_beta 112.102122
_cell_angle_gamma 90.000000
_cell_volume 1455.013127
_symmetry_space_group_name_H-M "P 2/M"
_symmetry_group_IT_number 10
_symmetry_cell_setting 'monoclinic'
loop_
_space_group_symop_operation_xyz
x,y,z
-x,y,-z
-x,-y,-z
x,-y,z
loop_
_atom_site_type_symbol
_atom_site_label
_atom_site_fract_x
_atom_site_fract_y
_atom_site_fract_z
Si Si1 0.843988 0.857932 0.225545
Si Si2 0.153315 0.857351 0.391377
Si Si3 0.393615 0.638625 0.060458
Si Si4 0.548461 0.142176 0.614857
Si Si5 0.842875 0.856162 0.008420
Si Si6 0.827482 0.369791 0.476149
Si Si7 0.391115 0.702449 0.730012
O O1 0.707001 0.783940 0.227378
O O2 0.994205 0.823071 0.313931
O O3 0.818226 0.000000 0.241400
O O4 0.863942 0.847495 0.122668
O O5 0.275517 0.852549 0.343641
O O6 0.197782 0.757079 0.477129
O O7 0.151711 0.000000 0.424475
O O8 0.329309 0.500000 0.030848
O O9 0.276739 0.749817 0.042846
O O10 0.494850 0.635535 0.175819
O O11 0.500000 0.662526 0.000000
O O12 0.500000 0.179885 0.500000
O O13 0.481289 0.220246 0.678334
O O14 0.502335 0.000000 0.613290
O O15 0.797518 0.000000 0.976421
O O16 0.000000 0.836013 0.000000
O O17 0.793971 0.500000 0.517401
O O18 0.728578 0.368087 0.361044
O O19 0.000000 0.369965 0.500000
#
# Coordination Sequence:
#
# PCOD9152165 Si02
#       7
#     4   4   4   4   4   4   4
#     4  10  21  37  62  95 123 158 209 260 314 378
#     4  10  21  39  60  88 124 162 207 254 309 377
#     4  11  25  45  67  94 131 173 217 270 327 387
#     4  10  21  36  59  92 130 166 206 258 317 372
#     4  10  23  44  69  97 129 163 209 270 329 385
#     4  11  23  39  60  89 124 164 210 257 310 367
#     4  12  22  39  63  92 127 169 214 262 313 376
#
# _framework density 19.243811999999998
#
# number of rings (size 3 to 8) (size 9 to 14) (size 15 to 20)
#    0.000    1.429    4.286    0.857    2.000    2.571 
#    0.000    2.857    0.000    0.000    0.000    0.000 
#    0.000    0.000    0.000    0.000    0.000    0.000 
#
# Total GULP energy -156118.245590 kJ/mol
# GULP energy per Si atom -5575.651628 kJ/mol
# Density = 1.920001 g / cm^3
# Si number density = 19.243812 Si / 1000 Ang^3
#
#
#
# Elastic Constant Matrix: (Units=GPa)
#
#
# Indices 1 2 3 4 5 6 
#
# 1 89.9295 69.5255 27.6961 0.0000 -8.6309 0.0000
# 2 69.5255 115.2476 59.7171 0.0000 0.6941 0.0000
# 3 27.6961 59.7171 77.0041 0.0000 5.7149 0.0000
# 4 0.0000 0.0000 0.0000 16.6648 0.0000 -7.2735
# 5 -8.6309 0.6941 5.7149 0.0000 34.5204 0.0000
# 6 0.0000 0.0000 0.0000 -7.2735 0.0000 -35.9467
#
#
#
# Elastic Compliance Matrix: (Units=1/GPa)
#
#
# Indices 1 2 3 4 5 6 
#
# 1 0.022445 -0.015353 0.003437 0.000000 0.005351 0.000000
# 2 -0.015353 0.025095 -0.013786 0.000000 -0.002061 0.000000
# 3 0.003437 -0.013786 0.022635 0.000000 -0.002611 0.000000
# 4 0.000000 0.000000 0.000000 0.055137 0.000000 -0.011157
# 5 0.005351 -0.002061 -0.002611 0.000000 0.030780 0.000000
# 6 0.000000 0.000000 0.000000 -0.011157 0.000000 -0.025562
#
#
# Mechanical properties :
#
#
# Convention : Reuss Voigt Hill
#
# Bulk Modulus (GPa) = 53.27815 66.22875 59.75345
# Shear Modulus (GPa) = 26.56836 11.39720 18.98278
#
# Velocity S-wave (km/s) = 3.71970 2.43626 3.14416
# Velocity P-wave (km/s) = 6.79663 6.51185 6.65576
#
# Compressibility (1/GPa) = 0.01876942
#
# Stress axis : x y z
#
# Youngs Moduli (GPa) = 44.55377 39.84832 44.17849
#
# Poissons Ratio (x) = 0.61180 -0.15183
# Poissons Ratio (y) = 0.68405 0.60906
# Poissons Ratio (z) = -0.15312 0.54936
#
# Static dielectric constant tensor:
#      x y z
#    x 1.667480 0.000000 0.029100 
#    y 0.000000 1.703910 0.000000 
#    z 0.029100 0.000000 1.674040 
# 
# From -- ./inp_files/28223.got.cif
#   From: 2010.05.17/outbox.cif.g08.bks.cpg/sg10_15_cif.got.tgz:28223.got - 2010.06.03 11:33:40.
