data_PCOD9152650
_publ_section_title
;
Structure prediction by ZEFSAII (Michael W. Deem and Ramdas Pophale) SiO2 
 PCOD9152650
Probable space group: P 2/M
;
_chemical_formula_sum "Si O2"
_cell_formula_units_Z 26
_cell_length_a 7.332964
_cell_length_b 19.134589
_cell_length_c 10.707289
_cell_angle_alpha 90.000000
_cell_angle_beta 56.284428
_cell_angle_gamma 90.000000
_cell_volume 1249.680094
_symmetry_space_group_name_H-M "P 2/M"
_symmetry_group_IT_number 10
_symmetry_cell_setting 'monoclinic'
loop_
_space_group_symop_operation_xyz
x,y,z
-x,y,-z
-x,-y,-z
x,-y,z
loop_
_atom_site_type_symbol
_atom_site_label
_atom_site_fract_x
_atom_site_fract_y
_atom_site_fract_z
Si Si1 0.500000 0.376440 0.500000
Si Si2 0.430789 0.136150 0.812151
Si Si3 0.352234 0.708086 0.789754
Si Si4 0.838318 0.858866 0.847587
Si Si5 0.610108 0.000000 0.641345
Si Si6 0.866676 0.698433 0.872098
Si Si7 0.982618 0.000000 0.312575
Si Si8 0.009922 0.421524 0.644980
O O1 0.504399 0.333123 0.367041
O O2 0.267103 0.415881 0.585628
O O3 0.413002 0.210402 0.751864
O O4 0.634568 0.134098 0.830686
O O5 0.467101 0.068890 0.714748
O O6 0.227998 0.133030 0.983156
O O7 0.104538 0.690336 0.844801
O O8 0.329266 0.696250 0.949695
O O9 0.891903 0.777194 0.809515
O O10 0.991471 0.924890 0.763079
O O11 0.809933 0.000000 0.668720
O O12 0.747564 0.000000 0.464530
O O13 0.867314 0.637796 0.768652
O O14 0.931722 0.500000 0.705008
O O15 0.000000 0.411917 0.500000
#
# Coordination Sequence:
#
# PCOD9152650 Si02
#       8
#     2   4   4   4   2   4   2   4
#     4  10  21  38  60  85 116 152 184 233 280 336
#     4   9  17  30  49  73  99 139 180 226 272 327
#     4   9  19  35  55  80 111 142 186 229 277 332
#     4   9  17  30  51  73 100 139 182 224 271 325
#     4   9  17  27  42  69 104 136 177 224 277 323
#     4   9  19  37  56  81 109 146 185 229 274 336
#     4   9  17  29  42  71 106 135 176 228 272 322
#     4  10  22  40  61  87 118 150 186 229 279 336
#
# _framework density 20.805325
#
# number of rings (size 3 to 8) (size 9 to 14) (size 15 to 20)
#    0.000    2.769    0.000    0.692    2.154    4.308 
#    2.769    7.692    0.000    6.923    0.000    0.000 
#    0.000    0.000    0.000    0.000    0.000    0.000 
#
# Total GULP energy -144778.590515 kJ/mol
# GULP energy per Si atom -5568.407327 kJ/mol
# Density = 2.075797 g / cm^3
# Si number density = 20.805325 Si / 1000 Ang^3
#
#
#
# Elastic Constant Matrix: (Units=GPa)
#
#
# Indices 1 2 3 4 5 6 
#
# 1 51.1266 8.3758 8.3421 0.0000 6.1049 0.0000
# 2 8.3758 189.6114 104.6077 0.0000 -0.0043 0.0000
# 3 8.3421 104.6077 83.5252 0.0000 -0.2376 0.0000
# 4 0.0000 0.0000 0.0000 68.2278 0.0000 13.5199
# 5 6.1049 -0.0043 -0.2376 0.0000 18.0132 0.0000
# 6 0.0000 0.0000 0.0000 13.5199 0.0000 30.8064
#
#
#
# Elastic Compliance Matrix: (Units=1/GPa)
#
#
# Indices 1 2 3 4 5 6 
#
# 1 0.020778 0.000770 -0.003060 0.000000 -0.007082 0.000000
# 2 0.000770 0.017095 -0.021488 0.000000 -0.000540 0.000000
# 3 -0.003060 -0.021488 0.039195 0.000000 0.001549 0.000000
# 4 0.000000 0.000000 0.000000 0.016053 0.000000 -0.007045
# 5 -0.007082 -0.000540 0.001549 0.000000 0.057935 0.000000
# 6 0.000000 0.000000 0.000000 -0.007045 0.000000 0.035553
#
#
# Mechanical properties :
#
#
# Convention : Reuss Voigt Hill
#
# Bulk Modulus (GPa) = 33.88511 62.99049 48.43780
# Shear Modulus (GPa) = 20.49168 36.93865 28.71517
#
# Velocity S-wave (km/s) = 3.14176 4.21817 3.71911
# Velocity P-wave (km/s) = 5.42982 7.35295 6.46331
#
# Compressibility (1/GPa) = 0.02951149
#
# Stress axis : x y z
#
# Youngs Moduli (GPa) = 48.12771 58.49707 25.51377
#
# Poissons Ratio (x) = -0.04505 0.07807
# Poissons Ratio (y) = -0.03706 0.54825
# Poissons Ratio (z) = 0.14726 1.25700
#
# Static dielectric constant tensor:
#      x y z
#    x 1.816240 0.000000 0.023330 
#    y 0.000000 1.758470 0.000000 
#    z 0.023330 0.000000 1.759920 
# 
# From -- ./inp_files/42629.got.cif
#   From: 2010.05.17/outbox.cif.g08.bks.cpg/sg10_22_cif.got.tgz:42629.got - 2010.06.03 11:33:40.
