data_PCOD9152322
_publ_section_title
;
Structure prediction by ZEFSAII (Michael W. Deem and Ramdas Pophale) SiO2 
 PCOD9152322
Probable space group: P 2/M
;
_chemical_formula_sum "Si O2"
_cell_formula_units_Z 24
_cell_length_a 15.671794
_cell_length_b 20.961907
_cell_length_c 12.732205
_cell_angle_alpha 90.000000
_cell_angle_beta 17.227357
_cell_angle_gamma 90.000000
_cell_volume 1238.755480
_symmetry_space_group_name_H-M "P 2/M"
_symmetry_group_IT_number 10
_symmetry_cell_setting 'monoclinic'
loop_
_space_group_symop_operation_xyz
x,y,z
-x,y,-z
-x,-y,-z
x,-y,z
loop_
_atom_site_type_symbol
_atom_site_label
_atom_site_fract_x
_atom_site_fract_y
_atom_site_fract_z
Si Si1 0.313962 0.850580 0.525192
Si Si2 0.842108 0.500000 0.076569
Si Si3 0.765570 0.927769 0.105818
Si Si4 0.784771 0.639000 0.090707
Si Si5 0.120662 0.682569 0.250107
Si Si6 0.386052 0.228036 0.238192
Si Si7 0.000000 0.258836 0.000000
O O1 0.621175 0.882530 0.187704
O O2 0.294466 0.820038 0.434004
O O3 0.256432 0.791407 0.673240
O O4 0.047880 0.900181 0.831079
O O5 0.500000 0.500000 0.500000
O O6 0.919767 0.568073 0.935178
O O7 0.000000 0.500000 0.000000
O O8 0.500000 0.929353 0.500000
O O9 0.820033 0.000000 0.005589
O O10 0.500000 0.636982 0.500000
O O11 0.746783 0.650519 0.010919
O O12 0.958418 0.695098 0.947861
O O13 0.000000 0.648455 0.500000
O O14 0.859121 0.723394 0.510316
O O15 0.360053 0.729995 0.011653
O O16 0.500000 0.194054 0.000000
#
# Coordination Sequence:
#
# PCOD9152322 Si02
#       7
#     4   2   4   4   4   4   2
#     4  12  22  35  58  87 114 141 194 236 290 340
#     4  10  22  40  55  84 117 170 193 233 292 362
#     4  11  23  39  55  79 118 155 182 225 287 357
#     4  11  23  37  60  86 125 154 201 243 296 345
#     4  10  21  37  57  84 120 158 191 240 302 353
#     4  10  21  37  57  84 118 152 186 235 300 349
#     4  12  22  31  59  92 114 142 184 256 292 324
#
# _framework density 19.374282999999998
#
# number of rings (size 3 to 8) (size 9 to 14) (size 15 to 20)
#    0.000    1.167    4.167    2.500    2.333    1.333 
#    0.000    0.417    0.000    3.000    0.000    5.833 
#    0.000    0.000    0.000    0.000    0.000    0.000 
#
# Total GULP energy -133694.905004 kJ/mol
# GULP energy per Si atom -5570.621042 kJ/mol
# Density = 1.933019 g / cm^3
# Si number density = 19.374283 Si / 1000 Ang^3
#
#
#
# Elastic Constant Matrix: (Units=GPa)
#
#
# Indices 1 2 3 4 5 6 
#
# 1 133.6522 43.5613 31.8386 0.0000 10.0151 0.0000
# 2 43.5613 109.7333 13.6662 0.0000 -0.3967 0.0000
# 3 31.8386 13.6662 52.5412 0.0000 -2.6485 0.0000
# 4 0.0000 0.0000 0.0000 8.3597 0.0000 -4.6092
# 5 10.0151 -0.3967 -2.6485 0.0000 56.3932 0.0000
# 6 0.0000 0.0000 0.0000 -4.6092 0.0000 18.5831
#
#
#
# Elastic Compliance Matrix: (Units=1/GPa)
#
#
# Indices 1 2 3 4 5 6 
#
# 1 0.009972 -0.003308 -0.005286 0.000000 -0.002043 0.000000
# 2 -0.003308 0.010515 -0.000699 0.000000 0.000629 0.000000
# 3 -0.005286 -0.000699 0.022518 0.000000 0.001991 0.000000
# 4 0.000000 0.000000 0.000000 0.138571 0.000000 0.034370
# 5 -0.002043 0.000629 0.001991 0.000000 0.018193 0.000000
# 6 0.000000 0.000000 0.000000 0.034370 0.000000 0.062337
#
#
# Mechanical properties :
#
#
# Convention : Reuss Voigt Hill
#
# Bulk Modulus (GPa) = 40.94865 52.67322 46.81094
# Shear Modulus (GPa) = 17.31107 30.45792 23.88449
#
# Velocity S-wave (km/s) = 2.99240 3.96925 3.51493
# Velocity P-wave (km/s) = 5.75506 6.94642 6.37862
#
# Compressibility (1/GPa) = 0.02442083
#
# Stress axis : x y z
#
# Youngs Moduli (GPa) = 100.27619 95.09793 44.40928
#
# Poissons Ratio (x) = 0.31458 0.23473
# Poissons Ratio (y) = 0.33171 0.03104
# Poissons Ratio (z) = 0.53002 0.06647
#
# Static dielectric constant tensor:
#      x y z
#    x 1.708980 0.000000 0.028500 
#    y 0.000000 1.723550 0.000000 
#    z 0.028500 0.000000 1.752990 
# 
# From -- ./inp_files/52058.got.cif
#   From: 2010.05.17/outbox.cif.g08.bks.cpg/sg10_27_cif.got.tgz:52058.got - 2010.06.03 11:33:40.
