data_PCOD9152591
_publ_section_title
;
Structure prediction by ZEFSAII (Michael W. Deem and Ramdas Pophale) SiO2 
 PCOD9152591
Probable space group: P 2/M
;
_chemical_formula_sum "Si O2"
_cell_formula_units_Z 20
_cell_length_a 8.163013
_cell_length_b 21.470977
_cell_length_c 5.505919
_cell_angle_alpha 90.000000
_cell_angle_beta 119.891575
_cell_angle_gamma 90.000000
_cell_volume 836.635334
_symmetry_space_group_name_H-M "P 2/M"
_symmetry_group_IT_number 10
_symmetry_cell_setting 'monoclinic'
loop_
_space_group_symop_operation_xyz
x,y,z
-x,y,-z
-x,-y,-z
x,-y,z
loop_
_atom_site_type_symbol
_atom_site_label
_atom_site_fract_x
_atom_site_fract_y
_atom_site_fract_z
Si Si1 0.786485 0.067195 0.233655
Si Si2 0.880028 0.500000 0.160292
Si Si3 0.681996 0.822953 0.473529
Si Si4 0.723143 0.633780 0.121010
Si Si5 0.290002 0.679887 0.394623
Si Si6 0.000000 0.118565 0.000000
O O1 0.685294 0.129236 0.251551
O O2 0.835583 0.075952 0.988971
O O3 0.000000 0.066153 0.500000
O O4 0.700926 0.000000 0.229823
O O5 0.758232 0.562992 0.071247
O O6 0.000000 0.500000 0.500000
O O7 0.000000 0.500000 0.000000
O O8 0.500000 0.839869 0.500000
O O9 0.679248 0.748451 0.465087
O O10 0.886408 0.837227 0.738187
O O11 0.806738 0.643733 0.455318
O O12 0.500000 0.646436 0.000000
O O13 0.791108 0.676302 0.941027
O O14 0.500000 0.653033 0.500000
#
# Coordination Sequence:
#
# PCOD9152591 Si02
#       6
#     4   2   4   4   4   2
#     4   9  19  37  59  85 120 160 208 262 316 385
#     4  12  25  42  59  96 134 162 200 260 313 358
#     4  10  22  39  60  89 124 158 206 269 318 381
#     4  10  21  42  67  89 120 169 213 249 304 379
#     4   9  20  38  64  93 121 159 211 261 310 368
#     4  10  21  38  58  86 114 165 208 254 328 379
#
# _framework density 23.905276000000001
#
# number of rings (size 3 to 8) (size 9 to 14) (size 15 to 20)
#    0.000    2.200    0.000    1.800    2.800    2.000 
#    5.400    5.000    0.000    0.000    0.000    0.000 
#    0.000    0.000    0.000    0.000    0.000    0.000 
#
# Total GULP energy -111418.309513 kJ/mol
# GULP energy per Si atom -5570.915476 kJ/mol
# Density = 2.385087 g / cm^3
# Si number density = 23.905276 Si / 1000 Ang^3
#
#
#
# Elastic Constant Matrix: (Units=GPa)
#
#
# Indices 1 2 3 4 5 6 
#
# 1 105.6486 59.3428 35.7333 0.0000 -30.3257 0.0000
# 2 59.3428 146.9760 24.3156 0.0000 -40.1414 0.0000
# 3 35.7333 24.3156 97.6651 0.0000 -25.0185 0.0000
# 4 0.0000 0.0000 0.0000 7.2426 0.0000 2.6930
# 5 -30.3257 -40.1414 -25.0185 0.0000 56.1513 0.0000
# 6 0.0000 0.0000 0.0000 2.6930 0.0000 31.3756
#
#
#
# Elastic Compliance Matrix: (Units=1/GPa)
#
#
# Indices 1 2 3 4 5 6 
#
# 1 0.013783 -0.004213 -0.003227 0.000000 0.002994 0.000000
# 2 -0.004213 0.009777 0.000356 0.000000 0.004872 0.000000
# 3 -0.003227 0.000356 0.012361 0.000000 0.004019 0.000000
# 4 0.000000 0.000000 0.000000 0.142623 0.000000 -0.012241
# 5 0.002994 0.004872 0.004019 0.000000 0.024699 0.000000
# 6 0.000000 0.000000 0.000000 -0.012241 0.000000 0.032923
#
#
# Mechanical properties :
#
#
# Convention : Reuss Voigt Hill
#
# Bulk Modulus (GPa) = 45.97524 65.45256 55.71390
# Shear Modulus (GPa) = 19.41107 34.34712 26.87910
#
# Velocity S-wave (km/s) = 2.85265 3.79463 3.35685
# Velocity P-wave (km/s) = 5.48855 6.82923 6.19526
#
# Compressibility (1/GPa) = 0.02175084
#
# Stress axis : x y z
#
# Youngs Moduli (GPa) = 72.55435 102.28229 80.90187
#
# Poissons Ratio (x) = 0.43095 0.26106
# Poissons Ratio (y) = 0.30570 -0.02876
# Poissons Ratio (z) = 0.23412 -0.03636
#
# Static dielectric constant tensor:
#      x y z
#    x 1.944530 0.000000 -0.071390 
#    y 0.000000 1.915980 0.000000 
#    z -0.071390 0.000000 2.125470 
# 
# From -- ./inp_files/4849.got.cif
#   From: 2010.05.17/outbox.cif.g08.bks.cpg/sg10_3_cif.got.tgz:4849.got - 2010.06.03 11:33:40.
