data_PCOD9152818
_publ_section_title
;
Structure prediction by ZEFSAII (Michael W. Deem and Ramdas Pophale) SiO2 
 PCOD9152818
Probable space group: P 2/M
;
_chemical_formula_sum "Si O2"
_cell_formula_units_Z 20
_cell_length_a 10.690003
_cell_length_b 12.942993
_cell_length_c 13.566656
_cell_angle_alpha 90.000000
_cell_angle_beta 149.005197
_cell_angle_gamma 90.000000
_cell_volume 966.627453
_symmetry_space_group_name_H-M "P 2/M"
_symmetry_group_IT_number 10
_symmetry_cell_setting 'monoclinic'
loop_
_space_group_symop_operation_xyz
x,y,z
-x,y,-z
-x,-y,-z
x,-y,z
loop_
_atom_site_type_symbol
_atom_site_label
_atom_site_fract_x
_atom_site_fract_y
_atom_site_fract_z
Si Si1 0.145816 0.385495 0.729184
Si Si2 0.699937 0.879017 0.500918
Si Si3 0.858173 0.620742 0.039119
Si Si4 0.330963 0.702782 0.667118
Si Si5 0.839432 0.187364 0.800510
O O1 0.240131 0.500000 0.767900
O O2 0.162526 0.371529 0.856414
O O3 0.283556 0.305008 0.752051
O O4 0.862744 0.377067 0.509328
O O5 0.745157 0.809790 0.435405
O O6 0.434910 0.839186 0.356427
O O7 0.872727 0.858213 0.712490
O O8 0.694159 0.000000 0.476792
O O9 0.881828 0.500000 0.029621
O O10 0.082442 0.692686 0.158180
O O11 0.605883 0.669823 0.830588
O O12 0.000000 0.145516 0.000000
#
# Coordination Sequence:
#
# PCOD9152818 Si02
#       5
#     4   4   4   4   4
#     4  10  21  38  63  92 125 166 199 239 300 366
#     4  11  25  43  64  89 116 160 211 257 305 352
#     4  11  22  38  62  94 129 161 196 243 303 366
#     4  11  20  39  61  91 124 155 202 251 294 361
#     4  11  22  43  63  89 120 158 203 255 303 360
#
# _framework density 20.690494000000001
#
# number of rings (size 3 to 8) (size 9 to 14) (size 15 to 20)
#    0.000    1.200    4.000    4.200    0.000    3.600 
#    0.000    4.000    0.000    1.200    0.000    0.000 
#    0.000    0.000    0.000    0.000    0.000    0.000 
#
# Total GULP energy -111595.102135 kJ/mol
# GULP energy per Si atom -5579.755107 kJ/mol
# Density = 2.064340 g / cm^3
# Si number density = 20.690494 Si / 1000 Ang^3
#
#
#
# Elastic Constant Matrix: (Units=GPa)
#
#
# Indices 1 2 3 4 5 6 
#
# 1 90.8729 57.0245 19.2425 0.0000 -26.2377 0.0000
# 2 57.0245 158.9694 28.3315 0.0000 -15.0376 0.0000
# 3 19.2425 28.3315 92.4122 0.0000 -17.5197 0.0000
# 4 0.0000 0.0000 0.0000 30.3185 0.0000 10.6446
# 5 -26.2377 -15.0376 -17.5197 0.0000 35.9677 0.0000
# 6 0.0000 0.0000 0.0000 10.6446 0.0000 34.3776
#
#
#
# Elastic Compliance Matrix: (Units=1/GPa)
#
#
# Indices 1 2 3 4 5 6 
#
# 1 0.017289 -0.005211 -0.000027 0.000000 0.010420 0.000000
# 2 -0.005211 0.008354 -0.001691 0.000000 -0.001132 0.000000
# 3 -0.000027 -0.001691 0.012348 0.000000 0.005288 0.000000
# 4 0.000000 0.000000 0.000000 0.037006 0.000000 -0.011459
# 5 0.010420 -0.001132 0.005288 0.000000 0.037506 0.000000
# 6 0.000000 0.000000 0.000000 -0.011459 0.000000 0.032637
#
#
# Mechanical properties :
#
#
# Convention : Reuss Voigt Hill
#
# Bulk Modulus (GPa) = 41.43760 61.27240 51.35500
# Shear Modulus (GPa) = 29.93270 35.97649 32.95459
#
# Velocity S-wave (km/s) = 3.80766 4.17441 3.99525
# Velocity P-wave (km/s) = 6.27709 7.27409 6.79390
#
# Compressibility (1/GPa) = 0.02413267
#
# Stress axis : x y z
#
# Youngs Moduli (GPa) = 57.84098 119.70189 80.98799
#
# Poissons Ratio (x) = 0.62380 0.00217
# Poissons Ratio (y) = 0.30143 0.13693
# Poissons Ratio (z) = 0.00155 0.20238
#
# Static dielectric constant tensor:
#      x y z
#    x 1.804380 0.000000 -0.020810 
#    y 0.000000 1.717300 0.000000 
#    z -0.020810 0.000000 1.779800 
# 
# From -- ./inp_files/50948.got.cif
#   From: 2010.05.17/outbox.cif.g08.bks.cpg/sg10_26_cif.got.tgz:50948.got - 2010.06.03 11:33:40.
