data_PCOD9152464
_publ_section_title
;
Structure prediction by ZEFSAII (Michael W. Deem and Ramdas Pophale) SiO2 
 PCOD9152464
Probable space group: P 2/M
;
_chemical_formula_sum "Si O2"
_cell_formula_units_Z 30
_cell_length_a 11.739529
_cell_length_b 11.032508
_cell_length_c 16.845174
_cell_angle_alpha 90.000000
_cell_angle_beta 141.476893
_cell_angle_gamma 90.000000
_cell_volume 1358.845538
_symmetry_space_group_name_H-M "P 2/M"
_symmetry_group_IT_number 10
_symmetry_cell_setting 'monoclinic'
loop_
_space_group_symop_operation_xyz
x,y,z
-x,y,-z
-x,-y,-z
x,-y,z
loop_
_atom_site_type_symbol
_atom_site_label
_atom_site_fract_x
_atom_site_fract_y
_atom_site_fract_z
Si Si1 0.192441 0.671930 0.143534
Si Si2 0.248999 0.862966 0.058138
Si Si3 0.970870 0.271982 0.791693
Si Si4 0.670503 0.860075 0.534728
Si Si5 0.145343 0.636943 0.731866
Si Si6 0.519656 0.500000 0.267921
Si Si7 0.782759 0.718189 0.444296
Si Si8 0.326534 0.137888 0.759032
O O1 0.222906 0.810284 0.132186
O O2 0.168742 0.661283 0.224627
O O3 0.359958 0.602301 0.197269
O O4 0.000000 0.633361 0.000000
O O5 0.459806 0.857854 0.146818
O O6 0.185931 0.000000 0.019653
O O7 0.127288 0.782750 0.932870
O O8 0.855880 0.168806 0.683965
O O9 0.061214 0.354559 0.774104
O O10 0.500000 0.838401 0.500000
O O11 0.676979 0.769583 0.463906
O O12 0.665307 0.000000 0.505846
O O13 0.218247 0.500000 0.759572
O O14 0.279710 0.751948 0.793391
O O15 0.975634 0.667218 0.580860
O O16 0.673685 0.607452 0.346751
O O17 0.782122 0.826694 0.380451
O O18 0.282526 0.000000 0.761825
#
# Coordination Sequence:
#
# PCOD9152464 Si02
#       8
#     4   4   4   4   4   2   4   4
#     4  10  22  39  64  98 130 171 210 261 319 390
#     4  10  22  42  68  98 128 167 215 267 327 392
#     4  10  23  42  62  96 131 171 212 262 324 385
#     4  10  21  37  60  93 131 169 209 257 316 385
#     4  11  26  45  65  95 130 172 223 271 326 388
#     4  12  21  38  64  94 131 170 209 264 315 392
#     4  11  23  41  65  94 127 170 216 265 323 385
#     4  11  25  44  69  96 129 169 220 277 328 386
#
# _framework density 22.077565
#
# number of rings (size 3 to 8) (size 9 to 14) (size 15 to 20)
#    0.000    1.467    2.000    2.200    1.867    7.733 
#    1.200    3.667    0.000    0.000    0.000    0.000 
#    0.000    0.000    0.000    0.000    0.000    0.000 
#
# Total GULP energy -167125.597510 kJ/mol
# GULP energy per Si atom -5570.853250 kJ/mol
# Density = 2.202732 g / cm^3
# Si number density = 22.077565 Si / 1000 Ang^3
#
#
#
# Elastic Constant Matrix: (Units=GPa)
#
#
# Indices 1 2 3 4 5 6 
#
# 1 76.7050 37.5188 10.4930 0.0000 -2.4613 0.0000
# 2 37.5188 145.6145 13.0607 0.0000 5.4431 0.0000
# 3 10.4930 13.0607 41.1125 0.0000 4.0379 0.0000
# 4 0.0000 0.0000 0.0000 -5.4728 0.0000 0.7483
# 5 -2.4613 5.4431 4.0379 0.0000 32.9638 0.0000
# 6 0.0000 0.0000 0.0000 0.7483 0.0000 16.9099
#
#
#
# Elastic Compliance Matrix: (Units=1/GPa)
#
#
# Indices 1 2 3 4 5 6 
#
# 1 0.015351 -0.003772 -0.002929 0.000000 0.002128 0.000000
# 2 -0.003772 0.008022 -0.001445 0.000000 -0.001429 0.000000
# 3 -0.002929 -0.001445 0.025839 0.000000 -0.003145 0.000000
# 4 0.000000 0.000000 0.000000 -0.181624 0.000000 0.008037
# 5 0.002128 -0.001429 -0.003145 0.000000 0.031116 0.000000
# 6 0.000000 0.000000 0.000000 0.008037 0.000000 0.058781
#
#
# Mechanical properties :
#
#
# Convention : Reuss Voigt Hill
#
# Bulk Modulus (GPa) = 30.37664 42.84189 36.60927
# Shear Modulus (GPa) = -327.91152 22.37082 -152.77035
#
# Velocity S-wave (km/s) = -12.20039 3.18666 -8.32750
# Velocity P-wave (km/s) = 13.58959 5.74344 8.70890
#
# Compressibility (1/GPa) = 0.03292003
#
# Stress axis : x y z
#
# Youngs Moduli (GPa) = 65.14261 124.65016 38.70105
#
# Poissons Ratio (x) = 0.47020 0.11334
# Poissons Ratio (y) = 0.24573 0.05594
# Poissons Ratio (z) = 0.19078 0.18018
#
# Static dielectric constant tensor:
#      x y z
#    x 1.865400 0.000000 -0.009330 
#    y 0.000000 1.841090 0.000000 
#    z -0.009330 0.000000 1.792270 
# 
# From -- ./inp_files/76711.got.cif
#   From: 2010.05.17/outbox.cif.g08.bks.cpg/sg10_39_cif.got.tgz:76711.got - 2010.06.03 11:33:40.
