data_PCOD9152578
_publ_section_title
;
Structure prediction by ZEFSAII (Michael W. Deem and Ramdas Pophale) SiO2 
 PCOD9152578
Probable space group: P 2/M
;
_chemical_formula_sum "Si O2"
_cell_formula_units_Z 32
_cell_length_a 12.664461
_cell_length_b 7.547101
_cell_length_c 30.797562
_cell_angle_alpha 90.000000
_cell_angle_beta 152.819456
_cell_angle_gamma 90.000000
_cell_volume 1344.638029
_symmetry_space_group_name_H-M "P 2/M"
_symmetry_group_IT_number 10
_symmetry_cell_setting 'monoclinic'
loop_
_space_group_symop_operation_xyz
x,y,z
-x,y,-z
-x,-y,-z
x,-y,z
loop_
_atom_site_type_symbol
_atom_site_label
_atom_site_fract_x
_atom_site_fract_y
_atom_site_fract_z
Si Si1 0.511703 0.205545 0.843428
Si Si2 0.920870 0.714122 0.374130
Si Si3 0.813503 0.205498 0.877207
Si Si4 0.913837 0.205880 0.101076
Si Si5 0.419263 0.282559 0.572418
Si Si6 0.589323 0.701167 0.097450
Si Si7 0.079862 0.701797 0.252880
Si Si8 0.619350 0.285871 0.341957
O O1 0.276309 0.212572 0.729275
O O2 0.715432 0.279143 0.886685
O O3 0.461003 0.298385 0.869826
O O4 0.564998 0.000000 0.873017
O O5 0.910871 0.500000 0.366757
O O6 0.843328 0.759303 0.395041
O O7 0.183775 0.770589 0.462349
O O8 0.596285 0.216974 0.764829
O O9 0.017491 0.278169 0.921489
O O10 0.865889 0.000000 0.905323
O O11 0.047575 0.300052 0.188854
O O12 0.981307 0.000000 0.127173
O O13 0.639801 0.217631 0.007191
O O14 0.426086 0.500000 0.574828
O O15 0.667452 0.220473 0.645758
O O16 0.392087 0.226490 0.612746
O O17 0.603963 0.500000 0.086455
O O18 0.840686 0.786283 0.181727
O O19 0.083342 0.500000 0.271170
O O20 0.605144 0.500000 0.337235
#
# Coordination Sequence:
#
# PCOD9152578 Si02
#       8
#     4   4   4   4   4   4   4   4
#     4  10  21  39  58  77 109 147 184 223 268 320
#     4   9  17  30  52  82 111 141 179 221 265 317
#     4   9  19  34  53  80 112 144 174 215 270 326
#     4  11  22  37  59  85 112 140 175 220 276 332
#     4   9  16  29  52  81 111 142 177 218 268 318
#     4  11  24  40  58  79 105 142 188 231 270 316
#     4  10  21  38  58  82 112 144 180 224 269 317
#     4   9  15  26  49  79 111 143 176 215 262 317
#
# _framework density 23.798226
#
# number of rings (size 3 to 8) (size 9 to 14) (size 15 to 20)
#    0.000    2.250    1.250    1.875    0.000    5.500 
#    0.000    4.375    0.000    6.750    0.000    0.000 
#    0.000    0.000    0.000    0.000    0.000    0.000 
#
# Total GULP energy -178753.084414 kJ/mol
# GULP energy per Si atom -5586.033888 kJ/mol
# Density = 2.374406 g / cm^3
# Si number density = 23.798226 Si / 1000 Ang^3
#
#
#
# Elastic Constant Matrix: (Units=GPa)
#
#
# Indices 1 2 3 4 5 6 
#
# 1 92.6400 -1.3563 31.6398 0.0000 29.6508 0.0000
# 2 -1.3563 61.7853 -2.7222 0.0000 7.0752 0.0000
# 3 31.6398 -2.7222 105.3011 0.0000 44.2530 0.0000
# 4 0.0000 0.0000 0.0000 41.7153 0.0000 -8.2991
# 5 29.6508 7.0752 44.2530 0.0000 48.3619 0.0000
# 6 0.0000 0.0000 0.0000 -8.2991 0.0000 16.1705
#
#
#
# Elastic Compliance Matrix: (Units=1/GPa)
#
#
# Indices 1 2 3 4 5 6 
#
# 1 0.013565 0.001153 -0.000780 0.000000 -0.007772 0.000000
# 2 0.001153 0.016920 0.002321 0.000000 -0.005306 0.000000
# 3 -0.000780 0.002321 0.015814 0.000000 -0.014332 0.000000
# 4 0.000000 0.000000 0.000000 0.026698 0.000000 0.013702
# 5 -0.007772 -0.005306 -0.014332 0.000000 0.039333 0.000000
# 6 0.000000 0.000000 0.000000 0.013702 0.000000 0.068873
#
#
# Mechanical properties :
#
#
# Convention : Reuss Voigt Hill
#
# Bulk Modulus (GPa) = 19.34697 34.98321 27.16509
# Shear Modulus (GPa) = 25.90083 36.72722 31.31403
#
# Velocity S-wave (km/s) = 3.30260 3.93272 3.63135
# Velocity P-wave (km/s) = 4.76341 5.94588 5.38719
#
# Compressibility (1/GPa) = 0.05168769
#
# Stress axis : x y z
#
# Youngs Moduli (GPa) = 73.71770 59.10073 63.23603
#
# Poissons Ratio (x) = -0.06817 0.04932
# Poissons Ratio (y) = -0.08503 -0.14675
# Poissons Ratio (z) = 0.05750 -0.13716
#
# Static dielectric constant tensor:
#      x y z
#    x 1.939720 0.000000 0.043380 
#    y 0.000000 1.928150 0.000000 
#    z 0.043380 0.000000 1.903870 
# 
# From -- ./inp_files/95092.got.cif
#   From: 2010.05.17/outbox.cif.g08.bks.cpg/sg10_48_cif.got.tgz:95092.got - 2010.06.03 11:33:40.
