data_PCOD9152173
_publ_section_title
;
Structure prediction by ZEFSAII (Michael W. Deem and Ramdas Pophale) SiO2 
 PCOD9152173
Probable space group: P 2/M
;
_chemical_formula_sum "Si O2"
_cell_formula_units_Z 32
_cell_length_a 22.481606
_cell_length_b 15.327747
_cell_length_c 14.860668
_cell_angle_alpha 90.000000
_cell_angle_beta 19.462859
_cell_angle_gamma 90.000000
_cell_volume 1706.252989
_symmetry_space_group_name_H-M "P 2/M"
_symmetry_group_IT_number 10
_symmetry_cell_setting 'monoclinic'
loop_
_space_group_symop_operation_xyz
x,y,z
-x,y,-z
-x,-y,-z
x,-y,z
loop_
_atom_site_type_symbol
_atom_site_label
_atom_site_fract_x
_atom_site_fract_y
_atom_site_fract_z
Si Si1 0.671914 0.710074 0.307582
Si Si2 0.024326 0.398818 0.211650
Si Si3 0.319071 0.718023 0.312543
Si Si4 0.431821 0.092231 0.358994
Si Si5 0.825977 0.601134 0.801116
Si Si6 0.771858 0.096473 0.162625
Si Si7 0.515206 0.279504 0.727866
Si Si8 0.808923 0.095218 0.476275
O O1 0.500000 0.673721 0.500000
O O2 0.699191 0.810034 0.232849
O O3 0.627511 0.706800 0.476554
O O4 0.848651 0.655461 0.035761
O O5 0.003968 0.500000 0.214642
O O6 0.834995 0.350821 0.489200
O O7 0.124016 0.395810 0.165390
O O8 0.366978 0.712712 0.350323
O O9 0.248983 0.816386 0.391416
O O10 0.500000 0.701919 0.000000
O O11 0.298186 0.095719 0.634757
O O12 0.548303 0.178878 0.189963
O O13 0.311652 0.093134 0.441235
O O14 0.530732 0.000000 0.223060
O O15 0.796766 0.500000 0.816582
O O16 0.000000 0.633582 0.500000
O O17 0.651252 0.656549 0.031037
O O18 0.717777 0.000000 0.201598
O O19 0.984857 0.101373 0.847969
O O20 0.784463 0.000000 0.557056
#
# Coordination Sequence:
#
# PCOD9152173 Si02
#       8
#     4   4   4   4   4   4   4   4
#     4  11  21  37  59  85 119 150 190 237 290 354
#     4  11  24  41  61  85 117 153 189 239 298 346
#     4  11  23  39  59  86 119 153 194 241 287 337
#     4   8  15  27  48  80 113 147 184 225 277 336
#     4  10  21  39  62  84 108 148 200 241 279 338
#     4   9  16  28  50  79 112 149 187 230 280 337
#     4  10  21  36  60  87 113 151 190 236 287 343
#     4   9  16  29  51  79 112 150 191 230 276 337
#
# _framework density 18.754546000000001
#
# number of rings (size 3 to 8) (size 9 to 14) (size 15 to 20)
#    0.000    2.125    2.500    1.125    0.000    4.000 
#    0.000    0.625    0.000    1.125    0.000    0.000 
#    0.000    0.000    0.000    0.000    0.000    0.000 
#
# Total GULP energy -178354.361997 kJ/mol
# GULP energy per Si atom -5573.573812 kJ/mol
# Density = 1.871186 g / cm^3
# Si number density = 18.754546 Si / 1000 Ang^3
#
#
#
# Elastic Constant Matrix: (Units=GPa)
#
#
# Indices 1 2 3 4 5 6 
#
# 1 15.2967 -6.9092 -17.0661 0.0000 3.2488 0.0000
# 2 -6.9092 117.3571 54.4142 0.0000 -9.3553 0.0000
# 3 -17.0661 54.4142 64.5996 0.0000 -0.4675 0.0000
# 4 0.0000 0.0000 0.0000 112.9589 0.0000 -10.4133
# 5 3.2488 -9.3553 -0.4675 0.0000 16.8682 0.0000
# 6 0.0000 0.0000 0.0000 -10.4133 0.0000 15.7775
#
#
#
# Elastic Compliance Matrix: (Units=1/GPa)
#
#
# Indices 1 2 3 4 5 6 
#
# 1 0.111592 -0.015256 0.042123 0.000000 -0.028786 0.000000
# 2 -0.015256 0.017065 -0.018318 0.000000 0.011895 0.000000
# 3 0.042123 -0.018318 0.041914 0.000000 -0.017111 0.000000
# 4 0.000000 0.000000 0.000000 0.009426 0.000000 0.006221
# 5 -0.028786 0.011895 -0.017111 0.000000 0.070950 0.000000
# 6 0.000000 0.000000 0.000000 0.006221 0.000000 0.067488
#
#
# Mechanical properties :
#
#
# Convention : Reuss Voigt Hill
#
# Bulk Modulus (GPa) = 5.32854 28.68124 17.00489
# Shear Modulus (GPa) = 13.74028 40.24189 26.99108
#
# Velocity S-wave (km/s) = 2.70966 4.63721 3.79776
# Velocity P-wave (km/s) = 3.55487 6.63308 5.32141
#
# Compressibility (1/GPa) = 0.18766872
#
# Stress axis : x y z
#
# Youngs Moduli (GPa) = 8.96120 58.60104 23.85823
#
# Poissons Ratio (x) = 0.89400 -1.00498
# Poissons Ratio (y) = 0.13671 0.43704
# Poissons Ratio (z) = -0.37747 1.07347
#
# Static dielectric constant tensor:
#      x y z
#    x 1.643970 0.000000 0.010660 
#    y 0.000000 1.708710 0.000000 
#    z 0.010660 0.000000 1.602760 
# 
# From -- ./inp_files/70736.got.cif
#   From: 2010.05.17/outbox.cif.g08.bks.cpg/sg10_36_cif.got.tgz:70736.got - 2010.06.03 11:33:40.
