data_PCOD9152285
_publ_section_title
;
Structure prediction by ZEFSAII (Michael W. Deem and Ramdas Pophale) SiO2 
 PCOD9152285
Probable space group: P 2/M
;
_chemical_formula_sum "Si O2"
_cell_formula_units_Z 26
_cell_length_a 5.278489
_cell_length_b 18.948500
_cell_length_c 11.208061
_cell_angle_alpha 90.000000
_cell_angle_beta 109.272867
_cell_angle_gamma 90.000000
_cell_volume 1058.198939
_symmetry_space_group_name_H-M "P 2/M"
_symmetry_group_IT_number 10
_symmetry_cell_setting 'monoclinic'
loop_
_space_group_symop_operation_xyz
x,y,z
-x,y,-z
-x,-y,-z
x,-y,z
loop_
_atom_site_type_symbol
_atom_site_label
_atom_site_fract_x
_atom_site_fract_y
_atom_site_fract_z
Si Si1 0.960741 0.364654 0.362657
Si Si2 0.799817 0.415019 0.074527
Si Si3 0.828746 0.078124 0.355388
Si Si4 0.500000 0.190609 0.000000
Si Si5 0.459206 0.727492 0.367437
Si Si6 0.982466 0.811797 0.200889
Si Si7 0.307376 0.078229 0.158567
O O1 0.873001 0.400113 0.224642
O O2 0.731059 0.304781 0.354540
O O3 0.000000 0.400998 0.500000
O O4 0.254026 0.334202 0.376918
O O5 0.798227 0.500000 0.063756
O O6 0.500000 0.389068 0.000000
O O7 0.000000 0.389116 0.000000
O O8 0.899913 0.155597 0.314129
O O9 0.000000 0.074576 0.500000
O O10 0.503786 0.077430 0.304893
O O11 0.888154 0.000000 0.303686
O O12 0.437022 0.135890 0.094501
O O13 0.760606 0.229921 0.091034
O O14 0.500000 0.767600 0.500000
O O15 0.263036 0.771606 0.251652
O O16 0.024743 0.887206 0.142701
O O17 0.295518 0.000000 0.108236
#
# Coordination Sequence:
#
# PCOD9152285 Si02
#       7
#     4   4   4   2   4   4   4
#     4  10  22  44  68 100 139 187 239 285 332 398
#     4  10  21  40  70 109 150 190 231 279 340 399
#     4   9  20  35  54  83 114 144 191 258 333 410
#     4  10  23  40  54  80 110 146 199 260 324 402
#     4  10  24  41  66  93 129 174 227 281 336 393
#     4  11  23  37  60  82 113 155 205 262 328 398
#     4  10  21  37  57  79 108 146 192 255 329 400
#
# _framework density 24.570048
#
# number of rings (size 3 to 8) (size 9 to 14) (size 15 to 20)
#    0.000    2.000    0.000    2.077    6.462    3.385 
#    1.385    3.846    0.000    5.538    0.000    0.000 
#    0.000    0.000    0.000    0.000    0.000    0.000 
#
# Total GULP energy -144856.216217 kJ/mol
# GULP energy per Si atom -5571.392931 kJ/mol
# Density = 2.451413 g / cm^3
# Si number density = 24.570048 Si / 1000 Ang^3
#
#
#
# Elastic Constant Matrix: (Units=GPa)
#
#
# Indices 1 2 3 4 5 6 
#
# 1 112.9802 25.6468 50.1409 0.0000 15.1623 0.0000
# 2 25.6468 34.2140 21.9690 0.0000 -3.8121 0.0000
# 3 50.1409 21.9690 176.6599 0.0000 21.5704 0.0000
# 4 0.0000 0.0000 0.0000 21.4969 0.0000 -0.7750
# 5 15.1623 -3.8121 21.5704 0.0000 43.3400 0.0000
# 6 0.0000 0.0000 0.0000 -0.7750 0.0000 16.2425
#
#
#
# Elastic Compliance Matrix: (Units=1/GPa)
#
#
# Indices 1 2 3 4 5 6 
#
# 1 0.012127 -0.008307 -0.001918 0.000000 -0.004019 0.000000
# 2 -0.008307 0.038535 -0.003410 0.000000 0.007993 0.000000
# 3 -0.001918 -0.003410 0.007010 0.000000 -0.003118 0.000000
# 4 0.000000 0.000000 0.000000 0.046599 0.000000 0.002223
# 5 -0.004019 0.007993 -0.003118 0.000000 0.026734 0.000000
# 6 0.000000 0.000000 0.000000 0.002223 0.000000 0.061673
#
#
# Mechanical properties :
#
#
# Convention : Reuss Voigt Hill
#
# Bulk Modulus (GPa) = 32.89342 57.70748 45.30045
# Shear Modulus (GPa) = 21.73138 31.28904 26.51021
#
# Velocity S-wave (km/s) = 2.97722 3.57243 3.28832
# Velocity P-wave (km/s) = 5.02346 6.36822 5.73539
#
# Compressibility (1/GPa) = 0.03040121
#
# Stress axis : x y z
#
# Youngs Moduli (GPa) = 82.45766 25.95061 142.65587
#
# Poissons Ratio (x) = 0.21556 0.27368
# Poissons Ratio (y) = 0.68494 0.48651
# Poissons Ratio (z) = 0.15819 0.08850
#
# Static dielectric constant tensor:
#      x y z
#    x 2.159290 0.000000 -0.124290 
#    y 0.000000 1.977510 0.000000 
#    z -0.124290 0.000000 2.156770 
# 
# From -- ./inp_files/39797.got.cif
#   From: 2010.05.17/outbox.cif.g08.bks.cpg/sg10_20_cif.got.tgz:39797.got - 2010.06.03 11:33:40.
