data_PCOD9152508
_publ_section_title
;
Structure prediction by ZEFSAII (Michael W. Deem and Ramdas Pophale) SiO2 
 PCOD9152508
Probable space group: P 2/M
;
_chemical_formula_sum "Si O2"
_cell_formula_units_Z 24
_cell_length_a 15.278710
_cell_length_b 14.595496
_cell_length_c 8.944763
_cell_angle_alpha 90.000000
_cell_angle_beta 144.071080
_cell_angle_gamma 90.000000
_cell_volume 1170.443726
_symmetry_space_group_name_H-M "P 2/M"
_symmetry_group_IT_number 10
_symmetry_cell_setting 'monoclinic'
loop_
_space_group_symop_operation_xyz
x,y,z
-x,y,-z
-x,-y,-z
x,-y,z
loop_
_atom_site_type_symbol
_atom_site_label
_atom_site_fract_x
_atom_site_fract_y
_atom_site_fract_z
Si Si1 0.035740 0.396538 0.224001
Si Si2 0.632421 0.778929 0.580707
Si Si3 0.700061 0.395552 0.858020
Si Si4 0.116063 0.230695 0.526491
Si Si5 0.077570 0.897084 0.946935
Si Si6 0.571091 0.723455 0.947107
O O1 0.098856 0.500000 0.317267
O O2 0.128853 0.317384 0.431505
O O3 0.000000 0.376423 0.000000
O O4 0.879393 0.396227 0.097127
O O5 0.500000 0.816952 0.500000
O O6 0.655487 0.673337 0.663387
O O7 0.780560 0.832364 0.828245
O O8 0.563267 0.777468 0.320720
O O9 0.652469 0.500000 0.773080
O O10 0.635301 0.351575 0.919641
O O11 0.282530 0.214935 0.817514
O O12 0.000000 0.251834 0.500000
O O13 0.037338 0.149591 0.326291
O O14 0.119090 0.000000 0.956484
O O15 0.000000 0.902248 0.000000
O O16 0.500000 0.685280 0.000000
#
# Coordination Sequence:
#
# PCOD9152508 Si02
#       6
#     4   4   4   4   4   4
#     4  10  21  37  63  92 120 166 220 263 302 356
#     4  10  21  42  64  88 123 166 207 251 304 370
#     4  10  21  40  62  88 124 170 218 256 296 359
#     4  12  22  41  65  93 128 162 205 264 314 369
#     4  11  24  43  69  94 117 156 211 259 305 376
#     4  11  24  37  59  92 131 169 201 251 320 368
#
# _framework density 20.505044000000002
#
# number of rings (size 3 to 8) (size 9 to 14) (size 15 to 20)
#    0.000    1.333    3.333    2.500    2.333    5.000 
#    0.000    0.833    0.000    3.000    0.000    0.000 
#    0.000    0.000    0.000    0.000    0.000    0.000 
#
# Total GULP energy -133989.172628 kJ/mol
# GULP energy per Si atom -5582.882193 kJ/mol
# Density = 2.045837 g / cm^3
# Si number density = 20.505044 Si / 1000 Ang^3
#
#
#
# Elastic Constant Matrix: (Units=GPa)
#
#
# Indices 1 2 3 4 5 6 
#
# 1 81.2805 19.7910 20.8340 0.0000 -6.6364 0.0000
# 2 19.7910 113.8852 73.7480 0.0000 -6.5678 0.0000
# 3 20.8340 73.7480 138.2941 0.0000 3.7458 0.0000
# 4 0.0000 0.0000 0.0000 39.2102 0.0000 -34.0398
# 5 -6.6364 -6.5678 3.7458 0.0000 37.2986 0.0000
# 6 0.0000 0.0000 0.0000 -34.0398 0.0000 33.0223
#
#
#
# Elastic Compliance Matrix: (Units=1/GPa)
#
#
# Indices 1 2 3 4 5 6 
#
# 1 0.013146 -0.001272 -0.001363 0.000000 0.002252 0.000000
# 2 -0.001272 0.013900 -0.007301 0.000000 0.002954 0.000000
# 3 -0.001363 -0.007301 0.011402 0.000000 -0.002673 0.000000
# 4 0.000000 0.000000 0.000000 0.242626 0.000000 0.250101
# 5 0.002252 0.002954 -0.002673 0.000000 0.028000 0.000000
# 6 0.000000 0.000000 0.000000 0.250101 0.000000 0.288090
#
#
# Mechanical properties :
#
#
# Convention : Reuss Voigt Hill
#
# Bulk Modulus (GPa) = 53.83225 62.46728 58.14976
# Shear Modulus (GPa) = 8.02275 36.51200 22.26738
#
# Velocity S-wave (km/s) = 1.98017 4.22434 3.29895
# Velocity P-wave (km/s) = 5.61589 7.37047 6.55218
#
# Compressibility (1/GPa) = 0.01857623
#
# Stress axis : x y z
#
# Youngs Moduli (GPa) = 76.06846 71.94275 87.70366
#
# Poissons Ratio (x) = 0.09150 0.11956
# Poissons Ratio (y) = 0.09675 0.64031
# Poissons Ratio (z) = 0.10369 0.52524
#
# Static dielectric constant tensor:
#      x y z
#    x 1.752060 0.000000 0.014510 
#    y 0.000000 1.728460 0.000000 
#    z 0.014510 0.000000 1.926490 
# 
# From -- ./inp_files/29668.got.cif
#   From: 2010.05.17/outbox.cif.g08.bks.cpg/sg10_15_cif.got.tgz:29668.got - 2010.06.03 11:33:40.
