data_PCOD9152479
_publ_section_title
;
Structure prediction by ZEFSAII (Michael W. Deem and Ramdas Pophale) SiO2 
 PCOD9152479
Probable space group: P 2/M
;
_chemical_formula_sum "Si O2"
_cell_formula_units_Z 32
_cell_length_a 11.685869
_cell_length_b 14.106097
_cell_length_c 17.710481
_cell_angle_alpha 90.000000
_cell_angle_beta 29.438657
_cell_angle_gamma 90.000000
_cell_volume 1434.875422
_symmetry_space_group_name_H-M "P 2/M"
_symmetry_group_IT_number 10
_symmetry_cell_setting 'monoclinic'
loop_
_space_group_symop_operation_xyz
x,y,z
-x,y,-z
-x,-y,-z
x,-y,z
loop_
_atom_site_type_symbol
_atom_site_label
_atom_site_fract_x
_atom_site_fract_y
_atom_site_fract_z
Si Si1 0.469952 0.293899 0.909888
Si Si2 0.295619 0.321728 0.506825
Si Si3 0.814516 0.603506 0.802699
Si Si4 0.198290 0.895593 0.820918
Si Si5 0.783553 0.700638 0.278021
Si Si6 0.159975 0.391110 0.980192
Si Si7 0.746829 0.895980 0.739262
Si Si8 0.273831 0.858363 0.427227
O O1 0.671833 0.370263 0.809600
O O2 0.357082 0.316872 0.893135
O O3 0.583073 0.191292 0.856284
O O4 0.281086 0.317624 0.083709
O O5 0.256030 0.273587 0.612082
O O6 0.562202 0.348342 0.364358
O O7 0.272747 0.251904 0.450008
O O8 0.084663 0.393273 0.627930
O O9 0.752653 0.500000 0.867626
O O10 0.163799 0.800651 0.792085
O O11 0.471109 0.892217 0.690559
O O12 0.166846 0.000000 0.802170
O O13 0.000000 0.891248 0.000000
O O14 0.979008 0.621949 0.152941
O O15 0.238710 0.500000 0.927649
O O16 0.000000 0.365851 0.000000
O O17 0.741525 0.885542 0.651228
O O18 0.020295 0.889864 0.605857
O O19 0.657925 0.000000 0.811652
#
# Coordination Sequence:
#
# PCOD9152479 Si02
#       8
#     4   4   4   4   4   4   4   4
#     4  11  23  40  68  95 128 165 217 267 321 380
#     4  10  21  39  62  90 124 168 211 266 315 379
#     4  11  22  42  70  96 125 169 217 268 328 387
#     4  10  21  37  61  91 122 163 213 260 313 381
#     4  10  22  38  61  88 129 166 211 263 321 376
#     4  11  24  41  63  94 130 170 211 262 329 396
#     4  11  23  40  66  93 125 170 215 260 320 391
#     4  10  21  41  62  88 127 166 214 262 317 378
#
# _framework density 22.301589
#
# number of rings (size 3 to 8) (size 9 to 14) (size 15 to 20)
#    0.000    1.500    2.500    3.375    5.250    0.500 
#    0.000    8.750    0.000    1.125    0.000    0.000 
#    0.000    0.000    0.000    0.000    0.000    0.000 
#
# Total GULP energy -178209.497679 kJ/mol
# GULP energy per Si atom -5569.046802 kJ/mol
# Density = 2.225083 g / cm^3
# Si number density = 22.301589 Si / 1000 Ang^3
#
#
#
# Elastic Constant Matrix: (Units=GPa)
#
#
# Indices 1 2 3 4 5 6 
#
# 1 79.4323 27.4558 12.2032 0.0000 -18.5736 0.0000
# 2 27.4558 119.6387 49.6349 0.0000 -15.3479 0.0000
# 3 12.2032 49.6349 77.5240 0.0000 -23.2167 0.0000
# 4 0.0000 0.0000 0.0000 10.9644 0.0000 -1.0669
# 5 -18.5736 -15.3479 -23.2167 0.0000 28.4230 0.0000
# 6 0.0000 0.0000 0.0000 -1.0669 0.0000 7.5873
#
#
#
# Elastic Compliance Matrix: (Units=1/GPa)
#
#
# Indices 1 2 3 4 5 6 
#
# 1 0.015898 -0.003494 0.003019 0.000000 0.010968 0.000000
# 2 -0.003494 0.012151 -0.007875 0.000000 -0.002154 0.000000
# 3 0.003019 -0.007875 0.022218 0.000000 0.015869 0.000000
# 4 0.000000 0.000000 0.000000 0.092469 0.000000 0.013003
# 5 0.010968 -0.002154 0.015869 0.000000 0.054150 0.000000
# 6 0.000000 0.000000 0.000000 0.013003 0.000000 0.133627
#
#
# Mechanical properties :
#
#
# Convention : Reuss Voigt Hill
#
# Bulk Modulus (GPa) = 29.79011 50.57586 40.18298
# Shear Modulus (GPa) = 13.95082 21.88167 17.91625
#
# Velocity S-wave (km/s) = 2.50382 3.13576 2.83744
# Velocity P-wave (km/s) = 4.66322 5.98649 5.36580
#
# Compressibility (1/GPa) = 0.03356819
#
# Stress axis : x y z
#
# Youngs Moduli (GPa) = 62.90143 82.29743 45.00772
#
# Poissons Ratio (x) = 0.28754 -0.13589
# Poissons Ratio (y) = 0.21977 0.35443
# Poissons Ratio (z) = -0.18992 0.64808
#
# Static dielectric constant tensor:
#      x y z
#    x 1.933830 0.000000 -0.036040 
#    y 0.000000 1.802230 0.000000 
#    z -0.036040 0.000000 1.891500 
# 
# From -- ./inp_files/76993.got.cif
#   From: 2010.05.17/outbox.cif.g08.bks.cpg/sg10_39_cif.got.tgz:76993.got - 2010.06.03 11:33:40.
