data_PCOD9152564
_publ_section_title
;
Structure prediction by ZEFSAII (Michael W. Deem and Ramdas Pophale) SiO2 
 PCOD9152564
Probable space group: P 2/M
;
_chemical_formula_sum "Si O2"
_cell_formula_units_Z 30
_cell_length_a 12.698525
_cell_length_b 29.996582
_cell_length_c 14.618559
_cell_angle_alpha 90.000000
_cell_angle_beta 20.465426
_cell_angle_gamma 90.000000
_cell_volume 1946.943444
_symmetry_space_group_name_H-M "P 2/M"
_symmetry_group_IT_number 10
_symmetry_cell_setting 'monoclinic'
loop_
_space_group_symop_operation_xyz
x,y,z
-x,y,-z
-x,-y,-z
x,-y,z
loop_
_atom_site_type_symbol
_atom_site_label
_atom_site_fract_x
_atom_site_fract_y
_atom_site_fract_z
Si Si1 0.671747 0.257972 0.457616
Si Si2 0.314507 0.051203 0.554716
Si Si3 0.864559 0.500000 0.210424
Si Si4 0.184064 0.895351 0.946523
Si Si5 0.346753 0.447510 0.223784
Si Si6 0.178574 0.207022 0.952463
Si Si7 0.812718 0.410130 0.986932
Si Si8 0.410866 0.638829 0.465291
O O1 0.500000 0.254831 0.500000
O O2 0.506566 0.225366 0.661982
O O3 0.615665 0.308657 0.533794
O O4 0.002412 0.239982 0.164113
O O5 0.500000 0.050789 0.500000
O O6 0.498221 0.082767 0.336944
O O7 0.295783 0.000000 0.539262
O O8 0.997321 0.073051 0.837532
O O9 0.500000 0.500000 0.500000
O O10 0.000000 0.500000 0.000000
O O11 0.004563 0.455805 0.141534
O O12 0.188669 0.844236 0.974679
O O13 0.000000 0.895002 0.000000
O O14 0.346713 0.500000 0.250531
O O15 0.543538 0.421227 0.136946
O O16 0.000000 0.433004 0.500000
O O17 0.500000 0.444008 0.000000
O O18 0.000000 0.207717 0.000000
O O19 0.655615 0.386896 0.203307
O O20 0.073310 0.379859 0.731573
O O21 0.500000 0.633468 0.500000
#
# Coordination Sequence:
#
# PCOD9152564 Si02
#       8
#     4   4   2   4   4   4   4   4
#     4   9  17  28  40  56  75 104 131 162 198 239
#     4   9  15  21  27  37  56  79 105 140 192 252
#     4  12  24  36  50  72 100 126 150 174 203 246
#     4   9  15  21  30  43  56  78 110 151 193 237
#     4  10  21  38  58  76  94 116 149 188 222 252
#     4   9  15  24  37  50  67  88 125 165 199 235
#     4  12  22  37  53  74  95 124 150 180 215 257
#     4  11  22  34  50  69  98 125 150 173 210 266
#
# _framework density 15.408768
#
# number of rings (size 3 to 8) (size 9 to 14) (size 15 to 20)
#    0.000    2.000    0.667    5.200    0.000    6.933 
#    0.000    0.000    0.000    0.000    0.000    0.000 
#    0.000    0.000    0.000    0.000    0.000    0.000 
#
# Total GULP energy -167194.915583 kJ/mol
# GULP energy per Si atom -5573.163853 kJ/mol
# Density = 1.537370 g / cm^3
# Si number density = 15.408768 Si / 1000 Ang^3
#
#
#
# Elastic Constant Matrix: (Units=GPa)
#
#
# Indices 1 2 3 4 5 6 
#
# 1 20.1166 12.6874 14.4410 0.0000 -5.1598 0.0000
# 2 12.6874 87.8583 31.4383 0.0000 5.0047 0.0000
# 3 14.4410 31.4383 107.6879 0.0000 9.9043 0.0000
# 4 0.0000 0.0000 0.0000 25.5657 0.0000 4.3551
# 5 -5.1598 5.0047 9.9043 0.0000 19.5276 0.0000
# 6 0.0000 0.0000 0.0000 4.3551 0.0000 0.8884
#
#
#
# Elastic Compliance Matrix: (Units=1/GPa)
#
#
# Indices 1 2 3 4 5 6 
#
# 1 0.067394 -0.007911 -0.008971 0.000000 0.024385 0.000000
# 2 -0.007911 0.013677 -0.002536 0.000000 -0.004310 0.000000
# 3 -0.008971 -0.002536 0.011945 0.000000 -0.007779 0.000000
# 4 0.000000 0.000000 0.000000 0.237261 0.000000 -1.163160
# 5 0.024385 -0.004310 -0.007779 0.000000 0.062703 0.000000
# 6 0.000000 0.000000 0.000000 -1.163160 0.000000 6.828012
#
#
# Mechanical properties :
#
#
# Convention : Reuss Voigt Hill
#
# Bulk Modulus (GPa) = 18.45669 36.97735 27.71702
# Shear Modulus (GPa) = 0.68701 19.66941 10.17821
#
# Velocity S-wave (km/s) = 0.66845 3.57670 2.57290
# Velocity P-wave (km/s) = 3.54962 6.41145 5.18202
#
# Compressibility (1/GPa) = 0.05418090
#
# Stress axis : x y z
#
# Youngs Moduli (GPa) = 14.83807 73.11415 83.71873
#
# Poissons Ratio (x) = 0.57843 0.75101
# Poissons Ratio (y) = 0.11739 0.21228
# Poissons Ratio (z) = 0.13311 0.18539
#
# Static dielectric constant tensor:
#      x y z
#    x 1.482910 0.000000 0.013400 
#    y 0.000000 1.661930 0.000000 
#    z 0.013400 0.000000 1.517930 
# 
# From -- ./inp_files/65545.got.cif
#   From: 2010.05.17/outbox.cif.g08.bks.cpg/sg10_33_cif.got.tgz:65545.got - 2010.06.03 11:33:40.
