data_PCOD9152259
_publ_section_title
;
Structure prediction by ZEFSAII (Michael W. Deem and Ramdas Pophale) SiO2 
 PCOD9152259
Probable space group: P 2/M
;
_chemical_formula_sum "Si O2"
_cell_formula_units_Z 32
_cell_length_a 28.134465
_cell_length_b 9.050717
_cell_length_c 10.922622
_cell_angle_alpha 90.000000
_cell_angle_beta 144.403513
_cell_angle_gamma 90.000000
_cell_volume 1618.922620
_symmetry_space_group_name_H-M "P 2/M"
_symmetry_group_IT_number 10
_symmetry_cell_setting 'monoclinic'
loop_
_space_group_symop_operation_xyz
x,y,z
-x,y,-z
-x,-y,-z
x,-y,z
loop_
_atom_site_type_symbol
_atom_site_label
_atom_site_fract_x
_atom_site_fract_y
_atom_site_fract_z
Si Si1 0.676398 0.324276 0.437815
Si Si2 0.531006 0.174666 0.257307
Si Si3 0.218010 0.327900 0.100901
Si Si4 0.618315 0.323491 0.949152
Si Si5 0.046069 0.822161 0.719813
Si Si6 0.387257 0.673327 0.340313
Si Si7 0.778423 0.676301 0.406571
Si Si8 0.955206 0.821476 0.779728
O O1 0.659204 0.500000 0.406795
O O2 0.591689 0.240168 0.282394
O O3 0.727120 0.292990 0.422469
O O4 0.736514 0.288751 0.677075
O O5 0.441564 0.245255 0.081110
O O6 0.572905 0.225368 0.473330
O O7 0.526282 0.000000 0.236729
O O8 0.194034 0.500000 0.057801
O O9 0.138740 0.232454 0.912066
O O10 0.289502 0.314235 0.150654
O O11 0.612886 0.500000 0.956856
O O12 0.590935 0.292006 0.753185
O O13 0.712885 0.282229 0.165187
O O14 0.000000 0.770841 0.500000
O O15 0.003253 0.773607 0.757348
O O16 0.044513 0.000000 0.716402
O O17 0.408096 0.500000 0.409676
O O18 0.793793 0.500000 0.432957
O O19 0.863654 0.759608 0.583267
O O20 0.952698 0.000000 0.774941
O O21 0.000000 0.774762 0.000000
#
# Coordination Sequence:
#
# PCOD9152259 Si02
#       8
#     4   4   4   4   4   4   4   4
#     4   9  19  38  59  81 111 144 183 231 282 334
#     4  11  22  35  55  84 112 146 193 234 273 330
#     4   9  18  33  56  82 106 139 182 229 277 326
#     4  10  21  37  56  80 114 151 184 228 288 341
#     4  10  22  37  53  79 115 151 185 227 285 346
#     4   9  19  36  57  80 112 150 186 229 284 339
#     4  10  22  38  61  88 110 142 190 237 281 335
#     4  10  22  40  60  82 114 156 194 232 287 350
#
# _framework density 19.766233
#
# number of rings (size 3 to 8) (size 9 to 14) (size 15 to 20)
#    0.000    2.250    0.000    3.000    1.750    6.500 
#    0.000    2.500    0.000    0.000    0.000    0.000 
#    0.000    0.000    0.000    0.000    0.000    0.000 
#
# Total GULP energy -178695.061941 kJ/mol
# GULP energy per Si atom -5584.220686 kJ/mol
# Density = 1.972124 g / cm^3
# Si number density = 19.766233 Si / 1000 Ang^3
#
#
#
# Elastic Constant Matrix: (Units=GPa)
#
#
# Indices 1 2 3 4 5 6 
#
# 1 62.6142 15.1822 40.2795 0.0000 -4.4881 0.0000
# 2 15.1822 16.5645 24.7271 0.0000 2.9846 0.0000
# 3 40.2795 24.7271 92.1085 0.0000 13.9519 0.0000
# 4 0.0000 0.0000 0.0000 42.0350 0.0000 17.1210
# 5 -4.4881 2.9846 13.9519 0.0000 32.1069 0.0000
# 6 0.0000 0.0000 0.0000 17.1210 0.0000 16.1410
#
#
#
# Elastic Compliance Matrix: (Units=1/GPa)
#
#
# Indices 1 2 3 4 5 6 
#
# 1 0.025275 -0.010461 -0.009556 0.000000 0.008658 0.000000
# 2 -0.010461 0.105267 -0.023530 0.000000 -0.001023 0.000000
# 3 -0.009556 -0.023530 0.022719 0.000000 -0.009021 0.000000
# 4 0.000000 0.000000 0.000000 0.041886 0.000000 -0.044428
# 5 0.008658 -0.001023 -0.009021 0.000000 0.036371 0.000000
# 6 0.000000 0.000000 0.000000 -0.044428 0.000000 0.109080
#
#
# Mechanical properties :
#
#
# Convention : Reuss Voigt Hill
#
# Bulk Modulus (GPa) = 15.11322 36.85165 25.98243
# Shear Modulus (GPa) = 11.11733 24.12982 17.62357
#
# Velocity S-wave (km/s) = 2.37416 3.49773 2.98921
# Velocity P-wave (km/s) = 3.89590 5.91577 5.00871
#
# Compressibility (1/GPa) = 0.06616723
#
# Stress axis : x y z
#
# Youngs Moduli (GPa) = 39.56413 9.49963 44.01592
#
# Poissons Ratio (x) = 0.09937 0.42063
# Poissons Ratio (y) = 0.41387 1.03570
# Poissons Ratio (z) = 0.37809 0.22353
#
# Static dielectric constant tensor:
#      x y z
#    x 1.703980 0.000000 -0.031670 
#    y 0.000000 1.657520 0.000000 
#    z -0.031670 0.000000 1.704750 
# 
# From -- ./inp_files/49875.got.cif
#   From: 2010.05.17/outbox.cif.g08.bks.cpg/sg10_25_cif.got.tgz:49875.got - 2010.06.03 11:33:40.
