data_PCOD9152619
_publ_section_title
;
Structure prediction by ZEFSAII (Michael W. Deem and Ramdas Pophale) SiO2 
 PCOD9152619
Probable space group: P 2/M
;
_chemical_formula_sum "Si O2"
_cell_formula_units_Z 14
_cell_length_a 5.460851
_cell_length_b 20.023732
_cell_length_c 5.350638
_cell_angle_alpha 90.000000
_cell_angle_beta 98.044995
_cell_angle_gamma 90.000000
_cell_volume 579.316138
_symmetry_space_group_name_H-M "P 2/M"
_symmetry_group_IT_number 10
_symmetry_cell_setting 'monoclinic'
loop_
_space_group_symop_operation_xyz
x,y,z
-x,y,-z
-x,-y,-z
x,-y,z
loop_
_atom_site_type_symbol
_atom_site_label
_atom_site_fract_x
_atom_site_fract_y
_atom_site_fract_z
Si Si1 0.335055 0.643008 0.224411
Si Si2 0.669855 0.500000 0.772577
Si Si3 0.665240 0.071415 0.775386
Si Si4 0.223580 0.214224 0.340292
O O1 0.500000 0.643836 0.500000
O O2 0.194015 0.571719 0.217531
O O3 0.206163 0.714787 0.200201
O O4 0.500000 0.640755 0.000000
O O5 0.500000 0.500000 0.500000
O O6 0.500000 0.500000 0.000000
O O7 0.500000 0.072092 0.500000
O O8 0.795381 0.143018 0.798323
O O9 0.805520 0.000000 0.781269
O O10 0.500000 0.069749 0.000000
O O11 0.500000 0.214103 0.500000
O O12 0.000000 0.214599 0.500000
#
# Coordination Sequence:
#
# PCOD9152619 Si02
#       4
#     4   2   4   4
#     4   9  17  32  53  80 111 146 187 232 282 336
#     4   8  14  26  49  76 106 142 182 228 278 332
#     4   9  18  35  58  84 114 149 189 234 284 338
#     4  10  21  38  59  85 116 152 192 236 286 340
#
# _framework density 24.166425
#
# number of rings (size 3 to 8) (size 9 to 14) (size 15 to 20)
#    0.000    2.857    0.000    0.857    0.000    0.571 
#    0.000   23.571    0.000   15.429    0.000   30.000 
#    0.000    0.000    0.000    0.000    0.000    0.000 
#
# Total GULP energy -78027.779997 kJ/mol
# GULP energy per Si atom -5573.412857 kJ/mol
# Density = 2.411142 g / cm^3
# Si number density = 24.166425 Si / 1000 Ang^3
#
#
#
# Elastic Constant Matrix: (Units=GPa)
#
#
# Indices 1 2 3 4 5 6 
#
# 1 104.0303 30.5558 46.5399 0.0000 26.8678 0.0000
# 2 30.5558 392.3572 29.6456 0.0000 -18.5885 0.0000
# 3 46.5399 29.6456 162.2846 0.0000 15.3368 0.0000
# 4 0.0000 0.0000 0.0000 38.3485 0.0000 -28.9572
# 5 26.8678 -18.5885 15.3368 0.0000 54.2618 0.0000
# 6 0.0000 0.0000 0.0000 -28.9572 0.0000 -48.4912
#
#
#
# Elastic Compliance Matrix: (Units=1/GPa)
#
#
# Indices 1 2 3 4 5 6 
#
# 1 0.012729 -0.001048 -0.002907 0.000000 -0.005840 0.000000
# 2 -0.001048 0.002730 -0.000345 0.000000 0.001552 0.000000
# 3 -0.002907 -0.000345 0.007124 0.000000 -0.000692 0.000000
# 4 0.000000 0.000000 0.000000 0.017972 0.000000 -0.010733
# 5 -0.005840 0.001552 -0.000692 0.000000 0.022048 0.000000
# 6 0.000000 0.000000 0.000000 -0.010733 0.000000 -0.014213
#
#
# Mechanical properties :
#
#
# Convention : Reuss Voigt Hill
#
# Bulk Modulus (GPa) = 71.51455 96.90608 84.21031
# Shear Modulus (GPa) = 81.09989 45.61921 63.35955
#
# Velocity S-wave (km/s) = 5.79929 4.34949 5.12591
# Velocity P-wave (km/s) = 8.63129 8.08768 8.36390
#
# Compressibility (1/GPa) = 0.01398317
#
# Stress axis : x y z
#
# Youngs Moduli (GPa) = 78.55785 366.31355 140.36879
#
# Poissons Ratio (x) = 0.38404 0.40806
# Poissons Ratio (y) = 0.08236 0.04838
# Poissons Ratio (z) = 0.22837 0.12626
#
# Static dielectric constant tensor:
#      x y z
#    x 1.852640 0.000000 0.046910 
#    y 0.000000 2.082890 0.000000 
#    z 0.046910 0.000000 1.864300 
# 
# From -- ./inp_files/959.got.cif
#   From: 2010.05.17/outbox.cif.g08.bks.cpg/sg10_1_cif.got.tgz:959.got - 2010.06.03 11:33:40.
