data_PCOD9152858
_publ_section_title
;
Structure prediction by ZEFSAII (Michael W. Deem and Ramdas Pophale) SiO2 
 PCOD9152858
Probable space group: P 2/M
;
_chemical_formula_sum "Si O2"
_cell_formula_units_Z 32
_cell_length_a 15.485326
_cell_length_b 19.407804
_cell_length_c 9.837208
_cell_angle_alpha 90.000000
_cell_angle_beta 142.334186
_cell_angle_gamma 90.000000
_cell_volume 1806.545041
_symmetry_space_group_name_H-M "P 2/M"
_symmetry_group_IT_number 10
_symmetry_cell_setting 'monoclinic'
loop_
_space_group_symop_operation_xyz
x,y,z
-x,y,-z
-x,-y,-z
x,-y,z
loop_
_atom_site_type_symbol
_atom_site_label
_atom_site_fract_x
_atom_site_fract_y
_atom_site_fract_z
Si Si1 0.559679 0.171557 0.932399
Si Si2 0.793992 0.273743 0.170285
Si Si3 0.922390 0.694954 0.595845
Si Si4 0.082678 0.421361 0.960912
Si Si5 0.720035 0.222032 0.547364
Si Si6 0.617918 0.080686 0.750507
Si Si7 0.831639 0.920844 0.789788
Si Si8 0.335312 0.320643 0.270694
O O1 0.434078 0.218609 0.713643
O O2 0.597032 0.115542 0.867190
O O3 0.500000 0.144655 0.000000
O O4 0.704297 0.213726 0.128429
O O5 0.835587 0.321529 0.350143
O O6 0.944326 0.257900 0.285877
O O7 0.698219 0.300622 0.927038
O O8 0.827345 0.734326 0.587659
O O9 0.994853 0.627685 0.750140
O O10 0.095322 0.500000 0.928972
O O11 0.234237 0.385601 0.172330
O O12 0.000000 0.420928 0.000000
O O13 0.770715 0.142754 0.627409
O O14 0.709353 0.259465 0.680823
O O15 0.500000 0.109813 0.500000
O O16 0.766260 0.089595 0.858863
O O17 0.591674 0.000000 0.732447
O O18 0.790273 0.000000 0.697459
O O19 0.000000 0.917182 0.000000
O O20 0.500000 0.334031 0.500000
#
# Coordination Sequence:
#
# PCOD9152858 Si02
#       8
#     4   4   4   4   4   4   4   4
#     4  12  23  36  55  87 118 158 197 245 308 360
#     4  10  22  37  56  86 123 149 193 248 296 348
#     4  10  22  40  58  87 120 158 195 245 300 351
#     4  10  21  39  63  90 120 157 202 244 291 354
#     4  12  22  35  59  87 116 156 196 244 302 361
#     4  10  21  39  57  78 113 155 201 251 304 363
#     4  10  23  38  57  85 115 152 200 255 305 355
#     4  11  22  36  60  93 120 154 199 244 300 359
#
# _framework density 17.713369
#
# number of rings (size 3 to 8) (size 9 to 14) (size 15 to 20)
#    0.000    1.375    5.000    0.750    5.250    0.500 
#    0.000    5.000    0.000    0.000    0.000    7.000 
#    0.000    0.000    0.000    0.000    0.000    0.000 
#
# Total GULP energy -178389.380317 kJ/mol
# GULP energy per Si atom -5574.668135 kJ/mol
# Density = 1.767305 g / cm^3
# Si number density = 17.713369 Si / 1000 Ang^3
#
#
#
# Elastic Constant Matrix: (Units=GPa)
#
#
# Indices 1 2 3 4 5 6 
#
# 1 123.8591 51.8518 50.8132 0.0000 7.2293 0.0000
# 2 51.8518 81.3768 35.5642 0.0000 3.0141 0.0000
# 3 50.8132 35.5642 104.9636 0.0000 -3.5613 0.0000
# 4 0.0000 0.0000 0.0000 -0.8795 0.0000 -8.1931
# 5 7.2293 3.0141 -3.5613 0.0000 31.7498 0.0000
# 6 0.0000 0.0000 0.0000 -8.1931 0.0000 15.1355
#
#
#
# Elastic Compliance Matrix: (Units=1/GPa)
#
#
# Indices 1 2 3 4 5 6 
#
# 1 0.012428 -0.006044 -0.004061 0.000000 -0.002712 0.000000
# 2 -0.006044 0.017482 -0.003019 0.000000 -0.000622 0.000000
# 3 -0.004061 -0.003019 0.012605 0.000000 0.002625 0.000000
# 4 0.000000 0.000000 0.000000 -0.188159 0.000000 -0.101854
# 5 -0.002712 -0.000622 0.002625 0.000000 0.032467 0.000000
# 6 0.000000 0.000000 0.000000 -0.101854 0.000000 0.010934
#
#
# Mechanical properties :
#
#
# Convention : Reuss Voigt Hill
#
# Bulk Modulus (GPa) = 61.46853 65.18420 63.32637
# Shear Modulus (GPa) = -70.84733 20.66585 -25.09074
#
# Velocity S-wave (km/s) = -6.33114 3.41938 -3.76771
# Velocity P-wave (km/s) = 4.32058 7.24354 4.11105
#
# Compressibility (1/GPa) = 0.01626849
#
# Stress axis : x y z
#
# Youngs Moduli (GPa) = 80.46359 57.20255 79.33567
#
# Poissons Ratio (x) = 0.34572 0.32215
# Poissons Ratio (y) = 0.48631 0.23947
# Poissons Ratio (z) = 0.32673 0.17267
#
# Static dielectric constant tensor:
#      x y z
#    x 1.623800 0.000000 -0.001050 
#    y 0.000000 1.602510 0.000000 
#    z -0.001050 0.000000 1.634670 
# 
# From -- ./inp_files/30291.got.cif
#   From: 2010.05.17/outbox.cif.g08.bks.cpg/sg10_16_cif.got.tgz:30291.got - 2010.06.03 11:33:40.
