data_PCOD9152350
_publ_section_title
;
Structure prediction by ZEFSAII (Michael W. Deem and Ramdas Pophale) SiO2 
 PCOD9152350
Probable space group: P 2/M
;
_chemical_formula_sum "Si O2"
_cell_formula_units_Z 28
_cell_length_a 9.150149
_cell_length_b 8.737757
_cell_length_c 29.401848
_cell_angle_alpha 90.000000
_cell_angle_beta 141.075549
_cell_angle_gamma 90.000000
_cell_volume 1476.952202
_symmetry_space_group_name_H-M "P 2/M"
_symmetry_group_IT_number 10
_symmetry_cell_setting 'monoclinic'
loop_
_space_group_symop_operation_xyz
x,y,z
-x,y,-z
-x,-y,-z
x,-y,z
loop_
_atom_site_type_symbol
_atom_site_label
_atom_site_fract_x
_atom_site_fract_y
_atom_site_fract_z
Si Si1 0.615490 0.815358 0.213666
Si Si2 0.233535 0.315205 0.925036
Si Si3 0.896032 0.315229 0.926292
Si Si4 0.341777 0.815434 0.504916
Si Si5 0.803727 0.815184 0.358353
Si Si6 0.039815 0.183733 0.784303
Si Si7 0.471780 0.317787 0.355682
O O1 0.360057 0.749514 0.143687
O O2 0.715106 0.768826 0.286935
O O3 0.790332 0.768497 0.215774
O O4 0.602753 0.000000 0.210154
O O5 0.223810 0.500000 0.918107
O O6 0.067856 0.270576 0.926908
O O7 0.144182 0.241078 0.857067
O O8 0.500000 0.272949 0.000000
O O9 0.883314 0.500000 0.923700
O O10 0.000000 0.265390 0.000000
O O11 0.500000 0.773759 0.500000
O O12 0.435462 0.739587 0.573294
O O13 0.073528 0.774452 0.430855
O O14 0.354755 0.000000 0.513383
O O15 0.644100 0.742695 0.358374
O O16 0.786311 0.000000 0.357264
O O17 0.784363 0.251303 0.715068
O O18 0.024721 0.000000 0.780675
O O19 0.463688 0.500000 0.352599
#
# Coordination Sequence:
#
# PCOD9152350 Si02
#       7
#     4   4   4   4   4   4   4
#     4  10  22  39  60  86 113 146 191 241 287 336
#     4  10  21  38  60  87 119 153 191 236 289 347
#     4  10  21  37  58  84 115 153 192 231 282 343
#     4  10  21  40  65  89 116 153 195 237 285 342
#     4  10  21  39  62  86 115 152 192 235 286 342
#     4  11  23  40  61  85 115 152 197 242 288 344
#     4  12  25  39  58  87 121 154 192 238 289 343
#
# _framework density 18.957958999999999
#
# number of rings (size 3 to 8) (size 9 to 14) (size 15 to 20)
#    0.000    1.571    0.000    4.714    0.000   11.143 
#    0.000    1.429    0.000    0.000    0.000    0.000 
#    0.000    0.000    0.000    0.000    0.000    0.000 
#
# Total GULP energy -156586.827922 kJ/mol
# GULP energy per Si atom -5592.386712 kJ/mol
# Density = 1.891481 g / cm^3
# Si number density = 18.957959 Si / 1000 Ang^3
#
#
#
# Elastic Constant Matrix: (Units=GPa)
#
#
# Indices 1 2 3 4 5 6 
#
# 1 238.2783 65.3919 146.2448 0.0000 1.4178 0.0000
# 2 65.3919 33.4260 65.1994 0.0000 -0.1385 0.0000
# 3 146.2448 65.1994 233.7343 0.0000 0.1909 0.0000
# 4 0.0000 0.0000 0.0000 59.8227 0.0000 -5.5718
# 5 1.4178 -0.1385 0.1909 0.0000 44.8667 0.0000
# 6 0.0000 0.0000 0.0000 -5.5718 0.0000 18.6592
#
#
#
# Elastic Compliance Matrix: (Units=1/GPa)
#
#
# Indices 1 2 3 4 5 6 
#
# 1 0.009345 -0.015088 -0.001638 0.000000 -0.000335 0.000000
# 2 -0.015088 0.089985 -0.015662 0.000000 0.000821 0.000000
# 3 -0.001638 -0.015662 0.009672 0.000000 -0.000038 0.000000
# 4 0.000000 0.000000 0.000000 0.017194 0.000000 0.005134
# 5 -0.000335 0.000821 -0.000038 0.000000 0.022302 0.000000
# 6 0.000000 0.000000 0.000000 0.005134 0.000000 0.055126
#
#
# Mechanical properties :
#
#
# Convention : Reuss Voigt Hill
#
# Bulk Modulus (GPa) = 22.61031 117.67896 70.14463
# Shear Modulus (GPa) = 17.65908 39.90989 28.78448
#
# Velocity S-wave (km/s) = 3.05534 4.59320 3.90081
# Velocity P-wave (km/s) = 4.93956 9.50465 7.57422
#
# Compressibility (1/GPa) = 0.04422762
#
# Stress axis : x y z
#
# Youngs Moduli (GPa) = 107.01369 11.11293 103.39158
#
# Poissons Ratio (x) = 0.16767 0.16935
# Poissons Ratio (y) = 1.61458 1.61928
# Poissons Ratio (z) = 0.17528 0.17405
#
# Static dielectric constant tensor:
#      x y z
#    x 1.629820 0.000000 -0.004080 
#    y 0.000000 1.643190 0.000000 
#    z -0.004080 0.000000 1.614300 
# 
# From -- ./inp_files/34285.got.cif
#   From: 2010.05.17/outbox.cif.g08.bks.cpg/sg10_18_cif.got.tgz:34285.got - 2010.06.03 11:33:40.
