data_PCOD9152927
_publ_section_title
;
Structure prediction by ZEFSAII (Michael W. Deem and Ramdas Pophale) SiO2 
 PCOD9152927
Probable space group: P 2/M
;
_chemical_formula_sum "Si O2"
_cell_formula_units_Z 18
_cell_length_a 5.449204
_cell_length_b 25.693621
_cell_length_c 5.413783
_cell_angle_alpha 90.000000
_cell_angle_beta 98.890874
_cell_angle_gamma 90.000000
_cell_volume 748.875036
_symmetry_space_group_name_H-M "P 2/M"
_symmetry_group_IT_number 10
_symmetry_cell_setting 'monoclinic'
loop_
_space_group_symop_operation_xyz
x,y,z
-x,y,-z
-x,-y,-z
x,-y,z
loop_
_atom_site_type_symbol
_atom_site_label
_atom_site_fract_x
_atom_site_fract_y
_atom_site_fract_z
Si Si1 0.278678 0.610712 0.658930
Si Si2 0.837057 0.721464 0.223014
Si Si3 0.840413 0.500000 0.221000
Si Si4 0.163222 0.833205 0.776924
Si Si5 0.723465 0.944072 0.337498
O O1 0.500000 0.611061 0.500000
O O2 0.295993 0.665891 0.798863
O O3 0.297034 0.555292 0.796296
O O4 0.000000 0.610641 0.500000
O O5 0.698289 0.777316 0.214215
O O6 0.000000 0.720996 0.500000
O O7 0.000000 0.722379 0.000000
O O8 0.000000 0.500000 0.500000
O O9 0.000000 0.500000 0.000000
O O10 0.298049 0.888634 0.798257
O O11 0.000000 0.833587 0.500000
O O12 0.000000 0.832583 0.000000
O O13 0.500000 0.944741 0.500000
O O14 0.000000 0.943630 0.500000
O O15 0.714450 0.000000 0.198495
#
# Coordination Sequence:
#
# PCOD9152927 Si02
#       5
#     4   4   2   4   4
#     4  10  21  39  61  88 119 155 196 241 291 346
#     4   9  18  35  57  84 115 151 192 237 288 343
#     4  10  21  40  62  88 120 156 196 242 292 346
#     4   9  18  34  57  83 114 150 191 237 287 343
#     4   9  18  34  56  82 113 149 190 236 287 343
#
# _framework density 24.036054
#
# number of rings (size 3 to 8) (size 9 to 14) (size 15 to 20)
#    0.000    2.667    0.000    1.000    0.000    1.333 
#    0.000   26.667    0.000   36.000    0.000    0.000 
#    0.000    0.000    0.000    0.000    0.000    0.000 
#
# Total GULP energy -100346.835667 kJ/mol
# GULP energy per Si atom -5574.824204 kJ/mol
# Density = 2.398135 g / cm^3
# Si number density = 24.036054 Si / 1000 Ang^3
#
#
#
# Elastic Constant Matrix: (Units=GPa)
#
#
# Indices 1 2 3 4 5 6 
#
# 1 132.6171 39.8060 58.1718 0.0000 14.6634 0.0000
# 2 39.8060 389.1025 44.7166 0.0000 -24.7382 0.0000
# 3 58.1718 44.7166 146.3010 0.0000 6.5194 0.0000
# 4 0.0000 0.0000 0.0000 15.8424 0.0000 -59.3223
# 5 14.6634 -24.7382 6.5194 0.0000 61.5787 0.0000
# 6 0.0000 0.0000 0.0000 -59.3223 0.0000 -29.7195
#
#
#
# Elastic Compliance Matrix: (Units=1/GPa)
#
#
# Indices 1 2 3 4 5 6 
#
# 1 0.009518 -0.000714 -0.003469 0.000000 -0.002186 0.000000
# 2 -0.000714 0.002803 -0.000633 0.000000 0.001363 0.000000
# 3 -0.003469 -0.000633 0.008422 0.000000 -0.000320 0.000000
# 4 0.000000 0.000000 0.000000 0.007449 0.000000 -0.014868
# 5 -0.002186 0.001363 -0.000320 0.000000 0.017341 0.000000
# 6 0.000000 0.000000 0.000000 -0.014868 0.000000 -0.003971
#
#
# Mechanical properties :
#
#
# Convention : Reuss Voigt Hill
#
# Bulk Modulus (GPa) = 90.00639 105.93436 97.97038
# Shear Modulus (GPa) = 91.07693 44.56207 67.81950
#
# Velocity S-wave (km/s) = 6.16231 4.31044 5.31761
# Velocity P-wave (km/s) = 9.38934 8.30313 8.86289
#
# Compressibility (1/GPa) = 0.01111032
#
# Stress axis : x y z
#
# Youngs Moduli (GPa) = 105.06215 356.82290 118.73121
#
# Poissons Ratio (x) = 0.25479 0.41187
# Poissons Ratio (y) = 0.07502 0.07520
# Poissons Ratio (z) = 0.36445 0.22601
#
# Static dielectric constant tensor:
#      x y z
#    x 1.765380 0.000000 -0.077000 
#    y 0.000000 1.906960 0.000000 
#    z -0.077000 0.000000 1.737520 
# 
# From -- ./inp_files/2020.got.cif
#   From: 2010.05.17/outbox.cif.g08.bks.cpg/sg10_2_cif.got.tgz:2020.got - 2010.06.03 11:33:40.
