data_PCOD9152937
_publ_section_title
;
Structure prediction by ZEFSAII (Michael W. Deem and Ramdas Pophale) SiO2 
 PCOD9152937
Probable space group: P 2/M
;
_chemical_formula_sum "Si O2"
_cell_formula_units_Z 28
_cell_length_a 9.656034
_cell_length_b 7.976295
_cell_length_c 25.453151
_cell_angle_alpha 90.000000
_cell_angle_beta 139.643945
_cell_angle_gamma 90.000000
_cell_volume 1269.419638
_symmetry_space_group_name_H-M "P 2/M"
_symmetry_group_IT_number 10
_symmetry_cell_setting 'monoclinic'
loop_
_space_group_symop_operation_xyz
x,y,z
-x,y,-z
-x,-y,-z
x,-y,z
loop_
_atom_site_type_symbol
_atom_site_label
_atom_site_fract_x
_atom_site_fract_y
_atom_site_fract_z
Si Si1 0.372962 0.801048 0.346450
Si Si2 0.820971 0.796651 0.822101
Si Si3 0.761835 0.695608 0.918448
Si Si4 0.922819 0.305913 0.641837
Si Si5 0.731746 0.795538 0.082542
Si Si6 0.694327 0.804417 0.187852
Si Si7 0.853376 0.697908 0.505105
O O1 0.273088 0.746882 0.261572
O O2 0.218336 0.770088 0.351640
O O3 0.603458 0.718283 0.420624
O O4 0.404978 0.000000 0.351995
O O5 0.718154 0.719038 0.843821
O O6 0.070194 0.744322 0.895424
O O7 0.808534 0.000000 0.822283
O O8 0.758753 0.500000 0.931669
O O9 0.560575 0.783350 0.887177
O O10 0.000000 0.763209 0.000000
O O11 0.858274 0.500000 0.621252
O O12 0.890594 0.230417 0.574491
O O13 0.171712 0.290496 0.729535
O O14 0.778097 0.746296 0.155585
O O15 0.724950 0.000000 0.079853
O O16 0.500000 0.731932 0.000000
O O17 0.744200 0.000000 0.208758
O O18 0.906690 0.500000 0.524085
O O19 0.000000 0.767751 0.500000
#
# Coordination Sequence:
#
# PCOD9152937 Si02
#       7
#     4   4   4   4   4   4   4
#     4  11  23  41  65  95 127 161 205 258 310 365
#     4  10  21  39  61  90 123 159 207 254 306 366
#     4  11  25  42  59  87 127 168 210 256 310 370
#     4  11  23  41  65  93 127 166 205 250 308 372
#     4   9  17  33  59  88 118 153 198 249 298 353
#     4  11  22  39  64  92 124 162 206 258 309 362
#     4  10  24  44  65  92 125 164 206 250 307 374
#
# _framework density 22.057324999999999
#
# number of rings (size 3 to 8) (size 9 to 14) (size 15 to 20)
#    0.000    1.571    1.429    3.000    2.000    6.571 
#    0.000    0.000    0.000    3.000    0.000    0.000 
#    0.000    0.000    0.000    0.000    0.000    0.000 
#
# Total GULP energy -156440.891213 kJ/mol
# GULP energy per Si atom -5587.174686 kJ/mol
# Density = 2.200712 g / cm^3
# Si number density = 22.057325 Si / 1000 Ang^3
#
#
#
# Elastic Constant Matrix: (Units=GPa)
#
#
# Indices 1 2 3 4 5 6 
#
# 1 93.0643 -1.2602 14.8675 0.0000 -3.8270 0.0000
# 2 -1.2602 17.1931 -9.2214 0.0000 -7.3810 0.0000
# 3 14.8675 -9.2214 83.7672 0.0000 -2.4862 0.0000
# 4 0.0000 0.0000 0.0000 19.2659 0.0000 2.3660
# 5 -3.8270 -7.3810 -2.4862 0.0000 36.2015 0.0000
# 6 0.0000 0.0000 0.0000 2.3660 0.0000 20.4552
#
#
#
# Elastic Compliance Matrix: (Units=1/GPa)
#
#
# Indices 1 2 3 4 5 6 
#
# 1 0.011099 0.000260 -0.001909 0.000000 0.001095 0.000000
# 2 0.000260 0.068706 0.007950 0.000000 0.014582 0.000000
# 3 -0.001909 0.007950 0.013221 0.000000 0.002327 0.000000
# 4 0.000000 0.000000 0.000000 0.052653 0.000000 -0.006090
# 5 0.001095 0.014582 0.002327 0.000000 0.030872 0.000000
# 6 0.000000 0.000000 0.000000 -0.006090 0.000000 0.049592
#
#
# Mechanical properties :
#
#
# Convention : Reuss Voigt Hill
#
# Bulk Modulus (GPa) = 9.46717 22.53292 16.00005
# Shear Modulus (GPa) = 20.10057 27.82709 23.96383
#
# Velocity S-wave (km/s) = 3.02203 3.55573 3.29969
# Velocity P-wave (km/s) = 4.05934 5.20532 4.66764
#
# Compressibility (1/GPa) = 0.10562813
#
# Stress axis : x y z
#
# Youngs Moduli (GPa) = 90.10027 14.55478 75.63798
#
# Poissons Ratio (x) = -0.00378 0.14437
# Poissons Ratio (y) = -0.02342 -0.60133
# Poissons Ratio (z) = 0.17198 -0.11571
#
# Static dielectric constant tensor:
#      x y z
#    x 1.787870 0.000000 -0.024210 
#    y 0.000000 1.783160 0.000000 
#    z -0.024210 0.000000 1.815170 
# 
# From -- ./inp_files/92095.got.cif
#   From: 2010.05.17/outbox.cif.g08.bks.cpg/sg10_47_cif.got.tgz:92095.got - 2010.06.03 11:33:40.
