data_PCOD9152557
_publ_section_title
;
Structure prediction by ZEFSAII (Michael W. Deem and Ramdas Pophale) SiO2 
 PCOD9152557
Probable space group: P 2/M
;
_chemical_formula_sum "Si O2"
_cell_formula_units_Z 26
_cell_length_a 11.658680
_cell_length_b 22.395042
_cell_length_c 5.541383
_cell_angle_alpha 90.000000
_cell_angle_beta 69.199275
_cell_angle_gamma 90.000000
_cell_volume 1352.533331
_symmetry_space_group_name_H-M "P 2/M"
_symmetry_group_IT_number 10
_symmetry_cell_setting 'monoclinic'
loop_
_space_group_symop_operation_xyz
x,y,z
-x,y,-z
-x,-y,-z
x,-y,z
loop_
_atom_site_type_symbol
_atom_site_label
_atom_site_fract_x
_atom_site_fract_y
_atom_site_fract_z
Si Si1 0.580095 0.000000 0.690201
Si Si2 0.720221 0.642073 0.808587
Si Si3 0.138497 0.567098 0.641798
Si Si4 0.386839 0.565322 0.765273
Si Si5 0.579266 0.870708 0.690617
Si Si6 0.033926 0.685617 0.216537
Si Si7 0.577893 0.260461 0.688787
O O1 0.500000 0.000000 0.500000
O O2 0.646000 0.064757 0.641140
O O3 0.500000 0.000000 0.000000
O O4 0.790276 0.583867 0.656232
O O5 0.821598 0.675846 0.887207
O O6 0.673686 0.685455 0.635292
O O7 0.611982 0.618895 0.052223
O O8 0.085231 0.500000 0.682029
O O9 0.252085 0.567877 0.743249
O O10 0.041935 0.621716 0.736351
O O11 0.500000 0.570561 0.500000
O O12 0.397906 0.500000 0.871763
O O13 0.500000 0.870728 0.500000
O O14 0.640614 0.805324 0.640761
O O15 0.500000 0.870619 0.000000
O O16 0.000000 0.712251 0.500000
O O17 0.000000 0.719251 0.000000
O O18 0.500000 0.265788 0.500000
O O19 0.500000 0.261964 0.000000
#
# Coordination Sequence:
#
# PCOD9152557 Si02
#       7
#     2   4   4   4   4   4   4
#     4   8  12  20  42  62  90 124 164 206 238 270
#     4  11  23  35  56  74 102 133 167 208 260 311
#     4  10  22  37  55  76  97 122 160 213 270 319
#     4  10  22  37  54  76 101 128 165 208 261 325
#     4   8  14  27  41  66  93 128 168 203 237 279
#     4  10  21  38  57  79  98 121 161 209 263 311
#     4  10  23  35  51  72 104 139 173 203 242 304
#
# _framework density 19.223185999999998
#
# number of rings (size 3 to 8) (size 9 to 14) (size 15 to 20)
#    0.000    2.308    1.538    0.462    4.308    3.692 
#    0.000    2.308    0.000    1.385    0.000    0.000 
#    0.000    0.000    0.000    6.923    0.000    2.000 
#
# Total GULP energy -144744.550210 kJ/mol
# GULP energy per Si atom -5567.098085 kJ/mol
# Density = 1.917943 g / cm^3
# Si number density = 19.223186 Si / 1000 Ang^3
#
#
#
# Elastic Constant Matrix: (Units=GPa)
#
#
# Indices 1 2 3 4 5 6 
#
# 1 79.5506 15.6188 19.6652 0.0000 17.4792 0.0000
# 2 15.6188 93.1698 13.7464 0.0000 -3.1353 0.0000
# 3 19.6652 13.7464 97.6618 0.0000 23.5412 0.0000
# 4 0.0000 0.0000 0.0000 9.1169 0.0000 7.8737
# 5 17.4792 -3.1353 23.5412 0.0000 29.0533 0.0000
# 6 0.0000 0.0000 0.0000 7.8737 0.0000 6.2595
#
#
#
# Elastic Compliance Matrix: (Units=1/GPa)
#
#
# Indices 1 2 3 4 5 6 
#
# 1 0.015231 -0.002786 -0.000489 0.000000 -0.009068 0.000000
# 2 -0.002786 0.011688 -0.002227 0.000000 0.004742 0.000000
# 3 -0.000489 -0.002227 0.013221 0.000000 -0.010659 0.000000
# 4 0.000000 0.000000 0.000000 -1.270108 0.000000 1.597650
# 5 -0.009068 0.004742 -0.010659 0.000000 0.049023 0.000000
# 6 0.000000 0.000000 0.000000 1.597650 0.000000 -1.849904
#
#
# Mechanical properties :
#
#
# Convention : Reuss Voigt Hill
#
# Bulk Modulus (GPa) = 34.32308 40.93810 37.63059
# Shear Modulus (GPa) = -1.66106 23.64271 10.99083
#
# Velocity S-wave (km/s) = -0.93057 3.51081 2.39372
# Velocity P-wave (km/s) = 4.09135 6.14628 5.22092
#
# Compressibility (1/GPa) = 0.02913492
#
# Stress axis : x y z
#
# Youngs Moduli (GPa) = 65.65570 85.55500 75.63950
#
# Poissons Ratio (x) = 0.23838 0.03698
# Poissons Ratio (y) = 0.18294 0.16847
# Poissons Ratio (z) = 0.03210 0.19056
#
# Static dielectric constant tensor:
#      x y z
#    x 1.715870 0.000000 0.036280 
#    y 0.000000 1.710220 0.000000 
#    z 0.036280 0.000000 1.778180 
# 
# From -- ./inp_files/7530.got.cif
#   From: 2010.05.17/outbox.cif.g08.bks.cpg/sg10_4_cif.got.tgz:7530.got - 2010.06.03 11:33:40.
