data_PCOD9152025
_publ_section_title
;
Structure prediction by ZEFSAII (Michael W. Deem and Ramdas Pophale) SiO2 
 PCOD9152025
Probable space group: P 2/M
;
_chemical_formula_sum "Si O2"
_cell_formula_units_Z 28
_cell_length_a 16.208984
_cell_length_b 8.769845
_cell_length_c 20.368799
_cell_angle_alpha 90.000000
_cell_angle_beta 30.313054
_cell_angle_gamma 90.000000
_cell_volume 1461.394161
_symmetry_space_group_name_H-M "P 2/M"
_symmetry_group_IT_number 10
_symmetry_cell_setting 'monoclinic'
loop_
_space_group_symop_operation_xyz
x,y,z
-x,y,-z
-x,-y,-z
x,-y,z
loop_
_atom_site_type_symbol
_atom_site_label
_atom_site_fract_x
_atom_site_fract_y
_atom_site_fract_z
Si Si1 0.320314 0.318084 0.932560
Si Si2 0.116777 0.317071 0.598711
Si Si3 0.635743 0.183547 0.353401
Si Si4 0.527763 0.182746 0.671748
Si Si5 0.100668 0.183852 0.366078
Si Si6 0.476487 0.817947 0.093160
Si Si7 0.949190 0.683785 0.205379
O O1 0.328050 0.500000 0.919250
O O2 0.429626 0.239015 0.802219
O O3 0.394524 0.271197 0.951572
O O4 0.131114 0.269436 0.059441
O O5 0.117288 0.500000 0.596522
O O6 0.292525 0.254328 0.455771
O O7 0.980924 0.254877 0.642251
O O8 0.083862 0.267809 0.696514
O O9 0.500000 0.232409 0.500000
O O10 0.571815 0.227213 0.325471
O O11 0.808621 0.251451 0.255490
O O12 0.646294 0.000000 0.348568
O O13 0.543989 0.000000 0.661927
O O14 0.291441 0.224144 0.240249
O O15 0.000000 0.230367 0.500000
O O16 0.090928 0.000000 0.367356
O O17 0.496894 0.000000 0.089943
O O18 0.500000 0.788551 0.000000
O O19 0.942146 0.500000 0.208836
#
# Coordination Sequence:
#
# PCOD9152025 Si02
#       7
#     4   4   4   4   4   4   4
#     4  11  24  41  60  88 124 161 201 243 296 357
#     4  11  22  37  60  89 117 153 199 242 294 355
#     4  10  21  39  63  91 118 152 200 247 295 351
#     4  11  23  40  62  88 121 157 197 249 302 352
#     4  10  21  36  55  81 114 151 193 242 293 345
#     4  10  21  38  60  86 117 157 202 245 295 351
#     4  10  23  40  60  88 122 157 194 240 293 354
#
# _framework density 19.159787999999999
#
# number of rings (size 3 to 8) (size 9 to 14) (size 15 to 20)
#    0.000    1.571    1.429    3.000    0.000    6.000 
#    0.000    2.857    0.000    0.000    0.000    0.000 
#    0.000    0.000    0.000    0.000    0.000    0.000 
#
# Total GULP energy -156554.028736 kJ/mol
# GULP energy per Si atom -5591.215312 kJ/mol
# Density = 1.911618 g / cm^3
# Si number density = 19.159788 Si / 1000 Ang^3
#
#
#
# Elastic Constant Matrix: (Units=GPa)
#
#
# Indices 1 2 3 4 5 6 
#
# 1 43.9015 7.0728 -21.0361 0.0000 -16.2612 0.0000
# 2 7.0728 14.3751 3.9048 0.0000 -5.3458 0.0000
# 3 -21.0361 3.9048 64.1281 0.0000 -10.0006 0.0000
# 4 0.0000 0.0000 0.0000 13.8857 0.0000 4.4644
# 5 -16.2612 -5.3458 -10.0006 0.0000 37.1140 0.0000
# 6 0.0000 0.0000 0.0000 4.4644 0.0000 63.6035
#
#
#
# Elastic Compliance Matrix: (Units=1/GPa)
#
#
# Indices 1 2 3 4 5 6 
#
# 1 0.041995 -0.017879 0.018092 0.000000 0.020700 0.000000
# 2 -0.017879 0.081651 -0.010673 0.000000 0.001052 0.000000
# 3 0.018092 -0.010673 0.024192 0.000000 0.012908 0.000000
# 4 0.000000 0.000000 0.000000 0.073679 0.000000 -0.005172
# 5 0.020700 0.001052 0.012908 0.000000 0.039643 0.000000
# 6 0.000000 0.000000 0.000000 -0.005172 0.000000 0.016085
#
#
# Mechanical properties :
#
#
# Convention : Reuss Voigt Hill
#
# Bulk Modulus (GPa) = 7.87899 11.36529 9.62214
# Shear Modulus (GPa) = 14.68555 31.75152 23.21854
#
# Velocity S-wave (km/s) = 2.77154 4.07528 3.48492
# Velocity P-wave (km/s) = 3.78986 5.29987 4.60715
#
# Compressibility (1/GPa) = 0.12691982
#
# Stress axis : x y z
#
# Youngs Moduli (GPa) = 23.81231 12.24718 41.33670
#
# Poissons Ratio (x) = 0.21897 -0.74788
# Poissons Ratio (y) = 0.42574 0.44117
# Poissons Ratio (z) = -0.43082 0.13071
#
# Static dielectric constant tensor:
#      x y z
#    x 1.639510 0.000000 0.011620 
#    y 0.000000 1.643210 0.000000 
#    z 0.011620 0.000000 1.645470 
# 
# From -- ./inp_files/37298.got.cif
#   From: 2010.05.17/outbox.cif.g08.bks.cpg/sg10_19_cif.got.tgz:37298.got - 2010.06.03 11:33:40.
