data_PCOD9152882
_publ_section_title
;
Structure prediction by ZEFSAII (Michael W. Deem and Ramdas Pophale) SiO2 
 PCOD9152882
Probable space group: P 2/M
;
_chemical_formula_sum "Si O2"
_cell_formula_units_Z 32
_cell_length_a 15.255472
_cell_length_b 8.148405
_cell_length_c 24.542906
_cell_angle_alpha 90.000000
_cell_angle_beta 151.024045
_cell_angle_gamma 90.000000
_cell_volume 1477.973013
_symmetry_space_group_name_H-M "P 2/M"
_symmetry_group_IT_number 10
_symmetry_cell_setting 'monoclinic'
loop_
_space_group_symop_operation_xyz
x,y,z
-x,y,-z
-x,-y,-z
x,-y,z
loop_
_atom_site_type_symbol
_atom_site_label
_atom_site_fract_x
_atom_site_fract_y
_atom_site_fract_z
Si Si1 0.376854 0.200315 0.383329
Si Si2 0.422035 0.188020 0.293248
Si Si3 0.990854 0.802427 0.763215
Si Si4 0.271277 0.196606 0.002198
Si Si5 0.976579 0.697901 0.630789
Si Si6 0.964951 0.684193 0.916866
Si Si7 0.273333 0.690569 0.604486
Si Si8 0.321196 0.698117 0.751248
O O1 0.500000 0.249897 0.500000
O O2 0.471988 0.256390 0.379768
O O3 0.173901 0.254170 0.287294
O O4 0.374657 0.000000 0.378596
O O5 0.516361 0.292204 0.297974
O O6 0.206327 0.197305 0.180943
O O7 0.478072 0.000000 0.315625
O O8 0.176983 0.748674 0.893886
O O9 0.956310 0.753273 0.682103
O O10 0.988139 0.000000 0.762592
O O11 0.139323 0.260450 0.978154
O O12 0.267091 0.000000 0.001324
O O13 0.476079 0.251112 0.123406
O O14 0.964570 0.500000 0.624839
O O15 0.174574 0.747929 0.716419
O O16 0.837958 0.758678 0.508006
O O17 0.912364 0.500000 0.870774
O O18 0.000000 0.679424 0.000000
O O19 0.219850 0.500000 0.579286
O O20 0.258123 0.760897 0.657068
O O21 0.319113 0.500000 0.746996
#
# Coordination Sequence:
#
# PCOD9152882 Si02
#       8
#     4   4   4   4   4   4   4   4
#     4   9  17  32  54  79 111 151 189 225 277 344
#     4  11  21  35  57  86 118 154 193 233 284 346
#     4  10  21  39  59  84 121 159 196 244 301 355
#     4  11  23  40  61  87 121 159 201 247 297 356
#     4  10  22  40  63  89 116 154 203 252 303 359
#     4  11  23  38  57  83 118 158 196 238 290 347
#     4  10  21  39  61  88 122 156 196 248 305 362
#     4  10  22  41  63  86 117 158 201 249 306 361
#
# _framework density 21.651275999999999
#
# number of rings (size 3 to 8) (size 9 to 14) (size 15 to 20)
#    0.000    1.750    1.250    3.000    0.000    9.500 
#    0.000    2.500    0.000    4.875    0.000    0.000 
#    0.000    0.000    0.000    0.000    0.000    0.000 
#
# Total GULP energy -178610.764354 kJ/mol
# GULP energy per Si atom -5581.586386 kJ/mol
# Density = 2.160200 g / cm^3
# Si number density = 21.651276 Si / 1000 Ang^3
#
#
#
# Elastic Constant Matrix: (Units=GPa)
#
#
# Indices 1 2 3 4 5 6 
#
# 1 88.7979 3.0989 12.5261 0.0000 -6.4620 0.0000
# 2 3.0989 27.5496 8.2993 0.0000 -3.2233 0.0000
# 3 12.5261 8.2993 85.7450 0.0000 -2.8731 0.0000
# 4 0.0000 0.0000 0.0000 29.3824 0.0000 -5.5737
# 5 -6.4620 -3.2233 -2.8731 0.0000 36.4055 0.0000
# 6 0.0000 0.0000 0.0000 -5.5737 0.0000 12.9969
#
#
#
# Elastic Compliance Matrix: (Units=1/GPa)
#
#
# Indices 1 2 3 4 5 6 
#
# 1 0.011643 -0.000613 -0.001578 0.000000 0.001888 0.000000
# 2 -0.000613 0.037758 -0.003466 0.000000 0.002961 0.000000
# 3 -0.001578 -0.003466 0.012241 0.000000 0.000379 0.000000
# 4 0.000000 0.000000 0.000000 0.037048 0.000000 0.015888
# 5 0.001888 0.002961 0.000379 0.000000 0.028096 0.000000
# 6 0.000000 0.000000 0.000000 0.015888 0.000000 0.083755
#
#
# Mechanical properties :
#
#
# Convention : Reuss Voigt Hill
#
# Bulk Modulus (GPa) = 19.87001 27.77122 23.82062
# Shear Modulus (GPa) = 20.95290 27.63483 24.29387
#
# Velocity S-wave (km/s) = 3.11423 3.57649 3.35334
# Velocity P-wave (km/s) = 4.70409 5.46896 5.10088
#
# Compressibility (1/GPa) = 0.05032709
#
# Stress axis : x y z
#
# Youngs Moduli (GPa) = 85.88893 26.48472 81.69131
#
# Poissons Ratio (x) = 0.01624 0.12893
# Poissons Ratio (y) = 0.05268 0.28312
# Poissons Ratio (z) = 0.13555 0.09179
#
# Static dielectric constant tensor:
#      x y z
#    x 1.795910 0.000000 -0.035390 
#    y 0.000000 1.787500 0.000000 
#    z -0.035390 0.000000 1.877210 
# 
# From -- ./inp_files/71526.got.cif
#   From: 2010.05.17/outbox.cif.g08.bks.cpg/sg10_36_cif.got.tgz:71526.got - 2010.06.03 11:33:40.
