data_PCOD9152163
_publ_section_title
;
Structure prediction by ZEFSAII (Michael W. Deem and Ramdas Pophale) SiO2 
 PCOD9152163
Probable space group: P 2/M
;
_chemical_formula_sum "Si O2"
_cell_formula_units_Z 28
_cell_length_a 14.768059
_cell_length_b 11.917979
_cell_length_c 9.646108
_cell_angle_alpha 90.000000
_cell_angle_beta 123.141611
_cell_angle_gamma 90.000000
_cell_volume 1421.577692
_symmetry_space_group_name_H-M "P 2/M"
_symmetry_group_IT_number 10
_symmetry_cell_setting 'monoclinic'
loop_
_space_group_symop_operation_xyz
x,y,z
-x,y,-z
-x,-y,-z
x,-y,z
loop_
_atom_site_type_symbol
_atom_site_label
_atom_site_fract_x
_atom_site_fract_y
_atom_site_fract_z
Si Si1 0.735380 0.234787 0.786215
Si Si2 0.532082 0.627996 0.688415
Si Si3 0.460695 0.000000 0.809565
Si Si4 0.797492 0.372185 0.294576
Si Si5 0.386281 0.000000 0.315383
Si Si6 0.405651 0.239828 0.806588
Si Si7 0.092483 0.370296 0.904976
Si Si8 0.842558 0.372219 0.649214
O O1 0.640064 0.299516 0.786803
O O2 0.688932 0.109618 0.729398
O O3 0.762062 0.288429 0.658898
O O4 0.841776 0.272642 0.961616
O O5 0.500000 0.633248 0.500000
O O6 0.553384 0.500000 0.744382
O O7 0.442079 0.678310 0.713703
O O8 0.396173 0.884877 0.736211
O O9 0.564868 0.000000 0.798450
O O10 0.500000 0.000000 0.000000
O O11 0.753628 0.500000 0.253125
O O12 0.700949 0.284157 0.209215
O O13 0.876844 0.361389 0.231688
O O14 0.848946 0.357230 0.489461
O O15 0.500000 0.000000 0.500000
O O16 0.500000 0.240010 0.000000
O O17 0.122743 0.500000 0.973210
O O18 0.963590 0.360931 0.809870
O O19 0.804284 0.500000 0.642189
#
# Coordination Sequence:
#
# PCOD9152163 Si02
#       8
#     4   4   2   4   2   4   4   4
#     4  12  23  39  61  87 117 159 206 249 302 367
#     4  11  22  35  54  84 121 154 190 243 299 361
#     4  10  24  42  62  83 116 160 204 249 298 348
#     4  10  21  36  59  91 126 163 198 243 307 367
#     4  12  28  46  63  89 123 166 208 255 303 362
#     4  11  22  37  57  85 120 156 206 248 298 362
#     4  10  21  39  64  93 124 158 201 254 309 366
#     4  10  21  39  63  92 125 160 202 252 307 365
#
# _framework density 19.696427
#
# number of rings (size 3 to 8) (size 9 to 14) (size 15 to 20)
#    0.000    1.286    1.429    4.714    4.000    7.429 
#    0.000    1.429    0.000    0.000    0.000    3.000 
#    0.000    0.000    0.000    0.000    0.000    0.000 
#
# Total GULP energy -156405.709958 kJ/mol
# GULP energy per Si atom -5585.918213 kJ/mol
# Density = 1.965160 g / cm^3
# Si number density = 19.696427 Si / 1000 Ang^3
#
#
#
# Elastic Constant Matrix: (Units=GPa)
#
#
# Indices 1 2 3 4 5 6 
#
# 1 93.5686 54.0576 14.7969 0.0000 -14.2416 0.0000
# 2 54.0576 155.2873 35.8560 0.0000 4.0069 0.0000
# 3 14.7969 35.8560 80.6911 0.0000 -5.2065 0.0000
# 4 0.0000 0.0000 0.0000 2.0933 0.0000 -15.2968
# 5 -14.2416 4.0069 -5.2065 0.0000 39.5864 0.0000
# 6 0.0000 0.0000 0.0000 -15.2968 0.0000 -161.2870
#
#
#
# Elastic Compliance Matrix: (Units=1/GPa)
#
#
# Indices 1 2 3 4 5 6 
#
# 1 0.014586 -0.005232 0.000023 0.000000 0.005780 0.000000
# 2 -0.005232 0.009106 -0.003296 0.000000 -0.003237 0.000000
# 3 0.000023 -0.003296 0.013994 0.000000 0.002182 0.000000
# 4 0.000000 0.000000 0.000000 0.282158 0.000000 -0.026761
# 5 0.005780 -0.003237 0.002182 0.000000 0.027955 0.000000
# 6 0.000000 0.000000 0.000000 -0.026761 0.000000 -0.003662
#
#
# Mechanical properties :
#
#
# Convention : Reuss Voigt Hill
#
# Bulk Modulus (GPa) = 48.36401 59.88535 54.12468
# Shear Modulus (GPa) = 13.58553 -8.93236 2.32658
#
# Velocity S-wave (km/s) = 2.62915 -2.13187 1.08802
# Velocity P-wave (km/s) = 5.81589 4.94068 5.39606
#
# Compressibility (1/GPa) = 0.02067653
#
# Stress axis : x y z
#
# Youngs Moduli (GPa) = 68.55778 109.82314 71.45949
#
# Poissons Ratio (x) = 0.57461 -0.00165
# Poissons Ratio (y) = 0.35870 0.23550
# Poissons Ratio (z) = -0.00159 0.36193
#
# Static dielectric constant tensor:
#      x y z
#    x 1.640800 0.000000 0.005830 
#    y 0.000000 1.692350 0.000000 
#    z 0.005830 0.000000 1.765450 
# 
# From -- ./inp_files/28715.got.cif
#   From: 2010.05.17/outbox.cif.g08.bks.cpg/sg10_15_cif.got.tgz:28715.got - 2010.06.03 11:33:40.
