data_PCOD9152848
_publ_section_title
;
Structure prediction by ZEFSAII (Michael W. Deem and Ramdas Pophale) SiO2 
 PCOD9152848
Probable space group: P 2/M
;
_chemical_formula_sum "Si O2"
_cell_formula_units_Z 19
_cell_length_a 8.474425
_cell_length_b 22.164071
_cell_length_c 5.176890
_cell_angle_alpha 90.000000
_cell_angle_beta 62.404841
_cell_angle_gamma 90.000000
_cell_volume 861.750197
_symmetry_space_group_name_H-M "P 2/M"
_symmetry_group_IT_number 10
_symmetry_cell_setting 'monoclinic'
loop_
_space_group_symop_operation_xyz
x,y,z
-x,y,-z
-x,-y,-z
x,-y,z
loop_
_atom_site_type_symbol
_atom_site_label
_atom_site_fract_x
_atom_site_fract_y
_atom_site_fract_z
Si Si1 0.123384 0.500000 0.658692
Si Si2 0.283298 0.301819 0.158006
Si Si3 0.206319 0.835010 0.298951
Si Si4 0.000000 0.000000 0.000000
Si Si5 0.308440 0.098467 0.710818
Si Si6 0.286242 0.628083 0.651011
O O1 0.235667 0.561017 0.602566
O O2 0.000000 0.500000 0.500000
O O3 0.000000 0.500000 0.000000
O O4 0.223587 0.233015 0.183818
O O5 0.219915 0.327460 0.478881
O O6 0.500000 0.301536 0.000000
O O7 0.223310 0.346659 0.974892
O O8 0.292477 0.847364 0.513154
O O9 0.000000 0.849543 0.500000
O O10 0.292210 0.877187 0.014937
O O11 0.854182 0.947600 0.196349
O O12 0.500000 0.070742 0.500000
O O13 0.500000 0.630763 0.500000
#
# Coordination Sequence:
#
# PCOD9152848 Si02
#       6
#     2   4   4   1   4   4
#     4  12  25  40  61  90 130 166 216 276 335 400
#     4  10  21  38  65  95 126 167 224 273 333 404
#     4  12  24  45  68 103 140 179 225 288 341 410
#     4  12  26  50  72 108 140 178 246 276 340 408
#     4  12  26  46  73 100 141 185 229 285 346 406
#     4  10  22  41  63  90 125 173 221 271 330 405
#
# _framework density 22.048152000000002
#
# number of rings (size 3 to 8) (size 9 to 14) (size 15 to 20)
#    0.000    0.842    2.105    5.053    0.000    5.895 
#    0.000    6.316    0.000    0.000    0.000    0.000 
#    0.000    0.000    0.000    0.000    0.000    0.000 
#
# Total GULP energy -105983.459911 kJ/mol
# GULP energy per Si atom -5578.076837 kJ/mol
# Density = 2.199797 g / cm^3
# Si number density = 22.048152 Si / 1000 Ang^3
#
#
#
# Elastic Constant Matrix: (Units=GPa)
#
#
# Indices 1 2 3 4 5 6 
#
# 1 77.0013 21.6933 54.9472 0.0000 1.3902 0.0000
# 2 21.6933 116.4982 24.1670 0.0000 2.5640 0.0000
# 3 54.9472 24.1670 125.4442 0.0000 7.6871 0.0000
# 4 0.0000 0.0000 0.0000 -69.8481 0.0000 -96.4557
# 5 1.3902 2.5640 7.6871 0.0000 46.5661 0.0000
# 6 0.0000 0.0000 0.0000 -96.4557 0.0000 -56.6867
#
#
#
# Elastic Compliance Matrix: (Units=1/GPa)
#
#
# Indices 1 2 3 4 5 6 
#
# 1 0.019329 -0.001928 -0.008149 0.000000 0.000874 0.000000
# 2 -0.001928 0.009136 -0.000897 0.000000 -0.000297 0.000000
# 3 -0.008149 -0.000897 0.011815 0.000000 -0.001658 0.000000
# 4 0.000000 0.000000 0.000000 0.010607 0.000000 -0.018048
# 5 0.000874 -0.000297 -0.001658 0.000000 0.021739 0.000000
# 6 0.000000 0.000000 0.000000 -0.018048 0.000000 0.013070
#
#
# Mechanical properties :
#
#
# Convention : Reuss Voigt Hill
#
# Bulk Modulus (GPa) = 54.54938 57.83982 56.19460
# Shear Modulus (GPa) = 43.95451 -1.45133 21.25159
#
# Velocity S-wave (km/s) = 4.46978 -0.81221 3.10800
# Velocity P-wave (km/s) = 7.17171 5.04091 6.19855
#
# Compressibility (1/GPa) = 0.01833201
#
# Stress axis : x y z
#
# Youngs Moduli (GPa) = 51.73583 109.46278 84.63556
#
# Poissons Ratio (x) = 0.21106 0.68966
# Poissons Ratio (y) = 0.09975 0.07593
# Poissons Ratio (z) = 0.42157 0.09821
#
# Static dielectric constant tensor:
#      x y z
#    x 1.846760 0.000000 -0.011530 
#    y 0.000000 -0.503070 0.000000 
#    z -0.011530 0.000000 1.764340 
# 
# From -- ./inp_files/4661.got.cif
#   From: 2010.05.17/outbox.cif.g08.bks.cpg/sg10_3_cif.got.tgz:4661.got - 2010.06.03 11:33:40.
