data_PCOD9152179
_publ_section_title
;
Structure prediction by ZEFSAII (Michael W. Deem and Ramdas Pophale) SiO2 
 PCOD9152179
Probable space group: P 2/M
;
_chemical_formula_sum "Si O2"
_cell_formula_units_Z 28
_cell_length_a 5.617719
_cell_length_b 18.357111
_cell_length_c 15.019501
_cell_angle_alpha 90.000000
_cell_angle_beta 64.233867
_cell_angle_gamma 90.000000
_cell_volume 1394.890636
_symmetry_space_group_name_H-M "P 2/M"
_symmetry_group_IT_number 10
_symmetry_cell_setting 'monoclinic'
loop_
_space_group_symop_operation_xyz
x,y,z
-x,y,-z
-x,-y,-z
x,-y,z
loop_
_atom_site_type_symbol
_atom_site_label
_atom_site_fract_x
_atom_site_fract_y
_atom_site_fract_z
Si Si1 0.496305 0.181571 0.095931
Si Si2 0.807824 0.760394 0.450650
Si Si3 0.449916 0.083856 0.748684
Si Si4 0.012239 0.722788 0.224161
Si Si5 0.353723 0.418237 0.119782
Si Si6 0.907149 0.084505 0.371252
Si Si7 0.236181 0.323152 0.898837
O O1 0.610173 0.133332 0.156439
O O2 0.207549 0.211115 0.169481
O O3 0.652629 0.257393 0.058586
O O4 0.500000 0.143012 0.000000
O O5 0.500000 0.737994 0.500000
O O6 0.813601 0.848933 0.447543
O O7 0.000000 0.737075 0.500000
O O8 0.931118 0.730958 0.338548
O O9 0.260619 0.097656 0.693673
O O10 0.770606 0.091116 0.683097
O O11 0.404247 0.000000 0.779281
O O12 0.148432 0.646093 0.172898
O O13 0.777875 0.719675 0.191927
O O14 0.255641 0.500000 0.146433
O O15 0.588956 0.394066 0.146698
O O16 0.500000 0.412631 0.000000
O O17 0.850280 0.000000 0.407112
O O18 0.000000 0.349369 0.000000
#
# Coordination Sequence:
#
# PCOD9152179 Si02
#       7
#     4   4   4   4   4   4   4
#     4  11  21  33  57  86 118 163 208 249 304 377
#     4  12  27  42  65  95 121 164 219 269 321 371
#     4  10  21  37  59  86 122 165 204 253 313 376
#     4  11  22  40  60  85 128 164 198 261 313 367
#     4  10  21  36  60  98 134 162 200 244 303 379
#     4  10  21  41  64  87 119 159 206 267 334 379
#     4  11  19  34  59  92 122 164 203 240 308 378
#
# _framework density 20.073257999999999
#
# number of rings (size 3 to 8) (size 9 to 14) (size 15 to 20)
#    0.000    1.286    4.286    2.571    4.000    1.714 
#    0.000    0.000    0.000    3.857    0.000    0.000 
#    0.000    0.000    0.000    0.000    0.000    0.000 
#
# Total GULP energy -155933.924564 kJ/mol
# GULP energy per Si atom -5569.068734 kJ/mol
# Density = 2.002757 g / cm^3
# Si number density = 20.073258 Si / 1000 Ang^3
#
#
#
# Elastic Constant Matrix: (Units=GPa)
#
#
# Indices 1 2 3 4 5 6 
#
# 1 86.8494 20.0629 39.7837 0.0000 20.0141 0.0000
# 2 20.0629 57.3932 16.1597 0.0000 5.2053 0.0000
# 3 39.7837 16.1597 103.6133 0.0000 17.8259 0.0000
# 4 0.0000 0.0000 0.0000 21.4342 0.0000 0.0009
# 5 20.0141 5.2053 17.8259 0.0000 34.5567 0.0000
# 6 0.0000 0.0000 0.0000 0.0009 0.0000 7.3034
#
#
#
# Elastic Compliance Matrix: (Units=1/GPa)
#
#
# Indices 1 2 3 4 5 6 
#
# 1 0.015861 -0.003725 -0.004417 0.000000 -0.006346 0.000000
# 2 -0.003725 0.019161 -0.001572 0.000000 0.000082 0.000000
# 3 -0.004417 -0.001572 0.012194 0.000000 -0.003495 0.000000
# 4 0.000000 0.000000 0.000000 0.046654 0.000000 -0.000006
# 5 -0.006346 0.000082 -0.003495 0.000000 0.034404 0.000000
# 6 0.000000 0.000000 0.000000 -0.000006 0.000000 0.136923
#
#
# Mechanical properties :
#
#
# Convention : Reuss Voigt Hill
#
# Bulk Modulus (GPa) = 35.98862 44.42984 40.20923
# Shear Modulus (GPa) = 17.01330 24.11549 20.56440
#
# Velocity S-wave (km/s) = 2.91445 3.46984 3.20420
# Velocity P-wave (km/s) = 5.41229 6.18345 5.81068
#
# Compressibility (1/GPa) = 0.02778656
#
# Stress axis : x y z
#
# Youngs Moduli (GPa) = 63.04949 52.18915 82.00914
#
# Poissons Ratio (x) = 0.19441 0.36224
# Poissons Ratio (y) = 0.23487 0.12894
# Poissons Ratio (z) = 0.27849 0.08205
#
# Static dielectric constant tensor:
#      x y z
#    x 1.967680 0.000000 0.038560 
#    y 0.000000 1.685970 0.000000 
#    z 0.038560 0.000000 1.732910 
# 
# From -- ./inp_files/59303.got.cif
#   From: 2010.05.17/outbox.cif.g08.bks.cpg/sg10_30_cif.got.tgz:59303.got - 2010.06.03 11:33:40.
