data_PCOD9152189
_publ_section_title
;
Structure prediction by ZEFSAII (Michael W. Deem and Ramdas Pophale) SiO2 
 PCOD9152189
Probable space group: P 2/M
;
_chemical_formula_sum "Si O2"
_cell_formula_units_Z 28
_cell_length_a 9.495139
_cell_length_b 17.592856
_cell_length_c 15.379987
_cell_angle_alpha 90.000000
_cell_angle_beta 144.085105
_cell_angle_gamma 90.000000
_cell_volume 1507.034022
_symmetry_space_group_name_H-M "P 2/M"
_symmetry_group_IT_number 10
_symmetry_cell_setting 'monoclinic'
loop_
_space_group_symop_operation_xyz
x,y,z
-x,y,-z
-x,-y,-z
x,-y,z
loop_
_atom_site_type_symbol
_atom_site_label
_atom_site_fract_x
_atom_site_fract_y
_atom_site_fract_z
Si Si1 0.228382 0.123179 0.049977
Si Si2 0.898534 0.297016 0.357106
Si Si3 0.771619 0.123176 0.321596
Si Si4 0.780924 0.244446 0.640460
Si Si5 0.101460 0.702984 0.958568
Si Si6 0.499992 0.585235 0.103013
Si Si7 0.975954 0.083120 0.237978
O O1 0.499999 0.101177 0.215212
O O2 0.224154 0.214708 0.036034
O O3 0.176224 0.090848 0.927356
O O4 0.000000 0.104700 0.000000
O O5 0.775865 0.214704 0.311888
O O6 0.724834 0.362975 0.239878
O O7 0.000000 0.320466 0.500000
O O8 0.097418 0.280365 0.383733
O O9 0.823766 0.090844 0.251127
O O10 0.000000 0.104694 0.500000
O O11 0.500000 0.255609 0.500000
O O12 0.902575 0.280357 0.786314
O O13 0.845936 0.154795 0.672961
O O14 0.275133 0.637020 0.015022
O O15 0.000000 0.679535 0.000000
O O16 0.499996 0.500000 0.140910
O O17 0.500000 0.578119 0.000000
O O18 0.092145 0.000000 0.296072
#
# Coordination Sequence:
#
# PCOD9152189 Si02
#       7
#     4   4   4   4   4   4   4
#     4  10  21  37  61  88 117 156 207 251 295 353
#     4  10  21  36  62  87 117 154 201 245 292 347
#     4  10  21  37  61  88 117 156 207 251 295 353
#     4  10  22  39  60  89 118 151 200 247 296 355
#     4  10  21  36  62  87 117 154 201 245 292 347
#     4  11  22  38  62  89 121 159 198 244 296 347
#     4  10  23  39  58  86 120 157 195 246 304 361
#
# _framework density 18.579540000000001
#
# number of rings (size 3 to 8) (size 9 to 14) (size 15 to 20)
#    0.000    1.857    2.857    0.429    2.000    9.429 
#    0.000    0.000    0.000    0.857    0.000    0.000 
#    0.000    0.000    0.000    0.000    0.000    0.000 
#
# Total GULP energy -156149.900130 kJ/mol
# GULP energy per Si atom -5576.782148 kJ/mol
# Density = 1.853725 g / cm^3
# Si number density = 18.579540 Si / 1000 Ang^3
#
#
#
# Elastic Constant Matrix: (Units=GPa)
#
#
# Indices 1 2 3 4 5 6 
#
# 1 134.5938 45.2497 97.2810 0.0000 4.1486 0.0000
# 2 45.2497 121.5672 48.5718 0.0000 5.7199 0.0000
# 3 97.2810 48.5718 144.8719 0.0000 13.5475 0.0000
# 4 0.0000 0.0000 0.0000 -8.6901 0.0000 -7.4133
# 5 4.1486 5.7199 13.5475 0.0000 36.0545 0.0000
# 6 0.0000 0.0000 0.0000 -7.4133 0.0000 -4.3858
#
#
#
# Elastic Compliance Matrix: (Units=1/GPa)
#
#
# Indices 1 2 3 4 5 6 
#
# 1 0.014923 -0.001815 -0.009617 0.000000 0.002184 0.000000
# 2 -0.001815 0.009723 -0.001986 0.000000 -0.000587 0.000000
# 3 -0.009617 -0.001986 0.014399 0.000000 -0.003989 0.000000
# 4 0.000000 0.000000 0.000000 0.260368 0.000000 -0.440103
# 5 0.002184 -0.000587 -0.003989 0.000000 0.029076 0.000000
# 6 0.000000 0.000000 0.000000 -0.440103 0.000000 0.515900
#
#
# Mechanical properties :
#
#
# Convention : Reuss Voigt Hill
#
# Bulk Modulus (GPa) = 81.90352 87.02642 84.46497
# Shear Modulus (GPa) = 5.71235 18.59108 12.15172
#
# Velocity S-wave (km/s) = 1.75534 3.16669 2.56019
# Velocity P-wave (km/s) = 6.94886 7.76609 7.36881
#
# Compressibility (1/GPa) = 0.01220949
#
# Stress axis : x y z
#
# Youngs Moduli (GPa) = 67.00891 102.85242 69.44907
#
# Poissons Ratio (x) = 0.18670 0.66787
# Poissons Ratio (y) = 0.12164 0.13792
# Poissons Ratio (z) = 0.64440 0.20425
#
# Static dielectric constant tensor:
#      x y z
#    x 1.637070 0.000000 0.005090 
#    y 0.000000 1.637500 0.000000 
#    z 0.005090 0.000000 1.640010 
# 
# From -- ./inp_files/62356.got.cif
#   From: 2010.05.17/outbox.cif.g08.bks.cpg/sg10_32_cif.got.tgz:62356.got - 2010.06.03 11:33:40.
