data_PCOD9152519
_publ_section_title
;
Structure prediction by ZEFSAII (Michael W. Deem and Ramdas Pophale) SiO2 
 PCOD9152519
Probable space group: P 2/M
;
_chemical_formula_sum "Si O2"
_cell_formula_units_Z 28
_cell_length_a 20.699842
_cell_length_b 15.930805
_cell_length_c 11.491263
_cell_angle_alpha 90.000000
_cell_angle_beta 23.345498
_cell_angle_gamma 90.000000
_cell_volume 1501.650517
_symmetry_space_group_name_H-M "P 2/M"
_symmetry_group_IT_number 10
_symmetry_cell_setting 'monoclinic'
loop_
_space_group_symop_operation_xyz
x,y,z
-x,y,-z
-x,-y,-z
x,-y,z
loop_
_atom_site_type_symbol
_atom_site_label
_atom_site_fract_x
_atom_site_fract_y
_atom_site_fract_z
Si Si1 0.535709 0.662282 0.629341
Si Si2 0.875430 0.500000 0.378137
Si Si3 0.203386 0.233741 0.930302
Si Si4 0.166499 0.901085 0.798810
Si Si5 0.180276 0.695531 0.210008
Si Si6 0.869314 0.686019 0.451478
Si Si7 0.750820 0.500000 0.320380
Si Si8 0.376199 0.778291 0.306134
O O1 0.626349 0.725747 0.391110
O O2 0.645258 0.580287 0.459383
O O3 0.543805 0.712144 0.737939
O O4 0.346441 0.644059 0.915032
O O5 0.833377 0.586801 0.511607
O O6 0.786013 0.500000 0.400869
O O7 0.069935 0.500000 0.033195
O O8 0.168052 0.148430 0.919011
O O9 0.187564 0.234744 0.096120
O O10 0.061185 0.296915 0.121572
O O11 0.308049 0.856927 0.489801
O O12 0.189534 0.000000 0.776179
O O13 0.000000 0.888258 0.000000
O O14 0.181718 0.725651 0.340641
O O15 0.000000 0.653361 0.500000
O O16 0.774569 0.730015 0.504243
O O17 0.500000 0.802042 0.000000
#
# Coordination Sequence:
#
# PCOD9152519 Si02
#       8
#     4   2   4   4   4   4   2   4
#     4  11  21  37  59  89 113 160 210 256 299 355
#     4  11  22  35  58  92 133 154 205 270 307 350
#     4  10  21  39  64  83 122 159 207 244 291 378
#     4  10  21  37  66 100 124 151 192 253 311 363
#     4  10  23  40  59  79 116 165 209 245 298 356
#     4  11  20  38  58  92 121 165 205 250 309 350
#     4  11  22  33  57  90 126 154 203 265 318 347
#     4  11  21  36  61  91 128 156 197 248 311 373
#
# _framework density 18.646149999999999
#
# number of rings (size 3 to 8) (size 9 to 14) (size 15 to 20)
#    0.000    1.429    5.714    0.429    0.000    0.857 
#    0.000   10.000    0.000   11.571    0.000    0.000 
#    0.000    0.000    0.000    0.000    0.000    0.000 
#
# Total GULP energy -156101.603598 kJ/mol
# GULP energy per Si atom -5575.057271 kJ/mol
# Density = 1.860371 g / cm^3
# Si number density = 18.646150 Si / 1000 Ang^3
#
#
#
# Elastic Constant Matrix: (Units=GPa)
#
#
# Indices 1 2 3 4 5 6 
#
# 1 99.9251 44.8111 34.5090 0.0000 6.6323 0.0000
# 2 44.8111 118.1876 24.7892 0.0000 5.3848 0.0000
# 3 34.5090 24.7892 91.6271 0.0000 -11.3669 0.0000
# 4 0.0000 0.0000 0.0000 13.5120 0.0000 -5.6794
# 5 6.6323 5.3848 -11.3669 0.0000 37.0582 0.0000
# 6 0.0000 0.0000 0.0000 -5.6794 0.0000 9.0248
#
#
#
# Elastic Compliance Matrix: (Units=1/GPa)
#
#
# Indices 1 2 3 4 5 6 
#
# 1 0.013567 -0.004075 -0.004402 0.000000 -0.003186 0.000000
# 2 -0.004075 0.010359 -0.001418 0.000000 -0.001211 0.000000
# 3 -0.004402 -0.001418 0.013596 0.000000 0.005164 0.000000
# 4 0.000000 0.000000 0.000000 0.100625 0.000000 0.063324
# 5 -0.003186 -0.001211 0.005164 0.000000 0.029315 0.000000
# 6 0.000000 0.000000 0.000000 0.063324 0.000000 0.150655
#
#
# Mechanical properties :
#
#
# Convention : Reuss Voigt Hill
#
# Bulk Modulus (GPa) = 56.39928 57.55096 56.97512
# Shear Modulus (GPa) = 14.54259 25.62771 20.08515
#
# Velocity S-wave (km/s) = 2.79574 3.71134 3.28559
# Velocity P-wave (km/s) = 6.38235 7.02120 6.70938
#
# Compressibility (1/GPa) = 0.01773072
#
# Stress axis : x y z
#
# Youngs Moduli (GPa) = 73.70872 96.53568 73.55070
#
# Poissons Ratio (x) = 0.39342 0.32379
# Poissons Ratio (y) = 0.30039 0.10428
# Poissons Ratio (z) = 0.32449 0.13687
#
# Static dielectric constant tensor:
#      x y z
#    x 1.678420 0.000000 -0.004970 
#    y 0.000000 1.585260 0.000000 
#    z -0.004970 0.000000 1.690210 
# 
# From -- ./inp_files/56106.got.cif
#   From: 2010.05.17/outbox.cif.g08.bks.cpg/sg10_29_cif.got.tgz:56106.got - 2010.06.03 11:33:40.
