data_PCOD9152711
_publ_section_title
;
Structure prediction by ZEFSAII (Michael W. Deem and Ramdas Pophale) SiO2 
 PCOD9152711
Probable space group: P 2/M
;
_chemical_formula_sum "Si O2"
_cell_formula_units_Z 32
_cell_length_a 14.345707
_cell_length_b 17.657358
_cell_length_c 12.422182
_cell_angle_alpha 90.000000
_cell_angle_beta 148.431474
_cell_angle_gamma 90.000000
_cell_volume 1647.316868
_symmetry_space_group_name_H-M "P 2/M"
_symmetry_group_IT_number 10
_symmetry_cell_setting 'monoclinic'
loop_
_space_group_symop_operation_xyz
x,y,z
-x,y,-z
-x,-y,-z
x,-y,z
loop_
_atom_site_type_symbol
_atom_site_label
_atom_site_fract_x
_atom_site_fract_y
_atom_site_fract_z
Si Si1 0.013797 0.909620 0.348575
Si Si2 0.276658 0.308982 0.373629
Si Si3 0.782312 0.414451 0.086069
Si Si4 0.284146 0.154076 0.788916
Si Si5 0.658369 0.712252 0.804844
Si Si6 0.193705 0.584132 0.465716
Si Si7 0.291038 0.667123 0.775371
Si Si8 0.018686 0.183814 0.893416
O O1 0.830369 0.880268 0.224676
O O2 0.180420 0.879256 0.583239
O O3 0.028522 0.877136 0.242801
O O4 0.013481 0.000000 0.350792
O O5 0.281947 0.322057 0.251612
O O6 0.454143 0.265876 0.586565
O O7 0.278050 0.386906 0.438984
O O8 0.110001 0.257133 0.240345
O O9 0.708292 0.500000 0.007143
O O10 0.799443 0.386672 0.225755
O O11 0.982583 0.416017 0.239502
O O12 0.679236 0.349614 0.918919
O O13 0.253475 0.244712 0.758741
O O14 0.500000 0.140797 0.000000
O O15 0.786112 0.783967 0.942971
O O16 0.250314 0.500000 0.553217
O O17 0.239951 0.642126 0.605881
O O18 0.500000 0.655775 0.000000
O O19 0.000000 0.158538 0.000000
#
# Coordination Sequence:
#
# PCOD9152711 Si02
#       8
#     4   4   4   4   4   4   4   4
#     4  11  24  39  63  95 121 155 194 228 288 364
#     4  10  21  38  61  86 111 149 200 243 286 339
#     4  11  23  36  53  80 116 155 194 242 298 345
#     4  10  23  41  63  91 121 154 196 246 290 339
#     4  10  21  38  61  86 111 149 200 243 286 339
#     4  11  23  36  53  80 116 155 194 242 298 345
#     4  11  23  37  57  82 110 153 201 238 285 345
#     4  10  21  40  63  87 122 156 189 245 294 339
#
# _framework density 19.425528
#
# number of rings (size 3 to 8) (size 9 to 14) (size 15 to 20)
#    0.000    1.500    1.250    3.750    3.500    8.250 
#    0.000    2.500    0.000    0.000    0.000    5.250 
#    0.000    0.000    0.000    0.000    0.000    0.000 
#
# Total GULP energy -178683.818496 kJ/mol
# GULP energy per Si atom -5583.869328 kJ/mol
# Density = 1.938131 g / cm^3
# Si number density = 19.425528 Si / 1000 Ang^3
#
#
#
# Elastic Constant Matrix: (Units=GPa)
#
#
# Indices 1 2 3 4 5 6 
#
# 1 57.0084 26.6634 25.1947 0.0000 -9.3377 0.0000
# 2 26.6634 66.0930 21.3715 0.0000 -5.3894 0.0000
# 3 25.1947 21.3715 79.7063 0.0000 -5.0832 0.0000
# 4 0.0000 0.0000 0.0000 -2.0734 0.0000 30.8567
# 5 -9.3377 -5.3894 -5.0832 0.0000 36.1374 0.0000
# 6 0.0000 0.0000 0.0000 30.8567 0.0000 -0.4716
#
#
#
# Elastic Compliance Matrix: (Units=1/GPa)
#
#
# Indices 1 2 3 4 5 6 
#
# 1 0.024198 -0.007690 -0.005309 0.000000 0.004359 0.000000
# 2 -0.007690 0.019135 -0.002669 0.000000 0.000491 0.000000
# 3 -0.005309 -0.002669 0.014961 0.000000 0.000335 0.000000
# 4 0.000000 0.000000 0.000000 0.000496 0.000000 0.032441
# 5 0.004359 0.000491 0.000335 0.000000 0.028919 0.000000
# 6 0.000000 0.000000 0.000000 0.032441 0.000000 0.002180
#
#
# Mechanical properties :
#
#
# Convention : Reuss Voigt Hill
#
# Bulk Modulus (GPa) = 37.09266 38.80743 37.95004
# Shear Modulus (GPa) = 38.39916 15.35703 26.87810
#
# Velocity S-wave (km/s) = 4.45087 2.81474 3.72378
# Velocity P-wave (km/s) = 6.74907 5.53033 6.16987
#
# Compressibility (1/GPa) = 0.02695951
#
# Stress axis : x y z
#
# Youngs Moduli (GPa) = 41.32532 52.25894 66.83999
#
# Poissons Ratio (x) = 0.40187 0.35486
# Poissons Ratio (y) = 0.31779 0.17837
# Poissons Ratio (z) = 0.21940 0.13946
#
# Static dielectric constant tensor:
#      x y z
#    x 1.718460 0.000000 0.027940 
#    y 0.000000 1.643430 0.000000 
#    z 0.027940 0.000000 1.695010 
# 
# From -- ./inp_files/52020.got.cif
#   From: 2010.05.17/outbox.cif.g08.bks.cpg/sg10_27_cif.got.tgz:52020.got - 2010.06.03 11:33:40.
