data_PCOD9152202
_publ_section_title
;
Structure prediction by ZEFSAII (Michael W. Deem and Ramdas Pophale) SiO2 
 PCOD9152202
Probable space group: P 2/M
;
_chemical_formula_sum "Si O2"
_cell_formula_units_Z 26
_cell_length_a 12.565475
_cell_length_b 7.477622
_cell_length_c 16.535497
_cell_angle_alpha 90.000000
_cell_angle_beta 54.058371
_cell_angle_gamma 90.000000
_cell_volume 1257.877723
_symmetry_space_group_name_H-M "P 2/M"
_symmetry_group_IT_number 10
_symmetry_cell_setting 'monoclinic'
loop_
_space_group_symop_operation_xyz
x,y,z
-x,y,-z
-x,-y,-z
x,-y,z
loop_
_atom_site_type_symbol
_atom_site_label
_atom_site_fract_x
_atom_site_fract_y
_atom_site_fract_z
Si Si1 0.950560 0.795276 0.637898
Si Si2 0.002707 0.795965 0.187645
Si Si3 0.760783 0.782359 0.509534
Si Si4 0.717230 0.217191 0.345664
Si Si5 0.254339 0.500000 0.246837
Si Si6 0.205466 0.500000 0.075803
Si Si7 0.559787 0.500000 0.152661
Si Si8 0.513292 0.785018 0.301739
O O1 0.978992 0.797093 0.722462
O O2 0.910740 0.728556 0.460814
O O3 0.825599 0.670170 0.683663
O O4 0.924892 0.000000 0.624006
O O5 0.113401 0.671250 0.101461
O O6 0.853783 0.728952 0.242271
O O7 0.013814 0.000000 0.154868
O O8 0.722629 0.721227 0.435794
O O9 0.639202 0.732078 0.619722
O O10 0.765024 0.000000 0.506050
O O11 0.591581 0.263741 0.348739
O O12 0.720075 0.000000 0.348183
O O13 0.235966 0.500000 0.157818
O O14 0.408401 0.500000 0.192721
O O15 0.336812 0.500000 0.965534
O O16 0.575681 0.675065 0.201237
O O17 0.521119 0.000000 0.287825
#
# Coordination Sequence:
#
# PCOD9152202 Si02
#       8
#     4   4   4   4   2   2   2   4
#     4   8  15  30  55  85 107 125 163 217 264 308
#     4   8  15  30  55  85 107 125 163 217 264 308
#     4   8  14  29  56  85 111 142 176 205 241 299
#     4   8  14  29  56  85 111 142 176 205 241 299
#     4  10  21  39  60  75  94 129 173 228 282 316
#     4  10  21  39  60  75  94 129 173 228 282 316
#     4  12  27  40  51  74 102 134 184 226 261 320
#     4  10  21  37  53  75 115 153 173 203 250 297
#
# _framework density 20.669734999999999
#
# number of rings (size 3 to 8) (size 9 to 14) (size 15 to 20)
#    0.000    3.077    0.000    2.538    0.000    4.308 
#    0.000    6.154    0.000   10.154    0.000    0.000 
#    0.000    0.000    0.000    0.000    0.000    0.000 
#
# Total GULP energy -145176.180563 kJ/mol
# GULP energy per Si atom -5583.699252 kJ/mol
# Density = 2.062269 g / cm^3
# Si number density = 20.669735 Si / 1000 Ang^3
#
#
#
# Elastic Constant Matrix: (Units=GPa)
#
#
# Indices 1 2 3 4 5 6 
#
# 1 106.2323 28.1982 48.5166 0.0000 -20.4824 0.0000
# 2 28.1982 83.6368 42.4290 0.0000 -13.4189 0.0000
# 3 48.5166 42.4290 115.7484 0.0000 -26.1113 0.0000
# 4 0.0000 0.0000 0.0000 56.9737 0.0000 -13.0314
# 5 -20.4824 -13.4189 -26.1113 0.0000 26.6769 0.0000
# 6 0.0000 0.0000 0.0000 -13.0314 0.0000 16.9733
#
#
#
# Elastic Compliance Matrix: (Units=1/GPa)
#
#
# Indices 1 2 3 4 5 6 
#
# 1 0.012436 -0.001596 -0.003407 0.000000 0.005411 0.000000
# 2 -0.001596 0.015048 -0.004384 0.000000 0.002053 0.000000
# 3 -0.003407 -0.004384 0.013587 0.000000 0.008478 0.000000
# 4 0.000000 0.000000 0.000000 0.021291 0.000000 0.016346
# 5 0.005411 0.002053 0.008478 0.000000 0.050971 0.000000
# 6 0.000000 0.000000 0.000000 0.016346 0.000000 0.071466
#
#
# Mechanical properties :
#
#
# Convention : Reuss Voigt Hill
#
# Bulk Modulus (GPa) = 44.84946 60.43390 52.64168
# Shear Modulus (GPa) = 23.69607 32.55635 28.12621
#
# Velocity S-wave (km/s) = 3.38955 3.97302 3.69283
# Velocity P-wave (km/s) = 6.08802 7.09563 6.61105
#
# Compressibility (1/GPa) = 0.02229681
#
# Stress axis : x y z
#
# Youngs Moduli (GPa) = 80.40979 66.45432 73.60028
#
# Poissons Ratio (x) = 0.10609 0.25075
# Poissons Ratio (y) = 0.12837 0.32265
# Poissons Ratio (z) = 0.27395 0.29132
#
# Static dielectric constant tensor:
#      x y z
#    x 1.745110 0.000000 0.010770 
#    y 0.000000 1.756490 0.000000 
#    z 0.010770 0.000000 1.698770 
# 
# From -- ./inp_files/63337.got.cif
#   From: 2010.05.17/outbox.cif.g08.bks.cpg/sg10_32_cif.got.tgz:63337.got - 2010.06.03 11:33:40.
