data_PCOD9152089
_publ_section_title
;
Structure prediction by ZEFSAII (Michael W. Deem and Ramdas Pophale) SiO2 
 PCOD9152089
Probable space group: P 2/M
;
_chemical_formula_sum "Si O2"
_cell_formula_units_Z 18
_cell_length_a 17.215333
_cell_length_b 10.123333
_cell_length_c 5.767208
_cell_angle_alpha 90.000000
_cell_angle_beta 114.258248
_cell_angle_gamma 90.000000
_cell_volume 916.342662
_symmetry_space_group_name_H-M "P 2/M"
_symmetry_group_IT_number 10
_symmetry_cell_setting 'monoclinic'
loop_
_space_group_symop_operation_xyz
x,y,z
-x,y,-z
-x,-y,-z
x,-y,z
loop_
_atom_site_type_symbol
_atom_site_label
_atom_site_fract_x
_atom_site_fract_y
_atom_site_fract_z
Si Si1 0.661222 0.348514 0.945308
Si Si2 0.771527 0.852547 0.343880
Si Si3 0.615389 0.857024 0.510656
Si Si4 0.035639 0.841983 0.292903
Si Si5 0.500000 0.253711 0.000000
O O1 0.682668 0.500000 0.928727
O O2 0.626337 0.269798 0.682505
O O3 0.740224 0.261455 0.133492
O O4 0.582192 0.337801 0.027705
O O5 0.697621 0.859110 0.444692
O O6 0.862656 0.824693 0.568502
O O7 0.776855 0.000000 0.239880
O O8 0.612647 0.000000 0.628701
O O9 0.532795 0.836652 0.250059
O O10 0.000000 0.792010 0.500000
O O11 0.017242 0.000000 0.269777
O O12 0.000000 0.791222 0.000000
#
# Coordination Sequence:
#
# PCOD9152089 Si02
#       5
#     4   4   4   4   2
#     4  11  23  37  56  80 111 151 192 235 286 345
#     4   9  20  37  58  84 114 148 188 237 290 345
#     4  10  21  36  57  83 112 145 187 237 292 346
#     4   9  18  32  57  91 122 151 191 245 302 355
#     4  10  22  38  56  78 108 146 192 240 284 344
#
# _framework density 19.643305999999999
#
# number of rings (size 3 to 8) (size 9 to 14) (size 15 to 20)
#    0.000    2.222    0.000    2.000    3.111    8.889 
#    0.000    0.000    0.000    1.333    0.000    0.000 
#    0.000    0.000    0.000    0.000    0.000    0.000 
#
# Total GULP energy -100357.994733 kJ/mol
# GULP energy per Si atom -5575.444152 kJ/mol
# Density = 1.959860 g / cm^3
# Si number density = 19.643306 Si / 1000 Ang^3
#
#
#
# Elastic Constant Matrix: (Units=GPa)
#
#
# Indices 1 2 3 4 5 6 
#
# 1 55.8263 19.0990 35.7797 0.0000 17.5348 0.0000
# 2 19.0990 145.2220 66.8806 0.0000 10.2528 0.0000
# 3 35.7797 66.8806 141.6873 0.0000 16.1893 0.0000
# 4 0.0000 0.0000 0.0000 160.9288 0.0000 121.2560
# 5 17.5348 10.2528 16.1893 0.0000 27.1496 0.0000
# 6 0.0000 0.0000 0.0000 121.2560 0.0000 113.3807
#
#
#
# Elastic Compliance Matrix: (Units=1/GPa)
#
#
# Indices 1 2 3 4 5 6 
#
# 1 0.025228 -0.000183 -0.004754 0.000000 -0.013390 0.000000
# 2 -0.000183 0.008821 -0.004025 0.000000 -0.000813 0.000000
# 3 -0.004754 -0.004025 0.010338 0.000000 -0.001574 0.000000
# 4 0.000000 0.000000 0.000000 0.032000 0.000000 -0.034222
# 5 -0.013390 -0.000813 -0.001574 0.000000 0.046726 0.000000
# 6 0.000000 0.000000 0.000000 -0.034222 0.000000 0.045419
#
#
# Mechanical properties :
#
#
# Convention : Reuss Voigt Hill
#
# Bulk Modulus (GPa) = 37.78866 65.13932 51.46399
# Shear Modulus (GPa) = 25.60462 75.02358 50.31410
#
# Velocity S-wave (km/s) = 3.61429 6.18675 5.06650
# Velocity P-wave (km/s) = 6.05777 9.17974 7.77702
#
# Compressibility (1/GPa) = 0.02646296
#
# Stress axis : x y z
#
# Youngs Moduli (GPa) = 39.63829 113.36585 96.73026
#
# Poissons Ratio (x) = 0.02074 0.45990
# Poissons Ratio (y) = 0.00725 0.38931
# Poissons Ratio (z) = 0.18846 0.45626
#
# Static dielectric constant tensor:
#      x y z
#    x 1.720390 0.000000 -0.045670 
#    y 0.000000 1.669380 0.000000 
#    z -0.045670 0.000000 1.722770 
# 
# From -- ./inp_files/10493.got.cif
#   From: 2010.05.17/outbox.cif.g08.bks.cpg/sg10_6_cif.got.tgz:10493.got - 2010.06.03 11:33:40.
