data_PCOD9152101
_publ_section_title
;
Structure prediction by ZEFSAII (Michael W. Deem and Ramdas Pophale) SiO2 
 PCOD9152101
Probable space group: P 2/M
;
_chemical_formula_sum "Si O2"
_cell_formula_units_Z 30
_cell_length_a 10.390942
_cell_length_b 14.380251
_cell_length_c 11.941439
_cell_angle_alpha 90.000000
_cell_angle_beta 116.015657
_cell_angle_gamma 90.000000
_cell_volume 1603.541985
_symmetry_space_group_name_H-M "P 2/M"
_symmetry_group_IT_number 10
_symmetry_cell_setting 'monoclinic'
loop_
_space_group_symop_operation_xyz
x,y,z
-x,y,-z
-x,-y,-z
x,-y,z
loop_
_atom_site_type_symbol
_atom_site_label
_atom_site_fract_x
_atom_site_fract_y
_atom_site_fract_z
Si Si1 0.500000 0.810579 0.000000
Si Si2 0.839182 0.607062 0.480689
Si Si3 0.279120 0.611528 0.157360
Si Si4 0.553464 0.106733 0.778135
Si Si5 0.226742 0.715694 0.907969
Si Si6 0.961924 0.605341 0.767699
Si Si7 0.840424 0.896621 0.982637
Si Si8 0.540008 0.287631 0.382156
O O1 0.467349 0.871290 0.097125
O O2 0.625474 0.743097 0.091782
O O3 0.816707 0.500000 0.430482
O O4 0.859458 0.602946 0.622221
O O5 0.696879 0.669553 0.411946
O O6 0.000000 0.635820 0.500000
O O7 0.285020 0.500000 0.162035
O O8 0.132932 0.640741 0.165468
O O9 0.417019 0.653438 0.271605
O O10 0.266492 0.651435 0.028554
O O11 0.726204 0.118797 0.838844
O O12 0.476261 0.182904 0.672502
O O13 0.515125 0.000000 0.738968
O O14 0.100950 0.665715 0.795184
O O15 0.173127 0.814209 0.934733
O O16 0.008831 0.500000 0.811044
O O17 0.808472 0.000000 0.016741
O O18 0.000000 0.896461 0.000000
O O19 0.500000 0.290377 0.500000
#
# Coordination Sequence:
#
# PCOD9152101 Si02
#       8
#     2   4   4   4   4   4   4   4
#     4  10  21  38  59  88 116 160 197 234 303 368
#     4  10  23  40  59  84 118 161 206 248 294 353
#     4  11  21  36  57  86 119 154 196 248 300 351
#     4  10  22  40  62  88 119 153 197 247 303 365
#     4  11  21  34  56  83 120 148 194 242 298 355
#     4  10  21  36  57  84 115 157 197 240 300 357
#     4   9  17  31  54  81 111 142 180 233 291 348
#     4  12  23  39  64  89 118 159 208 254 297 349
#
# _framework density 18.708583999999998
#
# number of rings (size 3 to 8) (size 9 to 14) (size 15 to 20)
#    0.000    1.600    4.000    2.200    1.867    2.400 
#    0.000    1.333    0.000    1.200    0.000    0.000 
#    0.000    0.000    0.000    0.000    0.000    0.000 
#
# Total GULP energy -167217.139462 kJ/mol
# GULP energy per Si atom -5573.904649 kJ/mol
# Density = 1.866600 g / cm^3
# Si number density = 18.708584 Si / 1000 Ang^3
#
#
#
# Elastic Constant Matrix: (Units=GPa)
#
#
# Indices 1 2 3 4 5 6 
#
# 1 100.2851 47.1343 13.5811 0.0000 26.0182 0.0000
# 2 47.1343 103.3347 24.3690 0.0000 25.1271 0.0000
# 3 13.5811 24.3690 56.3297 0.0000 13.0924 0.0000
# 4 0.0000 0.0000 0.0000 25.5839 0.0000 7.7972
# 5 26.0182 25.1271 13.0924 0.0000 31.0018 0.0000
# 6 0.0000 0.0000 0.0000 7.7972 0.0000 20.8629
#
#
#
# Elastic Compliance Matrix: (Units=1/GPa)
#
#
# Indices 1 2 3 4 5 6 
#
# 1 0.014243 -0.004555 0.000507 0.000000 -0.008475 0.000000
# 2 -0.004555 0.014076 -0.003580 0.000000 -0.006074 0.000000
# 3 0.000507 -0.003580 0.020628 0.000000 -0.006235 0.000000
# 4 0.000000 0.000000 0.000000 0.044111 0.000000 -0.016486
# 5 -0.008475 -0.006074 -0.006235 0.000000 0.046925 0.000000
# 6 0.000000 0.000000 0.000000 -0.016486 0.000000 0.054093
#
#
# Mechanical properties :
#
#
# Convention : Reuss Voigt Hill
#
# Bulk Modulus (GPa) = 29.68157 47.79092 38.73625
# Shear Modulus (GPa) = 22.66913 27.14739 24.90826
#
# Velocity S-wave (km/s) = 3.48472 3.81342 3.65277
# Velocity P-wave (km/s) = 5.66486 6.70745 6.20808
#
# Compressibility (1/GPa) = 0.03369094
#
# Stress axis : x y z
#
# Youngs Moduli (GPa) = 70.21119 71.04174 48.47706
#
# Poissons Ratio (x) = 0.32361 -0.02456
# Poissons Ratio (y) = 0.31983 0.17352
# Poissons Ratio (z) = -0.03556 0.25430
#
# Static dielectric constant tensor:
#      x y z
#    x 1.712140 0.000000 -0.001280 
#    y 0.000000 1.654970 0.000000 
#    z -0.001280 0.000000 1.636710 
# 
# From -- ./inp_files/43016.got.cif
#   From: 2010.05.17/outbox.cif.g08.bks.cpg/sg10_22_cif.got.tgz:43016.got - 2010.06.03 11:33:40.
