data_PCOD9152036
_publ_section_title
;
Structure prediction by ZEFSAII (Michael W. Deem and Ramdas Pophale) SiO2 
 PCOD9152036
Probable space group: P 2/M
;
_chemical_formula_sum "Si O2"
_cell_formula_units_Z 32
_cell_length_a 26.724065
_cell_length_b 8.950529
_cell_length_c 21.138748
_cell_angle_alpha 90.000000
_cell_angle_beta 20.814034
_cell_angle_gamma 90.000000
_cell_volume 1796.675334
_symmetry_space_group_name_H-M "P 2/M"
_symmetry_group_IT_number 10
_symmetry_cell_setting 'monoclinic'
loop_
_space_group_symop_operation_xyz
x,y,z
-x,y,-z
-x,-y,-z
x,-y,z
loop_
_atom_site_type_symbol
_atom_site_label
_atom_site_fract_x
_atom_site_fract_y
_atom_site_fract_z
Si Si1 0.148650 0.178587 0.793657
Si Si2 0.157614 0.821009 0.291383
Si Si3 0.144440 0.319494 0.535736
Si Si4 0.151733 0.821551 0.151623
Si Si5 0.432744 0.324905 0.774442
Si Si6 0.414383 0.675923 0.539818
Si Si7 0.730939 0.680562 0.475067
Si Si8 0.337718 0.680212 0.188109
O O1 0.273999 0.232963 0.691127
O O2 0.180771 0.250887 0.687287
O O3 0.151333 0.000000 0.784046
O O4 0.000000 0.223317 0.000000
O O5 0.170244 0.777676 0.203350
O O6 0.265928 0.742598 0.210027
O O7 0.000000 0.783410 0.500000
O O8 0.174711 0.000000 0.276104
O O9 0.134887 0.500000 0.545834
O O10 0.209598 0.276740 0.526704
O O11 0.246558 0.272927 0.357203
O O12 0.990189 0.251866 0.707407
O O13 0.137408 0.000000 0.165447
O O14 0.292282 0.767600 0.950926
O O15 0.404093 0.500000 0.821299
O O16 0.488373 0.311880 0.637128
O O17 0.566781 0.276921 0.658809
O O18 0.500000 0.725379 0.500000
O O19 0.378350 0.500000 0.589964
O O20 0.736117 0.500000 0.463073
O O21 0.335249 0.500000 0.189204
O O22 0.500000 0.728458 0.000000
#
# Coordination Sequence:
#
# PCOD9152036 Si02
#       8
#     4   4   4   4   4   4   4   4
#     4  10  21  36  55  83 116 147 182 224 272 323
#     4  10  21  39  57  76 109 147 184 225 268 321
#     4  10  21  38  57  81 111 142 180 227 276 323
#     4  11  23  37  55  80 110 147 186 223 268 326
#     4   9  19  36  58  83 110 141 179 226 274 320
#     4   9  19  37  60  84 110 144 186 227 269 322
#     4   9  20  38  59  81 109 145 184 226 271 324
#     4  10  22  37  58  86 110 137 179 229 279 327
#
# _framework density 17.810673999999999
#
# number of rings (size 3 to 8) (size 9 to 14) (size 15 to 20)
#    0.000    2.250    1.250    1.500    1.750    6.250 
#    0.000    3.750    0.000    0.000    0.000    0.000 
#    0.000    0.000    0.000    0.000    0.000    0.000 
#
# Total GULP energy -178601.196115 kJ/mol
# GULP energy per Si atom -5581.287379 kJ/mol
# Density = 1.777014 g / cm^3
# Si number density = 17.810674 Si / 1000 Ang^3
#
#
#
# Elastic Constant Matrix: (Units=GPa)
#
#
# Indices 1 2 3 4 5 6 
#
# 1 151.0006 33.6074 58.3716 0.0000 -26.3194 0.0000
# 2 33.6074 18.9549 33.4698 0.0000 -6.0261 0.0000
# 3 58.3716 33.4698 119.3800 0.0000 -22.6142 0.0000
# 4 0.0000 0.0000 0.0000 -65.1934 0.0000 -2.5908
# 5 -26.3194 -6.0261 -22.6142 0.0000 17.8230 0.0000
# 6 0.0000 0.0000 0.0000 -2.5908 0.0000 -6.7235
#
#
#
# Elastic Compliance Matrix: (Units=1/GPa)
#
#
# Indices 1 2 3 4 5 6 
#
# 1 0.013721 -0.025245 0.003410 0.000000 0.016053 0.000000
# 2 -0.025245 0.151007 -0.036047 0.000000 -0.031960 0.000000
# 3 0.003410 -0.036047 0.020353 0.000000 0.018671 0.000000
# 4 0.000000 0.000000 0.000000 -0.015578 0.000000 0.006003
# 5 0.016053 -0.031960 0.018671 0.000000 0.092696 0.000000
# 6 0.000000 0.000000 0.000000 0.006003 0.000000 -0.151045
#
#
# Mechanical properties :
#
#
# Convention : Reuss Voigt Hill
#
# Bulk Modulus (GPa) = 14.42680 60.02591 37.22635
# Shear Modulus (GPa) = 19.99802 0.10700 10.05251
#
# Velocity S-wave (km/s) = 3.35447 0.24537 2.37831
# Velocity P-wave (km/s) = 4.80843 5.81856 5.33744
#
# Compressibility (1/GPa) = 0.06931546
#
# Stress axis : x y z
#
# Youngs Moduli (GPa) = 72.88099 6.62221 49.13351
#
# Poissons Ratio (x) = 0.16718 -0.16752
# Poissons Ratio (y) = 1.83986 1.77114
# Poissons Ratio (z) = -0.24849 0.23871
#
# Static dielectric constant tensor:
#      x y z
#    x 1.598310 0.000000 0.008100 
#    y 0.000000 1.597480 0.000000 
#    z 0.008100 0.000000 1.586430 
# 
# From -- ./inp_files/86733.got.cif
#   From: 2010.05.17/outbox.cif.g08.bks.cpg/sg10_44_cif.got.tgz:86733.got - 2010.06.03 11:33:40.
