data_PCOD9152029
_publ_section_title
;
Structure prediction by ZEFSAII (Michael W. Deem and Ramdas Pophale) SiO2 
 PCOD9152029
Probable space group: P 2/M
;
_chemical_formula_sum "Si O2"
_cell_formula_units_Z 22
_cell_length_a 5.265630
_cell_length_b 24.476734
_cell_length_c 6.846318
_cell_angle_alpha 90.000000
_cell_angle_beta 81.664783
_cell_angle_gamma 90.000000
_cell_volume 873.069800
_symmetry_space_group_name_H-M "P 2/M"
_symmetry_group_IT_number 10
_symmetry_cell_setting 'monoclinic'
loop_
_space_group_symop_operation_xyz
x,y,z
-x,y,-z
-x,-y,-z
x,-y,z
loop_
_atom_site_type_symbol
_atom_site_label
_atom_site_fract_x
_atom_site_fract_y
_atom_site_fract_z
Si Si1 0.910088 0.675372 0.726642
Si Si2 0.726580 0.000000 0.633315
Si Si3 0.774536 0.440445 0.863993
Si Si4 0.409415 0.116835 0.228710
Si Si5 0.403822 0.277545 0.732480
Si Si6 0.903959 0.163932 0.231942
O O1 0.808995 0.613719 0.733235
O O2 0.673880 0.714682 0.814354
O O3 0.000000 0.691948 0.500000
O O4 0.179340 0.679647 0.811604
O O5 0.500000 0.000000 0.500000
O O6 0.696513 0.055668 0.757712
O O7 0.000000 0.000000 0.500000
O O8 0.788598 0.500000 0.761127
O O9 0.500000 0.437379 0.000000
O O10 0.000000 0.439530 0.000000
O O11 0.679619 0.121255 0.312804
O O12 0.174842 0.157078 0.313508
O O13 0.500000 0.131509 0.000000
O O14 0.500000 0.286910 0.500000
O O15 0.250570 0.220676 0.751689
O O16 0.000000 0.153901 0.000000
#
# Coordination Sequence:
#
# PCOD9152029 Si02
#       6
#     4   2   4   4   4   4
#     4  10  21  37  56  81 113 150 190 228 279 342
#     4  12  25  40  61  92 118 146 192 238 281 334
#     4  10  21  37  57  83 113 146 188 238 288 334
#     4  10  22  41  61  83 116 153 187 229 282 336
#     4  10  21  36  55  82 115 148 184 232 283 330
#     4  10  21  37  59  85 111 147 193 231 273 335
#
# _framework density 25.198440999999999
#
# number of rings (size 3 to 8) (size 9 to 14) (size 15 to 20)
#    0.000    1.818    0.000    3.545    0.000    4.727 
#    0.000    3.636    0.000    6.545    0.000    0.000 
#    0.000    0.000    0.000    0.000    0.000    0.000 
#
# Total GULP energy -122991.614963 kJ/mol
# GULP energy per Si atom -5590.527953 kJ/mol
# Density = 2.514109 g / cm^3
# Si number density = 25.198441 Si / 1000 Ang^3
#
#
#
# Elastic Constant Matrix: (Units=GPa)
#
#
# Indices 1 2 3 4 5 6 
#
# 1 239.7845 54.3917 50.7324 0.0000 -45.3260 0.0000
# 2 54.3917 152.4303 1.4590 0.0000 -43.7406 0.0000
# 3 50.7324 1.4590 66.7301 0.0000 -27.8485 0.0000
# 4 0.0000 0.0000 0.0000 38.3244 0.0000 -13.2103
# 5 -45.3260 -43.7406 -27.8485 0.0000 55.7408 0.0000
# 6 0.0000 0.0000 0.0000 -13.2103 0.0000 46.4048
#
#
#
# Elastic Compliance Matrix: (Units=1/GPa)
#
#
# Indices 1 2 3 4 5 6 
#
# 1 0.005555 -0.001495 -0.003532 0.000000 0.001580 0.000000
# 2 -0.001495 0.009474 0.004453 0.000000 0.008444 0.000000
# 3 -0.003532 0.004453 0.022531 0.000000 0.011880 0.000000
# 4 0.000000 0.000000 0.000000 0.028932 0.000000 0.008236
# 5 0.001580 0.008444 0.011880 0.000000 0.031786 0.000000
# 6 0.000000 0.000000 0.000000 0.008236 0.000000 0.023894
#
#
# Mechanical properties :
#
#
# Convention : Reuss Voigt Hill
#
# Bulk Modulus (GPa) = 27.46215 74.67902 51.07058
# Shear Modulus (GPa) = 36.91200 51.58478 44.24839
#
# Velocity S-wave (km/s) = 3.83149 4.52944 4.19501
# Velocity P-wave (km/s) = 5.52230 7.55349 6.61630
#
# Compressibility (1/GPa) = 0.03641376
#
# Stress axis : x y z
#
# Youngs Moduli (GPa) = 180.00552 105.54929 44.38323
#
# Poissons Ratio (x) = 0.15782 0.15675
# Poissons Ratio (y) = 0.26915 -0.19766
# Poissons Ratio (z) = 0.63571 -0.47006
#
# Static dielectric constant tensor:
#      x y z
#    x 2.079660 0.000000 0.101950 
#    y 0.000000 1.999130 0.000000 
#    z 0.101950 0.000000 1.995190 
# 
# From -- ./inp_files/5201.got.cif
#   From: 2010.05.17/outbox.cif.g08.bks.cpg/sg10_3_cif.got.tgz:5201.got - 2010.06.03 11:33:40.
