data_PCOD9152136
_publ_section_title
;
Structure prediction by ZEFSAII (Michael W. Deem and Ramdas Pophale) SiO2 
 PCOD9152136
Probable space group: P 2/M
;
_chemical_formula_sum "Si O2"
_cell_formula_units_Z 26
_cell_length_a 19.378209
_cell_length_b 11.300243
_cell_length_c 4.989804
_cell_angle_alpha 90.000000
_cell_angle_beta 81.576946
_cell_angle_gamma 90.000000
_cell_volume 1080.873647
_symmetry_space_group_name_H-M "P 2/M"
_symmetry_group_IT_number 10
_symmetry_cell_setting 'monoclinic'
loop_
_space_group_symop_operation_xyz
x,y,z
-x,y,-z
-x,-y,-z
x,-y,z
loop_
_atom_site_type_symbol
_atom_site_label
_atom_site_fract_x
_atom_site_fract_y
_atom_site_fract_z
Si Si1 0.621954 0.500000 0.474503
Si Si2 0.448826 0.000000 0.270557
Si Si3 0.079810 0.729534 0.501893
Si Si4 0.917376 0.874244 0.000065
Si Si5 0.581842 0.236501 0.519172
Si Si6 0.220347 0.727098 0.212108
Si Si7 0.700247 0.500000 0.919652
Si Si8 0.279384 0.857973 0.709144
O O1 0.590849 0.374392 0.584641
O O2 0.693040 0.500000 0.601287
O O3 0.632210 0.500000 0.149732
O O4 0.500000 0.000000 0.500000
O O5 0.408125 0.124178 0.287962
O O6 0.500000 0.000000 0.000000
O O7 0.096574 0.763705 0.796272
O O8 0.147144 0.666532 0.341174
O O9 0.000000 0.686088 0.500000
O O10 0.087079 0.847509 0.312794
O O11 0.885925 0.000000 0.097656
O O12 0.000000 0.884134 0.000000
O O13 0.500000 0.231327 0.500000
O O14 0.643400 0.199222 0.277923
O O15 0.262062 0.621770 0.048369
O O16 0.253050 0.788684 0.457829
O O17 0.226010 0.828412 0.981084
O O18 0.285591 0.000000 0.672014
#
# Coordination Sequence:
#
# PCOD9152136 Si02
#       8
#     2   2   4   4   4   4   2   4
#     4  12  25  46  72 102 139 178 236 294 339 410
#     4  10  24  42  68 100 140 182 219 272 347 406
#     4  10  21  36  58  88 123 165 216 278 339 400
#     4   9  17  30  51  81 119 160 200 251 324 396
#     4  11  24  46  71 104 138 179 229 286 343 403
#     4  12  25  45  68  96 136 178 232 284 340 416
#     4  12  24  46  70  94 132 186 226 278 354 402
#     4  12  26  45  70 101 138 184 227 279 340 418
#
# _framework density 24.054614000000001
#
# number of rings (size 3 to 8) (size 9 to 14) (size 15 to 20)
#    0.000    1.077    3.846    2.077    0.000   10.462 
#    0.000    1.538    0.000    0.000    0.000    6.462 
#    0.000    0.000    0.000    0.000    0.000    0.000 
#
# Total GULP energy -144734.610674 kJ/mol
# GULP energy per Si atom -5566.715795 kJ/mol
# Density = 2.399986 g / cm^3
# Si number density = 24.054614 Si / 1000 Ang^3
#
#
#
# Elastic Constant Matrix: (Units=GPa)
#
#
# Indices 1 2 3 4 5 6 
#
# 1 97.6462 14.5213 19.1645 0.0000 -22.1403 0.0000
# 2 14.5213 164.8555 18.1922 0.0000 -11.3560 0.0000
# 3 19.1645 18.1922 102.7828 0.0000 -5.2748 0.0000
# 4 0.0000 0.0000 0.0000 8.1296 0.0000 -7.1119
# 5 -22.1403 -11.3560 -5.2748 0.0000 42.9214 0.0000
# 6 0.0000 0.0000 0.0000 -7.1119 0.0000 10.0639
#
#
#
# Elastic Compliance Matrix: (Units=1/GPa)
#
#
# Indices 1 2 3 4 5 6 
#
# 1 0.011997 -0.000449 -0.001858 0.000000 0.005841 0.000000
# 2 -0.000449 0.006303 -0.000964 0.000000 0.001317 0.000000
# 3 -0.001858 -0.000964 0.010249 0.000000 0.000046 0.000000
# 4 0.000000 0.000000 0.000000 0.322180 0.000000 0.227675
# 5 0.005841 0.001317 0.000046 0.000000 0.026666 0.000000
# 6 0.000000 0.000000 0.000000 0.227675 0.000000 0.260256
#
#
# Mechanical properties :
#
#
# Convention : Reuss Voigt Hill
#
# Bulk Modulus (GPa) = 45.44232 52.11561 48.77896
# Shear Modulus (GPa) = 7.67427 33.11676 20.39552
#
# Velocity S-wave (km/s) = 1.78809 3.71446 2.91500
# Velocity P-wave (km/s) = 4.81616 6.33315 5.62602
#
# Compressibility (1/GPa) = 0.02200592
#
# Stress axis : x y z
#
# Youngs Moduli (GPa) = 83.35488 158.66374 97.57393
#
# Poissons Ratio (x) = 0.07130 0.18125
# Poissons Ratio (y) = 0.03746 0.09408
# Poissons Ratio (z) = 0.15484 0.15298
#
# Static dielectric constant tensor:
#      x y z
#    x 2.146020 0.000000 0.004710 
#    y 0.000000 1.953200 0.000000 
#    z 0.004710 0.000000 1.879290 
# 
# From -- ./inp_files/12233.got.cif
#   From: 2010.05.17/outbox.cif.g08.bks.cpg/sg10_7_cif.got.tgz:12233.got - 2010.06.03 11:33:40.
