data_PCOD9152099
_publ_section_title
;
Structure prediction by ZEFSAII (Michael W. Deem and Ramdas Pophale) SiO2 
 PCOD9152099
Probable space group: P 2/M
;
_chemical_formula_sum "Si O2"
_cell_formula_units_Z 28
_cell_length_a 19.180951
_cell_length_b 7.537176
_cell_length_c 14.174052
_cell_angle_alpha 90.000000
_cell_angle_beta 36.552898
_cell_angle_gamma 90.000000
_cell_volume 1220.398752
_symmetry_space_group_name_H-M "P 2/M"
_symmetry_group_IT_number 10
_symmetry_cell_setting 'monoclinic'
loop_
_space_group_symop_operation_xyz
x,y,z
-x,y,-z
-x,-y,-z
x,-y,z
loop_
_atom_site_type_symbol
_atom_site_label
_atom_site_fract_x
_atom_site_fract_y
_atom_site_fract_z
Si Si1 0.716003 0.715077 0.017112
Si Si2 0.689965 0.284291 0.515948
Si Si3 0.079094 0.703086 0.832579
Si Si4 0.209686 0.205210 0.390429
Si Si5 0.016575 0.208085 0.262032
Si Si6 0.401020 0.298543 0.041151
Si Si7 0.465532 0.716212 0.641404
O O1 0.715270 0.500000 0.014855
O O2 0.849031 0.771175 0.857855
O O3 0.634012 0.780528 0.020911
O O4 0.658132 0.771004 0.179079
O O5 0.695165 0.500000 0.515122
O O6 0.794942 0.221470 0.333221
O O7 0.717930 0.218254 0.590263
O O8 0.567202 0.233994 0.604338
O O9 0.102958 0.500000 0.837145
O O10 0.007845 0.703305 0.812187
O O11 0.000000 0.786855 0.000000
O O12 0.282830 0.302101 0.231015
O O13 0.080104 0.273525 0.557916
O O14 0.200997 0.000000 0.370594
O O15 0.990183 0.000000 0.277957
O O16 0.443073 0.500000 0.975400
O O17 0.500000 0.213735 0.000000
O O18 0.500000 0.779258 0.500000
O O19 0.464068 0.500000 0.638962
#
# Coordination Sequence:
#
# PCOD9152099 Si02
#       7
#     4   4   4   4   4   4   4
#     4  10  21  36  57  84 113 144 184 233 278 331
#     4   9  17  32  54  81 110 141 179 228 280 328
#     4   9  18  31  54  84 108 138 186 236 277 326
#     4  10  21  37  57  81 110 148 188 228 275 330
#     4  10  22  38  54  77 114 154 188 226 278 333
#     4  10  21  38  61  88 114 143 182 230 284 335
#     4   9  18  32  55  83 110 142 180 226 279 332
#
# _framework density 22.943321000000001
#
# number of rings (size 3 to 8) (size 9 to 14) (size 15 to 20)
#    0.000    2.429    0.000    1.714    2.000    5.714 
#    0.000    5.000    0.000    0.857    0.000    0.000 
#    0.000    0.000    0.000    0.000    0.000    0.000 
#
# Total GULP energy -156385.292071 kJ/mol
# GULP energy per Si atom -5585.189003 kJ/mol
# Density = 2.289110 g / cm^3
# Si number density = 22.943321 Si / 1000 Ang^3
#
#
#
# Elastic Constant Matrix: (Units=GPa)
#
#
# Indices 1 2 3 4 5 6 
#
# 1 57.1377 -8.3712 50.0611 0.0000 -14.6120 0.0000
# 2 -8.3712 63.5403 -0.4491 0.0000 0.7876 0.0000
# 3 50.0611 -0.4491 127.6061 0.0000 11.4149 0.0000
# 4 0.0000 0.0000 0.0000 22.5676 0.0000 24.0113
# 5 -14.6120 0.7876 11.4149 0.0000 35.8972 0.0000
# 6 0.0000 0.0000 0.0000 24.0113 0.0000 65.6852
#
#
#
# Elastic Compliance Matrix: (Units=1/GPa)
#
#
# Indices 1 2 3 4 5 6 
#
# 1 0.038306 0.004669 -0.016877 0.000000 0.020857 0.000000
# 2 0.004669 0.016312 -0.001968 0.000000 0.002168 0.000000
# 3 -0.016877 -0.001968 0.015502 0.000000 -0.011756 0.000000
# 4 0.000000 0.000000 0.000000 0.072515 0.000000 -0.026508
# 5 0.020857 0.002168 -0.011756 0.000000 0.040038 0.000000
# 6 0.000000 0.000000 0.000000 -0.026508 0.000000 0.024914
#
#
# Mechanical properties :
#
#
# Convention : Reuss Voigt Hill
#
# Bulk Modulus (GPa) = 23.94177 36.75176 30.34676
# Shear Modulus (GPa) = 20.01083 38.63289 29.32186
#
# Velocity S-wave (km/s) = 2.95648 4.10791 3.57881
# Velocity P-wave (km/s) = 4.70236 6.20912 5.50751
#
# Compressibility (1/GPa) = 0.04176801
#
# Stress axis : x y z
#
# Youngs Moduli (GPa) = 26.10527 61.30317 64.50580
#
# Poissons Ratio (x) = -0.28622 1.08868
# Poissons Ratio (y) = -0.12188 0.12696
# Poissons Ratio (z) = 0.44059 0.12066
#
# Static dielectric constant tensor:
#      x y z
#    x 1.815990 0.000000 -0.003410 
#    y 0.000000 1.927030 0.000000 
#    z -0.003410 0.000000 1.877860 
# 
# From -- ./inp_files/68584.got.cif
#   From: 2010.05.17/outbox.cif.g08.bks.cpg/sg10_35_cif.got.tgz:68584.got - 2010.06.03 11:33:40.
