data_PCOD9152034
_publ_section_title
;
Structure prediction by ZEFSAII (Michael W. Deem and Ramdas Pophale) SiO2 
 PCOD9152034
Probable space group: P 2/M
;
_chemical_formula_sum "Si O2"
_cell_formula_units_Z 21
_cell_length_a 8.938639
_cell_length_b 10.058738
_cell_length_c 12.494680
_cell_angle_alpha 90.000000
_cell_angle_beta 99.181265
_cell_angle_gamma 90.000000
_cell_volume 1109.021884
_symmetry_space_group_name_H-M "P 2/M"
_symmetry_group_IT_number 10
_symmetry_cell_setting 'monoclinic'
loop_
_space_group_symop_operation_xyz
x,y,z
-x,y,-z
-x,-y,-z
x,-y,z
loop_
_atom_site_type_symbol
_atom_site_label
_atom_site_fract_x
_atom_site_fract_y
_atom_site_fract_z
Si Si1 0.426316 0.342763 0.875967
Si Si2 0.708618 0.646039 0.436545
Si Si3 0.897817 0.650544 0.239234
Si Si4 0.161906 0.211583 0.361148
Si Si5 0.000000 0.000000 0.500000
Si Si6 0.513432 0.153452 0.692863
O O1 0.443943 0.500000 0.847166
O O2 0.245482 0.315974 0.851717
O O3 0.497265 0.242115 0.798068
O O4 0.500000 0.325544 0.000000
O O5 0.635505 0.500000 0.421327
O O6 0.826726 0.653854 0.351440
O O7 0.788372 0.664287 0.559108
O O8 0.593475 0.766993 0.402628
O O9 0.945266 0.500000 0.221252
O O10 0.040333 0.746437 0.258300
O O11 0.314933 0.155885 0.327825
O O12 0.082051 0.113500 0.434782
O O13 0.462599 0.000000 0.699738
#
# Coordination Sequence:
#
# PCOD9152034 Si02
#       6
#     4   4   4   4   1   4
#     4   9  20  42  67  87 110 143 188 241 298 353
#     4  10  21  36  55  82 117 157 195 234 283 338
#     4   9  18  34  57  83 108 144 188 234 285 340
#     4  12  22  35  55  80 121 157 199 230 276 333
#     4  12  24  36  52  80 122 176 188 230 274 340
#     4  11  24  36  56  85 117 151 193 241 285 337
#
# _framework density 18.935604000000001
#
# number of rings (size 3 to 8) (size 9 to 14) (size 15 to 20)
#    0.000    1.714    2.857    2.857    1.333    6.476 
#    0.000    0.952    0.000    4.571    0.000    0.000 
#    0.000    0.000    0.000    0.000    0.000    0.000 
#
# Total GULP energy -116907.445271 kJ/mol
# GULP energy per Si atom -5567.021203 kJ/mol
# Density = 1.889251 g / cm^3
# Si number density = 18.935604 Si / 1000 Ang^3
#
#
#
# Elastic Constant Matrix: (Units=GPa)
#
#
# Indices 1 2 3 4 5 6 
#
# 1 76.4440 49.4730 16.7362 0.0000 15.3080 0.0000
# 2 49.4730 129.7891 34.1237 0.0000 7.9224 0.0000
# 3 16.7362 34.1237 76.8534 0.0000 25.2083 0.0000
# 4 0.0000 0.0000 0.0000 -67.0402 0.0000 -41.2050
# 5 15.3080 7.9224 25.2083 0.0000 23.5740 0.0000
# 6 0.0000 0.0000 0.0000 -41.2050 0.0000 -6.9920
#
#
#
# Elastic Compliance Matrix: (Units=1/GPa)
#
#
# Indices 1 2 3 4 5 6 
#
# 1 0.020242 -0.007842 0.003883 0.000000 -0.014661 0.000000
# 2 -0.007842 0.011815 -0.006016 0.000000 0.007555 0.000000
# 3 0.003883 -0.006016 0.023105 0.000000 -0.025207 0.000000
# 4 0.000000 0.000000 0.000000 0.005689 0.000000 -0.033524
# 5 -0.014661 0.007555 -0.025207 0.000000 0.076355 0.000000
# 6 0.000000 0.000000 0.000000 -0.033524 0.000000 0.054544
#
#
# Mechanical properties :
#
#
# Convention : Reuss Voigt Hill
#
# Bulk Modulus (GPa) = 28.39971 53.75025 41.07498
# Shear Modulus (GPa) = 22.37754 2.09194 12.23474
#
# Velocity S-wave (km/s) = 3.44142 1.05222 2.54465
# Velocity P-wave (km/s) = 5.55173 5.47025 5.51114
#
# Compressibility (1/GPa) = 0.03521163
#
# Stress axis : x y z
#
# Youngs Moduli (GPa) = 49.40114 84.64129 43.27988
#
# Poissons Ratio (x) = 0.66375 -0.16804
# Poissons Ratio (y) = 0.38740 0.26038
# Poissons Ratio (z) = -0.19181 0.50921
#
# Static dielectric constant tensor:
#      x y z
#    x 1.677600 0.000000 0.023390 
#    y 0.000000 1.678460 0.000000 
#    z 0.023390 0.000000 1.648100 
# 
# From -- ./inp_files/60153.got.cif
#   From: 2010.05.17/outbox.cif.g08.bks.cpg/sg10_31_cif.got.tgz:60153.got - 2010.06.03 11:33:40.
