data_PCOD9152290
_publ_section_title
;
Structure prediction by ZEFSAII (Michael W. Deem and Ramdas Pophale) SiO2 
 PCOD9152290
Probable space group: P 2/M
;
_chemical_formula_sum "Si O2"
_cell_formula_units_Z 28
_cell_length_a 29.804161
_cell_length_b 9.081108
_cell_length_c 9.495119
_cell_angle_alpha 90.000000
_cell_angle_beta 142.563894
_cell_angle_gamma 90.000000
_cell_volume 1562.181136
_symmetry_space_group_name_H-M "P 2/M"
_symmetry_group_IT_number 10
_symmetry_cell_setting 'monoclinic'
loop_
_space_group_symop_operation_xyz
x,y,z
-x,y,-z
-x,-y,-z
x,-y,z
loop_
_atom_site_type_symbol
_atom_site_label
_atom_site_fract_x
_atom_site_fract_y
_atom_site_fract_z
Si Si1 0.198622 0.675084 0.912098
Si Si2 0.790968 0.676033 0.389881
Si Si3 0.068188 0.323054 0.069064
Si Si4 0.492686 0.675674 0.145866
Si Si5 0.928857 0.176102 0.228270
Si Si6 0.634892 0.175280 0.995098
Si Si7 0.631553 0.324593 0.687360
O O1 0.187116 0.500000 0.903693
O O2 0.186242 0.708296 0.715296
O O3 0.143326 0.762837 0.872761
O O4 0.285057 0.707748 0.154943
O O5 0.776837 0.500000 0.360562
O O6 0.856337 0.711842 0.659974
O O7 0.715581 0.760884 0.233038
O O8 0.065375 0.500000 0.041503
O O9 0.064555 0.245373 0.909864
O O10 0.000000 0.282168 0.000000
O O11 0.478572 0.500000 0.124107
O O12 0.426482 0.762484 0.053168
O O13 0.568976 0.707044 0.417463
O O14 0.500000 0.710850 0.000000
O O15 0.000000 0.216655 0.500000
O O16 0.925590 0.000000 0.209987
O O17 0.617487 0.236803 0.795623
O O18 0.635877 0.000000 0.997257
O O19 0.629571 0.500000 0.714932
#
# Coordination Sequence:
#
# PCOD9152290 Si02
#       7
#     4   4   4   4   4   4   4
#     4   9  18  35  59  83 106 138 184 232 272 316
#     4   9  19  37  60  84 109 139 179 226 275 325
#     4  10  21  38  61  85 107 138 184 233 274 316
#     4  10  21  37  57  80 108 144 185 229 275 321
#     4  11  24  38  53  79 116 153 183 216 267 328
#     4  11  22  35  55  83 113 145 181 221 268 326
#     4   9  19  37  59  81 107 142 184 228 273 322
#
# _framework density 17.923656999999999
#
# number of rings (size 3 to 8) (size 9 to 14) (size 15 to 20)
#    0.000    2.143    0.000    3.857    0.000    9.143 
#    0.000    2.857    0.000    0.000    0.000    0.000 
#    0.000    0.000    0.000    0.000    0.000    0.000 
#
# Total GULP energy -156393.498898 kJ/mol
# GULP energy per Si atom -5585.482104 kJ/mol
# Density = 1.788286 g / cm^3
# Si number density = 17.923657 Si / 1000 Ang^3
#
#
#
# Elastic Constant Matrix: (Units=GPa)
#
#
# Indices 1 2 3 4 5 6 
#
# 1 173.8051 86.9512 114.7795 0.0000 2.6792 0.0000
# 2 86.9512 62.2909 81.2686 0.0000 -0.3098 0.0000
# 3 114.7795 81.2686 170.3450 0.0000 -9.4902 0.0000
# 4 0.0000 0.0000 0.0000 14.8009 0.0000 0.7266
# 5 2.6792 -0.3098 -9.4902 0.0000 14.1121 0.0000
# 6 0.0000 0.0000 0.0000 0.7266 0.0000 -41.9537
#
#
#
# Elastic Compliance Matrix: (Units=1/GPa)
#
#
# Indices 1 2 3 4 5 6 
#
# 1 0.019397 -0.025655 -0.001108 0.000000 -0.004991 0.000000
# 2 -0.025655 0.078958 -0.020794 0.000000 -0.007379 0.000000
# 3 -0.001108 -0.020794 0.017167 0.000000 0.011299 0.000000
# 4 0.000000 0.000000 0.000000 0.067506 0.000000 0.001169
# 5 -0.004991 -0.007379 0.011299 0.000000 0.079245 0.000000
# 6 0.000000 0.000000 0.000000 0.001169 0.000000 -0.023816
#
#
# Mechanical properties :
#
#
# Convention : Reuss Voigt Hill
#
# Bulk Modulus (GPa) = 49.00218 108.04883 78.52551
# Shear Modulus (GPa) = 14.68969 5.62131 10.15550
#
# Velocity S-wave (km/s) = 2.86592 1.77287 2.38291
# Velocity P-wave (km/s) = 6.19274 8.03769 7.17476
#
# Compressibility (1/GPa) = 0.02040726
#
# Stress axis : x y z
#
# Youngs Moduli (GPa) = 51.55374 12.66502 58.25057
#
# Poissons Ratio (x) = 0.32492 0.06457
# Poissons Ratio (y) = 1.32261 1.21126
# Poissons Ratio (z) = 0.05715 0.26336
#
# Static dielectric constant tensor:
#      x y z
#    x 1.577220 0.000000 0.005260 
#    y 0.000000 1.592990 0.000000 
#    z 0.005260 0.000000 1.607030 
# 
# From -- ./inp_files/37065.got.cif
#   From: 2010.05.17/outbox.cif.g08.bks.cpg/sg10_19_cif.got.tgz:37065.got - 2010.06.03 11:33:40.
