data_PCOD9152520
_publ_section_title
;
Structure prediction by ZEFSAII (Michael W. Deem and Ramdas Pophale) SiO2 
 PCOD9152520
Probable space group: P 2/M
;
_chemical_formula_sum "Si O2"
_cell_formula_units_Z 28
_cell_length_a 5.618309
_cell_length_b 16.568849
_cell_length_c 15.587033
_cell_angle_alpha 90.000000
_cell_angle_beta 123.906832
_cell_angle_gamma 90.000000
_cell_volume 1204.234690
_symmetry_space_group_name_H-M "P 2/M"
_symmetry_group_IT_number 10
_symmetry_cell_setting 'monoclinic'
loop_
_space_group_symop_operation_xyz
x,y,z
-x,y,-z
-x,-y,-z
x,-y,z
loop_
_atom_site_type_symbol
_atom_site_label
_atom_site_fract_x
_atom_site_fract_y
_atom_site_fract_z
Si Si1 0.685630 0.368137 0.774894
Si Si2 0.193293 0.904578 0.213835
Si Si3 0.673609 0.902484 0.448404
Si Si4 0.406917 0.680563 0.067117
Si Si5 0.018029 0.760378 0.748325
Si Si6 0.159498 0.500000 0.327443
Si Si7 0.024821 0.645473 0.604314
Si Si8 0.000000 0.823537 0.000000
O O1 0.737711 0.370662 0.886676
O O2 0.856956 0.429972 0.751202
O O3 0.351025 0.383578 0.689313
O O4 0.775409 0.279257 0.760924
O O5 0.489894 0.886901 0.324570
O O6 0.972588 0.854151 0.229045
O O7 0.146103 0.000000 0.206901
O O8 0.143950 0.873883 0.106270
O O9 0.500000 0.874855 0.500000
O O10 0.000000 0.873399 0.500000
O O11 0.689071 0.000000 0.460275
O O12 0.688228 0.717196 0.167803
O O13 0.500000 0.635948 0.000000
O O14 0.225397 0.759779 0.005763
O O15 0.955690 0.726897 0.641825
O O16 0.166934 0.571883 0.401418
O O17 0.000000 0.658781 0.500000
#
# Coordination Sequence:
#
# PCOD9152520 Si02
#       8
#     4   4   4   4   4   2   4   2
#     4  10  21  40  63  92 135 176 220 272 341 416
#     4  11  23  43  69 102 137 177 241 308 367 423
#     4   9  20  42  67  94 134 186 234 289 369 446
#     4  11  20  39  67  89 128 178 225 271 347 423
#     4  10  22  41  62  91 131 181 227 276 347 425
#     4  10  21  37  66 102 135 173 221 277 347 408
#     4  10  22  39  65  99 135 175 224 282 347 411
#     4  12  23  42  68  99 134 174 232 303 372 424
#
# _framework density 23.251282
#
# number of rings (size 3 to 8) (size 9 to 14) (size 15 to 20)
#    0.000    1.714    2.857    0.857    0.000    4.000 
#    2.571    3.929    0.000   12.000    0.000    0.000 
#    0.000    0.000    0.000    0.000    0.000    0.000 
#
# Total GULP energy -155890.882892 kJ/mol
# GULP energy per Si atom -5567.531532 kJ/mol
# Density = 2.319836 g / cm^3
# Si number density = 23.251282 Si / 1000 Ang^3
#
#
#
# Elastic Constant Matrix: (Units=GPa)
#
#
# Indices 1 2 3 4 5 6 
#
# 1 80.4286 11.8480 57.8797 0.0000 -20.6375 0.0000
# 2 11.8480 62.3302 33.4937 0.0000 -16.8841 0.0000
# 3 57.8797 33.4937 174.7625 0.0000 -42.3252 0.0000
# 4 0.0000 0.0000 0.0000 6.5915 0.0000 1.0388
# 5 -20.6375 -16.8841 -42.3252 0.0000 55.3568 0.0000
# 6 0.0000 0.0000 0.0000 1.0388 0.0000 15.8843
#
#
#
# Elastic Compliance Matrix: (Units=1/GPa)
#
#
# Indices 1 2 3 4 5 6 
#
# 1 0.016589 0.000163 -0.004928 0.000000 0.002466 0.000000
# 2 0.000163 0.018450 -0.002715 0.000000 0.003612 0.000000
# 3 -0.004928 -0.002715 0.008872 0.000000 0.004118 0.000000
# 4 0.000000 0.000000 0.000000 0.153290 0.000000 -0.010025
# 5 0.002466 0.003612 0.004118 0.000000 0.023234 0.000000
# 6 0.000000 0.000000 0.000000 -0.010025 0.000000 0.063611
#
#
# Mechanical properties :
#
#
# Convention : Reuss Voigt Hill
#
# Bulk Modulus (GPa) = 34.54218 58.21823 46.38021
# Shear Modulus (GPa) = 16.19929 29.85319 23.02624
#
# Velocity S-wave (km/s) = 2.64238 3.58709 3.15035
# Velocity P-wave (km/s) = 4.91913 6.49995 5.76399
#
# Compressibility (1/GPa) = 0.02895011
#
# Stress axis : x y z
#
# Youngs Moduli (GPa) = 60.28260 54.20029 112.71648
#
# Poissons Ratio (x) = -0.00883 0.55546
# Poissons Ratio (y) = -0.00982 0.30604
# Poissons Ratio (z) = 0.29707 0.14716
#
# Static dielectric constant tensor:
#      x y z
#    x 1.986310 0.000000 0.013460 
#    y 0.000000 1.944140 0.000000 
#    z 0.013460 0.000000 1.924260 
# 
# From -- ./inp_files/59473.got.cif
#   From: 2010.05.17/outbox.cif.g08.bks.cpg/sg10_30_cif.got.tgz:59473.got - 2010.06.03 11:33:40.
