data_PCOD9152812
_publ_section_title
;
Structure prediction by ZEFSAII (Michael W. Deem and Ramdas Pophale) SiO2 
 PCOD9152812
Probable space group: P 2/M
;
_chemical_formula_sum "Si O2"
_cell_formula_units_Z 22
_cell_length_a 11.068795
_cell_length_b 12.525671
_cell_length_c 12.697040
_cell_angle_alpha 90.000000
_cell_angle_beta 35.353915
_cell_angle_gamma 90.000000
_cell_volume 1018.594409
_symmetry_space_group_name_H-M "P 2/M"
_symmetry_group_IT_number 10
_symmetry_cell_setting 'monoclinic'
loop_
_space_group_symop_operation_xyz
x,y,z
-x,y,-z
-x,-y,-z
x,-y,z
loop_
_atom_site_type_symbol
_atom_site_label
_atom_site_fract_x
_atom_site_fract_y
_atom_site_fract_z
Si Si1 0.363232 0.120321 0.702940
Si Si2 0.625915 0.377094 0.519682
Si Si3 0.473724 0.758676 0.809685
Si Si4 0.072910 0.321196 0.170195
Si Si5 0.000000 0.292962 0.000000
Si Si6 0.223788 0.616919 0.283024
O O1 0.500000 0.131935 0.500000
O O2 0.500412 0.142917 0.710844
O O3 0.280016 0.000000 0.763871
O O4 0.183559 0.209960 0.836537
O O5 0.500000 0.368583 0.500000
O O6 0.693310 0.500000 0.482599
O O7 0.488472 0.340352 0.715778
O O8 0.834791 0.305398 0.375341
O O9 0.638144 0.717629 0.778799
O O10 0.244214 0.770026 0.024037
O O11 0.180767 0.381824 0.189135
O O12 0.040314 0.363634 0.074592
O O13 0.315363 0.500000 0.245051
O O14 0.000000 0.624297 0.500000
#
# Coordination Sequence:
#
# PCOD9152812 Si02
#       6
#     4   4   4   4   2   4
#     4  10  21  38  64  93 121 155 200 253 310 367
#     4  11  22  35  53  82 120 158 197 243 294 354
#     4  11  22  38  60  85 118 158 202 250 302 357
#     4  11  22  38  59  86 119 160 203 246 298 358
#     4  10  21  38  63  90 122 158 199 250 309 362
#     4  11  23  39  60  86 121 167 210 248 294 358
#
# _framework density 21.598390999999999
#
# number of rings (size 3 to 8) (size 9 to 14) (size 15 to 20)
#    0.000    1.273    1.818    5.727    0.000    3.636 
#    0.000    3.636    0.000   10.364    0.000    0.000 
#    0.000    0.000    0.000    0.000    0.000    0.000 
#
# Total GULP energy -122495.906115 kJ/mol
# GULP energy per Si atom -5567.995732 kJ/mol
# Density = 2.154923 g / cm^3
# Si number density = 21.598391 Si / 1000 Ang^3
#
#
#
# Elastic Constant Matrix: (Units=GPa)
#
#
# Indices 1 2 3 4 5 6 
#
# 1 116.5807 24.0853 31.1715 0.0000 20.5830 0.0000
# 2 24.0853 66.7647 33.8922 0.0000 3.6166 0.0000
# 3 31.1715 33.8922 107.7217 0.0000 -6.9248 0.0000
# 4 0.0000 0.0000 0.0000 -3.2462 0.0000 -1.5533
# 5 20.5830 3.6166 -6.9248 0.0000 49.5577 0.0000
# 6 0.0000 0.0000 0.0000 -1.5533 0.0000 17.0130
#
#
#
# Elastic Compliance Matrix: (Units=1/GPa)
#
#
# Indices 1 2 3 4 5 6 
#
# 1 0.010555 -0.002212 -0.002654 0.000000 -0.004593 0.000000
# 2 -0.002212 0.018508 -0.005258 0.000000 -0.001167 0.000000
# 3 -0.002654 -0.005258 0.011908 0.000000 0.003150 0.000000
# 4 0.000000 0.000000 0.000000 -0.295163 0.000000 -0.026948
# 5 -0.004593 -0.001167 0.003150 0.000000 0.022612 0.000000
# 6 0.000000 0.000000 0.000000 -0.026948 0.000000 0.056318
#
#
# Mechanical properties :
#
#
# Convention : Reuss Voigt Hill
#
# Bulk Modulus (GPa) = 48.25326 52.15168 50.20247
# Shear Modulus (GPa) = -33.75969 26.12610 -3.81680
#
# Velocity S-wave (km/s) = -3.95785 3.48175 -1.33079
# Velocity P-wave (km/s) = 1.22618 6.35311 4.57523
#
# Compressibility (1/GPa) = 0.02072399
#
# Stress axis : x y z
#
# Youngs Moduli (GPa) = 94.73945 54.02961 83.97741
#
# Poissons Ratio (x) = 0.11950 0.22286
# Poissons Ratio (y) = 0.20955 0.44157
# Poissons Ratio (z) = 0.25142 0.28410
#
# Static dielectric constant tensor:
#      x y z
#    x 1.920980 0.000000 -0.034350 
#    y 0.000000 1.747300 0.000000 
#    z -0.034350 0.000000 1.835640 
# 
# From -- ./inp_files/47306.got.cif
#   From: 2010.05.17/outbox.cif.g08.bks.cpg/sg10_24_cif.got.tgz:47306.got - 2010.06.03 11:33:40.
