data_PCOD9152876
_publ_section_title
;
Structure prediction by ZEFSAII (Michael W. Deem and Ramdas Pophale) SiO2 
 PCOD9152876
Probable space group: P 2/M
;
_chemical_formula_sum "Si O2"
_cell_formula_units_Z 28
_cell_length_a 9.316789
_cell_length_b 13.303601
_cell_length_c 11.603613
_cell_angle_alpha 90.000000
_cell_angle_beta 114.791896
_cell_angle_gamma 90.000000
_cell_volume 1305.679210
_symmetry_space_group_name_H-M "P 2/M"
_symmetry_group_IT_number 10
_symmetry_cell_setting 'monoclinic'
loop_
_space_group_symop_operation_xyz
x,y,z
-x,y,-z
-x,-y,-z
x,-y,z
loop_
_atom_site_type_symbol
_atom_site_label
_atom_site_fract_x
_atom_site_fract_y
_atom_site_fract_z
Si Si1 0.459394 0.116581 0.735004
Si Si2 0.367211 0.241765 0.041856
Si Si3 0.394691 0.617798 0.275818
Si Si4 0.738558 0.882750 0.668235
Si Si5 0.935884 0.117646 0.109355
Si Si6 0.263469 0.615356 0.484322
Si Si7 0.829883 0.815660 0.459652
O O1 0.556126 0.139756 0.881657
O O2 0.580640 0.155719 0.676730
O O3 0.292500 0.172913 0.684678
O O4 0.427765 0.000000 0.709342
O O5 0.355549 0.316375 0.149177
O O6 0.500000 0.284271 0.000000
O O7 0.203090 0.200638 0.934739
O O8 0.371458 0.500000 0.238990
O O9 0.295046 0.637604 0.359578
O O10 0.574203 0.626187 0.386517
O O11 0.736268 0.868933 0.531836
O O12 0.910592 0.846651 0.767102
O O13 0.739164 0.000000 0.699918
O O14 0.893685 0.000000 0.127034
O O15 0.000000 0.113351 0.000000
O O16 0.211858 0.500000 0.476990
O O17 0.152569 0.701291 0.495398
O O18 0.000000 0.863006 0.500000
#
# Coordination Sequence:
#
# PCOD9152876 Si02
#       7
#     4   4   4   4   4   4   4
#     4  11  23  41  61  86 120 164 212 253 296 357
#     4  12  24  37  61  92 128 165 202 249 311 366
#     4   9  19  39  67  94 117 153 207 255 303 365
#     4  10  22  40  62  84 116 165 213 256 298 353
#     4  10  21  39  59  84 116 161 216 252 285 348
#     4   9  19  38  66  92 117 153 201 257 307 363
#     4  12  25  37  59  93 128 155 194 253 323 370
#
# _framework density 21.444777999999999
#
# number of rings (size 3 to 8) (size 9 to 14) (size 15 to 20)
#    0.000    1.571    2.857    3.000    4.000    4.000 
#    0.000    0.000    0.000    1.286    0.000    0.000 
#    0.000    0.000    0.000    0.000    0.000    0.000 
#
# Total GULP energy -156200.520646 kJ/mol
# GULP energy per Si atom -5578.590023 kJ/mol
# Density = 2.139597 g / cm^3
# Si number density = 21.444778 Si / 1000 Ang^3
#
#
#
# Elastic Constant Matrix: (Units=GPa)
#
#
# Indices 1 2 3 4 5 6 
#
# 1 91.2601 28.0460 34.6912 0.0000 17.2375 0.0000
# 2 28.0460 97.9694 25.6883 0.0000 0.1786 0.0000
# 3 34.6912 25.6883 79.9463 0.0000 18.0868 0.0000
# 4 0.0000 0.0000 0.0000 22.6232 0.0000 8.3123
# 5 17.2375 0.1786 18.0868 0.0000 28.0834 0.0000
# 6 0.0000 0.0000 0.0000 8.3123 0.0000 8.7613
#
#
#
# Elastic Compliance Matrix: (Units=1/GPa)
#
#
# Indices 1 2 3 4 5 6 
#
# 1 0.014619 -0.003160 -0.003866 0.000000 -0.006463 0.000000
# 2 -0.003160 0.011996 -0.003400 0.000000 0.004053 0.000000
# 3 -0.003866 -0.003400 0.017250 0.000000 -0.008715 0.000000
# 4 0.000000 0.000000 0.000000 0.067857 0.000000 -0.064380
# 5 -0.006463 0.004053 -0.008715 0.000000 0.045162 0.000000
# 6 0.000000 0.000000 0.000000 -0.064380 0.000000 0.175220
#
#
# Mechanical properties :
#
#
# Convention : Reuss Voigt Hill
#
# Bulk Modulus (GPa) = 43.45369 49.55851 46.50610
# Shear Modulus (GPa) = 13.86469 23.94358 18.90413
#
# Velocity S-wave (km/s) = 2.54545 3.34507 2.97227
# Velocity P-wave (km/s) = 5.38016 6.17084 5.78902
#
# Compressibility (1/GPa) = 0.02301301
#
# Stress axis : x y z
#
# Youngs Moduli (GPa) = 68.40338 83.36113 57.96944
#
# Poissons Ratio (x) = 0.26338 0.22413
# Poissons Ratio (y) = 0.21612 0.19712
# Poissons Ratio (z) = 0.26447 0.28347
#
# Static dielectric constant tensor:
#      x y z
#    x 1.793000 0.000000 -0.041290 
#    y 0.000000 1.813550 0.000000 
#    z -0.041290 0.000000 1.846810 
# 
# From -- ./inp_files/43024.got.cif
#   From: 2010.05.17/outbox.cif.g08.bks.cpg/sg10_22_cif.got.tgz:43024.got - 2010.06.03 11:33:40.
