data_PCOD9152368
_publ_section_title
;
Structure prediction by ZEFSAII (Michael W. Deem and Ramdas Pophale) SiO2 
 PCOD9152368
Probable space group: P 2/M
;
_chemical_formula_sum "Si O2"
_cell_formula_units_Z 32
_cell_length_a 19.571358
_cell_length_b 20.057791
_cell_length_c 11.715353
_cell_angle_alpha 90.000000
_cell_angle_beta 157.895812
_cell_angle_gamma 90.000000
_cell_volume 1730.551034
_symmetry_space_group_name_H-M "P 2/M"
_symmetry_group_IT_number 10
_symmetry_cell_setting 'monoclinic'
loop_
_space_group_symop_operation_xyz
x,y,z
-x,y,-z
-x,-y,-z
x,-y,z
loop_
_atom_site_type_symbol
_atom_site_label
_atom_site_fract_x
_atom_site_fract_y
_atom_site_fract_z
Si Si1 0.795909 0.289680 0.674366
Si Si2 0.042389 0.075362 0.701280
Si Si3 0.299878 0.198216 0.142237
Si Si4 0.365983 0.073290 0.899658
Si Si5 0.577407 0.216211 0.915551
Si Si6 0.709647 0.337816 0.778988
Si Si7 0.698231 0.330691 0.275003
Si Si8 0.005118 0.577528 0.371336
O O1 0.631848 0.236936 0.421500
O O2 0.741502 0.341765 0.691484
O O3 0.791628 0.319254 0.540778
O O4 0.000000 0.263120 0.000000
O O5 0.000000 0.083870 0.500000
O O6 0.846801 0.079330 0.459957
O O7 0.114410 0.000000 0.827909
O O8 0.173395 0.133860 0.944074
O O9 0.500000 0.181483 0.500000
O O10 0.322364 0.226540 0.048870
O O11 0.228683 0.261266 0.102524
O O12 0.385307 0.000000 0.985965
O O13 0.500000 0.074637 0.000000
O O14 0.409499 0.138068 0.039761
O O15 0.663504 0.262595 0.148124
O O16 0.500000 0.342524 0.500000
O O17 0.834850 0.387227 0.045260
O O18 0.817320 0.381915 0.389876
O O19 0.500000 0.357130 0.000000
O O20 0.012486 0.500000 0.349671
O O21 0.000000 0.581519 0.500000
#
# Coordination Sequence:
#
# PCOD9152368 Si02
#       8
#     4   4   4   4   4   4   4   4
#     4  11  21  40  62  94 124 157 206 263 307 358
#     4  10  21  37  59  84 114 159 211 253 302 369
#     4  11  22  37  60  91 122 158 205 255 315 360
#     4  10  21  37  58  86 122 158 204 259 311 370
#     4  11  21  39  61  94 120 162 209 257 310 366
#     4  11  23  41  64  88 128 164 205 254 306 371
#     4  10  23  40  67  94 122 161 211 257 308 363
#     4  11  25  43  65  95 129 167 206 249 308 369
#
# _framework density 18.491219999999998
#
# number of rings (size 3 to 8) (size 9 to 14) (size 15 to 20)
#    0.000    1.375    5.000    1.875    3.500    2.250 
#    0.000    1.250    0.000    0.375    0.000    0.000 
#    0.000    0.000    0.000    0.000    0.000    0.000 
#
# Total GULP energy -178478.288030 kJ/mol
# GULP energy per Si atom -5577.446501 kJ/mol
# Density = 1.844913 g / cm^3
# Si number density = 18.491220 Si / 1000 Ang^3
#
#
#
# Elastic Constant Matrix: (Units=GPa)
#
#
# Indices 1 2 3 4 5 6 
#
# 1 95.2185 30.1321 29.8321 0.0000 1.0427 0.0000
# 2 30.1321 118.0848 61.8055 0.0000 1.8750 0.0000
# 3 29.8321 61.8055 80.2358 0.0000 -1.0800 0.0000
# 4 0.0000 0.0000 0.0000 31.0911 0.0000 2.8551
# 5 1.0427 1.8750 -1.0800 0.0000 31.6581 0.0000
# 6 0.0000 0.0000 0.0000 2.8551 0.0000 16.2097
#
#
#
# Elastic Compliance Matrix: (Units=1/GPa)
#
#
# Indices 1 2 3 4 5 6 
#
# 1 0.011997 -0.001200 -0.003542 0.000000 -0.000445 0.000000
# 2 -0.001200 0.014356 -0.010628 0.000000 -0.001173 0.000000
# 3 -0.003542 -0.010628 0.021987 0.000000 0.001496 0.000000
# 4 0.000000 0.000000 0.000000 0.032692 0.000000 -0.005758
# 5 -0.000445 -0.001173 0.001496 0.000000 0.031723 0.000000
# 6 0.000000 0.000000 0.000000 -0.005758 0.000000 0.062706
#
#
# Mechanical properties :
#
#
# Convention : Reuss Voigt Hill
#
# Bulk Modulus (GPa) = 56.82000 59.67538 58.24769
# Shear Modulus (GPa) = 23.57749 27.24308 25.41028
#
# Velocity S-wave (km/s) = 3.57468 3.84252 3.71102
# Velocity P-wave (km/s) = 6.91611 7.21311 7.06617
#
# Compressibility (1/GPa) = 0.01759944
#
# Stress axis : x y z
#
# Youngs Moduli (GPa) = 83.35745 69.65685 45.48164
#
# Poissons Ratio (x) = 0.08362 0.16108
# Poissons Ratio (y) = 0.10006 0.48338
# Poissons Ratio (z) = 0.29523 0.74031
#
# Static dielectric constant tensor:
#      x y z
#    x 1.705860 0.000000 -0.008290 
#    y 0.000000 1.620490 0.000000 
#    z -0.008290 0.000000 1.689620 
# 
# From -- ./inp_files/56144.got.cif
#   From: 2010.05.17/outbox.cif.g08.bks.cpg/sg10_29_cif.got.tgz:56144.got - 2010.06.03 11:33:40.
