data_PCOD9152291
_publ_section_title
;
Structure prediction by ZEFSAII (Michael W. Deem and Ramdas Pophale) SiO2 
 PCOD9152291
Probable space group: P 2/M
;
_chemical_formula_sum "Si O2"
_cell_formula_units_Z 24
_cell_length_a 17.795358
_cell_length_b 7.652382
_cell_length_c 12.827256
_cell_angle_alpha 90.000000
_cell_angle_beta 147.476247
_cell_angle_gamma 90.000000
_cell_volume 939.152549
_symmetry_space_group_name_H-M "P 2/M"
_symmetry_group_IT_number 10
_symmetry_cell_setting 'monoclinic'
loop_
_space_group_symop_operation_xyz
x,y,z
-x,y,-z
-x,-y,-z
x,-y,z
loop_
_atom_site_type_symbol
_atom_site_label
_atom_site_fract_x
_atom_site_fract_y
_atom_site_fract_z
Si Si1 0.490340 0.213062 0.154292
Si Si2 0.277399 0.789938 0.723212
Si Si3 0.110319 0.286150 0.218494
Si Si4 0.641416 0.300095 0.618452
Si Si5 0.709979 0.202135 0.910799
Si Si6 0.996730 0.705049 0.308672
O O1 0.374110 0.265335 0.932438
O O2 0.427211 0.271331 0.190162
O O3 0.492025 0.000000 0.159288
O O4 0.638383 0.272720 0.281837
O O5 0.117807 0.733237 0.534292
O O6 0.279302 0.000000 0.724721
O O7 0.116177 0.500000 0.226304
O O8 0.263377 0.221305 0.360733
O O9 0.060687 0.226454 0.273782
O O10 0.000000 0.235092 0.000000
O O11 0.500000 0.217852 0.500000
O O12 0.609947 0.500000 0.554061
O O13 0.737285 0.300251 0.835129
O O14 0.844501 0.213385 0.142780
O O15 0.690492 0.000000 0.862589
O O16 0.972898 0.500000 0.270889
#
# Coordination Sequence:
#
# PCOD9152291 Si02
#       6
#     4   4   4   4   4   4
#     4   8  18  37  60  81 109 145 180 223 275 331
#     4   9  18  38  62  82 105 142 186 224 272 330
#     4   9  17  34  55  74 105 146 180 214 262 323
#     4  10  21  37  57  80 108 145 184 221 271 328
#     4  11  22  37  56  82 113 145 183 227 272 320
#     4  11  22  36  56  83 113 145 183 226 272 323
#
# _framework density 25.554953999999999
#
# number of rings (size 3 to 8) (size 9 to 14) (size 15 to 20)
#    0.000    2.333    1.667    2.000    2.333    1.000 
#    0.000   10.000    0.000    0.000    0.000    0.000 
#    0.000    0.000    0.000    0.000    0.000    0.000 
#
# Total GULP energy -134205.987750 kJ/mol
# GULP energy per Si atom -5591.916156 kJ/mol
# Density = 2.549679 g / cm^3
# Si number density = 25.554954 Si / 1000 Ang^3
#
#
#
# Elastic Constant Matrix: (Units=GPa)
#
#
# Indices 1 2 3 4 5 6 
#
# 1 85.2437 7.4860 -8.8287 0.0000 21.0170 0.0000
# 2 7.4860 71.8232 8.5602 0.0000 -0.0553 0.0000
# 3 -8.8287 8.5602 105.3158 0.0000 18.6376 0.0000
# 4 0.0000 0.0000 0.0000 34.1284 0.0000 -24.9945
# 5 21.0170 -0.0553 18.6376 0.0000 44.5128 0.0000
# 6 0.0000 0.0000 0.0000 -24.9945 0.0000 54.5794
#
#
#
# Elastic Compliance Matrix: (Units=1/GPa)
#
#
# Indices 1 2 3 4 5 6 
#
# 1 0.014089 -0.001797 0.002705 0.000000 -0.007787 0.000000
# 2 -0.001797 0.014300 -0.001584 0.000000 0.001529 0.000000
# 3 0.002705 -0.001584 0.010884 0.000000 -0.005836 0.000000
# 4 0.000000 0.000000 0.000000 0.044087 0.000000 0.020190
# 5 -0.007787 0.001529 -0.005836 0.000000 0.028588 0.000000
# 6 0.000000 0.000000 0.000000 0.020190 0.000000 0.027568
#
#
# Mechanical properties :
#
#
# Convention : Reuss Voigt Hill
#
# Bulk Modulus (GPa) = 26.36970 30.75752 28.56361
# Shear Modulus (GPa) = 32.57179 43.65513 38.11346
#
# Velocity S-wave (km/s) = 3.57400 4.13762 3.86610
# Velocity P-wave (km/s) = 5.23187 5.90665 5.57947
#
# Compressibility (1/GPa) = 0.03792231
#
# Stress axis : x y z
#
# Youngs Moduli (GPa) = 70.97745 69.92875 91.88157
#
# Poissons Ratio (x) = 0.12565 -0.24856
# Poissons Ratio (y) = 0.12754 0.14550
# Poissons Ratio (z) = -0.19201 0.11074
#
# Static dielectric constant tensor:
#      x y z
#    x 2.027210 0.000000 -0.030120 
#    y 0.000000 1.918010 0.000000 
#    z -0.030120 0.000000 2.095720 
# 
# From -- ./inp_files/66323.got.cif
#   From: 2010.05.17/outbox.cif.g08.bks.cpg/sg10_34_cif.got.tgz:66323.got - 2010.06.03 11:33:40.
