data_PCOD9152337
_publ_section_title
;
Structure prediction by ZEFSAII (Michael W. Deem and Ramdas Pophale) SiO2 
 PCOD9152337
Probable space group: P 2/M
;
_chemical_formula_sum "Si O2"
_cell_formula_units_Z 24
_cell_length_a 7.524476
_cell_length_b 7.364938
_cell_length_c 16.417726
_cell_angle_alpha 90.000000
_cell_angle_beta 103.204961
_cell_angle_gamma 90.000000
_cell_volume 885.769440
_symmetry_space_group_name_H-M "P 2/M"
_symmetry_group_IT_number 10
_symmetry_cell_setting 'monoclinic'
loop_
_space_group_symop_operation_xyz
x,y,z
-x,y,-z
-x,-y,-z
x,-y,z
loop_
_atom_site_type_symbol
_atom_site_label
_atom_site_fract_x
_atom_site_fract_y
_atom_site_fract_z
Si Si1 0.927195 0.280243 0.377731
Si Si2 0.824043 0.721754 0.930360
Si Si3 0.564451 0.707571 0.125027
Si Si4 0.682099 0.708906 0.555567
Si Si5 0.482723 0.788896 0.691137
Si Si6 0.956826 0.721449 0.194626
O O1 0.933251 0.500000 0.381990
O O2 0.115599 0.216824 0.439412
O O3 0.717736 0.230389 0.372503
O O4 0.955890 0.219564 0.287181
O O5 0.817596 0.500000 0.933659
O O6 0.621772 0.786889 0.930287
O O7 0.875102 0.774847 0.843500
O O8 0.000000 0.777693 0.000000
O O9 0.577038 0.500000 0.097787
O O10 0.535760 0.705371 0.220750
O O11 0.765649 0.785728 0.135112
O O12 0.500000 0.797358 0.500000
O O13 0.687061 0.500000 0.527147
O O14 0.634476 0.707559 0.647114
O O15 0.520162 0.000000 0.705238
O O16 0.951564 0.500000 0.194825
#
# Coordination Sequence:
#
# PCOD9152337 Si02
#       6
#     4   4   4   4   4   4
#     4   9  18  35  57  77 101 136 178 219 257 306
#     4   9  16  25  42  72 104 129 159 208 266 312
#     4   9  17  31  50  70  96 131 172 214 254 304
#     4  10  21  37  58  82 107 138 175 214 259 314
#     4  11  22  35  54  79 107 138 175 220 265 310
#     4   8  14  25  43  67  93 124 161 202 248 294
#
# _framework density 27.095085000000001
#
# number of rings (size 3 to 8) (size 9 to 14) (size 15 to 20)
#    0.000    2.667    0.000    3.500    0.000    5.000 
#    0.000    6.667    0.000    0.500    0.000    4.667 
#    0.000    0.000    0.000    0.000    0.000    0.000 
#
# Total GULP energy -134241.259977 kJ/mol
# GULP energy per Si atom -5593.385832 kJ/mol
# Density = 2.703342 g / cm^3
# Si number density = 27.095085 Si / 1000 Ang^3
#
#
#
# Elastic Constant Matrix: (Units=GPa)
#
#
# Indices 1 2 3 4 5 6 
#
# 1 204.9495 -3.9861 34.3880 0.0000 29.1639 0.0000
# 2 -3.9861 120.8406 -2.1577 0.0000 3.8653 0.0000
# 3 34.3880 -2.1577 84.1285 0.0000 23.2435 0.0000
# 4 0.0000 0.0000 0.0000 -54.1948 0.0000 165.2654
# 5 29.1639 3.8653 23.2435 0.0000 64.5883 0.0000
# 6 0.0000 0.0000 0.0000 165.2654 0.0000 -693.3152
#
#
#
# Elastic Compliance Matrix: (Units=1/GPa)
#
#
# Indices 1 2 3 4 5 6 
#
# 1 0.005433 0.000208 -0.001704 0.000000 -0.001852 0.000000
# 2 0.000208 0.008311 0.000324 0.000000 -0.000708 0.000000
# 3 -0.001704 0.000324 0.013751 0.000000 -0.004199 0.000000
# 4 0.000000 0.000000 0.000000 -0.067565 0.000000 -0.016106
# 5 -0.001852 -0.000708 -0.004199 0.000000 0.017873 0.000000
# 6 0.000000 0.000000 0.000000 -0.016106 0.000000 -0.005281
#
#
# Mechanical properties :
#
#
# Convention : Reuss Voigt Hill
#
# Bulk Modulus (GPa) = 39.75977 51.82300 45.79139
# Shear Modulus (GPa) = -298.46706 -111.13938 -204.80322
#
# Velocity S-wave (km/s) = -10.50688 -6.41150 -8.70350
# Velocity P-wave (km/s) = 11.51029 5.97008 9.16866
#
# Compressibility (1/GPa) = 0.02515105
#
# Stress axis : x y z
#
# Youngs Moduli (GPa) = 184.06957 120.32762 72.72043
#
# Poissons Ratio (x) = -0.02503 0.12388
# Poissons Ratio (y) = -0.03829 -0.02354
# Poissons Ratio (z) = 0.31356 -0.03894
#
# Static dielectric constant tensor:
#      x y z
#    x 2.043550 0.000000 0.022730 
#    y 0.000000 2.023700 0.000000 
#    z 0.022730 0.000000 2.202930 
# 
# From -- ./inp_files/81787.got.cif
#   From: 2010.05.17/outbox.cif.g08.bks.cpg/sg10_41_cif.got.tgz:81787.got - 2010.06.03 11:33:40.
