data_PCOD9152006
_publ_section_title
;
Structure prediction by ZEFSAII (Michael W. Deem and Ramdas Pophale) SiO2 
 PCOD9152006
Probable space group: P 2/M
;
_chemical_formula_sum "Si O2"
_cell_formula_units_Z 28
_cell_length_a 27.759513
_cell_length_b 8.177571
_cell_length_c 21.633577
_cell_angle_alpha 90.000000
_cell_angle_beta 17.477446
_cell_angle_gamma 90.000000
_cell_volume 1474.903912
_symmetry_space_group_name_H-M "P 2/M"
_symmetry_group_IT_number 10
_symmetry_cell_setting 'monoclinic'
loop_
_space_group_symop_operation_xyz
x,y,z
-x,y,-z
-x,-y,-z
x,-y,z
loop_
_atom_site_type_symbol
_atom_site_label
_atom_site_fract_x
_atom_site_fract_y
_atom_site_fract_z
Si Si1 0.329874 0.700000 0.235065
Si Si2 0.775725 0.805948 0.958523
Si Si3 0.673086 0.686590 0.622952
Si Si4 0.935357 0.696835 0.144863
Si Si5 0.994571 0.697589 0.434624
Si Si6 0.419834 0.188368 0.389071
Si Si7 0.049407 0.314379 0.133126
O O1 0.321505 0.500000 0.246417
O O2 0.332941 0.755786 0.301565
O O3 0.174018 0.755084 0.388588
O O4 0.500000 0.747669 0.000000
O O5 0.867849 0.742600 0.784167
O O6 0.870697 0.771086 0.905897
O O7 0.762096 0.000000 0.966809
O O8 0.594608 0.739196 0.190147
O O9 0.606903 0.500000 0.701940
O O10 0.590945 0.794296 0.671781
O O11 0.860662 0.674816 0.378515
O O12 0.952193 0.500000 0.126516
O O13 0.745584 0.732522 0.384517
O O14 0.040553 0.760162 0.074675
O O15 0.000000 0.756522 0.000000
O O16 0.994010 0.500000 0.437498
O O17 0.000000 0.753743 0.500000
O O18 0.415348 0.000000 0.414056
O O19 0.114719 0.500000 0.050506
#
# Coordination Sequence:
#
# PCOD9152006 Si02
#       7
#     4   4   4   4   4   4   4
#     4   9  17  30  49  76 104 128 169 228 280 324
#     4  11  23  37  53  76 113 153 186 224 267 319
#     4   9  17  32  54  77 102 135 178 230 276 316
#     4   9  19  38  63  89 113 137 172 221 273 322
#     4  10  21  36  55  78 104 140 186 233 282 329
#     4  10  22  36  52  79 112 145 184 219 259 320
#     4   9  17  33  57  82 106 136 178 221 263 319
#
# _framework density 18.984286999999998
#
# number of rings (size 3 to 8) (size 9 to 14) (size 15 to 20)
#    0.000    2.429    1.429    1.714    2.000    5.143 
#    0.000    0.714    0.000    5.143    0.000    0.000 
#    0.000    0.000    0.000    0.000    0.000    0.000 
#
# Total GULP energy -155889.638332 kJ/mol
# GULP energy per Si atom -5567.487083 kJ/mol
# Density = 1.894108 g / cm^3
# Si number density = 18.984287 Si / 1000 Ang^3
#
#
#
# Elastic Constant Matrix: (Units=GPa)
#
#
# Indices 1 2 3 4 5 6 
#
# 1 119.7462 2.8332 60.7851 0.0000 23.8485 0.0000
# 2 2.8332 10.9905 4.2294 0.0000 1.7155 0.0000
# 3 60.7851 4.2294 86.9450 0.0000 4.3759 0.0000
# 4 0.0000 0.0000 0.0000 13.3508 0.0000 2.0371
# 5 23.8485 1.7155 4.3759 0.0000 34.1598 0.0000
# 6 0.0000 0.0000 0.0000 2.0371 0.0000 17.2284
#
#
#
# Elastic Compliance Matrix: (Units=1/GPa)
#
#
# Indices 1 2 3 4 5 6 
#
# 1 0.015525 0.001512 -0.010445 0.000000 -0.009576 0.000000
# 2 0.001512 0.093446 -0.005348 0.000000 -0.005063 0.000000
# 3 -0.010445 -0.005348 0.018805 0.000000 0.005152 0.000000
# 4 0.000000 0.000000 0.000000 0.076278 0.000000 -0.009019
# 5 -0.009576 -0.005063 0.005152 0.000000 0.035554 0.000000
# 6 0.000000 0.000000 0.000000 -0.009019 0.000000 0.059110
#
#
# Mechanical properties :
#
#
# Convention : Reuss Voigt Hill
#
# Bulk Modulus (GPa) = 10.07923 39.26412 24.67167
# Shear Modulus (GPa) = 13.87534 22.93672 18.40603
#
# Velocity S-wave (km/s) = 2.70642 3.47968 3.11712
# Velocity P-wave (km/s) = 3.88421 6.07220 5.09699
#
# Compressibility (1/GPa) = 0.09921394
#
# Stress axis : x y z
#
# Youngs Moduli (GPa) = 64.41409 10.70131 53.17786
#
# Poissons Ratio (x) = -0.01618 0.55545
# Poissons Ratio (y) = -0.09741 0.28440
# Poissons Ratio (z) = 0.67281 0.05723
#
# Static dielectric constant tensor:
#      x y z
#    x 1.737030 0.000000 0.071360 
#    y 0.000000 1.706140 0.000000 
#    z 0.071360 0.000000 1.727430 
# 
# From -- ./inp_files/85648.got.cif
#   From: 2010.05.17/outbox.cif.g08.bks.cpg/sg10_43_cif.got.tgz:85648.got - 2010.06.03 11:33:40.
