data_PCOD9152872
_publ_section_title
;
Structure prediction by ZEFSAII (Michael W. Deem and Ramdas Pophale) SiO2 
 PCOD9152872
Probable space group: P 2/M
;
_chemical_formula_sum "Si O2"
_cell_formula_units_Z 28
_cell_length_a 23.357686
_cell_length_b 7.414436
_cell_length_c 16.683142
_cell_angle_alpha 90.000000
_cell_angle_beta 29.256732
_cell_angle_gamma 90.000000
_cell_volume 1412.047251
_symmetry_space_group_name_H-M "P 2/M"
_symmetry_group_IT_number 10
_symmetry_cell_setting 'monoclinic'
loop_
_space_group_symop_operation_xyz
x,y,z
-x,y,-z
-x,-y,-z
x,-y,z
loop_
_atom_site_type_symbol
_atom_site_label
_atom_site_fract_x
_atom_site_fract_y
_atom_site_fract_z
Si Si1 0.559730 0.500000 0.802084
Si Si2 0.695580 0.500000 0.800752
Si Si3 0.526061 0.218583 0.709674
Si Si4 0.834279 0.783289 0.047544
Si Si5 0.137611 0.216865 0.321325
Si Si6 0.256392 0.781885 0.011744
Si Si7 0.704045 0.795521 0.365556
Si Si8 0.067614 0.712633 0.838322
O O1 0.651257 0.500000 0.763300
O O2 0.573632 0.325786 0.728086
O O3 0.426657 0.500000 0.999788
O O4 0.776169 0.328481 0.726006
O O5 0.389739 0.265155 0.867882
O O6 0.592503 0.280460 0.547615
O O7 0.537971 0.000000 0.702661
O O8 0.783530 0.715113 0.026198
O O9 0.763392 0.714644 0.212964
O O10 0.824737 0.000000 0.061406
O O11 0.972605 0.743062 0.885924
O O12 0.000000 0.256057 0.500000
O O13 0.154227 0.000000 0.310771
O O14 0.175596 0.270188 0.184838
O O15 0.251754 0.000000 0.013350
O O16 0.805170 0.796979 0.310397
O O17 0.672383 0.000000 0.382447
O O18 0.086158 0.500000 0.823737
O O19 0.000000 0.781915 0.000000
#
# Coordination Sequence:
#
# PCOD9152872 Si02
#       8
#     2   2   4   4   4   4   4   4
#     4  11  24  40  64  90 119 157 195 246 295 353
#     4  11  23  42  66  93 116 152 203 240 297 363
#     4  10  21  39  59  83 119 157 193 237 293 346
#     4   9  17  32  54  80 109 146 197 238 276 338
#     4  10  21  41  66  91 123 157 191 243 305 358
#     4   9  18  35  58  82 112 149 188 235 288 343
#     4   9  18  32  54  79 108 153 194 233 283 334
#     4   9  17  30  46  69 106 145 185 236 286 332
#
# _framework density 19.829364000000002
#
# number of rings (size 3 to 8) (size 9 to 14) (size 15 to 20)
#    0.000    2.429    1.429    0.643    1.000    2.857 
#    5.143    4.286    0.000    0.857    0.000    0.000 
#    0.000    0.000    0.000    0.000    0.000    0.000 
#
# Total GULP energy -156083.541325 kJ/mol
# GULP energy per Si atom -5574.412190 kJ/mol
# Density = 1.978423 g / cm^3
# Si number density = 19.829364 Si / 1000 Ang^3
#
#
#
# Elastic Constant Matrix: (Units=GPa)
#
#
# Indices 1 2 3 4 5 6 
#
# 1 152.8260 32.8692 56.3908 0.0000 5.5187 0.0000
# 2 32.8692 88.1094 18.5494 0.0000 -1.7614 0.0000
# 3 56.3908 18.5494 136.3142 0.0000 -0.7951 0.0000
# 4 0.0000 0.0000 0.0000 17.7054 0.0000 -14.0224
# 5 5.5187 -1.7614 -0.7951 0.0000 14.3008 0.0000
# 6 0.0000 0.0000 0.0000 -14.0224 0.0000 33.9075
#
#
#
# Elastic Compliance Matrix: (Units=1/GPa)
#
#
# Indices 1 2 3 4 5 6 
#
# 1 0.008384 -0.002540 -0.003145 0.000000 -0.003723 0.000000
# 2 -0.002540 0.012480 -0.000633 0.000000 0.002482 0.000000
# 3 -0.003145 -0.000633 0.008732 0.000000 0.001621 0.000000
# 4 0.000000 0.000000 0.000000 0.083988 0.000000 0.034733
# 5 -0.003723 0.002482 0.001621 0.000000 0.071759 0.000000
# 6 0.000000 0.000000 0.000000 0.034733 0.000000 0.043856
#
#
# Mechanical properties :
#
#
# Convention : Reuss Voigt Hill
#
# Bulk Modulus (GPa) = 58.95716 65.87429 62.41573
# Shear Modulus (GPa) = 20.20292 31.14543 25.67417
#
# Velocity S-wave (km/s) = 3.19539 3.96747 3.60217
# Velocity P-wave (km/s) = 6.58869 7.36753 6.98896
#
# Compressibility (1/GPa) = 0.01696147
#
# Stress axis : x y z
#
# Youngs Moduli (GPa) = 119.26791 80.12801 114.51569
#
# Poissons Ratio (x) = 0.20354 0.36010
# Poissons Ratio (y) = 0.30297 0.07248
# Poissons Ratio (z) = 0.37505 0.05072
#
# Static dielectric constant tensor:
#      x y z
#    x 1.695790 0.000000 -0.000110 
#    y 0.000000 1.729060 0.000000 
#    z -0.000110 0.000000 1.700710 
# 
# From -- ./inp_files/63546.got.cif
#   From: 2010.05.17/outbox.cif.g08.bks.cpg/sg10_32_cif.got.tgz:63546.got - 2010.06.03 11:33:40.
