data_PCOD9152636
_publ_section_title
;
Structure prediction by ZEFSAII (Michael W. Deem and Ramdas Pophale) SiO2 
 PCOD9152636
Probable space group: P 2/M
;
_chemical_formula_sum "Si O2"
_cell_formula_units_Z 18
_cell_length_a 8.067013
_cell_length_b 22.508982
_cell_length_c 9.531032
_cell_angle_alpha 90.000000
_cell_angle_beta 32.078477
_cell_angle_gamma 90.000000
_cell_volume 919.112662
_symmetry_space_group_name_H-M "P 2/M"
_symmetry_group_IT_number 10
_symmetry_cell_setting 'monoclinic'
loop_
_space_group_symop_operation_xyz
x,y,z
-x,y,-z
-x,-y,-z
x,-y,z
loop_
_atom_site_type_symbol
_atom_site_label
_atom_site_fract_x
_atom_site_fract_y
_atom_site_fract_z
Si Si1 0.626275 0.000000 0.751445
Si Si2 0.697789 0.255274 0.615099
Si Si3 0.066521 0.680506 0.116524
Si Si4 0.371896 0.871696 0.250084
Si Si5 0.872784 0.567456 0.744069
O O1 0.526081 0.064052 0.762365
O O2 0.000000 0.000000 0.500000
O O3 0.500000 0.000000 0.000000
O O4 0.565758 0.188026 0.708423
O O5 0.000000 0.256838 0.500000
O O6 0.829193 0.277684 0.372621
O O7 0.421938 0.296015 0.874020
O O8 0.033357 0.615752 0.209125
O O9 0.000000 0.679846 0.000000
O O10 0.000000 0.874955 0.500000
O O11 0.500000 0.864156 0.000000
O O12 0.981377 0.500000 0.696615
O O13 0.000000 0.584938 0.500000
O O14 0.500000 0.566521 0.000000
#
# Coordination Sequence:
#
# PCOD9152636 Si02
#       5
#     2   4   4   4   4
#     4   8  14  24  40  68 105 130 159 216 275 310
#     4  11  21  36  57  80 107 144 185 221 263 320
#     4  12  24  37  55  82 113 143 176 221 271 313
#     4   9  16  27  46  74 103 134 171 218 269 312
#     4  10  21  38  60  82 105 138 178 217 261 317
#
# _framework density 19.584105000000001
#
# number of rings (size 3 to 8) (size 9 to 14) (size 15 to 20)
#    0.000    1.778    0.000    7.333    0.000    0.444 
#    0.000    0.000    0.000    6.667    0.000    4.667 
#    0.000    0.000    0.000    0.000    0.000    0.000 
#
# Total GULP energy -100434.515609 kJ/mol
# GULP energy per Si atom -5579.695312 kJ/mol
# Density = 1.953953 g / cm^3
# Si number density = 19.584105 Si / 1000 Ang^3
#
#
#
# Elastic Constant Matrix: (Units=GPa)
#
#
# Indices 1 2 3 4 5 6 
#
# 1 41.5973 43.1103 20.4006 0.0000 18.3526 0.0000
# 2 43.1103 179.4902 45.5052 0.0000 33.1335 0.0000
# 3 20.4006 45.5052 155.7601 0.0000 16.6049 0.0000
# 4 0.0000 0.0000 0.0000 34.8304 0.0000 1.8531
# 5 18.3526 33.1335 16.6049 0.0000 32.0621 0.0000
# 6 0.0000 0.0000 0.0000 1.8531 0.0000 -5.2317
#
#
#
# Elastic Compliance Matrix: (Units=1/GPa)
#
#
# Indices 1 2 3 4 5 6 
#
# 1 0.037301 -0.005883 -0.001629 0.000000 -0.014429 0.000000
# 2 -0.005883 0.008081 -0.001121 0.000000 -0.004404 0.000000
# 3 -0.001629 -0.001121 0.007132 0.000000 -0.001603 0.000000
# 4 0.000000 0.000000 0.000000 0.028180 0.000000 0.009981
# 5 -0.014429 -0.004404 -0.001603 0.000000 0.044829 0.000000
# 6 0.000000 0.000000 0.000000 0.009981 0.000000 -0.187606
#
#
# Mechanical properties :
#
#
# Convention : Reuss Voigt Hill
#
# Bulk Modulus (GPa) = 28.36900 66.09776 47.23338
# Shear Modulus (GPa) = -151.20450 30.18757 -60.50846
#
# Velocity S-wave (km/s) = -8.79633 3.93037 -5.56451
# Velocity P-wave (km/s) = 9.41541 7.37706 4.13697
#
# Compressibility (1/GPa) = 0.03524974
#
# Stress axis : x y z
#
# Youngs Moduli (GPa) = 26.80862 123.74192 140.21661
#
# Poissons Ratio (x) = 0.72793 0.22837
# Poissons Ratio (y) = 0.15771 0.15719
# Poissons Ratio (z) = 0.04366 0.13872
#
# Static dielectric constant tensor:
#      x y z
#    x 1.653500 0.000000 -0.011080 
#    y 0.000000 1.792060 0.000000 
#    z -0.011080 0.000000 1.655590 
# 
# From -- ./inp_files/4486.got.cif
#   From: 2010.05.17/outbox.cif.g08.bks.cpg/sg10_3_cif.got.tgz:4486.got - 2010.06.03 11:33:40.
