data_PCOD9152504
_publ_section_title
;
Structure prediction by ZEFSAII (Michael W. Deem and Ramdas Pophale) SiO2 
 PCOD9152504
Probable space group: P 2/M
;
_chemical_formula_sum "Si O2"
_cell_formula_units_Z 25
_cell_length_a 11.550601
_cell_length_b 12.642857
_cell_length_c 17.389669
_cell_angle_alpha 90.000000
_cell_angle_beta 26.579619
_cell_angle_gamma 90.000000
_cell_volume 1136.257847
_symmetry_space_group_name_H-M "P 2/M"
_symmetry_group_IT_number 10
_symmetry_cell_setting 'monoclinic'
loop_
_space_group_symop_operation_xyz
x,y,z
-x,y,-z
-x,-y,-z
x,-y,z
loop_
_atom_site_type_symbol
_atom_site_label
_atom_site_fract_x
_atom_site_fract_y
_atom_site_fract_z
Si Si1 0.500000 0.000000 0.500000
Si Si2 0.664989 0.117141 0.146998
Si Si3 0.494287 0.697395 0.649875
Si Si4 0.396379 0.500000 0.316869
Si Si5 0.809874 0.879976 0.681024
Si Si6 0.893194 0.806375 0.219519
Si Si7 0.087203 0.288458 0.251202
Si Si8 0.198809 0.500000 0.265132
O O1 0.277719 0.095903 0.646036
O O2 0.540768 0.195522 0.281477
O O3 0.470829 0.115724 0.189895
O O4 0.670577 0.000000 0.177413
O O5 0.939686 0.151724 0.951274
O O6 0.468280 0.601836 0.725527
O O7 0.289255 0.712041 0.703681
O O8 0.781154 0.692788 0.446348
O O9 0.378259 0.500000 0.234930
O O10 0.096629 0.500000 0.524878
O O11 0.000000 0.840837 0.500000
O O12 0.824539 0.803437 0.743752
O O13 0.893703 0.000000 0.651082
O O14 0.092085 0.756291 0.162637
O O15 0.222202 0.395842 0.198856
#
# Coordination Sequence:
#
# PCOD9152504 Si02
#       8
#     1   4   4   2   4   4   4   2
#     4  12  24  44  62  84 140 184 218 250 312 392
#     4  11  24  40  63  95 131 165 217 269 323 384
#     4  11  22  40  65  94 125 175 213 268 315 382
#     4   9  20  39  67  96 128 161 221 269 323 381
#     4  10  21  37  62  93 124 164 209 265 322 381
#     4  12  26  41  62  95 131 177 215 263 321 385
#     4  11  22  39  66  94 129 167 219 265 323 389
#     4   9  20  37  66  98 123 167 215 277 319 378
#
# _framework density 22.002049
#
# number of rings (size 3 to 8) (size 9 to 14) (size 15 to 20)
#    0.000    1.280    4.000    1.440    4.480    1.920 
#    0.000    6.400    0.000    1.920    0.000    0.000 
#    0.000    0.000    0.000    0.000    0.000    0.000 
#
# Total GULP energy -139506.879225 kJ/mol
# GULP energy per Si atom -5580.275169 kJ/mol
# Density = 2.195197 g / cm^3
# Si number density = 22.002049 Si / 1000 Ang^3
#
#
#
# Elastic Constant Matrix: (Units=GPa)
#
#
# Indices 1 2 3 4 5 6 
#
# 1 129.2807 67.1573 -4.3827 0.0000 6.0580 0.0000
# 2 67.1573 114.4685 8.7184 0.0000 19.2057 0.0000
# 3 -4.3827 8.7184 56.1912 0.0000 -2.3787 0.0000
# 4 0.0000 0.0000 0.0000 59.0517 0.0000 63.3998
# 5 6.0580 19.2057 -2.3787 0.0000 28.8287 0.0000
# 6 0.0000 0.0000 0.0000 63.3998 0.0000 120.8055
#
#
#
# Elastic Compliance Matrix: (Units=1/GPa)
#
#
# Indices 1 2 3 4 5 6 
#
# 1 0.011508 -0.007362 0.002153 0.000000 0.002664 0.000000
# 2 -0.007362 0.014733 -0.003221 0.000000 -0.008534 0.000000
# 3 0.002153 -0.003221 0.018601 0.000000 0.003228 0.000000
# 4 0.000000 0.000000 0.000000 0.038791 0.000000 -0.020358
# 5 0.002664 -0.008534 0.003228 0.000000 0.040079 0.000000
# 6 0.000000 0.000000 0.000000 -0.020358 0.000000 0.018962
#
#
# Mechanical properties :
#
#
# Convention : Reuss Voigt Hill
#
# Bulk Modulus (GPa) = 35.74119 49.21405 42.47762
# Shear Modulus (GPa) = 29.60991 56.96698 43.28845
#
# Velocity S-wave (km/s) = 3.67247 5.09391 4.44043
# Velocity P-wave (km/s) = 5.85341 7.55074 6.75559
#
# Compressibility (1/GPa) = 0.02797892
#
# Stress axis : x y z
#
# Youngs Moduli (GPa) = 86.89748 67.87658 53.76130
#
# Poissons Ratio (x) = 0.49974 -0.11573
# Poissons Ratio (y) = 0.63978 0.17318
# Poissons Ratio (z) = -0.18706 0.21865
#
# Static dielectric constant tensor:
#      x y z
#    x 1.850690 0.000000 -0.002800 
#    y 0.000000 1.786090 0.000000 
#    z -0.002800 0.000000 1.817270 
# 
# From -- ./inp_files/76660.got.cif
#   From: 2010.05.17/outbox.cif.g08.bks.cpg/sg10_39_cif.got.tgz:76660.got - 2010.06.03 11:33:40.
