data_PCOD9152755
_publ_section_title
;
Structure prediction by ZEFSAII (Michael W. Deem and Ramdas Pophale) SiO2 
 PCOD9152755
Probable space group: P 2/M
;
_chemical_formula_sum "Si O2"
_cell_formula_units_Z 19
_cell_length_a 9.004241
_cell_length_b 21.544258
_cell_length_c 5.276691
_cell_angle_alpha 90.000000
_cell_angle_beta 109.078458
_cell_angle_gamma 90.000000
_cell_volume 967.397927
_symmetry_space_group_name_H-M "P 2/M"
_symmetry_group_IT_number 10
_symmetry_cell_setting 'monoclinic'
loop_
_space_group_symop_operation_xyz
x,y,z
-x,y,-z
-x,-y,-z
x,-y,z
loop_
_atom_site_type_symbol
_atom_site_label
_atom_site_fract_x
_atom_site_fract_y
_atom_site_fract_z
Si Si1 0.607166 0.570201 0.310232
Si Si2 0.810382 0.768158 0.898189
Si Si3 0.660683 0.900294 0.742743
Si Si4 0.500000 0.000000 0.000000
Si Si5 0.893716 0.000000 0.688321
Si Si6 0.811128 0.308319 0.397815
O O1 0.500000 0.577624 0.500000
O O2 0.673833 0.500000 0.353568
O O3 0.734112 0.624391 0.372678
O O4 0.500000 0.575071 0.000000
O O5 0.734944 0.835851 0.866728
O O6 0.764744 0.732799 0.614993
O O7 0.764403 0.727125 0.114848
O O8 0.000000 0.774665 0.000000
O O9 0.500000 0.890141 0.500000
O O10 0.781241 0.939831 0.636911
O O11 0.615039 0.946048 0.944181
O O12 0.000000 0.000000 0.500000
O O13 0.000000 0.000000 0.000000
O O14 0.000000 0.313772 0.500000
#
# Coordination Sequence:
#
# PCOD9152755 Si02
#       6
#     4   4   4   1   2   4
#     4  10  21  38  61  92 130 168 209 256 308 366
#     4  10  23  42  64  92 124 165 206 259 314 373
#     4  11  26  43  66  91 127 161 208 262 317 379
#     4  10  24  44  60  88 126 152 198 262 308 364
#     4  11  26  43  68  90 119 161 204 252 313 380
#     4  10  22  41  63  91 127 163 213 258 304 369
#
# _framework density 19.640315000000001
#
# number of rings (size 3 to 8) (size 9 to 14) (size 15 to 20)
#    0.000    1.684    0.000    3.158    8.842    5.474 
#    0.000    0.000    0.000    7.579    0.000    0.000 
#    0.000    0.000    0.000    0.000    0.000    0.000 
#
# Total GULP energy -105986.065555 kJ/mol
# GULP energy per Si atom -5578.213977 kJ/mol
# Density = 1.959561 g / cm^3
# Si number density = 19.640315 Si / 1000 Ang^3
#
#
#
# Elastic Constant Matrix: (Units=GPa)
#
#
# Indices 1 2 3 4 5 6 
#
# 1 76.7211 73.7866 49.3870 0.0000 -27.7558 0.0000
# 2 73.7866 210.9058 61.4116 0.0000 -26.3830 0.0000
# 3 49.3870 61.4116 121.4534 0.0000 -34.3587 0.0000
# 4 0.0000 0.0000 0.0000 -86.0582 0.0000 64.6074
# 5 -27.7558 -26.3830 -34.3587 0.0000 29.6531 0.0000
# 6 0.0000 0.0000 0.0000 64.6074 0.0000 -21.1932
#
#
#
# Elastic Compliance Matrix: (Units=1/GPa)
#
#
# Indices 1 2 3 4 5 6 
#
# 1 0.027181 -0.006585 -0.003248 0.000000 0.015820 0.000000
# 2 -0.006585 0.007284 -0.001362 0.000000 -0.001261 0.000000
# 3 -0.003248 -0.001362 0.013448 0.000000 0.011331 0.000000
# 4 0.000000 0.000000 0.000000 0.009017 0.000000 0.027489
# 5 0.015820 -0.001261 0.011331 0.000000 0.060538 0.000000
# 6 0.000000 0.000000 0.000000 0.027489 0.000000 0.036616
#
#
# Mechanical properties :
#
#
# Convention : Reuss Voigt Hill
#
# Bulk Modulus (GPa) = 39.17867 86.47230 62.82549
# Shear Modulus (GPa) = 27.02947 -0.55333 13.23807
#
# Velocity S-wave (km/s) = 3.71377 -0.53136 2.59902
# Velocity P-wave (km/s) = 6.19523 6.61416 6.40812
#
# Compressibility (1/GPa) = 0.02552409
#
# Stress axis : x y z
#
# Youngs Moduli (GPa) = 36.79006 137.28538 74.35799
#
# Poissons Ratio (x) = 0.90400 0.24150
# Poissons Ratio (y) = 0.24226 0.10130
# Poissons Ratio (z) = 0.11948 0.18702
#
# Static dielectric constant tensor:
#      x y z
#    x 1.698910 0.000000 0.043350 
#    y 0.000000 1.638530 0.000000 
#    z 0.043350 0.000000 1.748050 
# 
# From -- ./inp_files/4212.got.cif
#   From: 2010.05.17/outbox.cif.g08.bks.cpg/sg10_3_cif.got.tgz:4212.got - 2010.06.03 11:33:40.
