data_PCOD9152968
_publ_section_title
;
Structure prediction by ZEFSAII (Michael W. Deem and Ramdas Pophale) SiO2 
 PCOD9152968
Probable space group: P 2/M
;
_chemical_formula_sum "Si O2"
_cell_formula_units_Z 24
_cell_length_a 12.748993
_cell_length_b 8.825592
_cell_length_c 12.551287
_cell_angle_alpha 90.000000
_cell_angle_beta 109.256384
_cell_angle_gamma 90.000000
_cell_volume 1333.226799
_symmetry_space_group_name_H-M "P 2/M"
_symmetry_group_IT_number 10
_symmetry_cell_setting 'monoclinic'
loop_
_space_group_symop_operation_xyz
x,y,z
-x,y,-z
-x,-y,-z
x,-y,z
loop_
_atom_site_type_symbol
_atom_site_label
_atom_site_fract_x
_atom_site_fract_y
_atom_site_fract_z
Si Si1 0.880974 0.819200 0.015856
Si Si2 0.745215 0.681518 0.782329
Si Si3 0.502914 0.681696 0.376056
Si Si4 0.113193 0.319518 0.747073
Si Si5 0.878052 0.181220 0.627367
Si Si6 0.271747 0.180315 0.630274
O O1 0.788378 0.752325 0.906316
O O2 0.869179 0.000000 0.022550
O O3 0.878485 0.743013 0.130281
O O4 0.000000 0.788894 0.000000
O O5 0.759039 0.500000 0.788406
O O6 0.616545 0.715922 0.714994
O O7 0.818495 0.749778 0.711038
O O8 0.500000 0.724885 0.500000
O O9 0.520515 0.500000 0.377160
O O10 0.604478 0.763784 0.352904
O O11 0.106563 0.500000 0.745596
O O12 0.216039 0.263337 0.711089
O O13 0.000380 0.250684 0.659676
O O14 0.803279 0.214514 0.499173
O O15 0.886978 0.000000 0.642525
O O16 0.269399 0.000000 0.646181
#
# Coordination Sequence:
#
# PCOD9152968 Si02
#       6
#     4   4   4   4   4   4
#     4  11  23  40  63  89 122 159 199 250 302 357
#     4  11  22  37  62  93 123 157 202 250 296 352
#     4  10  21  39  62  90 124 160 201 249 298 353
#     4  12  25  40  62  89 122 161 203 250 304 363
#     4  11  22  37  59  90 126 160 198 247 301 359
#     4  11  24  40  61  89 125 164 203 247 301 362
#
# _framework density 18.001438
#
# number of rings (size 3 to 8) (size 9 to 14) (size 15 to 20)
#    0.000    1.000    3.333    4.000    0.000    6.333 
#    0.000    0.833    0.000    5.000    0.000    0.000 
#    0.000    0.000    0.000    0.000    0.000    0.000 
#
# Total GULP energy -134253.616582 kJ/mol
# GULP energy per Si atom -5593.900691 kJ/mol
# Density = 1.796047 g / cm^3
# Si number density = 18.001438 Si / 1000 Ang^3
#
#
#
# Elastic Constant Matrix: (Units=GPa)
#
#
# Indices 1 2 3 4 5 6 
#
# 1 116.6009 49.2744 35.8728 0.0000 -0.7521 0.0000
# 2 49.2744 64.1234 37.3578 0.0000 3.8961 0.0000
# 3 35.8728 37.3578 62.5509 0.0000 10.8464 0.0000
# 4 0.0000 0.0000 0.0000 34.2350 0.0000 -3.8568
# 5 -0.7521 3.8961 10.8464 0.0000 30.9945 0.0000
# 6 0.0000 0.0000 0.0000 -3.8568 0.0000 39.4633
#
#
#
# Elastic Compliance Matrix: (Units=1/GPa)
#
#
# Indices 1 2 3 4 5 6 
#
# 1 0.013068 -0.008558 -0.002794 0.000000 0.002371 0.000000
# 2 -0.008558 0.029652 -0.012902 0.000000 0.000580 0.000000
# 3 -0.002794 -0.012902 0.026643 0.000000 -0.007769 0.000000
# 4 0.000000 0.000000 0.000000 0.029535 0.000000 0.002886
# 5 0.002371 0.000580 -0.007769 0.000000 0.034967 0.000000
# 6 0.000000 0.000000 0.000000 0.002886 0.000000 0.025622
#
#
# Mechanical properties :
#
#
# Convention : Reuss Voigt Hill
#
# Bulk Modulus (GPa) = 47.95275 54.25388 51.10332
# Shear Modulus (GPa) = 23.26153 28.98990 26.12571
#
# Velocity S-wave (km/s) = 3.59862 4.01736 3.81374
# Velocity P-wave (km/s) = 6.63045 7.19187 6.91686
#
# Compressibility (1/GPa) = 0.02085386
#
# Stress axis : x y z
#
# Youngs Moduli (GPa) = 76.52496 33.72402 37.53390
#
# Poissons Ratio (x) = 0.28860 0.10488
# Poissons Ratio (y) = 0.65487 0.48428
# Poissons Ratio (z) = 0.21384 0.43512
#
# Static dielectric constant tensor:
#      x y z
#    x 1.585890 0.000000 0.006470 
#    y 0.000000 1.599220 0.000000 
#    z 0.006470 0.000000 1.595900 
# 
# From -- ./inp_files/44993.got.cif
#   From: 2010.05.17/outbox.cif.g08.bks.cpg/sg10_23_cif.got.tgz:44993.got - 2010.06.03 11:33:40.
