data_PCOD9152686
_publ_section_title
;
Structure prediction by ZEFSAII (Michael W. Deem and Ramdas Pophale) SiO2 
 PCOD9152686
Probable space group: P 2/M
;
_chemical_formula_sum "Si O2"
_cell_formula_units_Z 32
_cell_length_a 24.325629
_cell_length_b 15.223542
_cell_length_c 8.282884
_cell_angle_alpha 90.000000
_cell_angle_beta 148.562652
_cell_angle_gamma 90.000000
_cell_volume 1599.817934
_symmetry_space_group_name_H-M "P 2/M"
_symmetry_group_IT_number 10
_symmetry_cell_setting 'monoclinic'
loop_
_space_group_symop_operation_xyz
x,y,z
-x,y,-z
-x,-y,-z
x,-y,z
loop_
_atom_site_type_symbol
_atom_site_label
_atom_site_fract_x
_atom_site_fract_y
_atom_site_fract_z
Si Si1 0.620727 0.213749 0.354205
Si Si2 0.383377 0.781967 0.267886
Si Si3 0.807355 0.100196 0.325132
Si Si4 0.002758 0.216473 0.699646
Si Si5 0.947602 0.595784 0.546464
Si Si6 0.305802 0.595915 0.101840
Si Si7 0.374784 0.405575 0.649460
Si Si8 0.193844 0.099000 0.292628
O O1 0.623991 0.216413 0.556436
O O2 0.662330 0.308531 0.390966
O O3 0.692726 0.135602 0.472474
O O4 0.500000 0.203736 0.000000
O O5 0.500000 0.802436 0.500000
O O6 0.353759 0.682288 0.140603
O O7 0.299217 0.850645 0.990789
O O8 0.814417 0.097109 0.535634
O O9 0.904512 0.157485 0.506165
O O10 0.811049 0.000000 0.272699
O O11 0.000000 0.223467 0.500000
O O12 0.991465 0.315861 0.737246
O O13 0.108138 0.166996 0.013091
O O14 0.968293 0.500000 0.675029
O O15 0.000000 0.592134 0.500000
O O16 0.821067 0.605420 0.210193
O O17 0.330640 0.500000 0.090167
O O18 0.350220 0.593348 0.396325
O O19 0.332839 0.500000 0.608452
O O20 0.500000 0.405315 0.000000
O O21 0.175442 0.000000 0.184992
#
# Coordination Sequence:
#
# PCOD9152686 Si02
#       8
#     4   4   4   4   4   4   4   4
#     4  10  21  38  60  88 121 159 196 245 292 351
#     4  11  22  37  60  88 119 157 202 246 297 351
#     4  11  24  43  62  84 117 157 197 246 304 357
#     4  11  22  38  65  94 119 151 194 246 294 352
#     4   9  18  32  56  90 123 155 191 234 288 352
#     4   9  17  32  54  83 120 157 195 239 289 350
#     4   8  15  28  50  80 114 150 188 232 282 339
#     4  11  25  42  62  86 116 155 199 247 303 360
#
# _framework density 20.002275999999998
#
# number of rings (size 3 to 8) (size 9 to 14) (size 15 to 20)
#    0.000    2.000    1.250    2.250    5.250    4.250 
#    0.000    0.000    0.000    5.250    0.000    0.000 
#    0.000    0.000    0.000    0.000    0.000    0.000 
#
# Total GULP energy -178522.343600 kJ/mol
# GULP energy per Si atom -5578.823237 kJ/mol
# Density = 1.995675 g / cm^3
# Si number density = 20.002276 Si / 1000 Ang^3
#
#
#
# Elastic Constant Matrix: (Units=GPa)
#
#
# Indices 1 2 3 4 5 6 
#
# 1 38.6540 18.4087 1.9203 0.0000 8.8579 0.0000
# 2 18.4087 181.8036 57.8629 0.0000 4.3798 0.0000
# 3 1.9203 57.8629 76.0289 0.0000 4.2236 0.0000
# 4 0.0000 0.0000 0.0000 44.4888 0.0000 19.2235
# 5 8.8579 4.3798 4.2236 0.0000 24.7338 0.0000
# 6 0.0000 0.0000 0.0000 19.2235 0.0000 39.3845
#
#
#
# Elastic Compliance Matrix: (Units=1/GPa)
#
#
# Indices 1 2 3 4 5 6 
#
# 1 0.029855 -0.003584 0.002556 0.000000 -0.010494 0.000000
# 2 -0.003584 0.007692 -0.005814 0.000000 0.000914 0.000000
# 3 0.002556 -0.005814 0.017675 0.000000 -0.002904 0.000000
# 4 0.000000 0.000000 0.000000 0.028485 0.000000 -0.013904
# 5 -0.010494 0.000914 -0.002904 0.000000 0.044523 0.000000
# 6 0.000000 0.000000 0.000000 -0.013904 0.000000 0.032177
#
#
# Mechanical properties :
#
#
# Convention : Reuss Voigt Hill
#
# Bulk Modulus (GPa) = 24.07422 50.31892 37.19657
# Shear Modulus (GPa) = 26.60483 36.27440 31.43961
#
# Velocity S-wave (km/s) = 3.65100 4.26316 3.96890
# Velocity P-wave (km/s) = 5.46213 7.03163 6.29598
#
# Compressibility (1/GPa) = 0.04153821
#
# Stress axis : x y z
#
# Youngs Moduli (GPa) = 33.49519 130.00861 56.57823
#
# Poissons Ratio (x) = 0.46593 -0.14464
# Poissons Ratio (y) = 0.12004 0.32896
# Poissons Ratio (z) = -0.08563 0.75590
#
# Static dielectric constant tensor:
#      x y z
#    x 1.678190 0.000000 -0.010320 
#    y 0.000000 1.774230 0.000000 
#    z -0.010320 0.000000 1.678360 
# 
# From -- ./inp_files/36379.got.cif
#   From: 2010.05.17/outbox.cif.g08.bks.cpg/sg10_19_cif.got.tgz:36379.got - 2010.06.03 11:33:40.
