data_PCOD9152784
_publ_section_title
;
Structure prediction by ZEFSAII (Michael W. Deem and Ramdas Pophale) SiO2 
 PCOD9152784
Probable space group: P 2/M
;
_chemical_formula_sum "Si O2"
_cell_formula_units_Z 28
_cell_length_a 9.431974
_cell_length_b 8.633373
_cell_length_c 27.914387
_cell_angle_alpha 90.000000
_cell_angle_beta 142.599245
_cell_angle_gamma 90.000000
_cell_volume 1380.626460
_symmetry_space_group_name_H-M "P 2/M"
_symmetry_group_IT_number 10
_symmetry_cell_setting 'monoclinic'
loop_
_space_group_symop_operation_xyz
x,y,z
-x,y,-z
-x,-y,-z
x,-y,z
loop_
_atom_site_type_symbol
_atom_site_label
_atom_site_fract_x
_atom_site_fract_y
_atom_site_fract_z
Si Si1 0.764983 0.680551 0.466766
Si Si2 0.527775 0.183791 0.866813
Si Si3 0.987604 0.685249 0.266229
Si Si4 0.226779 0.682938 0.160951
Si Si5 0.715869 0.185145 0.023750
Si Si6 0.351649 0.182906 0.292742
Si Si7 0.779555 0.321456 0.573991
O O1 0.687201 0.500000 0.452779
O O2 0.560479 0.766168 0.383898
O O3 0.830092 0.750309 0.535999
O O4 0.000000 0.679377 0.500000
O O5 0.679792 0.236303 0.862184
O O6 0.282331 0.272452 0.802140
O O7 0.484208 0.000000 0.851780
O O8 0.652260 0.212688 0.951111
O O9 0.020067 0.500000 0.270841
O O10 0.114349 0.763796 0.255378
O O11 0.114086 0.743760 0.348892
O O12 0.245323 0.500000 0.159832
O O13 0.370327 0.735800 0.246237
O O14 0.959381 0.731357 0.099019
O O15 0.748599 0.000000 0.039460
O O16 0.500000 0.232819 0.000000
O O17 0.350429 0.000000 0.285592
O O18 0.500000 0.322467 0.500000
O O19 0.865446 0.500000 0.595595
#
# Coordination Sequence:
#
# PCOD9152784 Si02
#       7
#     4   4   4   4   4   4   4
#     4  10  21  38  62  89 122 163 210 261 318 380
#     4  11  24  42  65  97 135 171 205 253 316 376
#     4  11  22  39  65  94 126 167 217 264 311 374
#     4  12  26  43  66  94 127 167 215 266 314 369
#     4  10  22  43  70  97 130 169 205 248 314 382
#     4  12  25  42  62  89 127 168 213 266 325 381
#     4   9  17  34  59  88 120 159 205 257 312 367
#
# _framework density 20.280647999999999
#
# number of rings (size 3 to 8) (size 9 to 14) (size 15 to 20)
#    0.000    1.286    1.429    4.714    2.000    4.571 
#    0.000    2.143    0.000    0.000    0.000    0.000 
#    0.000    0.000    0.000    0.000    0.000    0.000 
#
# Total GULP energy -156518.311478 kJ/mol
# GULP energy per Si atom -5589.939696 kJ/mol
# Density = 2.023449 g / cm^3
# Si number density = 20.280648 Si / 1000 Ang^3
#
#
#
# Elastic Constant Matrix: (Units=GPa)
#
#
# Indices 1 2 3 4 5 6 
#
# 1 101.6553 9.1401 4.8078 0.0000 -18.3901 0.0000
# 2 9.1401 43.0104 13.7040 0.0000 -6.5445 0.0000
# 3 4.8078 13.7040 46.7880 0.0000 -11.8456 0.0000
# 4 0.0000 0.0000 0.0000 30.8674 0.0000 -1.8673
# 5 -18.3901 -6.5445 -11.8456 0.0000 40.1138 0.0000
# 6 0.0000 0.0000 0.0000 -1.8673 0.0000 38.4919
#
#
#
# Elastic Compliance Matrix: (Units=1/GPa)
#
#
# Indices 1 2 3 4 5 6 
#
# 1 0.010847 -0.001766 0.000636 0.000000 0.004873 0.000000
# 2 -0.001766 0.026100 -0.007122 0.000000 0.001345 0.000000
# 3 0.000636 -0.007122 0.025046 0.000000 0.006526 0.000000
# 4 0.000000 0.000000 0.000000 0.032492 0.000000 0.001576
# 5 0.004873 0.001345 0.006526 0.000000 0.029310 0.000000
# 6 0.000000 0.000000 0.000000 0.001576 0.000000 0.026056
#
#
# Mechanical properties :
#
#
# Convention : Reuss Voigt Hill
#
# Bulk Modulus (GPa) = 21.98386 27.41749 24.70067
# Shear Modulus (GPa) = 27.54550 32.81474 30.18012
#
# Velocity S-wave (km/s) = 3.68940 4.02684 3.86181
# Velocity P-wave (km/s) = 5.38630 5.93034 5.66486
#
# Compressibility (1/GPa) = 0.04548793
#
# Stress axis : x y z
#
# Youngs Moduli (GPa) = 92.18802 38.31483 39.92668
#
# Poissons Ratio (x) = 0.06768 -0.02541
# Poissons Ratio (y) = 0.16285 0.28437
# Poissons Ratio (z) = -0.05867 0.27289
#
# Static dielectric constant tensor:
#      x y z
#    x 1.741210 0.000000 -0.037960 
#    y 0.000000 1.700570 0.000000 
#    z -0.037960 0.000000 1.716130 
# 
# From -- ./inp_files/92089.got.cif
#   From: 2010.05.17/outbox.cif.g08.bks.cpg/sg10_47_cif.got.tgz:92089.got - 2010.06.03 11:33:40.
