data_PCOD9152983
_publ_section_title
;
Structure prediction by ZEFSAII (Michael W. Deem and Ramdas Pophale) SiO2 
 PCOD9152983
Probable space group: P 2/M
;
_chemical_formula_sum "Si O2"
_cell_formula_units_Z 28
_cell_length_a 12.325670
_cell_length_b 16.344684
_cell_length_c 9.243434
_cell_angle_alpha 90.000000
_cell_angle_beta 52.568649
_cell_angle_gamma 90.000000
_cell_volume 1478.719663
_symmetry_space_group_name_H-M "P 2/M"
_symmetry_group_IT_number 10
_symmetry_cell_setting 'monoclinic'
loop_
_space_group_symop_operation_xyz
x,y,z
-x,y,-z
-x,-y,-z
x,-y,z
loop_
_atom_site_type_symbol
_atom_site_label
_atom_site_fract_x
_atom_site_fract_y
_atom_site_fract_z
Si Si1 0.541087 0.247439 0.632848
Si Si2 0.721319 0.845942 0.075341
Si Si3 0.129737 0.000000 0.503871
Si Si4 0.027701 0.278117 0.132809
Si Si5 0.200118 0.144697 0.661327
Si Si6 0.418029 0.405447 0.217089
Si Si7 0.660575 0.000000 0.918984
Si Si8 0.103324 0.589675 0.546863
O O1 0.500000 0.257444 0.500000
O O2 0.428968 0.192173 0.800691
O O3 0.683209 0.198384 0.512090
O O4 0.538216 0.335656 0.707919
O O5 0.749457 0.879003 0.217208
O O6 0.826317 0.768719 0.963386
O O7 0.712192 0.920472 0.969222
O O8 0.144692 0.075851 0.600009
O O9 0.259153 0.000000 0.295308
O O10 0.000000 0.000000 0.500000
O O11 0.926150 0.202525 0.208979
O O12 0.964760 0.340395 0.299983
O O13 0.000000 0.320164 0.000000
O O14 0.445794 0.500000 0.236796
O O15 0.252989 0.395096 0.355558
O O16 0.500000 0.392719 0.000000
O O17 0.500000 0.000000 0.000000
O O18 0.112001 0.500000 0.614669
O O19 0.000000 0.582724 0.500000
#
# Coordination Sequence:
#
# PCOD9152983 Si02
#       8
#     4   4   2   4   4   4   2   4
#     4  10  21  39  63  88 116 157 210 251 298 360
#     4  10  23  40  63  87 121 164 202 248 309 369
#     4  12  25  38  61  92 122 154 202 253 307 362
#     4  10  21  39  64  90 116 156 209 255 299 358
#     4  10  21  42  61  85 121 162 201 247 309 372
#     4  10  22  40  61  89 126 164 201 247 306 365
#     4  12  25  42  59  92 126 154 204 257 302 365
#     4  10  22  40  60  88 126 165 201 245 307 370
#
# _framework density 18.935300000000002
#
# number of rings (size 3 to 8) (size 9 to 14) (size 15 to 20)
#    0.000    1.714    1.429    2.143    2.000    4.000 
#    0.000    5.714    0.000    0.000    0.000    0.000 
#    0.000    0.000    0.000    0.000    0.000    0.000 
#
# Total GULP energy -155874.649621 kJ/mol
# GULP energy per Si atom -5566.951772 kJ/mol
# Density = 1.889220 g / cm^3
# Si number density = 18.935300 Si / 1000 Ang^3
#
#
#
# Elastic Constant Matrix: (Units=GPa)
#
#
# Indices 1 2 3 4 5 6 
#
# 1 39.1092 28.3399 35.9932 0.0000 -0.8185 0.0000
# 2 28.3399 80.0228 32.7943 0.0000 15.1974 0.0000
# 3 35.9932 32.7943 68.6483 0.0000 -15.5217 0.0000
# 4 0.0000 0.0000 0.0000 72.4004 0.0000 27.0775
# 5 -0.8185 15.1974 -15.5217 0.0000 30.0671 0.0000
# 6 0.0000 0.0000 0.0000 27.0775 0.0000 27.4457
#
#
#
# Elastic Compliance Matrix: (Units=1/GPa)
#
#
# Indices 1 2 3 4 5 6 
#
# 1 0.056546 -0.006160 -0.029043 0.000000 -0.010340 0.000000
# 2 -0.006160 0.022842 -0.011696 0.000000 -0.017751 0.000000
# 3 -0.029043 -0.011696 0.041369 0.000000 0.026477 0.000000
# 4 0.000000 0.000000 0.000000 0.021888 0.000000 -0.021595
# 5 -0.010340 -0.017751 0.026477 0.000000 0.055618 0.000000
# 6 0.000000 0.000000 0.000000 -0.021595 0.000000 0.057741
#
#
# Mechanical properties :
#
#
# Convention : Reuss Voigt Hill
#
# Bulk Modulus (GPa) = 37.09350 42.44836 39.77093
# Shear Modulus (GPa) = 13.93581 32.02617 22.98099
#
# Velocity S-wave (km/s) = 2.71582 4.11706 3.48754
# Velocity P-wave (km/s) = 5.42829 6.71316 6.10462
#
# Compressibility (1/GPa) = 0.02695890
#
# Stress axis : x y z
#
# Youngs Moduli (GPa) = 17.68485 43.77851 24.17283
#
# Poissons Ratio (x) = 0.26965 0.70205
# Poissons Ratio (y) = 0.10893 0.28273
# Poissons Ratio (z) = 0.51362 0.51204
#
# Static dielectric constant tensor:
#      x y z
#    x 1.668670 0.000000 -0.018010 
#    y 0.000000 1.850030 0.000000 
#    z -0.018010 0.000000 1.567490 
# 
# From -- ./inp_files/25236.got.cif
#   From: 2010.05.17/outbox.cif.g08.bks.cpg/sg10_13_cif.got.tgz:25236.got - 2010.06.03 11:33:40.
