data_PCOD9152313
_publ_section_title
;
Structure prediction by ZEFSAII (Michael W. Deem and Ramdas Pophale) SiO2 
 PCOD9152313
Probable space group: P 2/M
;
_chemical_formula_sum "Si O2"
_cell_formula_units_Z 20
_cell_length_a 8.242118
_cell_length_b 23.117202
_cell_length_c 9.393858
_cell_angle_alpha 90.000000
_cell_angle_beta 147.308016
_cell_angle_gamma 90.000000
_cell_volume 966.741635
_symmetry_space_group_name_H-M "P 2/M"
_symmetry_group_IT_number 10
_symmetry_cell_setting 'monoclinic'
loop_
_space_group_symop_operation_xyz
x,y,z
-x,y,-z
-x,-y,-z
x,-y,z
loop_
_atom_site_type_symbol
_atom_site_label
_atom_site_fract_x
_atom_site_fract_y
_atom_site_fract_z
Si Si1 0.286596 0.628833 0.608749
Si Si2 0.910289 0.567536 0.098942
Si Si3 0.163413 0.825795 0.968540
Si Si4 0.144490 0.064604 0.759124
Si Si5 0.331950 0.243177 0.529318
O O1 0.344882 0.695732 0.616084
O O2 0.000000 0.623678 0.500000
O O3 0.174811 0.596378 0.384528
O O4 0.593595 0.599786 0.889010
O O5 0.880868 0.500000 0.114622
O O6 0.000000 0.572252 0.000000
O O7 0.105693 0.885994 0.847232
O O8 0.003009 0.776893 0.754953
O O9 0.499782 0.805658 0.252891
O O10 0.000000 0.827821 0.000000
O O11 0.000000 0.079300 0.500000
O O12 0.033279 0.000000 0.717896
O O13 0.500000 0.061114 0.000000
O O14 0.500000 0.247807 0.500000
#
# Coordination Sequence:
#
# PCOD9152313 Si02
#       5
#     4   4   4   4   4
#     4  12  25  40  62  93 124 155 197 250 303 351
#     4  11  24  43  66  89 118 161 204 241 294 362
#     4  10  21  37  59  85 112 150 198 244 288 339
#     4  10  21  37  57  83 116 153 190 233 291 352
#     4  10  21  38  59  84 117 155 195 239 292 354
#
# _framework density 20.688051000000002
#
# number of rings (size 3 to 8) (size 9 to 14) (size 15 to 20)
#    0.000    1.400    0.000    5.400    0.000    8.400 
#    0.000    0.000    0.000    7.200    0.000    0.000 
#    0.000    0.000    0.000    0.000    0.000    0.000 
#
# Total GULP energy -111801.112043 kJ/mol
# GULP energy per Si atom -5590.055602 kJ/mol
# Density = 2.064096 g / cm^3
# Si number density = 20.688051 Si / 1000 Ang^3
#
#
#
# Elastic Constant Matrix: (Units=GPa)
#
#
# Indices 1 2 3 4 5 6 
#
# 1 20.3663 23.6297 12.2925 0.0000 3.3637 0.0000
# 2 23.6297 120.6740 23.4769 0.0000 -19.0307 0.0000
# 3 12.2925 23.4769 114.1918 0.0000 -4.5442 0.0000
# 4 0.0000 0.0000 0.0000 7.7750 0.0000 45.4420
# 5 3.3637 -19.0307 -4.5442 0.0000 27.2023 0.0000
# 6 0.0000 0.0000 0.0000 45.4420 0.0000 -38.5782
#
#
#
# Elastic Compliance Matrix: (Units=1/GPa)
#
#
# Indices 1 2 3 4 5 6 
#
# 1 0.076414 -0.017447 -0.005538 0.000000 -0.022580 0.000000
# 2 -0.017447 0.013624 -0.000461 0.000000 0.011612 0.000000
# 3 -0.005538 -0.000461 0.009526 0.000000 0.001954 0.000000
# 4 0.000000 0.000000 0.000000 0.016313 0.000000 0.019215
# 5 -0.022580 0.011612 0.001954 0.000000 0.048004 0.000000
# 6 0.000000 0.000000 0.000000 0.019215 0.000000 -0.003288
#
#
# Mechanical properties :
#
#
# Convention : Reuss Voigt Hill
#
# Bulk Modulus (GPa) = 18.98464 41.55893 30.27179
# Shear Modulus (GPa) = 22.21822 12.33537 17.27679
#
# Velocity S-wave (km/s) = 3.28069 2.44448 2.89296
# Velocity P-wave (km/s) = 4.85254 5.30088 5.08166
#
# Compressibility (1/GPa) = 0.05267415
#
# Stress axis : x y z
#
# Youngs Moduli (GPa) = 13.08655 73.40019 104.97823
#
# Poissons Ratio (x) = 1.28059 0.58132
# Poissons Ratio (y) = 0.22832 0.04837
# Poissons Ratio (z) = 0.07247 0.03382
#
# Static dielectric constant tensor:
#      x y z
#    x 1.732180 0.000000 -0.011260 
#    y 0.000000 1.733710 0.000000 
#    z -0.011260 0.000000 1.704020 
# 
# From -- ./inp_files/4690.got.cif
#   From: 2010.05.17/outbox.cif.g08.bks.cpg/sg10_3_cif.got.tgz:4690.got - 2010.06.03 11:33:40.
