data_PCOD9152606
_publ_section_title
;
Structure prediction by ZEFSAII (Michael W. Deem and Ramdas Pophale) SiO2 
 PCOD9152606
Probable space group: P 2/M
;
_chemical_formula_sum "Si O2"
_cell_formula_units_Z 24
_cell_length_a 8.276448
_cell_length_b 14.396390
_cell_length_c 14.416596
_cell_angle_alpha 90.000000
_cell_angle_beta 43.001579
_cell_angle_gamma 90.000000
_cell_volume 1171.538289
_symmetry_space_group_name_H-M "P 2/M"
_symmetry_group_IT_number 10
_symmetry_cell_setting 'monoclinic'
loop_
_space_group_symop_operation_xyz
x,y,z
-x,y,-z
-x,-y,-z
x,-y,z
loop_
_atom_site_type_symbol
_atom_site_label
_atom_site_fract_x
_atom_site_fract_y
_atom_site_fract_z
Si Si1 0.461181 0.209504 0.677410
Si Si2 0.265096 0.107489 0.933926
Si Si3 0.732282 0.398763 0.839530
Si Si4 0.087116 0.110400 0.565617
Si Si5 0.058314 0.792815 0.192950
Si Si6 0.282686 0.606910 0.371349
O O1 0.647364 0.149059 0.541678
O O2 0.205094 0.204493 0.738433
O O3 0.566941 0.313202 0.641928
O O4 0.428431 0.162677 0.792812
O O5 0.233165 0.161097 0.044206
O O6 0.340836 0.000000 0.913099
O O7 0.000000 0.105529 0.000000
O O8 0.851902 0.500000 0.797338
O O9 0.664983 0.386985 0.760294
O O10 0.884688 0.313313 0.809607
O O11 0.500000 0.399673 0.000000
O O12 0.938093 0.152507 0.711928
O O13 0.000000 0.139487 0.500000
O O14 0.082459 0.000000 0.573088
O O15 0.329172 0.500000 0.382113
O O16 0.000000 0.623522 0.500000
#
# Coordination Sequence:
#
# PCOD9152606 Si02
#       6
#     4   4   4   4   4   4
#     4  11  21  36  60  87 116 149 188 240 289 333
#     4   9  19  35  54  80 114 148 182 224 279 337
#     4  10  21  38  59  82 113 153 191 231 283 343
#     4  11  24  40  58  83 117 156 195 234 280 339
#     4  11  22  36  60  89 115 148 191 239 287 336
#     4  10  21  38  59  81 111 152 190 229 284 344
#
# _framework density 20.485886000000001
#
# number of rings (size 3 to 8) (size 9 to 14) (size 15 to 20)
#    0.000    1.667    0.000    5.000    0.000    3.333 
#    0.000    0.000    0.000   16.000    0.000    0.000 
#    0.000    0.000    0.000    0.000    0.000    0.000 
#
# Total GULP energy -134192.600961 kJ/mol
# GULP energy per Si atom -5591.358373 kJ/mol
# Density = 2.043926 g / cm^3
# Si number density = 20.485886 Si / 1000 Ang^3
#
#
#
# Elastic Constant Matrix: (Units=GPa)
#
#
# Indices 1 2 3 4 5 6 
#
# 1 55.0924 33.0174 5.7396 0.0000 15.3099 0.0000
# 2 33.0174 130.4559 11.2563 0.0000 15.8834 0.0000
# 3 5.7396 11.2563 71.8437 0.0000 28.7742 0.0000
# 4 0.0000 0.0000 0.0000 38.2960 0.0000 -7.0941
# 5 15.3099 15.8834 28.7742 0.0000 30.5927 0.0000
# 6 0.0000 0.0000 0.0000 -7.0941 0.0000 31.9103
#
#
#
# Elastic Compliance Matrix: (Units=1/GPa)
#
#
# Indices 1 2 3 4 5 6 
#
# 1 0.024456 -0.004886 0.004328 0.000000 -0.013773 0.000000
# 2 -0.004886 0.009179 -0.000190 0.000000 -0.002142 0.000000
# 3 0.004328 -0.000190 0.023153 0.000000 -0.023844 0.000000
# 4 0.000000 0.000000 0.000000 0.027234 0.000000 0.006055
# 5 -0.013773 -0.002142 -0.023844 0.000000 0.063118 0.000000
# 6 0.000000 0.000000 0.000000 0.006055 0.000000 0.032684
#
#
# Mechanical properties :
#
#
# Convention : Reuss Voigt Hill
#
# Bulk Modulus (GPa) = 18.08605 39.71319 28.89962
# Shear Modulus (GPa) = 25.03111 33.98505 29.50808
#
# Velocity S-wave (km/s) = 3.49932 4.07744 3.79939
# Velocity P-wave (km/s) = 5.01744 6.44942 5.77796
#
# Compressibility (1/GPa) = 0.05529125
#
# Stress axis : x y z
#
# Youngs Moduli (GPa) = 40.88954 108.94133 43.19138
#
# Poissons Ratio (x) = 0.53231 -0.18692
# Poissons Ratio (y) = 0.19980 0.00821
# Poissons Ratio (z) = -0.17696 0.02070
#
# Static dielectric constant tensor:
#      x y z
#    x 1.743430 0.000000 0.000030 
#    y 0.000000 1.717980 0.000000 
#    z 0.000030 0.000000 1.718370 
# 
# From -- ./inp_files/61654.got.cif
#   From: 2010.05.17/outbox.cif.g08.bks.cpg/sg10_31_cif.got.tgz:61654.got - 2010.06.03 11:33:40.
