data_PCOD9152571
_publ_section_title
;
Structure prediction by ZEFSAII (Michael W. Deem and Ramdas Pophale) SiO2 
 PCOD9152571
Probable space group: P 2/M
;
_chemical_formula_sum "Si O2"
_cell_formula_units_Z 22
_cell_length_a 6.851650
_cell_length_b 11.832866
_cell_length_c 15.999156
_cell_angle_alpha 90.000000
_cell_angle_beta 127.539842
_cell_angle_gamma 90.000000
_cell_volume 1028.529960
_symmetry_space_group_name_H-M "P 2/M"
_symmetry_group_IT_number 10
_symmetry_cell_setting 'monoclinic'
loop_
_space_group_symop_operation_xyz
x,y,z
-x,y,-z
-x,-y,-z
x,-y,z
loop_
_atom_site_type_symbol
_atom_site_label
_atom_site_fract_x
_atom_site_fract_y
_atom_site_fract_z
Si Si1 0.460846 0.285468 0.221448
Si Si2 0.729123 0.127808 0.970835
Si Si3 0.333775 0.500000 0.825895
Si Si4 0.342993 0.128251 0.588742
Si Si5 0.885746 0.872954 0.646035
Si Si6 0.079155 0.283844 0.835514
O O1 0.425175 0.197942 0.136196
O O2 0.561998 0.400757 0.210392
O O3 0.629941 0.224074 0.334748
O O4 0.188630 0.303274 0.191144
O O5 0.641472 0.000000 0.958947
O O6 0.000000 0.120706 0.000000
O O7 0.773029 0.197802 0.066688
O O8 0.780095 0.400111 0.142298
O O9 0.154810 0.147345 0.463116
O O10 0.612526 0.126498 0.615227
O O11 0.307566 0.000000 0.612168
O O12 0.026223 0.777788 0.733688
O O13 0.984953 0.000000 0.685381
#
# Coordination Sequence:
#
# PCOD9152571 Si02
#       6
#     4   4   2   4   4   4
#     4  10  21  38  58  81 112 146 183 227 271 320
#     4   9  18  35  62  90 112 138 173 223 287 338
#     4  12  26  41  55  78 110 154 201 225 256 314
#     4   8  14  29  57  87 111 139 176 223 283 339
#     4   8  14  29  57  87 111 139 176 223 283 339
#     4  10  21  38  58  81 112 146 183 227 271 320
#
# _framework density 21.389749999999999
#
# number of rings (size 3 to 8) (size 9 to 14) (size 15 to 20)
#    0.000    2.727    0.000    2.727    0.000    6.545 
#    0.000   10.000    0.000    6.545    0.000    0.000 
#    0.000    0.000    0.000    0.000    0.000    0.000 
#
# Total GULP energy -122500.738321 kJ/mol
# GULP energy per Si atom -5568.215378 kJ/mol
# Density = 2.134107 g / cm^3
# Si number density = 21.389750 Si / 1000 Ang^3
#
#
#
# Elastic Constant Matrix: (Units=GPa)
#
#
# Indices 1 2 3 4 5 6 
#
# 1 109.9073 51.5194 29.9758 0.0000 -17.0037 0.0000
# 2 51.5194 248.7111 94.5866 0.0000 -19.8140 0.0000
# 3 29.9758 94.5866 90.6909 0.0000 -18.2203 0.0000
# 4 0.0000 0.0000 0.0000 0.0951 0.0000 -16.5729
# 5 -17.0037 -19.8140 -18.2203 0.0000 36.2835 0.0000
# 6 0.0000 0.0000 0.0000 -16.5729 0.0000 30.7291
#
#
#
# Elastic Compliance Matrix: (Units=1/GPa)
#
#
# Indices 1 2 3 4 5 6 
#
# 1 0.010679 -0.001422 -0.001331 0.000000 0.003559 0.000000
# 2 -0.001422 0.006854 -0.006741 0.000000 -0.000308 0.000000
# 3 -0.001331 -0.006741 0.019610 0.000000 0.005543 0.000000
# 4 0.000000 0.000000 0.000000 -0.113082 0.000000 -0.060988
# 5 0.003559 -0.000308 0.005543 0.000000 0.031844 0.000000
# 6 0.000000 0.000000 0.000000 -0.060988 0.000000 -0.000350
#
#
# Mechanical properties :
#
#
# Convention : Reuss Voigt Hill
#
# Bulk Modulus (GPa) = 55.08034 89.05255 72.06645
# Shear Modulus (GPa) = -257.66214 31.63671 -113.01271
#
# Velocity S-wave (km/s) = -10.98736 3.85003 -7.27665
# Velocity P-wave (km/s) = 11.62566 7.84138 6.06913
#
# Compressibility (1/GPa) = 0.01815530
#
# Stress axis : x y z
#
# Youngs Moduli (GPa) = 93.64156 145.89479 50.99410
#
# Poissons Ratio (x) = 0.20750 0.06789
# Poissons Ratio (y) = 0.13318 0.34373
# Poissons Ratio (z) = 0.12466 0.98341
#
# Static dielectric constant tensor:
#      x y z
#    x 1.885050 0.000000 0.003120 
#    y 0.000000 1.674770 0.000000 
#    z 0.003120 0.000000 1.754960 
# 
# From -- ./inp_files/76341.got.cif
#   From: 2010.05.17/outbox.cif.g08.bks.cpg/sg10_39_cif.got.tgz:76341.got - 2010.06.03 11:33:40.
