data_PCOD9152736
_publ_section_title
;
Structure prediction by ZEFSAII (Michael W. Deem and Ramdas Pophale) SiO2 
 PCOD9152736
Probable space group: P 2/M
;
_chemical_formula_sum "Si O2"
_cell_formula_units_Z 14
_cell_length_a 14.735516
_cell_length_b 11.312427
_cell_length_c 12.868577
_cell_angle_alpha 90.000000
_cell_angle_beta 19.652016
_cell_angle_gamma 90.000000
_cell_volume 721.418301
_symmetry_space_group_name_H-M "P 2/M"
_symmetry_group_IT_number 10
_symmetry_cell_setting 'monoclinic'
loop_
_space_group_symop_operation_xyz
x,y,z
-x,y,-z
-x,-y,-z
x,-y,z
loop_
_atom_site_type_symbol
_atom_site_label
_atom_site_fract_x
_atom_site_fract_y
_atom_site_fract_z
Si Si1 0.710783 0.000000 0.366137
Si Si2 0.722215 0.137346 0.850453
Si Si3 0.462914 0.762204 0.334044
Si Si4 0.935518 0.639597 0.949216
O O1 0.500000 0.000000 0.500000
O O2 0.660698 0.884290 0.489351
O O3 0.000000 0.000000 0.000000
O O4 0.000000 0.179852 0.500000
O O5 0.763441 0.000000 0.839506
O O6 0.500000 0.138350 0.000000
O O7 0.619447 0.210562 0.059171
O O8 0.208534 0.675585 0.595069
O O9 0.678720 0.709561 0.182663
O O10 0.881956 0.500000 0.999750
O O11 0.000000 0.668591 0.000000
#
# Coordination Sequence:
#
# PCOD9152736 Si02
#       4
#     2   4   4   4
#     4  12  24  36  56  92 128 154 184 242 317 368
#     4  10  21  38  61  89 121 157 202 246 299 368
#     4  12  22  40  63  90 124 159 200 253 307 359
#     4  11  24  41  63  88 121 167 212 245 288 361
#
# _framework density 19.406217999999999
#
# number of rings (size 3 to 8) (size 9 to 14) (size 15 to 20)
#    0.000    0.857    1.429    7.714    0.000    2.286 
#    0.000    0.000    0.000   17.143    0.000    0.000 
#    0.000    0.000    0.000    0.000    0.000    0.000 
#
# Total GULP energy -78347.221074 kJ/mol
# GULP energy per Si atom -5596.230077 kJ/mol
# Density = 1.936205 g / cm^3
# Si number density = 19.406218 Si / 1000 Ang^3
#
#
#
# Elastic Constant Matrix: (Units=GPa)
#
#
# Indices 1 2 3 4 5 6 
#
# 1 56.4515 36.7755 39.0383 0.0000 -3.5762 0.0000
# 2 36.7755 85.5421 41.4898 0.0000 3.6281 0.0000
# 3 39.0383 41.4898 169.7328 0.0000 -0.7824 0.0000
# 4 0.0000 0.0000 0.0000 21.9181 0.0000 1.7683
# 5 -3.5762 3.6281 -0.7824 0.0000 42.7393 0.0000
# 6 0.0000 0.0000 0.0000 1.7683 0.0000 25.3295
#
#
#
# Elastic Compliance Matrix: (Units=1/GPa)
#
#
# Indices 1 2 3 4 5 6 
#
# 1 0.026954 -0.009888 -0.003768 0.000000 0.003026 0.000000
# 2 -0.009888 0.016951 -0.001880 0.000000 -0.002301 0.000000
# 3 -0.003768 -0.001880 0.007218 0.000000 -0.000024 0.000000
# 4 0.000000 0.000000 0.000000 0.045883 0.000000 -0.003203
# 5 0.003026 -0.002301 -0.000024 0.000000 0.023846 0.000000
# 6 0.000000 0.000000 0.000000 -0.003203 0.000000 0.039703
#
#
# Mechanical properties :
#
#
# Convention : Reuss Voigt Hill
#
# Bulk Modulus (GPa) = 49.87706 60.70374 55.29040
# Shear Modulus (GPa) = 25.21312 30.95889 28.08601
#
# Velocity S-wave (km/s) = 3.60839 3.99846 3.80843
# Velocity P-wave (km/s) = 6.56643 7.25709 6.92039
#
# Compressibility (1/GPa) = 0.02004930
#
# Stress axis : x y z
#
# Youngs Moduli (GPa) = 37.10068 58.99516 138.54874
#
# Poissons Ratio (x) = 0.58336 0.52208
# Poissons Ratio (y) = 0.36686 0.26043
# Poissons Ratio (z) = 0.13980 0.11089
#
# Static dielectric constant tensor:
#      x y z
#    x 1.638880 0.000000 0.005230 
#    y 0.000000 1.686740 0.000000 
#    z 0.005230 0.000000 1.670180 
# 
# From -- ./inp_files/6040.got.cif
#   From: 2010.05.17/outbox.cif.g08.bks.cpg/sg10_4_cif.got.tgz:6040.got - 2010.06.03 11:33:40.
