data_PCOD9152938
_publ_section_title
;
Structure prediction by ZEFSAII (Michael W. Deem and Ramdas Pophale) SiO2 
 PCOD9152938
Probable space group: P 2/M
;
_chemical_formula_sum "Si O2"
_cell_formula_units_Z 32
_cell_length_a 23.442824
_cell_length_b 8.956802
_cell_length_c 14.545816
_cell_angle_alpha 90.000000
_cell_angle_beta 148.123193
_cell_angle_gamma 90.000000
_cell_volume 1612.919691
_symmetry_space_group_name_H-M "P 2/M"
_symmetry_group_IT_number 10
_symmetry_cell_setting 'monoclinic'
loop_
_space_group_symop_operation_xyz
x,y,z
-x,y,-z
-x,-y,-z
x,-y,z
loop_
_atom_site_type_symbol
_atom_site_label
_atom_site_fract_x
_atom_site_fract_y
_atom_site_fract_z
Si Si1 0.011453 0.824736 0.272391
Si Si2 0.099398 0.327492 0.566277
Si Si3 0.493422 0.179423 0.884600
Si Si4 0.092577 0.322148 0.198949
Si Si5 0.394213 0.678247 0.415880
Si Si6 0.756761 0.822243 0.936429
Si Si7 0.325721 0.177955 0.504769
Si Si8 0.680695 0.676403 0.019296
O O1 0.080871 0.781501 0.456206
O O2 0.051659 0.728349 0.242322
O O3 0.022152 0.000000 0.265752
O O4 0.885028 0.793112 0.118893
O O5 0.097093 0.500000 0.530469
O O6 0.209572 0.303571 0.772039
O O7 0.000000 0.308064 0.500000
O O8 0.380731 0.211838 0.678479
O O9 0.509049 0.000000 0.903652
O O10 0.500000 0.227224 0.000000
O O11 0.584797 0.256165 0.948218
O O12 0.106770 0.500000 0.213569
O O13 0.206320 0.244250 0.334899
O O14 0.000000 0.277838 0.000000
O O15 0.500000 0.713122 0.500000
O O16 0.385581 0.500000 0.412636
O O17 0.293063 0.743691 0.221099
O O18 0.395770 0.751449 0.518315
O O19 0.740567 0.000000 0.908377
O O20 0.697898 0.757298 0.945686
O O21 0.322885 0.000000 0.489758
O O22 0.664041 0.500000 0.980349
#
# Coordination Sequence:
#
# PCOD9152938 Si02
#       8
#     4   4   4   4   4   4   4   4
#     4  11  24  39  61  92 125 163 208 257 310 373
#     4  10  21  39  61  90 128 168 207 254 312 375
#     4  10  24  45  66  91 126 168 213 263 318 375
#     4  11  25  44  67  94 128 170 211 260 319 378
#     4  11  24  41  64  93 125 162 205 256 312 373
#     4  11  23  39  62  93 126 163 204 254 311 374
#     4  11  24  43  67  95 128 168 213 264 316 373
#     4  11  23  39  63  93 126 166 211 261 314 371
#
# _framework density 19.839797999999998
#
# number of rings (size 3 to 8) (size 9 to 14) (size 15 to 20)
#    0.000    1.250    1.250    3.750    1.750   10.000 
#    0.000    0.000    0.000    0.000    0.000    0.000 
#    0.000    0.000    0.000    0.000    0.000    0.000 
#
# Total GULP energy -179021.429044 kJ/mol
# GULP energy per Si atom -5594.419658 kJ/mol
# Density = 1.979464 g / cm^3
# Si number density = 19.839798 Si / 1000 Ang^3
#
#
#
# Elastic Constant Matrix: (Units=GPa)
#
#
# Indices 1 2 3 4 5 6 
#
# 1 98.3276 38.8393 38.6951 0.0000 -7.3911 0.0000
# 2 38.8393 50.7136 46.8646 0.0000 -2.1504 0.0000
# 3 38.6951 46.8646 88.4377 0.0000 -5.3204 0.0000
# 4 0.0000 0.0000 0.0000 24.6050 0.0000 3.6555
# 5 -7.3911 -2.1504 -5.3204 0.0000 34.3055 0.0000
# 6 0.0000 0.0000 0.0000 3.6555 0.0000 20.6065
#
#
#
# Elastic Compliance Matrix: (Units=1/GPa)
#
#
# Indices 1 2 3 4 5 6 
#
# 1 0.014814 -0.010557 -0.000742 0.000000 0.002415 0.000000
# 2 -0.010557 0.046184 -0.020004 0.000000 -0.002482 0.000000
# 3 -0.000742 -0.020004 0.022356 0.000000 0.002053 0.000000
# 4 0.000000 0.000000 0.000000 0.041742 0.000000 -0.007405
# 5 0.002415 -0.002482 0.002053 0.000000 0.029833 0.000000
# 6 0.000000 0.000000 0.000000 -0.007405 0.000000 0.049842
#
#
# Mechanical properties :
#
#
# Convention : Reuss Voigt Hill
#
# Bulk Modulus (GPa) = 48.19761 54.03079 51.11420
# Shear Modulus (GPa) = 18.22866 23.44203 20.83534
#
# Velocity S-wave (km/s) = 3.03445 3.44112 3.24416
# Velocity P-wave (km/s) = 6.05172 6.56362 6.31286
#
# Compressibility (1/GPa) = 0.02074792
#
# Stress axis : x y z
#
# Youngs Moduli (GPa) = 67.50551 21.65236 44.73068
#
# Poissons Ratio (x) = 0.22859 0.03319
# Poissons Ratio (y) = 0.71266 0.89479
# Poissons Ratio (z) = 0.05008 0.43313
#
# Static dielectric constant tensor:
#      x y z
#    x 1.673500 0.000000 -0.008380 
#    y 0.000000 1.661820 0.000000 
#    z -0.008380 0.000000 1.707540 
# 
# From -- ./inp_files/71609.got.cif
#   From: 2010.05.17/outbox.cif.g08.bks.cpg/sg10_36_cif.got.tgz:71609.got - 2010.06.03 11:33:40.
