data_PCOD9152683
_publ_section_title
;
Structure prediction by ZEFSAII (Michael W. Deem and Ramdas Pophale) SiO2 
 PCOD9152683
Probable space group: P 2/M
;
_chemical_formula_sum "Si O2"
_cell_formula_units_Z 24
_cell_length_a 5.435263
_cell_length_b 27.058929
_cell_length_c 8.374088
_cell_angle_alpha 90.000000
_cell_angle_beta 68.832541
_cell_angle_gamma 90.000000
_cell_volume 1148.500132
_symmetry_space_group_name_H-M "P 2/M"
_symmetry_group_IT_number 10
_symmetry_cell_setting 'monoclinic'
loop_
_space_group_symop_operation_xyz
x,y,z
-x,y,-z
-x,-y,-z
x,-y,z
loop_
_atom_site_type_symbol
_atom_site_label
_atom_site_fract_x
_atom_site_fract_y
_atom_site_fract_z
Si Si1 0.384944 0.708015 0.703414
Si Si2 0.812594 0.555468 0.887958
Si Si3 0.680123 0.000000 0.612899
Si Si4 0.000000 0.887394 0.000000
Si Si5 0.179077 0.902174 0.300107
Si Si6 0.465967 0.189145 0.832276
Si Si7 0.115388 0.342341 0.293907
O O1 0.500000 0.698980 0.500000
O O2 0.400114 0.766376 0.731806
O O3 0.590500 0.680278 0.771530
O O4 0.088282 0.687296 0.771677
O O5 0.858782 0.500000 0.811562
O O6 0.879315 0.600741 0.757729
O O7 0.500000 0.558798 0.000000
O O8 0.000000 0.560098 0.000000
O O9 0.500000 0.000000 0.500000
O O10 0.625794 0.948396 0.715376
O O11 0.000000 0.000000 0.500000
O O12 0.941125 0.913986 0.846220
O O13 0.238015 0.850995 0.901582
O O14 0.290348 0.846471 0.265588
O O15 0.000000 0.901591 0.500000
O O16 0.500000 0.211676 0.000000
O O17 0.000000 0.337746 0.500000
#
# Coordination Sequence:
#
# PCOD9152683 Si02
#       7
#     4   4   2   2   4   4   4
#     4  10  23  38  62  87 122 161 206 255 311 373
#     4  10  21  38  60  88 120 159 206 252 308 372
#     4  10  24  43  69 105 128 167 225 265 327 402
#     4  10  24  43  60 100 130 164 225 266 312 410
#     4  10  24  42  71  94 131 172 214 273 328 387
#     4  10  24  41  60  93 125 165 215 261 315 388
#     4  10  22  40  58  90 121 158 208 255 308 373
#
# _framework density 20.896819000000001
#
# number of rings (size 3 to 8) (size 9 to 14) (size 15 to 20)
#    0.000    2.000    0.000    1.000   11.667    3.333 
#    0.000    3.750    0.000    6.000    0.000    0.000 
#    0.000    0.000    0.000    0.000    0.000    0.000 
#
# Total GULP energy -133839.384552 kJ/mol
# GULP energy per Si atom -5576.641023 kJ/mol
# Density = 2.084926 g / cm^3
# Si number density = 20.896819 Si / 1000 Ang^3
#
#
#
# Elastic Constant Matrix: (Units=GPa)
#
#
# Indices 1 2 3 4 5 6 
#
# 1 134.7825 39.3650 44.7462 0.0000 29.4341 0.0000
# 2 39.3650 113.1789 34.1012 0.0000 20.6264 0.0000
# 3 44.7462 34.1012 55.5594 0.0000 17.8653 0.0000
# 4 0.0000 0.0000 0.0000 69.6408 0.0000 -11.4770
# 5 29.4341 20.6264 17.8653 0.0000 22.8107 0.0000
# 6 0.0000 0.0000 0.0000 -11.4770 0.0000 70.5156
#
#
#
# Elastic Compliance Matrix: (Units=1/GPa)
#
#
# Indices 1 2 3 4 5 6 
#
# 1 0.011717 -0.000457 -0.005918 0.000000 -0.010071 0.000000
# 2 -0.000457 0.011541 -0.004745 0.000000 -0.006131 0.000000
# 3 -0.005918 -0.004745 0.029194 0.000000 -0.010939 0.000000
# 4 0.000000 0.000000 0.000000 0.014755 0.000000 0.002402
# 5 -0.010071 -0.006131 -0.010939 0.000000 0.070945 0.000000
# 6 0.000000 0.000000 0.000000 0.002402 0.000000 0.014572
#
#
# Mechanical properties :
#
#
# Convention : Reuss Voigt Hill
#
# Bulk Modulus (GPa) = 33.09700 59.99397 46.54549
# Shear Modulus (GPa) = 27.02208 44.94732 35.98470
#
# Velocity S-wave (km/s) = 3.59990 4.64283 4.15422
# Velocity P-wave (km/s) = 5.75775 7.58374 6.73293
#
# Compressibility (1/GPa) = 0.03021421
#
# Stress axis : x y z
#
# Youngs Moduli (GPa) = 85.34834 86.64532 34.25353
#
# Poissons Ratio (x) = 0.03958 0.20270
# Poissons Ratio (y) = 0.03899 0.16252
# Poissons Ratio (z) = 0.50506 0.41109
#
# Static dielectric constant tensor:
#      x y z
#    x 1.476860 0.000000 0.235480 
#    y 0.000000 1.715150 0.000000 
#    z 0.235480 0.000000 1.593190 
# 
# From -- ./inp_files/15550.got.cif
#   From: 2010.05.17/outbox.cif.g08.bks.cpg/sg10_8_cif.got.tgz:15550.got - 2010.06.03 11:33:40.
