data_PCOD9152017
_publ_section_title
;
Structure prediction by ZEFSAII (Michael W. Deem and Ramdas Pophale) SiO2 
 PCOD9152017
Probable space group: P 2/M
;
_chemical_formula_sum "Si O2"
_cell_formula_units_Z 28
_cell_length_a 8.872477
_cell_length_b 15.093944
_cell_length_c 12.115351
_cell_angle_alpha 90.000000
_cell_angle_beta 48.728900
_cell_angle_gamma 90.000000
_cell_volume 1219.462985
_symmetry_space_group_name_H-M "P 2/M"
_symmetry_group_IT_number 10
_symmetry_cell_setting 'monoclinic'
loop_
_space_group_symop_operation_xyz
x,y,z
-x,y,-z
-x,-y,-z
x,-y,z
loop_
_atom_site_type_symbol
_atom_site_label
_atom_site_fract_x
_atom_site_fract_y
_atom_site_fract_z
Si Si1 0.263752 0.901760 0.133799
Si Si2 0.541024 0.598900 0.738740
Si Si3 0.883236 0.900345 0.214065
Si Si4 0.541615 0.771481 0.350098
Si Si5 0.111257 0.599858 0.056611
Si Si6 0.722810 0.706498 0.835433
Si Si7 0.195008 0.099487 0.482327
O O1 0.229443 0.808470 0.210547
O O2 0.124318 0.893112 0.091629
O O3 0.212830 0.000000 0.205013
O O4 0.500000 0.904545 0.000000
O O5 0.593796 0.500000 0.674810
O O6 0.478124 0.670962 0.679071
O O7 0.706870 0.643865 0.736991
O O8 0.342955 0.590867 0.909972
O O9 0.750459 0.822496 0.228071
O O10 0.851816 0.895694 0.363253
O O11 0.822537 0.000000 0.208460
O O12 0.500000 0.775028 0.500000
O O13 0.367605 0.829464 0.377786
O O14 0.035525 0.500000 0.119818
O O15 0.116395 0.665703 0.156951
O O16 0.000000 0.630935 0.000000
O O17 0.500000 0.707289 0.000000
O O18 0.000000 0.110072 0.500000
O O19 0.274916 0.000000 0.425836
#
# Coordination Sequence:
#
# PCOD9152017 Si02
#       7
#     4   4   4   4   4   4   4
#     4   9  18  32  53  83 118 151 182 219 272 347
#     4  10  21  36  55  80 108 145 189 234 288 338
#     4   9  18  33  54  80 112 148 185 232 280 327
#     4  10  21  36  55  81 113 153 189 238 285 335
#     4   9  18  33  55  83 109 137 183 239 283 329
#     4   9  18  33  54  78 107 147 182 229 276 329
#     4   9  18  33  55  82 108 140 189 242 282 325
#
# _framework density 22.960925
#
# number of rings (size 3 to 8) (size 9 to 14) (size 15 to 20)
#    0.000    2.714    0.000    0.857    4.000    3.714 
#    0.000    0.714    0.000    1.714    0.000    0.000 
#    0.000    0.000    0.000    0.000    0.000    0.000 
#
# Total GULP energy -156214.470053 kJ/mol
# GULP energy per Si atom -5579.088216 kJ/mol
# Density = 2.290867 g / cm^3
# Si number density = 22.960925 Si / 1000 Ang^3
#
#
#
# Elastic Constant Matrix: (Units=GPa)
#
#
# Indices 1 2 3 4 5 6 
#
# 1 130.4702 101.0017 12.8744 0.0000 2.1637 0.0000
# 2 101.0017 216.1021 27.9802 0.0000 -4.5085 0.0000
# 3 12.8744 27.9802 22.6761 0.0000 -1.9943 0.0000
# 4 0.0000 0.0000 0.0000 15.7450 0.0000 -1.8989
# 5 2.1637 -4.5085 -1.9943 0.0000 25.3725 0.0000
# 6 0.0000 0.0000 0.0000 -1.8989 0.0000 32.6793
#
#
#
# Elastic Compliance Matrix: (Units=1/GPa)
#
#
# Indices 1 2 3 4 5 6 
#
# 1 0.012115 -0.005702 -0.000023 0.000000 -0.002048 0.000000
# 2 -0.005702 0.008196 -0.006752 0.000000 0.001412 0.000000
# 3 -0.000023 -0.006752 0.052702 0.000000 0.002945 0.000000
# 4 0.000000 0.000000 0.000000 0.063960 0.000000 0.003716
# 5 -0.002048 0.001412 0.002945 0.000000 0.040070 0.000000
# 6 0.000000 0.000000 0.000000 0.003716 0.000000 0.030816
#
#
# Mechanical properties :
#
#
# Convention : Reuss Voigt Hill
#
# Bulk Modulus (GPa) = 20.80713 72.55123 46.67918
# Shear Modulus (GPa) = 20.09383 29.91884 25.00633
#
# Velocity S-wave (km/s) = 2.96147 3.61367 3.30370
# Velocity P-wave (km/s) = 4.55800 7.00555 5.90987
#
# Compressibility (1/GPa) = 0.04806044
#
# Stress axis : x y z
#
# Youngs Moduli (GPa) = 82.54233 122.00853 18.97459
#
# Poissons Ratio (x) = 0.69571 0.00043
# Poissons Ratio (y) = 0.47067 0.12811
# Poissons Ratio (z) = 0.00186 0.82377
#
# Static dielectric constant tensor:
#      x y z
#    x 1.892480 0.000000 -0.009570 
#    y 0.000000 1.860610 0.000000 
#    z -0.009570 0.000000 1.917240 
# 
# From -- ./inp_files/61760.got.cif
#   From: 2010.05.17/outbox.cif.g08.bks.cpg/sg10_31_cif.got.tgz:61760.got - 2010.06.03 11:33:40.
