data_PCOD9152105
_publ_section_title
;
Structure prediction by ZEFSAII (Michael W. Deem and Ramdas Pophale) SiO2 
 PCOD9152105
Probable space group: P 2/M
;
_chemical_formula_sum "Si O2"
_cell_formula_units_Z 28
_cell_length_a 7.411989
_cell_length_b 12.966304
_cell_length_c 13.495775
_cell_angle_alpha 90.000000
_cell_angle_beta 121.547006
_cell_angle_gamma 90.000000
_cell_volume 1105.340390
_symmetry_space_group_name_H-M "P 2/M"
_symmetry_group_IT_number 10
_symmetry_cell_setting 'monoclinic'
loop_
_space_group_symop_operation_xyz
x,y,z
-x,y,-z
-x,-y,-z
x,-y,z
loop_
_atom_site_type_symbol
_atom_site_label
_atom_site_fract_x
_atom_site_fract_y
_atom_site_fract_z
Si Si1 0.439720 0.828657 0.094611
Si Si2 0.773347 0.383135 0.994477
Si Si3 0.865012 0.107891 0.841289
Si Si4 0.450037 0.832920 0.601836
Si Si5 0.437486 0.389050 0.367130
Si Si6 0.138436 0.117159 0.661346
Si Si7 0.020038 0.293539 0.769914
O O1 0.233006 0.883810 0.078344
O O2 0.639468 0.868327 0.214375
O O3 0.500000 0.849185 0.000000
O O4 0.379272 0.707439 0.088674
O O5 0.698379 0.500000 0.957964
O O6 0.807195 0.362523 0.122893
O O7 0.000000 0.376104 0.000000
O O8 0.653344 0.116207 0.711765
O O9 0.997069 0.204419 0.845628
O O10 0.970488 0.000000 0.852029
O O11 0.500000 0.837985 0.500000
O O12 0.448102 0.713582 0.636980
O O13 0.227115 0.877576 0.573876
O O14 0.500000 0.395710 0.500000
O O15 0.482498 0.500000 0.332811
O O16 0.189654 0.362298 0.293008
O O17 0.028099 0.221978 0.672735
O O18 0.057587 0.000000 0.656953
#
# Coordination Sequence:
#
# PCOD9152105 Si02
#       7
#     4   4   4   4   4   4   4
#     4  11  21  39  58  87 127 165 207 256 305 372
#     4  11  23  41  62  88 126 170 213 260 313 376
#     4  10  21  36  57  85 119 162 209 252 307 370
#     4   9  19  38  63  88 121 159 204 261 316 377
#     4   9  19  39  67  92 118 157 203 255 318 378
#     4  11  24  40  61  92 131 169 214 263 314 377
#     4  11  21  41  61  90 127 164 209 262 312 374
#
# _framework density 25.331562999999999
#
# number of rings (size 3 to 8) (size 9 to 14) (size 15 to 20)
#    0.000    1.714    2.857    2.571    0.000    2.571 
#    0.000    8.571    0.000   14.143    0.000    0.000 
#    0.000    0.000    0.000    0.000    0.000    0.000 
#
# Total GULP energy -156438.747325 kJ/mol
# GULP energy per Si atom -5587.098119 kJ/mol
# Density = 2.527391 g / cm^3
# Si number density = 25.331563 Si / 1000 Ang^3
#
#
#
# Elastic Constant Matrix: (Units=GPa)
#
#
# Indices 1 2 3 4 5 6 
#
# 1 72.0085 -0.3204 6.4290 0.0000 -24.7590 0.0000
# 2 -0.3204 178.1209 22.7751 0.0000 -2.2842 0.0000
# 3 6.4290 22.7751 92.5264 0.0000 -20.5194 0.0000
# 4 0.0000 0.0000 0.0000 -6.6284 0.0000 -44.4145
# 5 -24.7590 -2.2842 -20.5194 0.0000 48.0022 0.0000
# 6 0.0000 0.0000 0.0000 -44.4145 0.0000 -17.0294
#
#
#
# Elastic Compliance Matrix: (Units=1/GPa)
#
#
# Indices 1 2 3 4 5 6 
#
# 1 0.016940 0.000041 0.000830 0.000000 0.009094 0.000000
# 2 0.000041 0.005803 -0.001508 0.000000 -0.000347 0.000000
# 3 0.000830 -0.001508 0.012373 0.000000 0.005645 0.000000
# 4 0.000000 0.000000 0.000000 0.009157 0.000000 -0.023882
# 5 0.009094 -0.000347 0.005645 0.000000 0.027920 0.000000
# 6 0.000000 0.000000 0.000000 -0.023882 0.000000 0.003564
#
#
# Mechanical properties :
#
#
# Convention : Reuss Voigt Hill
#
# Bulk Modulus (GPa) = 29.54989 44.49148 37.02068
# Shear Modulus (GPa) = 56.61737 25.78702 41.20220
#
# Velocity S-wave (km/s) = 4.73276 3.19404 4.03738
# Velocity P-wave (km/s) = 6.44639 5.58608 6.03159
#
# Compressibility (1/GPa) = 0.03384108
#
# Stress axis : x y z
#
# Youngs Moduli (GPa) = 59.03099 172.33574 80.81939
#
# Poissons Ratio (x) = -0.00707 -0.06705
# Poissons Ratio (y) = -0.00242 0.12189
# Poissons Ratio (z) = -0.04897 0.25992
#
# Static dielectric constant tensor:
#      x y z
#    x 2.038580 0.000000 -0.001760 
#    y 0.000000 1.970390 0.000000 
#    z -0.001760 0.000000 2.111540 
# 
# From -- ./inp_files/61025.got.cif
#   From: 2010.05.17/outbox.cif.g08.bks.cpg/sg10_31_cif.got.tgz:61025.got - 2010.06.03 11:33:40.
