data_PCOD9152638
_publ_section_title
;
Structure prediction by ZEFSAII (Michael W. Deem and Ramdas Pophale) SiO2 
 PCOD9152638
Probable space group: P 2/M
;
_chemical_formula_sum "Si O2"
_cell_formula_units_Z 18
_cell_length_a 5.563056
_cell_length_b 18.713047
_cell_length_c 8.082194
_cell_angle_alpha 90.000000
_cell_angle_beta 119.949373
_cell_angle_gamma 90.000000
_cell_volume 729.019546
_symmetry_space_group_name_H-M "P 2/M"
_symmetry_group_IT_number 10
_symmetry_cell_setting 'monoclinic'
loop_
_space_group_symop_operation_xyz
x,y,z
-x,y,-z
-x,-y,-z
x,-y,z
loop_
_atom_site_type_symbol
_atom_site_label
_atom_site_fract_x
_atom_site_fract_y
_atom_site_fract_z
Si Si1 0.877628 0.081704 0.270686
Si Si2 0.000000 0.364089 0.000000
Si Si3 0.604497 0.132820 0.711031
Si Si4 0.766200 0.422995 0.214397
Si Si5 0.526056 0.702967 0.317067
O O1 0.548498 0.093006 0.192021
O O2 0.000000 0.092893 0.500000
O O3 0.062773 0.130310 0.208629
O O4 0.929165 0.000000 0.238864
O O5 0.738937 0.313638 0.887882
O O6 0.991370 0.412976 0.834856
O O7 0.500000 0.100695 0.500000
O O8 0.464929 0.211601 0.678364
O O9 0.770665 0.500000 0.301656
O O10 0.747329 0.351319 0.314379
O O11 0.500000 0.424581 0.000000
O O12 0.500000 0.682720 0.500000
#
# Coordination Sequence:
#
# PCOD9152638 Si02
#       5
#     4   2   4   4   4
#     4   9  16  28  48  77 114 154 195 241 296 356
#     4  10  21  38  60  82 113 156 202 244 305 358
#     4   9  18  30  49  79 116 153 194 246 297 355
#     4   9  19  37  59  84 116 152 199 249 298 358
#     4  10  22  37  57  86 120 154 197 248 302 362
#
# _framework density 24.690695000000002
#
# number of rings (size 3 to 8) (size 9 to 14) (size 15 to 20)
#    0.000    2.667    0.000    1.000    3.111    4.889 
#    0.000    1.111    0.000    0.000    0.000    4.667 
#    0.000    0.000    0.000    0.000    0.000    0.000 
#
# Total GULP energy -100241.133853 kJ/mol
# GULP energy per Si atom -5568.951881 kJ/mol
# Density = 2.463450 g / cm^3
# Si number density = 24.690695 Si / 1000 Ang^3
#
#
#
# Elastic Constant Matrix: (Units=GPa)
#
#
# Indices 1 2 3 4 5 6 
#
# 1 130.5813 52.0939 14.3395 0.0000 -20.1016 0.0000
# 2 52.0939 135.9676 14.5739 0.0000 -31.8950 0.0000
# 3 14.3395 14.5739 72.1410 0.0000 -9.5034 0.0000
# 4 0.0000 0.0000 0.0000 12.1831 0.0000 -7.3808
# 5 -20.1016 -31.8950 -9.5034 0.0000 41.0728 0.0000
# 6 0.0000 0.0000 0.0000 -7.3808 0.0000 6.0825
#
#
#
# Elastic Compliance Matrix: (Units=1/GPa)
#
#
# Indices 1 2 3 4 5 6 
#
# 1 0.009259 -0.002975 -0.000977 0.000000 0.001996 0.000000
# 2 -0.002975 0.010009 -0.000617 0.000000 0.006174 0.000000
# 3 -0.000977 -0.000617 0.014496 0.000000 0.002397 0.000000
# 4 0.000000 0.000000 0.000000 0.309885 0.000000 0.376026
# 5 0.001996 0.006174 0.002397 0.000000 0.030672 0.000000
# 6 0.000000 0.000000 0.000000 0.376026 0.000000 0.620691
#
#
# Mechanical properties :
#
#
# Convention : Reuss Voigt Hill
#
# Bulk Modulus (GPa) = 40.60612 55.63383 48.11998
# Shear Modulus (GPa) = 4.93896 29.04654 16.99275
#
# Velocity S-wave (km/s) = 1.41587 3.43361 2.62625
# Velocity P-wave (km/s) = 4.37659 6.18877 5.35982
#
# Compressibility (1/GPa) = 0.02462683
#
# Stress axis : x y z
#
# Youngs Moduli (GPa) = 108.00018 99.91229 68.98303
#
# Poissons Ratio (x) = 0.29721 0.06737
# Poissons Ratio (y) = 0.32127 0.04259
# Poissons Ratio (z) = 0.10547 0.06169
#
# Static dielectric constant tensor:
#      x y z
#    x 2.165800 0.000000 0.021940 
#    y 0.000000 1.969690 0.000000 
#    z 0.021940 0.000000 1.983190 
# 
# From -- ./inp_files/3714.got.cif
#   From: 2010.05.17/outbox.cif.g08.bks.cpg/sg10_2_cif.got.tgz:3714.got - 2010.06.03 11:33:40.
