data_PCOD9152284
_publ_section_title
;
Structure prediction by ZEFSAII (Michael W. Deem and Ramdas Pophale) SiO2 
 PCOD9152284
Probable space group: P 2/M
;
_chemical_formula_sum "Si O2"
_cell_formula_units_Z 28
_cell_length_a 28.787402
_cell_length_b 8.391087
_cell_length_c 8.074206
_cell_angle_alpha 90.000000
_cell_angle_beta 134.360955
_cell_angle_gamma 90.000000
_cell_volume 1394.426966
_symmetry_space_group_name_H-M "P 2/M"
_symmetry_group_IT_number 10
_symmetry_cell_setting 'monoclinic'
loop_
_space_group_symop_operation_xyz
x,y,z
-x,y,-z
-x,-y,-z
x,-y,z
loop_
_atom_site_type_symbol
_atom_site_label
_atom_site_fract_x
_atom_site_fract_y
_atom_site_fract_z
Si Si1 0.933531 0.319530 0.733426
Si Si2 0.575001 0.692929 0.677473
Si Si3 0.337873 0.808878 0.801104
Si Si4 0.932090 0.816963 0.389294
Si Si5 0.193393 0.182383 0.432769
Si Si6 0.344975 0.311221 0.442765
Si Si7 0.795224 0.182499 0.934489
O O1 0.931085 0.500000 0.659668
O O2 0.934979 0.191835 0.592223
O O3 0.868343 0.285909 0.672607
O O4 0.000000 0.305389 0.000000
O O5 0.500000 0.743314 0.500000
O O6 0.577163 0.500000 0.682163
O O7 0.607731 0.748146 0.585971
O O8 0.613593 0.749719 0.936427
O O9 0.264193 0.754046 0.661957
O O10 0.353638 0.757795 0.650584
O O11 0.336028 0.000000 0.796569
O O12 0.000000 0.742090 0.500000
O O13 0.930803 0.000000 0.322162
O O14 0.862678 0.744893 0.167032
O O15 0.197558 0.175091 0.245055
O O16 0.185116 0.000000 0.473734
O O17 0.353315 0.500000 0.478760
O O18 0.271619 0.272766 0.200483
O O19 0.788992 0.000000 0.982749
#
# Coordination Sequence:
#
# PCOD9152284 Si02
#       7
#     4   4   4   4   4   4   4
#     4  11  24  37  51  77 112 148 187 236 290 342
#     4  10  23  42  63  90 125 164 205 248 298 364
#     4  10  22  40  63  91 123 159 201 252 304 356
#     4  10  21  37  57  79 106 146 191 235 286 345
#     4   9  19  37  59  82 108 145 189 234 286 346
#     4  10  21  38  62  90 121 160 201 245 301 362
#     4   9  19  36  58  84 112 143 187 241 290 343
#
# _framework density 20.079934999999999
#
# number of rings (size 3 to 8) (size 9 to 14) (size 15 to 20)
#    0.000    2.143    0.000    3.000    2.000    8.000 
#    0.000    2.857    0.000    0.000    0.000    0.000 
#    0.000    0.000    0.000    0.000    0.000    0.000 
#
# Total GULP energy -156167.918071 kJ/mol
# GULP energy per Si atom -5577.425645 kJ/mol
# Density = 2.003423 g / cm^3
# Si number density = 20.079935 Si / 1000 Ang^3
#
#
#
# Elastic Constant Matrix: (Units=GPa)
#
#
# Indices 1 2 3 4 5 6 
#
# 1 133.9046 21.0125 65.9651 0.0000 27.3772 0.0000
# 2 21.0125 26.9685 24.3413 0.0000 6.7178 0.0000
# 3 65.9651 24.3413 150.1752 0.0000 21.7310 0.0000
# 4 0.0000 0.0000 0.0000 0.4456 0.0000 -4.1218
# 5 27.3772 6.7178 21.7310 0.0000 25.4147 0.0000
# 6 0.0000 0.0000 0.0000 -4.1218 0.0000 12.8287
#
#
#
# Elastic Compliance Matrix: (Units=1/GPa)
#
#
# Indices 1 2 3 4 5 6 
#
# 1 0.011366 -0.003910 -0.003123 0.000000 -0.008540 0.000000
# 2 -0.003910 0.045662 -0.005189 0.000000 -0.003422 0.000000
# 3 -0.003123 -0.005189 0.009342 0.000000 -0.003252 0.000000
# 4 0.000000 0.000000 0.000000 -1.137990 0.000000 -0.365633
# 5 -0.008540 -0.003422 -0.003252 0.000000 0.052232 0.000000
# 6 0.000000 0.000000 0.000000 -0.365633 0.000000 -0.039527
#
#
# Mechanical properties :
#
#
# Convention : Reuss Voigt Hill
#
# Bulk Modulus (GPa) = 23.85072 59.29846 41.57459
# Shear Modulus (GPa) = -4.89958 21.05310 8.07676
#
# Velocity S-wave (km/s) = -1.56376 3.24151 2.00774
# Velocity P-wave (km/s) = 2.93994 6.60342 5.11118
#
# Compressibility (1/GPa) = 0.04192746
#
# Stress axis : x y z
#
# Youngs Moduli (GPa) = 87.98131 21.89999 107.03880
#
# Poissons Ratio (x) = 0.08562 0.33430
# Poissons Ratio (y) = 0.34398 0.55540
# Poissons Ratio (z) = 0.27478 0.11363
#
# Static dielectric constant tensor:
#      x y z
#    x 1.691050 0.000000 0.033090 
#    y 0.000000 1.729240 0.000000 
#    z 0.033090 0.000000 1.720750 
# 
# From -- ./inp_files/37328.got.cif
#   From: 2010.05.17/outbox.cif.g08.bks.cpg/sg10_19_cif.got.tgz:37328.got - 2010.06.03 11:33:40.
