data_PCOD9152050
_publ_section_title
;
Structure prediction by ZEFSAII (Michael W. Deem and Ramdas Pophale) SiO2 
 PCOD9152050
Probable space group: P 2/M
;
_chemical_formula_sum "Si O2"
_cell_formula_units_Z 30
_cell_length_a 10.975032
_cell_length_b 14.653454
_cell_length_c 12.727551
_cell_angle_alpha 90.000000
_cell_angle_beta 53.334453
_cell_angle_gamma 90.000000
_cell_volume 1641.867243
_symmetry_space_group_name_H-M "P 2/M"
_symmetry_group_IT_number 10
_symmetry_cell_setting 'monoclinic'
loop_
_space_group_symop_operation_xyz
x,y,z
-x,y,-z
-x,-y,-z
x,-y,z
loop_
_atom_site_type_symbol
_atom_site_label
_atom_site_fract_x
_atom_site_fract_y
_atom_site_fract_z
Si Si1 0.006575 0.250280 0.270535
Si Si2 0.000000 0.161537 0.500000
Si Si3 0.665219 0.774656 0.931783
Si Si4 0.326437 0.103092 0.280083
Si Si5 0.465055 0.603808 0.691203
Si Si6 0.892621 0.891935 0.158307
Si Si7 0.612146 0.798764 0.193655
Si Si8 0.747639 0.397276 0.405421
O O1 0.997324 0.220871 0.396111
O O2 0.967100 0.164204 0.215789
O O3 0.881863 0.327313 0.318648
O O4 0.179057 0.281117 0.157396
O O5 0.843079 0.106657 0.587305
O O6 0.675395 0.848586 0.832966
O O7 0.500000 0.728461 0.000000
O O8 0.662418 0.819088 0.048298
O O9 0.445658 0.157555 0.290537
O O10 0.379480 0.000000 0.242136
O O11 0.460493 0.500000 0.737589
O O12 0.405883 0.689414 0.787927
O O13 0.359354 0.603050 0.642068
O O14 0.635491 0.623137 0.561003
O O15 0.733868 0.842797 0.209339
O O16 0.873451 0.000000 0.190994
O O17 0.000000 0.884173 0.000000
O O18 0.805859 0.500000 0.389991
#
# Coordination Sequence:
#
# PCOD9152050 Si02
#       8
#     4   2   4   4   4   4   4   4
#     4  11  20  39  59  82 117 149 192 240 286 343
#     4  10  23  38  57  78 110 160 197 236 285 338
#     4   9  21  35  55  78 108 150 192 234 274 331
#     4  10  21  36  56  81 111 152 198 240 278 337
#     4   9  18  33  57  87 116 147 184 227 286 353
#     4  11  23  36  55  85 118 154 190 235 291 340
#     4  11  19  36  57  84 116 146 187 238 289 341
#     4   9  18  34  59  86 112 147 188 231 285 349
#
# _framework density 18.271879999999999
#
# number of rings (size 3 to 8) (size 9 to 14) (size 15 to 20)
#    0.000    2.000    2.667    2.200    0.000    5.600 
#    0.000    1.000    0.000   16.000    0.000    0.000 
#    0.000    0.000    0.000    0.000    0.000    0.000 
#
# Total GULP energy -167190.235298 kJ/mol
# GULP energy per Si atom -5573.007843 kJ/mol
# Density = 1.823029 g / cm^3
# Si number density = 18.271880 Si / 1000 Ang^3
#
#
#
# Elastic Constant Matrix: (Units=GPa)
#
#
# Indices 1 2 3 4 5 6 
#
# 1 98.7476 39.5897 38.6610 0.0000 -21.3205 0.0000
# 2 39.5897 101.5291 31.3737 0.0000 -26.9635 0.0000
# 3 38.6610 31.3737 69.1848 0.0000 -13.4929 0.0000
# 4 0.0000 0.0000 0.0000 13.5721 0.0000 -4.6273
# 5 -21.3205 -26.9635 -13.4929 0.0000 29.3806 0.0000
# 6 0.0000 0.0000 0.0000 -4.6273 0.0000 11.2197
#
#
#
# Elastic Compliance Matrix: (Units=1/GPa)
#
#
# Indices 1 2 3 4 5 6 
#
# 1 0.014654 -0.002334 -0.006013 0.000000 0.005730 0.000000
# 2 -0.002334 0.014445 -0.003285 0.000000 0.010054 0.000000
# 3 -0.006013 -0.003285 0.019622 0.000000 0.001633 0.000000
# 4 0.000000 0.000000 0.000000 0.085736 0.000000 0.035360
# 5 0.005730 0.010054 0.001633 0.000000 0.048171 0.000000
# 6 0.000000 0.000000 0.000000 0.035360 0.000000 0.103713
#
#
# Mechanical properties :
#
#
# Convention : Reuss Voigt Hill
#
# Bulk Modulus (GPa) = 39.28225 54.30117 46.79171
# Shear Modulus (GPa) = 15.71877 21.49027 18.60452
#
# Velocity S-wave (km/s) = 2.93622 3.43321 3.19439
# Velocity P-wave (km/s) = 5.74810 6.74528 6.26656
#
# Compressibility (1/GPa) = 0.02545679
#
# Stress axis : x y z
#
# Youngs Moduli (GPa) = 68.24102 69.22891 50.96252
#
# Poissons Ratio (x) = 0.16160 0.30642
# Poissons Ratio (y) = 0.15929 0.16742
# Poissons Ratio (z) = 0.41031 0.22743
#
# Static dielectric constant tensor:
#      x y z
#    x 1.649710 0.000000 -0.023900 
#    y 0.000000 1.611270 0.000000 
#    z -0.023900 0.000000 1.641730 
# 
# From -- ./inp_files/47613.got.cif
#   From: 2010.05.17/outbox.cif.g08.bks.cpg/sg10_24_cif.got.tgz:47613.got - 2010.06.03 11:33:40.
