data_PCOD9152161
_publ_section_title
;
Structure prediction by ZEFSAII (Michael W. Deem and Ramdas Pophale) SiO2 
 PCOD9152161
Probable space group: P 2/M
;
_chemical_formula_sum "Si O2"
_cell_formula_units_Z 28
_cell_length_a 27.323957
_cell_length_b 11.326585
_cell_length_c 26.810471
_cell_angle_alpha 90.000000
_cell_angle_beta 11.125340
_cell_angle_gamma 90.000000
_cell_volume 1601.051047
_symmetry_space_group_name_H-M "P 2/M"
_symmetry_group_IT_number 10
_symmetry_cell_setting 'monoclinic'
loop_
_space_group_symop_operation_xyz
x,y,z
-x,y,-z
-x,-y,-z
x,-y,z
loop_
_atom_site_type_symbol
_atom_site_label
_atom_site_fract_x
_atom_site_fract_y
_atom_site_fract_z
Si Si1 0.250013 0.500000 0.479314
Si Si2 0.250008 0.858766 0.562372
Si Si3 0.750013 0.500000 0.047701
Si Si4 0.250011 0.761819 0.449270
Si Si5 0.250000 0.143721 0.220523
Si Si6 0.750009 0.744149 0.108456
Si Si7 0.250002 0.359889 0.782880
Si Si8 0.750010 0.142067 0.895286
O O1 0.250013 0.620337 0.448364
O O2 0.000370 0.500000 0.763424
O O3 0.499658 0.500000 0.264136
O O4 0.250001 0.803158 0.506919
O O5 0.499987 0.813360 0.340841
O O6 0.250007 0.000000 0.558451
O O7 0.000033 0.813360 0.840797
O O8 0.750012 0.617557 0.080810
O O9 0.000037 0.811325 0.672659
O O10 0.499991 0.811326 0.172708
O O11 0.250000 0.178913 0.162731
O O12 0.000000 0.182595 0.500000
O O13 0.250001 0.000000 0.220817
O O14 0.500000 0.182595 0.000000
O O15 0.750003 0.716669 0.167118
O O16 0.500000 0.337909 0.500000
O O17 0.250011 0.500000 0.796204
O O18 0.000000 0.337917 0.000000
O O19 0.750013 0.000000 0.897296
#
# Coordination Sequence:
#
# PCOD9152161 Si02
#       8
#     2   4   2   4   4   4   4   4
#     4  12  24  40  58  83 120 151 200 234 286 332
#     4  12  25  40  60  86 120 160 199 231 276 349
#     4  12  20  40  60  89 110 151 192 242 290 334
#     4  12  23  39  57  84 118 156 190 239 283 340
#     4   9  17  31  52  80 112 146 188 237 286 337
#     4  12  22  40  64  87 119 153 191 240 293 341
#     4  10  21  36  59  91 119 143 183 244 302 344
#     4  11  22  36  57  86 121 155 189 234 293 347
#
# _framework density 17.488510999999999
#
# number of rings (size 3 to 8) (size 9 to 14) (size 15 to 20)
#    0.000    0.857    3.571    5.143    0.000    2.286 
#    0.000    0.000    0.000    8.571    0.000   10.000 
#    0.000    0.000    0.000    0.000    0.000    0.000 
#
# Total GULP energy -156548.281757 kJ/mol
# GULP energy per Si atom -5591.010063 kJ/mol
# Density = 1.744871 g / cm^3
# Si number density = 17.488511 Si / 1000 Ang^3
#
#
#
# Elastic Constant Matrix: (Units=GPa)
#
#
# Indices 1 2 3 4 5 6 
#
# 1 160.2305 48.2022 97.6530 0.0000 2.1485 0.0000
# 2 48.2022 119.0365 49.9178 0.0000 -0.2355 0.0000
# 3 97.6530 49.9178 196.9895 0.0000 -7.1779 0.0000
# 4 0.0000 0.0000 0.0000 26.1568 0.0000 -3.7735
# 5 2.1485 -0.2355 -7.1779 0.0000 24.7088 0.0000
# 6 0.0000 0.0000 0.0000 -3.7735 0.0000 -1.3991
#
#
#
# Elastic Compliance Matrix: (Units=1/GPa)
#
#
# Indices 1 2 3 4 5 6 
#
# 1 0.009481 -0.002059 -0.004254 0.000000 -0.002080 0.000000
# 2 -0.002059 0.009856 -0.001482 0.000000 -0.000158 0.000000
# 3 -0.004254 -0.001482 0.007655 0.000000 0.002579 0.000000
# 4 0.000000 0.000000 0.000000 0.027522 0.000000 -0.074231
# 5 -0.002080 -0.000158 0.002579 0.000000 0.041400 0.000000
# 6 0.000000 0.000000 0.000000 -0.074231 0.000000 -0.514549
#
#
# Mechanical properties :
#
#
# Convention : Reuss Voigt Hill
#
# Bulk Modulus (GPa) = 87.71606 96.42249 92.06928
# Shear Modulus (GPa) = -12.52370 28.59220 8.03425
#
# Velocity S-wave (km/s) = -2.67893 4.04779 2.14569
# Velocity P-wave (km/s) = 6.37937 8.78070 7.67454
#
# Compressibility (1/GPa) = 0.01140042
#
# Stress axis : x y z
#
# Youngs Moduli (GPa) = 105.47417 101.46054 130.63671
#
# Poissons Ratio (x) = 0.20895 0.55572
# Poissons Ratio (y) = 0.21722 0.19365
# Poissons Ratio (z) = 0.44868 0.15040
#
# Static dielectric constant tensor:
#      x y z
#    x 1.570800 0.000000 -0.000320 
#    y 0.000000 1.575300 0.000000 
#    z -0.000320 0.000000 1.573080 
# 
# From -- ./inp_files/94016.got.cif
#   From: 2010.05.17/outbox.cif.g08.bks.cpg/sg10_48_cif.got.tgz:94016.got - 2010.06.03 11:33:40.
