data_PCOD9152718
_publ_section_title
;
Structure prediction by ZEFSAII (Michael W. Deem and Ramdas Pophale) SiO2 
 PCOD9152718
Probable space group: P 2/M
;
_chemical_formula_sum "Si O2"
_cell_formula_units_Z 24
_cell_length_a 21.720891
_cell_length_b 8.320423
_cell_length_c 9.674429
_cell_angle_alpha 90.000000
_cell_angle_beta 146.917024
_cell_angle_gamma 90.000000
_cell_volume 954.386108
_symmetry_space_group_name_H-M "P 2/M"
_symmetry_group_IT_number 10
_symmetry_cell_setting 'monoclinic'
loop_
_space_group_symop_operation_xyz
x,y,z
-x,y,-z
-x,-y,-z
x,-y,z
loop_
_atom_site_type_symbol
_atom_site_label
_atom_site_fract_x
_atom_site_fract_y
_atom_site_fract_z
Si Si1 0.602988 0.185316 0.349553
Si Si2 0.665219 0.317204 0.755504
Si Si3 0.836993 0.316463 0.743574
Si Si4 0.100487 0.816494 0.851273
Si Si5 0.132322 0.310893 0.510693
Si Si6 0.622404 0.189192 0.963958
O O1 0.628679 0.199941 0.563445
O O2 0.702312 0.290530 0.471858
O O3 0.614645 0.000000 0.325809
O O4 0.472030 0.236107 0.101005
O O5 0.646382 0.500000 0.675631
O O6 0.799731 0.287675 0.028138
O O7 0.607374 0.282581 0.792056
O O8 0.858326 0.500000 0.830096
O O9 0.872370 0.199593 0.933117
O O10 0.893028 0.292788 0.700855
O O11 0.111433 0.000000 0.826847
O O12 0.972736 0.755798 0.601062
O O13 0.147968 0.500000 0.566723
O O14 0.249553 0.221062 0.753185
O O15 0.606841 0.000000 0.910157
#
# Coordination Sequence:
#
# PCOD9152718 Si02
#       6
#     4   4   4   4   4   4
#     4  10  21  38  61  87 116 150 191 238 284 335
#     4  11  22  38  62  88 115 149 191 237 285 339
#     4  10  21  38  61  87 116 150 191 238 284 335
#     4  11  22  38  62  88 115 149 191 237 285 339
#     4  11  24  40  58  84 118 154 192 235 285 340
#     4  11  24  40  58  84 118 154 192 235 285 340
#
# _framework density 25.147055999999999
#
# number of rings (size 3 to 8) (size 9 to 14) (size 15 to 20)
#    0.000    1.333    0.000    8.000    0.000   10.667 
#    0.000    6.667    0.000    0.000    0.000    0.000 
#    0.000    0.000    0.000    0.000    0.000    0.000 
#
# Total GULP energy -134476.628894 kJ/mol
# GULP energy per Si atom -5603.192871 kJ/mol
# Density = 2.508982 g / cm^3
# Si number density = 25.147056 Si / 1000 Ang^3
#
#
#
# Elastic Constant Matrix: (Units=GPa)
#
#
# Indices 1 2 3 4 5 6 
#
# 1 109.9245 15.3402 -0.5891 0.0000 27.6369 0.0000
# 2 15.3402 81.2152 4.1706 0.0000 8.2618 0.0000
# 3 -0.5891 4.1706 104.1412 0.0000 27.8035 0.0000
# 4 0.0000 0.0000 0.0000 14.3516 0.0000 17.5146
# 5 27.6369 8.2618 27.8035 0.0000 54.1846 0.0000
# 6 0.0000 0.0000 0.0000 17.5146 0.0000 15.6595
#
#
#
# Elastic Compliance Matrix: (Units=1/GPa)
#
#
# Indices 1 2 3 4 5 6 
#
# 1 0.010887 -0.001513 0.001788 0.000000 -0.006239 0.000000
# 2 -0.001513 0.012717 -0.000239 0.000000 -0.001045 0.000000
# 3 0.001788 -0.000239 0.011420 0.000000 -0.006736 0.000000
# 4 0.000000 0.000000 0.000000 -0.190913 0.000000 0.213530
# 5 -0.006239 -0.001045 -0.006736 0.000000 0.025253 0.000000
# 6 0.000000 0.000000 0.000000 0.213530 0.000000 -0.174968
#
#
# Mechanical properties :
#
#
# Convention : Reuss Voigt Hill
#
# Bulk Modulus (GPa) = 28.49372 37.01382 32.75377
# Shear Modulus (GPa) = -17.00818 35.26308 9.12745
#
# Velocity S-wave (km/s) = -2.60349 3.74876 1.90723
# Velocity P-wave (km/s) = 1.52246 5.78692 4.23121
#
# Compressibility (1/GPa) = 0.03509545
#
# Stress axis : x y z
#
# Youngs Moduli (GPa) = 91.85576 78.63268 87.56354
#
# Poissons Ratio (x) = 0.11900 -0.15656
# Poissons Ratio (y) = 0.13902 0.02093
# Poissons Ratio (z) = -0.16424 0.01879
#
# Static dielectric constant tensor:
#      x y z
#    x 1.987740 0.000000 -0.028790 
#    y 0.000000 1.834910 0.000000 
#    z -0.028790 0.000000 2.113840 
# 
# From -- ./inp_files/56677.got.cif
#   From: 2010.05.17/outbox.cif.g08.bks.cpg/sg10_29_cif.got.tgz:56677.got - 2010.06.03 11:33:40.
