data_PCOD9152904
_publ_section_title
;
Structure prediction by ZEFSAII (Michael W. Deem and Ramdas Pophale) SiO2 
 PCOD9152904
Probable space group: P 2/M
;
_chemical_formula_sum "Si O2"
_cell_formula_units_Z 32
_cell_length_a 11.197866
_cell_length_b 8.400166
_cell_length_c 20.034148
_cell_angle_alpha 90.000000
_cell_angle_beta 119.427325
_cell_angle_gamma 90.000000
_cell_volume 1641.352998
_symmetry_space_group_name_H-M "P 2/M"
_symmetry_group_IT_number 10
_symmetry_cell_setting 'monoclinic'
loop_
_space_group_symop_operation_xyz
x,y,z
-x,y,-z
-x,-y,-z
x,-y,z
loop_
_atom_site_type_symbol
_atom_site_label
_atom_site_fract_x
_atom_site_fract_y
_atom_site_fract_z
Si Si1 0.547007 0.690185 0.620416
Si Si2 0.425174 0.306684 0.079639
Si Si3 0.793620 0.184801 0.331101
Si Si4 0.201731 0.183297 0.388141
Si Si5 0.483555 0.692482 0.240199
Si Si6 0.287641 0.305764 0.909343
Si Si7 0.225506 0.313139 0.533734
Si Si8 0.047873 0.686482 0.749735
O O1 0.557807 0.500000 0.612741
O O2 0.647988 0.772862 0.596972
O O3 0.585883 0.727457 0.707944
O O4 0.386728 0.732808 0.570529
O O5 0.422474 0.500000 0.077342
O O6 0.407008 0.259101 0.151372
O O7 0.577915 0.259813 0.096845
O O8 0.318841 0.253235 0.993596
O O9 0.632527 0.226712 0.281586
O O10 0.833532 0.223505 0.418381
O O11 0.869110 0.288784 0.296359
O O12 0.818723 0.000000 0.323461
O O13 0.163882 0.279569 0.444535
O O14 0.094390 0.224941 0.300721
O O15 0.194022 0.000000 0.403853
O O16 0.505069 0.500000 0.244541
O O17 0.284650 0.500000 0.907572
O O18 0.148649 0.252470 0.835685
O O19 0.220235 0.500000 0.547685
O O20 0.020700 0.500000 0.752925
#
# Coordination Sequence:
#
# PCOD9152904 Si02
#       8
#     4   4   4   4   4   4   4   4
#     4   9  19  35  56  80 103 133 174 218 257 305
#     4   8  12  23  47  82 110 130 166 216 261 298
#     4  11  21  33  51  79 112 140 170 210 260 312
#     4  12  25  38  53  76 104 137 175 217 265 313
#     4   9  16  30  54  80 108 139 174 214 260 308
#     4   8  14  24  47  79 108 134 168 215 259 299
#     4  10  21  39  61  81 102 131 172 219 262 308
#     4  11  21  36  55  74 104 145 182 213 255 312
#
# _framework density 19.496110999999999
#
# number of rings (size 3 to 8) (size 9 to 14) (size 15 to 20)
#    0.000    2.250    1.250    4.875    0.000    4.500 
#    0.000    2.500    0.000    3.000    0.000    5.250 
#    0.000    0.000    0.000    0.000    0.000    0.000 
#
# Total GULP energy -178582.305769 kJ/mol
# GULP energy per Si atom -5580.697055 kJ/mol
# Density = 1.945174 g / cm^3
# Si number density = 19.496111 Si / 1000 Ang^3
#
#
#
# Elastic Constant Matrix: (Units=GPa)
#
#
# Indices 1 2 3 4 5 6 
#
# 1 21.6207 1.2798 5.9484 0.0000 -4.0030 0.0000
# 2 1.2798 9.9619 -1.7079 0.0000 -0.7714 0.0000
# 3 5.9484 -1.7079 122.2709 0.0000 -11.7693 0.0000
# 4 0.0000 0.0000 0.0000 -5.5552 0.0000 -19.8943
# 5 -4.0030 -0.7714 -11.7693 0.0000 25.5623 0.0000
# 6 0.0000 0.0000 0.0000 -19.8943 0.0000 -59.4797
#
#
#
# Elastic Compliance Matrix: (Units=1/GPa)
#
#
# Indices 1 2 3 4 5 6 
#
# 1 0.048318 -0.006009 -0.001804 0.000000 0.006555 0.000000
# 2 -0.006009 0.101735 0.002007 0.000000 0.003053 0.000000
# 3 -0.001804 0.002007 0.008657 0.000000 0.003764 0.000000
# 4 0.000000 0.000000 0.000000 0.909984 0.000000 -0.304364
# 5 0.006555 0.003053 0.003764 0.000000 0.041972 0.000000
# 6 0.000000 0.000000 0.000000 -0.304364 0.000000 0.084989
#
#
# Mechanical properties :
#
#
# Convention : Reuss Voigt Hill
#
# Bulk Modulus (GPa) = 6.79818 18.32157 12.55988
# Shear Modulus (GPa) = 3.97995 1.99438 2.98716
#
# Velocity S-wave (km/s) = 1.43033 1.01251 1.23916
# Velocity P-wave (km/s) = 2.49445 3.28403 2.91609
#
# Compressibility (1/GPa) = 0.14709814
#
# Stress axis : x y z
#
# Youngs Moduli (GPa) = 20.69641 9.82950 115.51834
#
# Poissons Ratio (x) = 0.05907 0.20835
# Poissons Ratio (y) = 0.12436 -0.23188
# Poissons Ratio (z) = 0.03733 -0.01973
#
# Static dielectric constant tensor:
#      x y z
#    x 1.658780 0.000000 0.004550 
#    y 0.000000 1.661290 0.000000 
#    z 0.004550 0.000000 1.734830 
# 
# From -- ./inp_files/83650.got.cif
#   From: 2010.05.17/outbox.cif.g08.bks.cpg/sg10_42_cif.got.tgz:83650.got - 2010.06.03 11:33:40.
