data_PCOD9152223
_publ_section_title
;
Structure prediction by ZEFSAII (Michael W. Deem and Ramdas Pophale) SiO2 
 PCOD9152223
Probable space group: P 2/M
;
_chemical_formula_sum "Si O2"
_cell_formula_units_Z 28
_cell_length_a 8.061633
_cell_length_b 7.782750
_cell_length_c 27.209849
_cell_angle_alpha 90.000000
_cell_angle_beta 38.934903
_cell_angle_gamma 90.000000
_cell_volume 1072.862336
_symmetry_space_group_name_H-M "P 2/M"
_symmetry_group_IT_number 10
_symmetry_cell_setting 'monoclinic'
loop_
_space_group_symop_operation_xyz
x,y,z
-x,y,-z
-x,-y,-z
x,-y,z
loop_
_atom_site_type_symbol
_atom_site_label
_atom_site_fract_x
_atom_site_fract_y
_atom_site_fract_z
Si Si1 0.684367 0.703905 0.027485
Si Si2 0.642432 0.699731 0.694146
Si Si3 0.112242 0.801841 0.118249
Si Si4 0.437914 0.701018 0.840564
Si Si5 0.205074 0.793366 0.549569
Si Si6 0.574551 0.797498 0.598379
Si Si7 0.011484 0.211059 0.748440
O O1 0.642122 0.500000 0.041602
O O2 0.415127 0.784426 0.068181
O O3 0.717852 0.770561 0.075552
O O4 0.893736 0.725195 0.935058
O O5 0.576965 0.500000 0.704805
O O6 0.464937 0.776374 0.779313
O O7 0.627319 0.780532 0.643797
O O8 0.953778 0.715872 0.634549
O O9 0.959510 0.732478 0.200938
O O10 0.050943 0.000000 0.126656
O O11 0.370952 0.500000 0.850916
O O12 0.741324 0.715945 0.789828
O O13 0.500000 0.755901 0.500000
O O14 0.221255 0.730889 0.488946
O O15 0.166887 0.000000 0.562037
O O16 0.276019 0.732881 0.660225
O O17 0.565984 0.000000 0.589669
O O18 0.994269 0.000000 0.751692
#
# Coordination Sequence:
#
# PCOD9152223 Si02
#       7
#     4   4   4   4   4   4   4
#     4   9  15  25  42  65  95 130 165 201 246 297
#     4  11  23  37  53  76 106 137 169 207 251 296
#     4   9  15  24  41  69 100 125 157 205 255 296
#     4   9  19  33  49  72 102 134 170 211 251 297
#     4  10  21  38  60  82 103 130 166 206 248 298
#     4  10  21  37  55  76 103 135 170 205 245 299
#     4   9  18  32  52  76 101 131 169 212 254 298
#
# _framework density 26.098407999999999
#
# number of rings (size 3 to 8) (size 9 to 14) (size 15 to 20)
#    0.000    2.429    0.000    3.429    0.000    6.571 
#    0.000    0.000    0.000    0.857    0.000    6.000 
#    0.000    0.000    0.000    0.000    0.000    0.000 
#
# Total GULP energy -156473.864433 kJ/mol
# GULP energy per Si atom -5588.352301 kJ/mol
# Density = 2.603901 g / cm^3
# Si number density = 26.098408 Si / 1000 Ang^3
#
#
#
# Elastic Constant Matrix: (Units=GPa)
#
#
# Indices 1 2 3 4 5 6 
#
# 1 98.7146 0.9296 26.3988 0.0000 22.8158 0.0000
# 2 0.9296 55.1522 11.8467 0.0000 -2.6004 0.0000
# 3 26.3988 11.8467 196.0236 0.0000 21.9693 0.0000
# 4 0.0000 0.0000 0.0000 19.3247 0.0000 -6.4223
# 5 22.8158 -2.6004 21.9693 0.0000 53.6927 0.0000
# 6 0.0000 0.0000 0.0000 -6.4223 0.0000 15.3108
#
#
#
# Elastic Compliance Matrix: (Units=1/GPa)
#
#
# Indices 1 2 3 4 5 6 
#
# 1 0.011435 -0.000181 -0.001031 0.000000 -0.004446 0.000000
# 2 -0.000181 0.018475 -0.001259 0.000000 0.001487 0.000000
# 3 -0.001031 -0.001259 0.005528 0.000000 -0.001885 0.000000
# 4 0.000000 0.000000 0.000000 0.060129 0.000000 0.025222
# 5 -0.004446 0.001487 -0.001885 0.000000 0.021357 0.000000
# 6 0.000000 0.000000 0.000000 0.025222 0.000000 0.075893
#
#
# Mechanical properties :
#
#
# Convention : Reuss Voigt Hill
#
# Bulk Modulus (GPa) = 32.79022 47.58228 40.18625
# Shear Modulus (GPa) = 24.04725 38.37999 31.21362
#
# Velocity S-wave (km/s) = 3.03876 3.83898 3.46207
# Velocity P-wave (km/s) = 4.99033 6.15807 5.60470
#
# Compressibility (1/GPa) = 0.03049690
#
# Stress axis : x y z
#
# Youngs Moduli (GPa) = 87.44915 54.12662 180.91235
#
# Poissons Ratio (x) = 0.00980 0.18648
# Poissons Ratio (y) = 0.01583 0.22773
# Poissons Ratio (z) = 0.09014 0.06813
#
# Static dielectric constant tensor:
#      x y z
#    x 2.170350 0.000000 0.025490 
#    y 0.000000 1.938570 0.000000 
#    z 0.025490 0.000000 2.094790 
# 
# From -- ./inp_files/81739.got.cif
#   From: 2010.05.17/outbox.cif.g08.bks.cpg/sg10_41_cif.got.tgz:81739.got - 2010.06.03 11:33:40.
