data_PCOD9152701
_publ_section_title
;
Structure prediction by ZEFSAII (Michael W. Deem and Ramdas Pophale) SiO2 
 PCOD9152701
Probable space group: P 2/M
;
_chemical_formula_sum "Si O2"
_cell_formula_units_Z 32
_cell_length_a 13.162666
_cell_length_b 20.046053
_cell_length_c 8.723310
_cell_angle_alpha 90.000000
_cell_angle_beta 48.971859
_cell_angle_gamma 90.000000
_cell_volume 1736.394452
_symmetry_space_group_name_H-M "P 2/M"
_symmetry_group_IT_number 10
_symmetry_cell_setting 'monoclinic'
loop_
_space_group_symop_operation_xyz
x,y,z
-x,y,-z
-x,-y,-z
x,-y,z
loop_
_atom_site_type_symbol
_atom_site_label
_atom_site_fract_x
_atom_site_fract_y
_atom_site_fract_z
Si Si1 0.412201 0.856254 0.937995
Si Si2 0.677973 0.193471 0.499565
Si Si3 0.362915 0.341148 0.545519
Si Si4 0.621240 0.573131 0.761942
Si Si5 0.141079 0.628932 0.287847
Si Si6 0.142084 0.422299 0.946019
Si Si7 0.655646 0.926911 0.296395
Si Si8 0.160591 0.215341 0.352695
O O1 0.528377 0.816675 0.725002
O O2 0.353156 0.908872 0.874529
O O3 0.500000 0.880018 0.000000
O O4 0.278928 0.817774 0.130545
O O5 0.676486 0.263776 0.414578
O O6 0.708479 0.132974 0.352092
O O7 0.786186 0.199527 0.528882
O O8 0.500000 0.349927 0.500000
O O9 0.384732 0.367440 0.352538
O O10 0.250331 0.387052 0.731864
O O11 0.620968 0.500000 0.685621
O O12 0.750931 0.583035 0.737035
O O13 0.500000 0.576668 0.000000
O O14 0.166773 0.706074 0.306415
O O15 0.000000 0.610229 0.500000
O O16 0.138921 0.616462 0.109558
O O17 0.174963 0.500000 0.941316
O O18 0.000000 0.419217 0.000000
O O19 0.500000 0.931362 0.500000
O O20 0.718548 0.000000 0.259436
O O21 0.000000 0.196317 0.500000
#
# Coordination Sequence:
#
# PCOD9152701 Si02
#       8
#     4   4   4   4   4   4   4   4
#     4   9  19  35  60  90 126 158 198 246 296 346
#     4  10  21  38  60  93 119 157 198 244 305 353
#     4  12  24  38  60  87 121 155 197 252 307 362
#     4  11  24  39  58  85 116 157 201 246 303 360
#     4  11  23  40  62  84 111 153 203 249 301 359
#     4  11  26  43  60  85 119 158 200 253 313 364
#     4   9  18  35  61  94 127 160 201 245 292 353
#     4  10  22  38  60  90 119 152 197 252 297 352
#
# _framework density 18.428992000000001
#
# number of rings (size 3 to 8) (size 9 to 14) (size 15 to 20)
#    0.000    1.625    1.250    3.375    7.000    4.250 
#    0.000    2.500    0.000    2.250    0.000    0.000 
#    0.000    0.000    0.000    0.000    0.000    0.000 
#
# Total GULP energy -178452.339727 kJ/mol
# GULP energy per Si atom -5576.635616 kJ/mol
# Density = 1.838705 g / cm^3
# Si number density = 18.428992 Si / 1000 Ang^3
#
#
#
# Elastic Constant Matrix: (Units=GPa)
#
#
# Indices 1 2 3 4 5 6 
#
# 1 102.9626 58.4520 43.2147 0.0000 -1.8361 0.0000
# 2 58.4520 117.6422 40.5729 0.0000 3.5678 0.0000
# 3 43.2147 40.5729 76.8089 0.0000 -7.3028 0.0000
# 4 0.0000 0.0000 0.0000 6.2550 0.0000 3.6678
# 5 -1.8361 3.5678 -7.3028 0.0000 34.3598 0.0000
# 6 0.0000 0.0000 0.0000 3.6678 0.0000 26.2271
#
#
#
# Elastic Compliance Matrix: (Units=1/GPa)
#
#
# Indices 1 2 3 4 5 6 
#
# 1 0.015279 -0.005674 -0.005578 0.000000 0.000220 0.000000
# 2 -0.005674 0.012681 -0.003736 0.000000 -0.002414 0.000000
# 3 -0.005578 -0.003736 0.018514 0.000000 0.004025 0.000000
# 4 0.000000 0.000000 0.000000 0.174153 0.000000 -0.024355
# 5 0.000220 -0.002414 0.004025 0.000000 0.030222 0.000000
# 6 0.000000 0.000000 0.000000 -0.024355 0.000000 0.041535
#
#
# Mechanical properties :
#
#
# Convention : Reuss Voigt Hill
#
# Bulk Modulus (GPa) = 60.61434 64.65478 62.63456
# Shear Modulus (GPa) = 15.25053 23.71332 19.48192
#
# Velocity S-wave (km/s) = 2.87980 3.59101 3.25489
# Velocity P-wave (km/s) = 6.63474 7.23555 6.94165
#
# Compressibility (1/GPa) = 0.01649775
#
# Stress axis : x y z
#
# Youngs Moduli (GPa) = 65.45095 78.85628 54.01459
#
# Poissons Ratio (x) = 0.44746 0.30129
# Poissons Ratio (y) = 0.37139 0.20178
# Poissons Ratio (z) = 0.36508 0.29458
#
# Static dielectric constant tensor:
#      x y z
#    x 1.637750 0.000000 0.036790 
#    y 0.000000 1.647240 0.000000 
#    z 0.036790 0.000000 1.682220 
# 
# From -- ./inp_files/26059.got.cif
#   From: 2010.05.17/outbox.cif.g08.bks.cpg/sg10_14_cif.got.tgz:26059.got - 2010.06.03 11:33:40.
