data_PCOD9152137
_publ_section_title
;
Structure prediction by ZEFSAII (Michael W. Deem and Ramdas Pophale) SiO2 
 PCOD9152137
Probable space group: P 2/M
;
_chemical_formula_sum "Si O2"
_cell_formula_units_Z 22
_cell_length_a 10.233812
_cell_length_b 18.180936
_cell_length_c 5.162125
_cell_angle_alpha 90.000000
_cell_angle_beta 81.213894
_cell_angle_gamma 90.000000
_cell_volume 949.195788
_symmetry_space_group_name_H-M "P 2/M"
_symmetry_group_IT_number 10
_symmetry_cell_setting 'monoclinic'
loop_
_space_group_symop_operation_xyz
x,y,z
-x,y,-z
-x,-y,-z
x,-y,z
loop_
_atom_site_type_symbol
_atom_site_label
_atom_site_fract_x
_atom_site_fract_y
_atom_site_fract_z
Si Si1 0.119927 0.273956 0.150426
Si Si2 0.500000 0.614275 0.000000
Si Si3 0.777234 0.416844 0.675604
Si Si4 0.655442 0.301697 0.331285
Si Si5 0.252160 0.833853 0.478097
Si Si6 0.350105 0.913023 0.964744
O O1 0.251905 0.271433 0.932490
O O2 0.118074 0.360220 0.230947
O O3 0.137589 0.219923 0.391584
O O4 0.000000 0.253967 0.000000
O O5 0.359354 0.577728 0.112060
O O6 0.529452 0.664331 0.235267
O O7 0.821850 0.500000 0.613411
O O8 0.732348 0.369942 0.439240
O O9 0.642100 0.231749 0.519537
O O10 0.274611 0.877282 0.741269
O O11 0.271088 0.892498 0.246748
O O12 0.358828 0.000000 0.914673
O O13 0.500000 0.887564 0.000000
#
# Coordination Sequence:
#
# PCOD9152137 Si02
#       6
#     4   2   4   4   4   4
#     4  10  23  44  66  89 120 170 228 280 325 373
#     4  10  21  36  58  88 129 172 216 262 321 398
#     4  10  22  37  57  89 129 170 214 269 329 391
#     4  10  22  38  59  94 121 168 218 268 324 388
#     4  11  22  41  64  95 130 171 216 265 312 386
#     4  11  24  40  65 100 139 174 205 252 320 393
#
# _framework density 23.177515
#
# number of rings (size 3 to 8) (size 9 to 14) (size 15 to 20)
#    0.000    1.636    1.818    1.909    1.273   13.455 
#    0.000    0.909    0.000    3.273    0.000    0.000 
#    0.000    0.000    0.000    0.000    0.000    0.000 
#
# Total GULP energy -122526.086251 kJ/mol
# GULP energy per Si atom -5569.367557 kJ/mol
# Density = 2.312476 g / cm^3
# Si number density = 23.177515 Si / 1000 Ang^3
#
#
#
# Elastic Constant Matrix: (Units=GPa)
#
#
# Indices 1 2 3 4 5 6 
#
# 1 52.5923 10.9057 18.2420 0.0000 17.8593 0.0000
# 2 10.9057 117.5200 55.4323 0.0000 15.7682 0.0000
# 3 18.2420 55.4323 174.5740 0.0000 29.5502 0.0000
# 4 0.0000 0.0000 0.0000 9.2463 0.0000 4.4465
# 5 17.8593 15.7682 29.5502 0.0000 44.6444 0.0000
# 6 0.0000 0.0000 0.0000 4.4465 0.0000 -26.5108
#
#
#
# Elastic Compliance Matrix: (Units=1/GPa)
#
#
# Indices 1 2 3 4 5 6 
#
# 1 0.022170 -0.000613 -0.000740 0.000000 -0.008162 0.000000
# 2 -0.000613 0.010129 -0.002915 0.000000 -0.001403 0.000000
# 3 -0.000740 -0.002915 0.007328 0.000000 -0.003525 0.000000
# 4 0.000000 0.000000 0.000000 0.100079 0.000000 0.016786
# 5 -0.008162 -0.001403 -0.003525 0.000000 0.028493 0.000000
# 6 0.000000 0.000000 0.000000 0.016786 0.000000 -0.034905
#
#
# Mechanical properties :
#
#
# Convention : Reuss Voigt Hill
#
# Bulk Modulus (GPa) = 32.16411 57.09404 44.62907
# Shear Modulus (GPa) = 32.85289 22.81639 27.83464
#
# Velocity S-wave (km/s) = 3.76898 3.14095 3.46921
# Velocity P-wave (km/s) = 5.73129 6.15150 5.94511
#
# Compressibility (1/GPa) = 0.03109055
#
# Stress axis : x y z
#
# Youngs Moduli (GPa) = 45.10635 98.72477 136.46807
#
# Poissons Ratio (x) = 0.06051 0.10104
# Poissons Ratio (y) = 0.02765 0.39777
# Poissons Ratio (z) = 0.03340 0.28776
#
# Static dielectric constant tensor:
#      x y z
#    x 1.995910 0.000000 -0.085550 
#    y 0.000000 1.856960 0.000000 
#    z -0.085550 0.000000 1.964460 
# 
# From -- ./inp_files/7283.got.cif
#   From: 2010.05.17/outbox.cif.g08.bks.cpg/sg10_4_cif.got.tgz:7283.got - 2010.06.03 11:33:40.
