data_PCOD9152272
_publ_section_title
;
Structure prediction by ZEFSAII (Michael W. Deem and Ramdas Pophale) SiO2 
 PCOD9152272
Probable space group: P 2/M
;
_chemical_formula_sum "Si O2"
_cell_formula_units_Z 32
_cell_length_a 12.113517
_cell_length_b 7.933603
_cell_length_c 15.569655
_cell_angle_alpha 90.000000
_cell_angle_beta 94.971738
_cell_angle_gamma 90.000000
_cell_volume 1490.673811
_symmetry_space_group_name_H-M "P 2/M"
_symmetry_group_IT_number 10
_symmetry_cell_setting 'monoclinic'
loop_
_space_group_symop_operation_xyz
x,y,z
-x,y,-z
-x,-y,-z
x,-y,z
loop_
_atom_site_type_symbol
_atom_site_label
_atom_site_fract_x
_atom_site_fract_y
_atom_site_fract_z
Si Si1 0.075132 0.705839 0.585768
Si Si2 0.563405 0.796295 0.134105
Si Si3 0.279991 0.809435 0.340722
Si Si4 0.488577 0.697563 0.688364
Si Si5 0.684214 0.295581 0.462342
Si Si6 0.908295 0.800908 0.929101
Si Si7 0.331740 0.205544 0.033812
Si Si8 0.053206 0.307186 0.257900
O O1 0.069694 0.500000 0.586647
O O2 0.201395 0.753336 0.576455
O O3 0.000000 0.760913 0.500000
O O4 0.024512 0.765681 0.672263
O O5 0.580642 0.723753 0.229567
O O6 0.441219 0.741079 0.093149
O O7 0.564152 0.000000 0.139860
O O8 0.648267 0.747344 0.064441
O O9 0.392673 0.785073 0.295542
O O10 0.311518 0.771420 0.441048
O O11 0.178121 0.696978 0.303617
O O12 0.240596 0.000000 0.328572
O O13 0.510122 0.500000 0.676638
O O14 0.419300 0.760846 0.601902
O O15 0.680613 0.500000 0.466650
O O16 0.784370 0.731989 0.936553
O O17 0.945060 0.780637 0.833632
O O18 0.899554 0.000000 0.947164
O O19 0.000000 0.728839 0.000000
O O20 0.333599 0.000000 0.037230
O O21 0.019718 0.500000 0.240887
#
# Coordination Sequence:
#
# PCOD9152272 Si02
#       8
#     4   4   4   4   4   4   4   4
#     4   9  17  35  62  84 109 148 192 236 287 344
#     4   9  17  33  57  79 103 141 190 235 277 335
#     4  12  24  38  58  83 114 149 191 238 286 342
#     4  11  23  36  54  83 118 150 186 232 286 343
#     4  10  21  39  59  81 112 152 191 232 284 342
#     4  10  21  37  56  82 119 157 191 233 287 343
#     4   8  16  33  56  78 103 144 190 230 280 336
#     4  11  22  38  63  89 114 151 198 242 289 344
#
# _framework density 21.466802999999999
#
# number of rings (size 3 to 8) (size 9 to 14) (size 15 to 20)
#    0.000    2.000    1.250    3.750    0.000    4.750 
#    0.000    3.750    0.000    0.000    0.000    0.000 
#    0.000    0.000    0.000    0.000    0.000    0.000 
#
# Total GULP energy -178794.862143 kJ/mol
# GULP energy per Si atom -5587.339442 kJ/mol
# Density = 2.141794 g / cm^3
# Si number density = 21.466803 Si / 1000 Ang^3
#
#
#
# Elastic Constant Matrix: (Units=GPa)
#
#
# Indices 1 2 3 4 5 6 
#
# 1 53.0960 2.9571 13.2977 0.0000 -21.1753 0.0000
# 2 2.9571 23.6453 -9.9424 0.0000 0.9693 0.0000
# 3 13.2977 -9.9424 105.9982 0.0000 -13.0676 0.0000
# 4 0.0000 0.0000 0.0000 25.4871 0.0000 -7.8820
# 5 -21.1753 0.9693 -13.0676 0.0000 30.7214 0.0000
# 6 0.0000 0.0000 0.0000 -7.8820 0.0000 6.9518
#
#
#
# Elastic Compliance Matrix: (Units=1/GPa)
#
#
# Indices 1 2 3 4 5 6 
#
# 1 0.026595 -0.004722 -0.001584 0.000000 0.017806 0.000000
# 2 -0.004722 0.044871 0.004459 0.000000 -0.002774 0.000000
# 3 -0.001584 0.004459 0.010447 0.000000 0.003211 0.000000
# 4 0.000000 0.000000 0.000000 0.060421 0.000000 0.068506
# 5 0.017806 -0.002774 0.003211 0.000000 0.046277 0.000000
# 6 0.000000 0.000000 0.000000 0.068506 0.000000 0.221519
#
#
# Mechanical properties :
#
#
# Convention : Reuss Voigt Hill
#
# Bulk Modulus (GPa) = 12.78462 21.70715 17.24588
# Shear Modulus (GPa) = 11.36630 24.39388 17.88009
#
# Velocity S-wave (km/s) = 2.30355 3.37464 2.88916
# Velocity P-wave (km/s) = 3.61159 5.03172 4.37960
#
# Compressibility (1/GPa) = 0.07821900
#
# Stress axis : x y z
#
# Youngs Moduli (GPa) = 37.60135 22.28614 95.72130
#
# Poissons Ratio (x) = 0.10523 0.15164
# Poissons Ratio (y) = 0.17755 -0.42684
# Poissons Ratio (z) = 0.05957 -0.09938
#
# Static dielectric constant tensor:
#      x y z
#    x 1.764130 0.000000 -0.012870 
#    y 0.000000 1.782830 0.000000 
#    z -0.012870 0.000000 1.764230 
# 
# From -- ./inp_files/63772.got.cif
#   From: 2010.05.17/outbox.cif.g08.bks.cpg/sg10_32_cif.got.tgz:63772.got - 2010.06.03 11:33:40.
