data_PCOD9152144
_publ_section_title
;
Structure prediction by ZEFSAII (Michael W. Deem and Ramdas Pophale) SiO2 
 PCOD9152144
Probable space group: P 2/M
;
_chemical_formula_sum "Si O2"
_cell_formula_units_Z 30
_cell_length_a 27.749639
_cell_length_b 7.485972
_cell_length_c 15.552055
_cell_angle_alpha 90.000000
_cell_angle_beta 24.151637
_cell_angle_gamma 90.000000
_cell_volume 1321.840429
_symmetry_space_group_name_H-M "P 2/M"
_symmetry_group_IT_number 10
_symmetry_cell_setting 'monoclinic'
loop_
_space_group_symop_operation_xyz
x,y,z
-x,y,-z
-x,-y,-z
x,-y,z
loop_
_atom_site_type_symbol
_atom_site_label
_atom_site_fract_x
_atom_site_fract_y
_atom_site_fract_z
Si Si1 0.057383 0.283961 0.061535
Si Si2 0.699684 0.284251 0.000428
Si Si3 0.208605 0.712726 0.507542
Si Si4 0.585158 0.708438 0.943550
Si Si5 0.728091 0.205562 0.404823
Si Si6 0.559898 0.701723 0.528975
Si Si7 0.767812 0.716958 0.075242
Si Si8 0.642425 0.000000 0.969659
O O1 0.052955 0.500000 0.069272
O O2 0.924151 0.216974 0.274004
O O3 0.139911 0.233687 0.847220
O O4 0.126798 0.224327 0.034224
O O5 0.701623 0.500000 0.981756
O O6 0.566399 0.219789 0.243010
O O7 0.774742 0.243625 0.963609
O O8 0.724518 0.160189 0.879391
O O9 0.203649 0.500000 0.503179
O O10 0.289821 0.778916 0.297920
O O11 0.270499 0.742296 0.498338
O O12 0.589101 0.500000 0.963402
O O13 0.558079 0.842650 0.063299
O O14 0.500000 0.718615 0.000000
O O15 0.640955 0.304915 0.481938
O O16 0.698346 0.000000 0.443646
O O17 0.531560 0.500000 0.547553
O O18 0.644986 0.782366 0.317817
O O19 0.763272 0.500000 0.089413
#
# Coordination Sequence:
#
# PCOD9152144 Si02
#       8
#     4   4   4   4   4   4   4   2
#     4   9  18  36  59  82 113 154 193 232 278 340
#     4  10  21  36  59  86 116 156 198 240 292 347
#     4  10  21  37  60  83 107 149 198 236 285 350
#     4  10  24  44  65  87 115 153 196 245 297 348
#     4  11  22  31  50  85 125 154 185 228 283 346
#     4   9  18  33  54  80 116 159 194 231 276 338
#     4   8  15  33  57  82 114 152 193 235 282 337
#     4  12  25  40  61  87 117 147 191 254 300 348
#
# _framework density 22.695629
#
# number of rings (size 3 to 8) (size 9 to 14) (size 15 to 20)
#    0.000    2.267    0.000    3.400    3.733    3.733 
#    4.800    0.667    0.000    1.600    0.000    4.667 
#    0.000    0.000    0.000    0.000    0.000    0.000 
#
# Total GULP energy -167092.256116 kJ/mol
# GULP energy per Si atom -5569.741871 kJ/mol
# Density = 2.264397 g / cm^3
# Si number density = 22.695629 Si / 1000 Ang^3
#
#
#
# Elastic Constant Matrix: (Units=GPa)
#
#
# Indices 1 2 3 4 5 6 
#
# 1 90.5658 12.2093 13.3472 0.0000 14.4294 0.0000
# 2 12.2093 106.0825 9.9024 0.0000 8.3979 0.0000
# 3 13.3472 9.9024 50.8743 0.0000 -1.7184 0.0000
# 4 0.0000 0.0000 0.0000 -82.8643 0.0000 475.4703
# 5 14.4294 8.3979 -1.7184 0.0000 17.6018 0.0000
# 6 0.0000 0.0000 0.0000 475.4703 0.0000-2326.5703
#
#
#
# Elastic Compliance Matrix: (Units=1/GPa)
#
#
# Indices 1 2 3 4 5 6 
#
# 1 0.013442 -0.000297 -0.003849 0.000000 -0.011253 0.000000
# 2 -0.000297 0.010026 -0.002034 0.000000 -0.004738 0.000000
# 3 -0.003849 -0.002034 0.021271 0.000000 0.006202 0.000000
# 4 0.000000 0.000000 0.000000 0.069904 0.000000 0.014286
# 5 -0.011253 -0.004738 0.006202 0.000000 0.068904 0.000000
# 6 0.000000 0.000000 0.000000 0.014286 0.000000 0.002490
#
#
# Mechanical properties :
#
#
# Convention : Reuss Voigt Hill
#
# Bulk Modulus (GPa) = 30.88307 35.38225 33.13266
# Shear Modulus (GPa) = 23.90187 -464.22897 -220.16355
#
# Velocity S-wave (km/s) = 3.24875 -14.31746 -9.85990
# Velocity P-wave (km/s) = 5.26398 16.05290 10.72348
#
# Compressibility (1/GPa) = 0.03238020
#
# Stress axis : x y z
#
# Youngs Moduli (GPa) = 74.39438 99.74321 47.01154
#
# Poissons Ratio (x) = 0.02962 0.18094
# Poissons Ratio (y) = 0.02209 0.09560
# Poissons Ratio (z) = 0.28633 0.20284
#
# Static dielectric constant tensor:
#      x y z
#    x 1.896010 0.000000 0.040320 
#    y 0.000000 1.883790 0.000000 
#    z 0.040320 0.000000 1.913240 
# 
# From -- ./inp_files/72105.got.cif
#   From: 2010.05.17/outbox.cif.g08.bks.cpg/sg10_37_cif.got.tgz:72105.got - 2010.06.03 11:33:40.
