data_PCOD9152607
_publ_section_title
;
Structure prediction by ZEFSAII (Michael W. Deem and Ramdas Pophale) SiO2 
 PCOD9152607
Probable space group: P 2/M
;
_chemical_formula_sum "Si O2"
_cell_formula_units_Z 28
_cell_length_a 12.978236
_cell_length_b 14.243309
_cell_length_c 8.356612
_cell_angle_alpha 90.000000
_cell_angle_beta 73.127109
_cell_angle_gamma 90.000000
_cell_volume 1478.245315
_symmetry_space_group_name_H-M "P 2/M"
_symmetry_group_IT_number 10
_symmetry_cell_setting 'monoclinic'
loop_
_space_group_symop_operation_xyz
x,y,z
-x,y,-z
-x,-y,-z
x,-y,z
loop_
_atom_site_type_symbol
_atom_site_label
_atom_site_fract_x
_atom_site_fract_y
_atom_site_fract_z
Si Si1 0.498456 0.108648 0.692931
Si Si2 0.783848 0.605346 0.258875
Si Si3 0.686516 0.231149 0.726444
Si Si4 0.413470 0.605505 0.409412
Si Si5 0.098457 0.891998 0.831977
Si Si6 0.707592 0.778630 0.093327
Si Si7 0.904195 0.739547 0.424197
O O1 0.500000 0.114982 0.500000
O O2 0.613684 0.143657 0.704678
O O3 0.406195 0.177205 0.802234
O O4 0.477647 0.000000 0.747043
O O5 0.808638 0.500000 0.190798
O O6 0.694802 0.597853 0.438199
O O7 0.732497 0.674968 0.151314
O O8 0.881734 0.658975 0.301999
O O9 0.612585 0.322260 0.718944
O O10 0.794641 0.241311 0.572883
O O11 0.713427 0.223725 0.900018
O O12 0.500000 0.641431 0.500000
O O13 0.446409 0.500000 0.343447
O O14 0.201661 0.844251 0.867691
O O15 0.070195 0.832937 0.687469
O O16 0.121326 0.000000 0.783740
O O17 0.000000 0.887225 0.000000
O O18 0.000000 0.714557 0.500000
#
# Coordination Sequence:
#
# PCOD9152607 Si02
#       7
#     4   4   4   4   4   4   4
#     4  11  23  39  58  80 110 149 190 231 278 332
#     4   9  19  35  56  81 110 147 186 225 273 329
#     4  11  22  35  55  83 113 146 183 228 281 334
#     4   9  17  32  54  78 107 143 183 226 273 327
#     4  10  21  38  59  82 110 146 188 232 278 327
#     4  11  22  36  57  83 116 148 183 229 278 331
#     4  10  21  38  59  83 113 146 186 232 280 332
#
# _framework density 18.941376000000002
#
# number of rings (size 3 to 8) (size 9 to 14) (size 15 to 20)
#    0.000    1.857    0.000    5.571    0.000    4.571 
#    0.000    0.000    0.000   18.857    0.000    0.000 
#    0.000    0.000    0.000    0.000    0.000    0.000 
#
# Total GULP energy -156306.593666 kJ/mol
# GULP energy per Si atom -5582.378345 kJ/mol
# Density = 1.889827 g / cm^3
# Si number density = 18.941376 Si / 1000 Ang^3
#
#
#
# Elastic Constant Matrix: (Units=GPa)
#
#
# Indices 1 2 3 4 5 6 
#
# 1 69.8895 25.2244 -1.2466 0.0000 5.5682 0.0000
# 2 25.2244 133.4392 29.0590 0.0000 6.4339 0.0000
# 3 -1.2466 29.0590 52.8986 0.0000 10.9103 0.0000
# 4 0.0000 0.0000 0.0000 -5.7716 0.0000 -8.3173
# 5 5.5682 6.4339 10.9103 0.0000 29.4211 0.0000
# 6 0.0000 0.0000 0.0000 -8.3173 0.0000 8.9929
#
#
#
# Elastic Compliance Matrix: (Units=1/GPa)
#
#
# Indices 1 2 3 4 5 6 
#
# 1 0.015889 -0.003492 0.002983 0.000000 -0.003350 0.000000
# 2 -0.003492 0.009280 -0.005304 0.000000 0.000598 0.000000
# 3 0.002983 -0.005304 0.023568 0.000000 -0.008145 0.000000
# 4 0.000000 0.000000 0.000000 -0.074271 0.000000 -0.068692
# 5 -0.003350 0.000598 -0.008145 0.000000 0.037513 0.000000
# 6 0.000000 0.000000 0.000000 -0.068692 0.000000 0.047667
#
#
# Mechanical properties :
#
#
# Convention : Reuss Voigt Hill
#
# Bulk Modulus (GPa) = 26.94487 40.25565 33.60026
# Shear Modulus (GPa) = 59.78046 20.07451 39.92749
#
# Velocity S-wave (km/s) = 5.62399 3.25902 4.59622
# Velocity P-wave (km/s) = 7.51190 5.95488 6.77825
#
# Compressibility (1/GPa) = 0.03711282
#
# Stress axis : x y z
#
# Youngs Moduli (GPa) = 62.93816 107.75619 42.43108
#
# Poissons Ratio (x) = 0.37625 -0.12659
# Poissons Ratio (y) = 0.21976 0.22504
# Poissons Ratio (z) = -0.18777 0.57149
#
# Static dielectric constant tensor:
#      x y z
#    x 1.653380 0.000000 -0.013880 
#    y 0.000000 1.692310 0.000000 
#    z -0.013880 0.000000 1.626430 
# 
# From -- ./inp_files/24875.got.cif
#   From: 2010.05.17/outbox.cif.g08.bks.cpg/sg10_13_cif.got.tgz:24875.got - 2010.06.03 11:33:40.
