data_PCOD9152898
_publ_section_title
;
Structure prediction by ZEFSAII (Michael W. Deem and Ramdas Pophale) SiO2 
 PCOD9152898
Probable space group: P 2/M
;
_chemical_formula_sum "Si O2"
_cell_formula_units_Z 32
_cell_length_a 15.028387
_cell_length_b 8.657659
_cell_length_c 25.814975
_cell_angle_alpha 90.000000
_cell_angle_beta 30.567628
_cell_angle_gamma 90.000000
_cell_volume 1708.136206
_symmetry_space_group_name_H-M "P 2/M"
_symmetry_group_IT_number 10
_symmetry_cell_setting 'monoclinic'
loop_
_space_group_symop_operation_xyz
x,y,z
-x,y,-z
-x,-y,-z
x,-y,z
loop_
_atom_site_type_symbol
_atom_site_label
_atom_site_fract_x
_atom_site_fract_y
_atom_site_fract_z
Si Si1 0.659918 0.314896 0.956756
Si Si2 0.257494 0.816046 0.974848
Si Si3 0.918064 0.814906 0.597299
Si Si4 0.821787 0.314073 0.446526
Si Si5 0.130019 0.814121 0.801407
Si Si6 0.947231 0.315182 0.270587
Si Si7 0.451929 0.683392 0.243571
Si Si8 0.506376 0.814252 0.330451
O O1 0.651715 0.500000 0.970983
O O2 0.845393 0.281823 0.836558
O O3 0.500000 0.273249 0.000000
O O4 0.659774 0.226453 0.011049
O O5 0.372415 0.734555 0.873787
O O6 0.260920 0.000000 0.964783
O O7 0.054761 0.763449 0.080851
O O8 0.718234 0.758751 0.697758
O O9 0.000000 0.772461 0.500000
O O10 0.031757 0.740465 0.585947
O O11 0.925993 0.000000 0.597833
O O12 0.812589 0.500000 0.452295
O O13 0.870150 0.263701 0.364037
O O14 0.639111 0.242907 0.556477
O O15 0.135383 0.756681 0.739598
O O16 0.300847 0.765599 0.747359
O O17 0.126564 0.000000 0.802323
O O18 0.926569 0.500000 0.277740
O O19 0.433224 0.500000 0.251908
O O20 0.461021 0.743533 0.297648
O O21 0.500560 0.000000 0.329542
#
# Coordination Sequence:
#
# PCOD9152898 Si02
#       8
#     4   4   4   4   4   4   4   4
#     4   9  18  34  56  82 114 154 196 239 291 348
#     4  10  21  39  60  86 118 152 195 244 296 352
#     4  11  23  40  62  87 119 158 197 243 294 347
#     4  11  23  38  59  90 123 159 198 240 296 354
#     4   9  21  41  64  86 115 156 198 247 299 347
#     4   9  20  37  57  85 120 155 193 241 292 349
#     4  12  25  40  61  89 120 156 196 241 296 358
#     4  11  23  41  62  86 116 154 202 250 296 348
#
# _framework density 18.733868999999999
#
# number of rings (size 3 to 8) (size 9 to 14) (size 15 to 20)
#    0.000    1.750    1.250    2.625    1.750    4.250 
#    0.000    5.000    0.000    0.000    0.000    0.000 
#    0.000    0.000    0.000    0.000    0.000    0.000 
#
# Total GULP energy -178794.383563 kJ/mol
# GULP energy per Si atom -5587.324486 kJ/mol
# Density = 1.869123 g / cm^3
# Si number density = 18.733869 Si / 1000 Ang^3
#
#
#
# Elastic Constant Matrix: (Units=GPa)
#
#
# Indices 1 2 3 4 5 6 
#
# 1 20.6656 -6.2148 6.9805 0.0000 -25.8382 0.0000
# 2 -6.2148 23.4666 7.9632 0.0000 0.2150 0.0000
# 3 6.9805 7.9632 81.6874 0.0000 8.2714 0.0000
# 4 0.0000 0.0000 0.0000 32.2169 0.0000 2.1378
# 5 -25.8382 0.2150 8.2714 0.0000 29.4034 0.0000
# 6 0.0000 0.0000 0.0000 2.1378 0.0000 27.7890
#
#
#
# Elastic Compliance Matrix: (Units=1/GPa)
#
#
# Indices 1 2 3 4 5 6 
#
# 1 -0.142003 -0.046617 0.030138 0.000000 -0.132923 0.000000
# 2 -0.046617 0.028792 0.005503 0.000000 -0.042723 0.000000
# 3 0.030138 0.005503 0.006641 0.000000 0.024576 0.000000
# 4 0.000000 0.000000 0.000000 0.031199 0.000000 -0.002400
# 5 -0.132923 -0.042723 0.024576 0.000000 -0.089397 0.000000
# 6 0.000000 0.000000 0.000000 -0.002400 0.000000 0.036170
#
#
# Mechanical properties :
#
#
# Convention : Reuss Voigt Hill
#
# Bulk Modulus (GPa) = -7.78079 15.91973 4.06947
# Shear Modulus (GPa) = -33.44767 25.68789 -3.87989
#
# Velocity S-wave (km/s) = -4.23000 3.70699 -1.44068
# Velocity P-wave (km/s) = 5.29335 5.18060 0.76840
#
# Compressibility (1/GPa) = -0.12852159
#
# Stress axis : x y z
#
# Youngs Moduli (GPa) = -7.04209 34.73205 150.56963
#
# Poissons Ratio (x) = 1.61911 -4.53794
# Poissons Ratio (y) = -0.32828 -0.82857
# Poissons Ratio (z) = 0.21224 -0.19113
#
# Static dielectric constant tensor:
#      x y z
#    x 1.615720 0.000000 -0.008850 
#    y 0.000000 1.630880 0.000000 
#    z -0.008850 0.000000 1.647190 
# 
# From -- ./inp_files/66622.got.cif
#   From: 2010.05.17/outbox.cif.g08.bks.cpg/sg10_34_cif.got.tgz:66622.got - 2010.06.03 11:33:40.
