data_PCOD9152541
_publ_section_title
;
Structure prediction by ZEFSAII (Michael W. Deem and Ramdas Pophale) SiO2 
 PCOD9152541
Probable space group: P 2/M
;
_chemical_formula_sum "Si O2"
_cell_formula_units_Z 32
_cell_length_a 21.706915
_cell_length_b 8.656204
_cell_length_c 12.957236
_cell_angle_alpha 90.000000
_cell_angle_beta 125.995661
_cell_angle_gamma 90.000000
_cell_volume 1969.788037
_symmetry_space_group_name_H-M "P 2/M"
_symmetry_group_IT_number 10
_symmetry_cell_setting 'monoclinic'
loop_
_space_group_symop_operation_xyz
x,y,z
-x,y,-z
-x,-y,-z
x,-y,z
loop_
_atom_site_type_symbol
_atom_site_label
_atom_site_fract_x
_atom_site_fract_y
_atom_site_fract_z
Si Si1 0.674987 0.184574 0.351709
Si Si2 0.588242 0.684731 0.067947
Si Si3 0.427365 0.815099 0.552100
Si Si4 0.000204 0.681603 0.375101
Si Si5 0.166625 0.313183 0.542618
Si Si6 0.405767 0.316205 0.309098
Si Si7 0.166551 0.687130 0.787259
Si Si8 0.680488 0.816414 0.967033
O O1 0.636843 0.263239 0.214609
O O2 0.626687 0.225219 0.405643
O O3 0.761897 0.240116 0.443920
O O4 0.672494 0.000000 0.335788
O O5 0.593991 0.500000 0.061450
O O6 0.500000 0.725637 0.000000
O O7 0.622750 0.762880 0.000374
O O8 0.510148 0.737785 0.644190
O O9 0.394467 0.758812 0.410373
O O10 0.437339 0.000000 0.559277
O O11 0.000238 0.500000 0.347893
O O12 0.917669 0.743229 0.261042
O O13 0.000000 0.688450 0.500000
O O14 0.082881 0.743733 0.424549
O O15 0.168614 0.500000 0.535715
O O16 0.174701 0.277790 0.673030
O O17 0.404746 0.500000 0.317300
O O18 0.346210 0.259330 0.165833
O O19 0.169263 0.500000 0.798827
O O20 0.236087 0.760233 0.916631
O O21 0.678288 0.000000 0.956046
#
# Coordination Sequence:
#
# PCOD9152541 Si02
#       8
#     4   4   4   4   4   4   4   4
#     4  11  22  33  49  74 104 135 164 200 248 301
#     4  11  23  36  50  69  96 132 172 208 244 293
#     4  10  21  38  56  75 101 131 165 208 259 301
#     4   7  12  24  44  69  95 129 168 203 242 285
#     4   9  16  28  48  71 100 135 169 205 242 288
#     4  11  22  37  57  77  96 125 171 217 254 293
#     4   9  16  29  48  71 100 133 170 206 242 291
#     4  12  23  34  50  73 104 135 165 203 254 304
#
# _framework density 16.245401999999999
#
# number of rings (size 3 to 8) (size 9 to 14) (size 15 to 20)
#    0.000    2.000    1.250    6.375    0.000    5.000 
#    0.000    0.625    0.000    2.250    0.000    0.875 
#    0.000    7.000    0.000    0.000    0.000    0.000 
#
# Total GULP energy -178531.277578 kJ/mol
# GULP energy per Si atom -5579.102424 kJ/mol
# Density = 1.620843 g / cm^3
# Si number density = 16.245402 Si / 1000 Ang^3
#
#
#
# Elastic Constant Matrix: (Units=GPa)
#
#
# Indices 1 2 3 4 5 6 
#
# 1 29.4486 -2.1983 3.1303 0.0000 14.2408 0.0000
# 2 -2.1983 29.7331 3.6540 0.0000 2.1777 0.0000
# 3 3.1303 3.6540 50.4691 0.0000 13.0277 0.0000
# 4 0.0000 0.0000 0.0000 -0.4185 0.0000 9.7396
# 5 14.2408 2.1777 13.0277 0.0000 22.4136 0.0000
# 6 0.0000 0.0000 0.0000 9.7396 0.0000 104.7696
#
#
#
# Elastic Compliance Matrix: (Units=1/GPa)
#
#
# Indices 1 2 3 4 5 6 
#
# 1 0.051510 0.005776 0.005859 0.000000 -0.036694 0.000000
# 2 0.005776 0.034675 -0.001237 0.000000 -0.006320 0.000000
# 3 0.005859 -0.001237 0.024084 0.000000 -0.017601 0.000000
# 4 0.000000 0.000000 0.000000 -0.755357 0.000000 0.070219
# 5 -0.036694 -0.006320 -0.017601 0.000000 0.078774 0.000000
# 6 0.000000 0.000000 0.000000 0.070219 0.000000 0.003017
#
#
# Mechanical properties :
#
#
# Convention : Reuss Voigt Hill
#
# Bulk Modulus (GPa) = 7.62990 13.20255 10.41622
# Shear Modulus (GPa) = -9.25234 32.35727 11.55246
#
# Velocity S-wave (km/s) = -2.38908 4.46778 2.66958
# Velocity P-wave (km/s) = 1.70395 5.89570 3.99098
#
# Compressibility (1/GPa) = 0.13106336
#
# Stress axis : x y z
#
# Youngs Moduli (GPa) = 19.41352 28.83960 41.52206
#
# Poissons Ratio (x) = -0.16657 -0.24327
# Poissons Ratio (y) = -0.11213 0.05138
# Poissons Ratio (z) = -0.11374 0.03569
#
# Static dielectric constant tensor:
#      x y z
#    x 1.556380 0.000000 0.025070 
#    y 0.000000 1.545460 0.000000 
#    z 0.025070 0.000000 1.529900 
# 
# From -- ./inp_files/54943.got.cif
#   From: 2010.05.17/outbox.cif.g08.bks.cpg/sg10_28_cif.got.tgz:54943.got - 2010.06.03 11:33:40.
