data_PCOD9152373
_publ_section_title
;
Structure prediction by ZEFSAII (Michael W. Deem and Ramdas Pophale) SiO2 
 PCOD9152373
Probable space group: P 2/M
;
_chemical_formula_sum "Si O2"
_cell_formula_units_Z 32
_cell_length_a 13.769381
_cell_length_b 14.594301
_cell_length_c 19.840768
_cell_angle_alpha 90.000000
_cell_angle_beta 23.774982
_cell_angle_gamma 90.000000
_cell_volume 1607.378942
_symmetry_space_group_name_H-M "P 2/M"
_symmetry_group_IT_number 10
_symmetry_cell_setting 'monoclinic'
loop_
_space_group_symop_operation_xyz
x,y,z
-x,y,-z
-x,-y,-z
x,-y,z
loop_
_atom_site_type_symbol
_atom_site_label
_atom_site_fract_x
_atom_site_fract_y
_atom_site_fract_z
Si Si1 0.187746 0.604571 0.654028
Si Si2 0.538742 0.104184 0.395445
Si Si3 0.215553 0.398713 0.189127
Si Si4 0.552155 0.607331 0.296885
Si Si5 0.154097 0.247065 0.336273
Si Si6 0.553927 0.753870 0.183754
Si Si7 0.123969 0.273692 0.821600
Si Si8 0.222960 0.892311 0.473607
O O1 0.227814 0.500000 0.654255
O O2 0.356473 0.617641 0.481521
O O3 0.212632 0.679895 0.695523
O O4 0.917586 0.610589 0.797347
O O5 0.500000 0.108982 0.500000
O O6 0.731028 0.181219 0.255230
O O7 0.298222 0.120917 0.504020
O O8 0.616985 0.000000 0.329316
O O9 0.148961 0.500000 0.257495
O O10 0.132255 0.321727 0.292737
O O11 0.500000 0.393946 0.000000
O O12 0.579099 0.500000 0.265164
O O13 0.483651 0.665913 0.274575
O O14 0.790770 0.652859 0.177044
O O15 0.425202 0.243843 0.192694
O O16 0.000000 0.272520 0.500000
O O17 0.026959 0.155360 0.388946
O O18 0.434938 0.840559 0.297792
O O19 0.841931 0.749006 0.997312
O O20 0.217059 0.000000 0.462757
#
# Coordination Sequence:
#
# PCOD9152373 Si02
#       8
#     4   4   4   4   4   4   4   4
#     4  10  21  37  59  86 115 161 212 244 291 359
#     4  10  22  39  63  93 119 151 195 244 305 367
#     4  10  21  37  58  87 124 162 200 248 305 356
#     4  11  23  39  59  87 125 167 210 250 296 360
#     4  10  22  39  62  87 118 157 212 248 294 356
#     4  11  24  39  56  94 121 158 204 246 306 363
#     4  12  23  36  61  88 126 157 193 254 309 357
#     4  10  22  43  68  89 118 157 202 252 304 368
#
# _framework density 19.908186000000001
#
# number of rings (size 3 to 8) (size 9 to 14) (size 15 to 20)
#    0.000    1.500    1.250    4.125    1.750    6.000 
#    0.000    1.250    0.000    0.375    0.000    0.000 
#    0.000    0.000    0.000    0.000    0.000    0.000 
#
# Total GULP energy -178707.083634 kJ/mol
# GULP energy per Si atom -5584.596364 kJ/mol
# Density = 1.986287 g / cm^3
# Si number density = 19.908186 Si / 1000 Ang^3
#
#
#
# Elastic Constant Matrix: (Units=GPa)
#
#
# Indices 1 2 3 4 5 6 
#
# 1 112.8465 65.3112 28.0818 0.0000 -26.2499 0.0000
# 2 65.3112 156.0091 41.0204 0.0000 -7.9738 0.0000
# 3 28.0818 41.0204 63.0703 0.0000 -27.2845 0.0000
# 4 0.0000 0.0000 0.0000 -23.4159 0.0000 37.2141
# 5 -26.2499 -7.9738 -27.2845 0.0000 37.0313 0.0000
# 6 0.0000 0.0000 0.0000 37.2141 0.0000 -32.8171
#
#
#
# Elastic Compliance Matrix: (Units=1/GPa)
#
#
# Indices 1 2 3 4 5 6 
#
# 1 0.014185 -0.005933 0.001967 0.000000 0.010227 0.000000
# 2 -0.005933 0.010447 -0.007338 0.000000 -0.007363 0.000000
# 3 0.001967 -0.007338 0.028876 0.000000 0.021090 0.000000
# 4 0.000000 0.000000 0.000000 0.053236 0.000000 0.060369
# 5 0.010227 -0.007363 0.021090 0.000000 0.048207 0.000000
# 6 0.000000 0.000000 0.000000 0.060369 0.000000 0.037985
#
#
# Mechanical properties :
#
#
# Convention : Reuss Voigt Hill
#
# Bulk Modulus (GPa) = 32.36290 66.75030 49.55660
# Shear Modulus (GPa) = 22.13940 9.32717 15.73328
#
# Velocity S-wave (km/s) = 3.33840 2.16686 2.81426
# Velocity P-wave (km/s) = 5.58133 6.31365 5.95875
#
# Compressibility (1/GPa) = 0.03089958
#
# Stress axis : x y z
#
# Youngs Moduli (GPa) = 70.49888 95.72452 34.63131
#
# Poissons Ratio (x) = 0.56791 -0.06812
# Poissons Ratio (y) = 0.41825 0.25412
# Poissons Ratio (z) = -0.13868 0.70243
#
# Static dielectric constant tensor:
#      x y z
#    x 1.745800 0.000000 -0.018670 
#    y 0.000000 1.686440 0.000000 
#    z -0.018670 0.000000 1.717800 
# 
# From -- ./inp_files/85403.got.cif
#   From: 2010.05.17/outbox.cif.g08.bks.cpg/sg10_43_cif.got.tgz:85403.got - 2010.06.03 11:33:40.
