data_PCOD9152134
_publ_section_title
;
Structure prediction by ZEFSAII (Michael W. Deem and Ramdas Pophale) SiO2 
 PCOD9152134
Probable space group: P 2/M
;
_chemical_formula_sum "Si O2"
_cell_formula_units_Z 32
_cell_length_a 16.452828
_cell_length_b 8.926922
_cell_length_c 10.741648
_cell_angle_alpha 90.000000
_cell_angle_beta 94.845396
_cell_angle_gamma 90.000000
_cell_volume 1572.021109
_symmetry_space_group_name_H-M "P 2/M"
_symmetry_group_IT_number 10
_symmetry_cell_setting 'monoclinic'
loop_
_space_group_symop_operation_xyz
x,y,z
-x,y,-z
-x,-y,-z
x,-y,z
loop_
_atom_site_type_symbol
_atom_site_label
_atom_site_fract_x
_atom_site_fract_y
_atom_site_fract_z
Si Si1 0.765129 0.179668 0.356595
Si Si2 0.949559 0.180216 0.867716
Si Si3 0.625360 0.172130 0.960341
Si Si4 0.676852 0.674539 0.578794
Si Si5 0.227505 0.673908 0.146533
Si Si6 0.472268 0.825793 0.312855
Si Si7 0.620148 0.323436 0.208577
Si Si8 0.046333 0.817781 0.631009
O O1 0.725585 0.237051 0.479716
O O2 0.708133 0.250741 0.244066
O O3 0.859156 0.227994 0.358221
O O4 0.761407 0.000000 0.350161
O O5 0.863133 0.262235 0.859971
O O6 0.999886 0.226478 0.751116
O O7 0.936463 0.000000 0.859441
O O8 0.000000 0.210914 0.000000
O O9 0.715425 0.227479 0.935201
O O10 0.573157 0.181877 0.827405
O O11 0.624559 0.000000 0.002525
O O12 0.593551 0.273984 0.067595
O O13 0.667281 0.500000 0.543107
O O14 0.730506 0.681821 0.711987
O O15 0.589592 0.747418 0.600005
O O16 0.228783 0.500000 0.107475
O O17 0.557304 0.743564 0.300754
O O18 0.484353 0.000000 0.345325
O O19 0.623229 0.500000 0.219898
O O20 0.000000 0.766671 0.500000
O O21 0.045909 0.000000 0.628816
#
# Coordination Sequence:
#
# PCOD9152134 Si02
#       8
#     4   4   4   4   4   4   4   4
#     4  11  23  39  62  88 118 157 202 249 299 359
#     4  10  21  36  58  88 119 156 203 256 310 365
#     4  10  21  38  62  88 118 157 203 250 294 354
#     4  10  21  39  61  87 120 154 196 247 302 360
#     4  10  21  37  59  88 120 156 194 242 304 367
#     4  10  21  39  63  90 117 154 204 250 296 355
#     4  12  25  39  57  86 125 162 197 244 304 362
#     4   9  19  37  61  88 118 155 202 253 305 363
#
# _framework density 20.355962000000002
#
# number of rings (size 3 to 8) (size 9 to 14) (size 15 to 20)
#    0.000    1.750    0.000    4.125    1.750    6.250 
#    0.000    3.750    0.000    3.375    0.000    0.000 
#    0.000    0.000    0.000    0.000    0.000    0.000 
#
# Total GULP energy -178971.658867 kJ/mol
# GULP energy per Si atom -5592.864340 kJ/mol
# Density = 2.030963 g / cm^3
# Si number density = 20.355962 Si / 1000 Ang^3
#
#
#
# Elastic Constant Matrix: (Units=GPa)
#
#
# Indices 1 2 3 4 5 6 
#
# 1 132.3953 44.6438 31.2938 0.0000 -8.9564 0.0000
# 2 44.6438 98.6479 23.9227 0.0000 5.6591 0.0000
# 3 31.2938 23.9227 86.8402 0.0000 -3.8960 0.0000
# 4 0.0000 0.0000 0.0000 -53.2287 0.0000 53.4356
# 5 -8.9564 5.6591 -3.8960 0.0000 23.3923 0.0000
# 6 0.0000 0.0000 0.0000 53.4356 0.0000 -14.7333
#
#
#
# Elastic Compliance Matrix: (Units=1/GPa)
#
#
# Indices 1 2 3 4 5 6 
#
# 1 0.009760 -0.004139 -0.002181 0.000000 0.004375 0.000000
# 2 -0.004139 0.012854 -0.002277 0.000000 -0.005074 0.000000
# 3 -0.002181 -0.002277 0.013013 0.000000 0.001883 0.000000
# 4 0.000000 0.000000 0.000000 0.007114 0.000000 0.025800
# 5 0.004375 -0.005074 0.001883 0.000000 0.045965 0.000000
# 6 0.000000 0.000000 0.000000 0.025800 0.000000 0.025700
#
#
# Mechanical properties :
#
#
# Convention : Reuss Voigt Hill
#
# Bulk Modulus (GPa) = 54.24998 57.51155 55.88077
# Shear Modulus (GPa) = 36.29920 5.62094 20.96007
#
# Velocity S-wave (km/s) = 4.22740 1.66353 3.21234
# Velocity P-wave (km/s) = 7.10890 5.65721 6.42419
#
# Compressibility (1/GPa) = 0.01843319
#
# Stress axis : x y z
#
# Youngs Moduli (GPa) = 102.45572 77.79965 76.84650
#
# Poissons Ratio (x) = 0.32203 0.16758
# Poissons Ratio (y) = 0.42409 0.17497
# Poissons Ratio (z) = 0.22342 0.17714
#
# Static dielectric constant tensor:
#      x y z
#    x 1.693260 0.000000 0.022810 
#    y 0.000000 1.679410 0.000000 
#    z 0.022810 0.000000 1.753900 
# 
# From -- ./inp_files/49892.got.cif
#   From: 2010.05.17/outbox.cif.g08.bks.cpg/sg10_25_cif.got.tgz:49892.got - 2010.06.03 11:33:40.
