data_PCOD9152092
_publ_section_title
;
Structure prediction by ZEFSAII (Michael W. Deem and Ramdas Pophale) SiO2 
 PCOD9152092
Probable space group: P 2/M
;
_chemical_formula_sum "Si O2"
_cell_formula_units_Z 28
_cell_length_a 14.931975
_cell_length_b 9.003516
_cell_length_c 20.069464
_cell_angle_alpha 90.000000
_cell_angle_beta 147.858570
_cell_angle_gamma 90.000000
_cell_volume 1435.442396
_symmetry_space_group_name_H-M "P 2/M"
_symmetry_group_IT_number 10
_symmetry_cell_setting 'monoclinic'
loop_
_space_group_symop_operation_xyz
x,y,z
-x,y,-z
-x,-y,-z
x,-y,z
loop_
_atom_site_type_symbol
_atom_site_label
_atom_site_fract_x
_atom_site_fract_y
_atom_site_fract_z
Si Si1 0.180435 0.679103 0.644154
Si Si2 0.353914 0.667934 0.463962
Si Si3 0.802369 0.327271 0.075893
Si Si4 0.888785 0.823544 0.787251
Si Si5 0.607057 0.823823 0.717061
Si Si6 0.694984 0.177808 0.139439
Si Si7 0.523310 0.327093 0.794797
O O1 0.179866 0.500000 0.652655
O O2 0.231795 0.752119 0.746748
O O3 0.330447 0.714508 0.686851
O O4 0.000000 0.723377 0.500000
O O5 0.500000 0.659700 0.500000
O O6 0.293497 0.500000 0.438679
O O7 0.214120 0.771763 0.343035
O O8 0.446250 0.740129 0.584660
O O9 0.836410 0.500000 0.110864
O O10 0.800553 0.235429 0.142687
O O11 0.937961 0.263624 0.109518
O O12 0.622121 0.314987 0.926522
O O13 0.771732 0.783900 0.776953
O O14 0.914828 0.000000 0.804006
O O15 0.613016 0.773467 0.796623
O O16 0.585566 0.000000 0.696726
O O17 0.701318 0.000000 0.148313
O O18 0.500000 0.220206 0.000000
O O19 0.532260 0.500000 0.779256
#
# Coordination Sequence:
#
# PCOD9152092 Si02
#       7
#     4   4   4   4   4   4   4
#     4  10  22  42  67  94 125 161 205 258 311 368
#     4   9  17  32  55  80 109 149 197 245 294 353
#     4  11  23  39  62  88 117 158 205 253 304 362
#     4  10  21  37  56  84 120 155 200 251 301 362
#     4  10  21  36  57  83 118 163 199 244 308 363
#     4  11  23  40  65  93 123 162 203 251 312 373
#     4  10  22  39  59  85 117 157 205 254 305 365
#
# _framework density 19.506181999999999
#
# number of rings (size 3 to 8) (size 9 to 14) (size 15 to 20)
#    0.000    1.857    1.429    2.143    0.000    7.714 
#    0.000    7.143    0.000    0.000    0.000    0.000 
#    0.000    0.000    0.000    0.000    0.000    0.000 
#
# Total GULP energy -156310.415642 kJ/mol
# GULP energy per Si atom -5582.514844 kJ/mol
# Density = 1.946179 g / cm^3
# Si number density = 19.506182 Si / 1000 Ang^3
#
#
#
# Elastic Constant Matrix: (Units=GPa)
#
#
# Indices 1 2 3 4 5 6 
#
# 1 92.3760 35.8663 35.3896 0.0000 -4.1036 0.0000
# 2 35.8663 42.1607 27.6640 0.0000 -3.2918 0.0000
# 3 35.3896 27.6640 91.8711 0.0000 7.1970 0.0000
# 4 0.0000 0.0000 0.0000 28.1244 0.0000 -0.3467
# 5 -4.1036 -3.2918 7.1970 0.0000 31.0215 0.0000
# 6 0.0000 0.0000 0.0000 -0.3467 0.0000 21.3255
#
#
#
# Elastic Compliance Matrix: (Units=1/GPa)
#
#
# Indices 1 2 3 4 5 6 
#
# 1 0.016753 -0.012227 -0.002896 0.000000 0.001591 0.000000
# 2 -0.012227 0.039364 -0.007479 0.000000 0.004295 0.000000
# 3 -0.002896 -0.007479 0.014610 0.000000 -0.004566 0.000000
# 4 0.000000 0.000000 0.000000 0.035563 0.000000 0.000578
# 5 0.001591 0.004295 -0.004566 0.000000 0.033961 0.000000
# 6 0.000000 0.000000 0.000000 0.000578 0.000000 0.046902
#
#
# Mechanical properties :
#
#
# Convention : Reuss Voigt Hill
#
# Bulk Modulus (GPa) = 39.18320 47.13862 43.16091
# Shear Modulus (GPa) = 20.75842 24.59349 22.67596
#
# Velocity S-wave (km/s) = 3.26574 3.55463 3.41325
# Velocity P-wave (km/s) = 5.86100 6.40825 6.14072
#
# Compressibility (1/GPa) = 0.02552114
#
# Stress axis : x y z
#
# Youngs Moduli (GPa) = 59.69108 25.40411 68.44460
#
# Poissons Ratio (x) = 0.31062 0.19822
# Poissons Ratio (y) = 0.72986 0.51193
# Poissons Ratio (z) = 0.17287 0.19001
#
# Static dielectric constant tensor:
#      x y z
#    x 1.674620 0.000000 0.012740 
#    y 0.000000 1.658470 0.000000 
#    z 0.012740 0.000000 1.705680 
# 
# From -- ./inp_files/68590.got.cif
#   From: 2010.05.17/outbox.cif.g08.bks.cpg/sg10_35_cif.got.tgz:68590.got - 2010.06.03 11:33:40.
