data_PCOD9152558
_publ_section_title
;
Structure prediction by ZEFSAII (Michael W. Deem and Ramdas Pophale) SiO2 
 PCOD9152558
Probable space group: P 2/M
;
_chemical_formula_sum "Si O2"
_cell_formula_units_Z 32
_cell_length_a 11.525189
_cell_length_b 27.431166
_cell_length_c 5.589851
_cell_angle_alpha 90.000000
_cell_angle_beta 65.478831
_cell_angle_gamma 90.000000
_cell_volume 1607.838056
_symmetry_space_group_name_H-M "P 2/M"
_symmetry_group_IT_number 10
_symmetry_cell_setting 'monoclinic'
loop_
_space_group_symop_operation_xyz
x,y,z
-x,y,-z
-x,-y,-z
x,-y,z
loop_
_atom_site_type_symbol
_atom_site_label
_atom_site_fract_x
_atom_site_fract_y
_atom_site_fract_z
Si Si1 0.388140 0.949209 0.785180
Si Si2 0.655027 0.557041 0.857580
Si Si3 0.310259 0.128441 0.143580
Si Si4 0.654074 0.394560 0.357300
Si Si5 0.647414 0.238118 0.848080
Si Si6 0.964352 0.144761 0.786322
Si Si7 0.836143 0.056267 0.384741
Si Si8 0.654624 0.720150 0.346334
O O1 0.500000 0.952761 0.500000
O O2 0.248811 0.947629 0.781539
O O3 0.389595 0.000000 0.928599
O O4 0.410487 0.898529 0.893726
O O5 0.686898 0.500000 0.811503
O O6 0.698553 0.584627 0.577374
O O7 0.500000 0.560913 0.000000
O O8 0.699257 0.578406 0.076281
O O9 0.350579 0.180322 0.205081
O O10 0.259553 0.086170 0.361979
O O11 0.185630 0.139228 0.091344
O O12 0.500000 0.400077 0.500000
O O13 0.679982 0.337263 0.305019
O O14 0.705667 0.261954 0.560391
O O15 0.500000 0.254354 0.000000
O O16 0.700675 0.252175 0.065714
O O17 0.042145 0.092670 0.725974
O O18 0.000000 0.167468 0.500000
O O19 0.000000 0.171004 0.000000
O O20 0.866730 0.000000 0.427492
O O21 0.500000 0.727380 0.500000
#
# Coordination Sequence:
#
# PCOD9152558 Si02
#       8
#     4   4   4   4   4   4   4   4
#     4  10  22  36  53  76 103 132 161 190 235 307
#     4   9  15  21  32  55  82 112 150 197 252 299
#     4  11  23  35  55  74 102 126 161 200 257 295
#     4   9  15  24  39  52  78 114 152 198 245 294
#     4  10  22  33  50  69  93 120 157 202 251 304
#     4  10  21  38  57  80 101 125 159 195 238 289
#     4  10  22  38  57  78 101 129 161 195 240 302
#     4   9  18  33  46  65  86 120 164 203 248 300
#
# _framework density 19.9025
#
# number of rings (size 3 to 8) (size 9 to 14) (size 15 to 20)
#    0.000    2.250    1.250    1.500    3.500    8.000 
#    0.000    1.875    0.000    0.000    0.000    0.000 
#    0.000    0.000    0.000    0.000    0.000    0.000 
#
# Total GULP energy -178170.710045 kJ/mol
# GULP energy per Si atom -5567.834689 kJ/mol
# Density = 1.985720 g / cm^3
# Si number density = 19.902500 Si / 1000 Ang^3
#
#
#
# Elastic Constant Matrix: (Units=GPa)
#
#
# Indices 1 2 3 4 5 6 
#
# 1 36.1872 -11.9255 8.9909 0.0000 15.3531 0.0000
# 2 -11.9255 78.9016 51.1813 0.0000 16.8841 0.0000
# 3 8.9909 51.1813 117.9553 0.0000 33.9288 0.0000
# 4 0.0000 0.0000 0.0000 28.9296 0.0000 18.1229
# 5 15.3531 16.8841 33.9288 0.0000 29.8013 0.0000
# 6 0.0000 0.0000 0.0000 18.1229 0.0000 14.6224
#
#
#
# Elastic Compliance Matrix: (Units=1/GPa)
#
#
# Indices 1 2 3 4 5 6 
#
# 1 0.045194 0.013771 -0.000712 0.000000 -0.030275 0.000000
# 2 0.013771 0.021908 -0.007352 0.000000 -0.011136 0.000000
# 3 -0.000712 -0.007352 0.015492 0.000000 -0.013105 0.000000
# 4 0.000000 0.000000 0.000000 0.154602 0.000000 -0.191612
# 5 -0.030275 -0.011136 -0.013105 0.000000 0.070382 0.000000
# 6 0.000000 0.000000 0.000000 -0.191612 0.000000 0.305871
#
#
# Mechanical properties :
#
#
# Convention : Reuss Voigt Hill
#
# Bulk Modulus (GPa) = 10.63755 36.61529 23.62642
# Shear Modulus (GPa) = 7.89429 26.99049 17.44239
#
# Velocity S-wave (km/s) = 1.99376 3.68657 2.96360
# Velocity P-wave (km/s) = 3.26444 6.04635 4.85875
#
# Compressibility (1/GPa) = 0.09400663
#
# Stress axis : x y z
#
# Youngs Moduli (GPa) = 22.12697 45.64617 64.54993
#
# Poissons Ratio (x) = -0.62859 0.04595
# Poissons Ratio (y) = -0.30471 0.47460
# Poissons Ratio (z) = 0.01575 0.33561
#
# Static dielectric constant tensor:
#      x y z
#    x 1.746660 0.000000 0.023420 
#    y 0.000000 1.698900 0.000000 
#    z 0.023420 0.000000 1.850520 
# 
# From -- ./inp_files/8081.got.cif
#   From: 2010.05.17/outbox.cif.g08.bks.cpg/sg10_5_cif.got.tgz:8081.got - 2010.06.03 11:33:40.
