data_PCOD9152132
_publ_section_title
;
Structure prediction by ZEFSAII (Michael W. Deem and Ramdas Pophale) SiO2 
 PCOD9152132
Probable space group: P 2/M
;
_chemical_formula_sum "Si O2"
_cell_formula_units_Z 32
_cell_length_a 20.916568
_cell_length_b 14.405799
_cell_length_c 8.215539
_cell_angle_alpha 90.000000
_cell_angle_beta 145.756859
_cell_angle_gamma 90.000000
_cell_volume 1392.981545
_symmetry_space_group_name_H-M "P 2/M"
_symmetry_group_IT_number 10
_symmetry_cell_setting 'monoclinic'
loop_
_space_group_symop_operation_xyz
x,y,z
-x,y,-z
-x,-y,-z
x,-y,z
loop_
_atom_site_type_symbol
_atom_site_label
_atom_site_fract_x
_atom_site_fract_y
_atom_site_fract_z
Si Si1 0.724589 0.397833 0.626957
Si Si2 0.126840 0.357848 0.764531
Si Si3 0.269923 0.731599 0.807136
Si Si4 0.659219 0.896571 0.808835
Si Si5 0.517322 0.611317 0.732036
Si Si6 0.899892 0.854517 0.174704
Si Si7 0.407437 0.110616 0.672191
Si Si8 0.819805 0.787858 0.697284
O O1 0.721308 0.500000 0.542588
O O2 0.597136 0.367374 0.407094
O O3 0.800036 0.321331 0.694073
O O4 0.787271 0.405173 0.932493
O O5 0.188891 0.343026 0.724956
O O6 0.115284 0.252333 0.804186
O O7 0.000000 0.396600 0.500000
O O8 0.188264 0.788005 0.512743
O O9 0.323670 0.810941 0.035378
O O10 0.378317 0.671422 0.978549
O O11 0.572331 0.874053 0.478034
O O12 0.636552 0.000000 0.829776
O O13 0.782130 0.901779 0.976629
O O14 0.500000 0.630567 0.500000
O O15 0.536826 0.500000 0.786068
O O16 0.000000 0.891608 0.500000
O O17 0.911233 0.841376 0.002527
O O18 0.296197 0.165322 0.487840
O O19 0.390020 0.000000 0.651411
O O20 0.500000 0.137483 0.000000
#
# Coordination Sequence:
#
# PCOD9152132 Si02
#       8
#     4   4   4   4   4   4   4   4
#     4  10  21  39  59  84 118 159 204 243 293 361
#     4   9  18  36  58  81 112 156 204 246 298 354
#     4  11  22  35  58  90 124 158 197 251 302 361
#     4   9  19  36  57  84 119 157 201 244 288 353
#     4  10  21  36  58  87 120 158 201 246 295 358
#     4   8  16  35  58  80 108 151 199 243 300 354
#     4   9  19  36  57  81 116 162 203 239 289 353
#     4  10  22  35  58  88 119 155 196 251 298 359
#
# _framework density 22.972307000000001
#
# number of rings (size 3 to 8) (size 9 to 14) (size 15 to 20)
#    0.000    2.500    1.250    0.750    1.750    1.500 
#    0.000   11.250    0.000    4.125    0.000    0.000 
#    0.000    0.000    0.000    0.000    0.000    0.000 
#
# Total GULP energy -178434.989258 kJ/mol
# GULP energy per Si atom -5576.093414 kJ/mol
# Density = 2.292002 g / cm^3
# Si number density = 22.972307 Si / 1000 Ang^3
#
#
#
# Elastic Constant Matrix: (Units=GPa)
#
#
# Indices 1 2 3 4 5 6 
#
# 1 22.5371 18.6227 26.4216 0.0000 3.8664 0.0000
# 2 18.6227 64.4603 30.8652 0.0000 -1.0159 0.0000
# 3 26.4216 30.8652 127.8200 0.0000 -1.3537 0.0000
# 4 0.0000 0.0000 0.0000 15.8164 0.0000 -4.4358
# 5 3.8664 -1.0159 -1.3537 0.0000 35.4323 0.0000
# 6 0.0000 0.0000 0.0000 -4.4358 0.0000 15.5279
#
#
#
# Elastic Compliance Matrix: (Units=1/GPa)
#
#
# Indices 1 2 3 4 5 6 
#
# 1 0.071810 -0.015527 -0.011187 0.000000 -0.008709 0.000000
# 2 -0.015527 0.020903 -0.001814 0.000000 0.002224 0.000000
# 3 -0.011187 -0.001814 0.010591 0.000000 0.001573 0.000000
# 4 0.000000 0.000000 0.000000 0.068732 0.000000 0.019634
# 5 -0.008709 0.002224 0.001573 0.000000 0.029297 0.000000
# 6 0.000000 0.000000 0.000000 0.019634 0.000000 0.070009
#
#
# Mechanical properties :
#
#
# Convention : Reuss Voigt Hill
#
# Bulk Modulus (GPa) = 21.62260 40.73738 31.17999
# Shear Modulus (GPa) = 14.54271 22.61583 18.57927
#
# Velocity S-wave (km/s) = 2.51879 3.14105 2.84697
# Velocity P-wave (km/s) = 4.22989 5.56118 4.94058
#
# Compressibility (1/GPa) = 0.04624791
#
# Stress axis : x y z
#
# Youngs Moduli (GPa) = 13.92555 47.83992 94.42244
#
# Poissons Ratio (x) = 0.74281 1.05628
# Poissons Ratio (y) = 0.21622 0.17132
# Poissons Ratio (z) = 0.15578 0.08680
#
# Static dielectric constant tensor:
#      x y z
#    x 1.942230 0.000000 -0.054130 
#    y 0.000000 1.867230 0.000000 
#    z -0.054130 0.000000 1.946610 
# 
# From -- ./inp_files/36400.got.cif
#   From: 2010.05.17/outbox.cif.g08.bks.cpg/sg10_19_cif.got.tgz:36400.got - 2010.06.03 11:33:40.
