data_PCOD9152489
_publ_section_title
;
Structure prediction by ZEFSAII (Michael W. Deem and Ramdas Pophale) SiO2 
 PCOD9152489
Probable space group: P 2/M
;
_chemical_formula_sum "Si O2"
_cell_formula_units_Z 28
_cell_length_a 7.475650
_cell_length_b 13.984802
_cell_length_c 19.352874
_cell_angle_alpha 90.000000
_cell_angle_beta 33.903541
_cell_angle_gamma 90.000000
_cell_volume 1128.564699
_symmetry_space_group_name_H-M "P 2/M"
_symmetry_group_IT_number 10
_symmetry_cell_setting 'monoclinic'
loop_
_space_group_symop_operation_xyz
x,y,z
-x,y,-z
-x,-y,-z
x,-y,z
loop_
_atom_site_type_symbol
_atom_site_label
_atom_site_fract_x
_atom_site_fract_y
_atom_site_fract_z
Si Si1 0.387751 0.385117 0.961527
Si Si2 0.727977 0.391388 0.230744
Si Si3 0.221936 0.800415 0.711844
Si Si4 0.803586 0.110403 0.956566
Si Si5 0.095445 0.219059 0.545849
Si Si6 0.847935 0.609275 0.690599
Si Si7 0.309462 0.884757 0.220639
O O1 0.425301 0.500000 0.949615
O O2 0.622965 0.355035 0.825530
O O3 0.500000 0.346065 0.000000
O O4 0.007599 0.369713 0.084676
O O5 0.788170 0.500000 0.236778
O O6 0.751442 0.313489 0.283295
O O7 0.394896 0.390720 0.297002
O O8 0.565002 0.832109 0.572249
O O9 0.098972 0.837693 0.825785
O O10 0.961660 0.842246 0.743209
O O11 0.895095 0.000000 0.935700
O O12 0.500000 0.113443 0.000000
O O13 0.649103 0.145266 0.078016
O O14 0.000000 0.248942 0.500000
O O15 0.113802 0.313061 0.587653
O O16 0.808132 0.155448 0.668822
O O17 0.954631 0.500000 0.667508
O O18 0.303034 0.000000 0.221235
#
# Coordination Sequence:
#
# PCOD9152489 Si02
#       7
#     4   4   4   4   4   4   4
#     4   9  19  35  60  96 128 166 226 284 329 377
#     4  10  21  37  61  94 135 181 224 265 325 388
#     4  11  22  39  67 100 131 171 217 278 323 394
#     4   8  17  38  69  99 121 154 209 266 333 402
#     4  12  26  43  61  99 134 176 230 268 323 392
#     4  10  22  42  65  88 135 192 227 266 324 391
#     4  10  24  47  73  97 129 170 215 273 346 412
#
# _framework density 24.810275000000001
#
# number of rings (size 3 to 8) (size 9 to 14) (size 15 to 20)
#    0.000    2.000    1.429    2.143    4.000    5.143 
#    0.000    0.714    0.000    3.429    0.000    0.000 
#    0.000    0.000    0.000    0.000    0.000    0.000 
#
# Total GULP energy -156616.382400 kJ/mol
# GULP energy per Si atom -5593.442229 kJ/mol
# Density = 2.475381 g / cm^3
# Si number density = 24.810275 Si / 1000 Ang^3
#
#
#
# Elastic Constant Matrix: (Units=GPa)
#
#
# Indices 1 2 3 4 5 6 
#
# 1 39.6064 5.9806 36.4152 0.0000 4.2977 0.0000
# 2 5.9806 111.5896 57.3910 0.0000 17.3503 0.0000
# 3 36.4152 57.3910 191.5905 0.0000 11.8928 0.0000
# 4 0.0000 0.0000 0.0000 25.0612 0.0000 2.0643
# 5 4.2977 17.3503 11.8928 0.0000 42.8496 0.0000
# 6 0.0000 0.0000 0.0000 2.0643 0.0000 10.8916
#
#
#
# Elastic Compliance Matrix: (Units=1/GPa)
#
#
# Indices 1 2 3 4 5 6 
#
# 1 0.031019 0.001931 -0.006342 0.000000 -0.002133 0.000000
# 2 0.001931 0.011246 -0.003501 0.000000 -0.003775 0.000000
# 3 -0.006342 -0.003501 0.007475 0.000000 -0.000021 0.000000
# 4 0.000000 0.000000 0.000000 0.040535 0.000000 -0.007683
# 5 -0.002133 -0.003775 -0.000021 0.000000 0.025086 0.000000
# 6 0.000000 0.000000 0.000000 -0.007683 0.000000 0.093270
#
#
# Mechanical properties :
#
#
# Convention : Reuss Voigt Hill
#
# Bulk Modulus (GPa) = 29.48538 60.26223 44.87381
# Shear Modulus (GPa) = 21.20802 31.96047 26.58425
#
# Velocity S-wave (km/s) = 2.92688 3.59304 3.27693
# Velocity P-wave (km/s) = 4.83035 6.44633 5.69594
#
# Compressibility (1/GPa) = 0.03391511
#
# Stress axis : x y z
#
# Youngs Moduli (GPa) = 32.23831 88.92337 133.78090
#
# Poissons Ratio (x) = -0.17168 0.84839
# Poissons Ratio (y) = -0.06224 0.46840
# Poissons Ratio (z) = 0.20444 0.31134
#
# Static dielectric constant tensor:
#      x y z
#    x 2.020290 0.000000 -0.006040 
#    y 0.000000 1.967380 0.000000 
#    z -0.006040 0.000000 1.997450 
# 
# From -- ./inp_files/82890.got.cif
#   From: 2010.05.17/outbox.cif.g08.bks.cpg/sg10_42_cif.got.tgz:82890.got - 2010.06.03 11:33:40.
