data_PCOD9152908
_publ_section_title
;
Structure prediction by ZEFSAII (Michael W. Deem and Ramdas Pophale) SiO2 
 PCOD9152908
Probable space group: P 2/M
;
_chemical_formula_sum "Si O2"
_cell_formula_units_Z 28
_cell_length_a 16.232664
_cell_length_b 14.161905
_cell_length_c 8.674508
_cell_angle_alpha 90.000000
_cell_angle_beta 47.346766
_cell_angle_gamma 90.000000
_cell_volume 1466.628221
_symmetry_space_group_name_H-M "P 2/M"
_symmetry_group_IT_number 10
_symmetry_cell_setting 'monoclinic'
loop_
_space_group_symop_operation_xyz
x,y,z
-x,y,-z
-x,-y,-z
x,-y,z
loop_
_atom_site_type_symbol
_atom_site_label
_atom_site_fract_x
_atom_site_fract_y
_atom_site_fract_z
Si Si1 0.561671 0.892097 0.770700
Si Si2 0.233265 0.782430 0.017721
Si Si3 0.795957 0.892401 0.631116
Si Si4 0.603678 0.242628 0.450826
Si Si5 0.378890 0.610115 0.339833
Si Si6 0.350783 0.610902 0.022304
Si Si7 0.019951 0.113009 0.158047
O O1 0.692790 0.890978 0.643838
O O2 0.547619 0.831833 0.637226
O O3 0.522669 0.000000 0.800705
O O4 0.500000 0.852324 0.000000
O O5 0.238602 0.834968 0.174586
O O6 0.273729 0.676595 0.013214
O O7 0.114479 0.815519 0.099534
O O8 0.319144 0.807369 0.772088
O O9 0.908302 0.865506 0.398520
O O10 0.811876 0.000000 0.663402
O O11 0.500000 0.293568 0.500000
O O12 0.667797 0.318577 0.474079
O O13 0.358510 0.500000 0.398381
O O14 0.333355 0.631472 0.226655
O O15 0.514510 0.624207 0.167628
O O16 0.328913 0.500000 0.023690
O O17 0.047510 0.000000 0.146790
O O18 0.000000 0.124266 0.000000
#
# Coordination Sequence:
#
# PCOD9152908 Si02
#       7
#     4   4   4   4   4   4   4
#     4  10  22  38  55  77 115 161 194 228 284 352
#     4  12  22  34  57  90 117 147 192 245 298 345
#     4  10  21  39  61  83 110 151 198 243 289 340
#     4  12  23  32  51  84 120 153 187 235 288 348
#     4   9  19  37  58  81 115 157 196 238 290 345
#     4   9  19  36  59  84 113 153 196 238 289 353
#     4  10  22  41  63  86 113 149 200 254 293 333
#
# _framework density 19.091408999999999
#
# number of rings (size 3 to 8) (size 9 to 14) (size 15 to 20)
#    0.000    1.714    1.429    4.286    2.000    4.571 
#    0.000    0.000    0.000    2.143    0.000    0.000 
#    0.000    0.000    0.000    0.000    0.000    0.000 
#
# Total GULP energy -156178.809233 kJ/mol
# GULP energy per Si atom -5577.814615 kJ/mol
# Density = 1.904796 g / cm^3
# Si number density = 19.091409 Si / 1000 Ang^3
#
#
#
# Elastic Constant Matrix: (Units=GPa)
#
#
# Indices 1 2 3 4 5 6 
#
# 1 74.2053 37.0843 21.2054 0.0000 3.7043 0.0000
# 2 37.0843 71.2418 36.4626 0.0000 12.6391 0.0000
# 3 21.2054 36.4626 109.9725 0.0000 10.9367 0.0000
# 4 0.0000 0.0000 0.0000 -10.6804 0.0000 -7.2780
# 5 3.7043 12.6391 10.9367 0.0000 34.1839 0.0000
# 6 0.0000 0.0000 0.0000 -7.2780 0.0000 32.5423
#
#
#
# Elastic Compliance Matrix: (Units=1/GPa)
#
#
# Indices 1 2 3 4 5 6 
#
# 1 0.018326 -0.009574 -0.000531 0.000000 0.001724 0.000000
# 2 -0.009574 0.022639 -0.005093 0.000000 -0.005704 0.000000
# 3 -0.000531 -0.005093 0.011043 0.000000 -0.001592 0.000000
# 4 0.000000 0.000000 0.000000 -0.081247 0.000000 -0.018171
# 5 0.001724 -0.005704 -0.001592 0.000000 0.031685 0.000000
# 6 0.000000 0.000000 0.000000 -0.018171 0.000000 0.026665
#
#
# Mechanical properties :
#
#
# Convention : Reuss Voigt Hill
#
# Bulk Modulus (GPa) = 46.26936 49.43603 47.85269
# Shear Modulus (GPa) = 74.95183 21.92031 48.43607
#
# Velocity S-wave (km/s) = 6.27253 3.39215 5.04239
# Velocity P-wave (km/s) = 8.76059 6.42595 7.68247
#
# Compressibility (1/GPa) = 0.02161257
#
# Stress axis : x y z
#
# Youngs Moduli (GPa) = 54.56652 44.17220 90.55912
#
# Poissons Ratio (x) = 0.42289 0.04808
# Poissons Ratio (y) = 0.52240 0.46120
# Poissons Ratio (z) = 0.02897 0.22496
#
# Static dielectric constant tensor:
#      x y z
#    x 1.684000 0.000000 0.014960 
#    y 0.000000 1.683870 0.000000 
#    z 0.014960 0.000000 1.686360 
# 
# From -- ./inp_files/29407.got.cif
#   From: 2010.05.17/outbox.cif.g08.bks.cpg/sg10_15_cif.got.tgz:29407.got - 2010.06.03 11:33:40.
