data_PCOD9152077
_publ_section_title
;
Structure prediction by ZEFSAII (Michael W. Deem and Ramdas Pophale) SiO2 
 PCOD9152077
Probable space group: P 2/M
;
_chemical_formula_sum "Si O2"
_cell_formula_units_Z 32
_cell_length_a 25.110112
_cell_length_b 8.959413
_cell_length_c 14.572595
_cell_angle_alpha 90.000000
_cell_angle_beta 150.184369
_cell_angle_gamma 90.000000
_cell_volume 1630.067355
_symmetry_space_group_name_H-M "P 2/M"
_symmetry_group_IT_number 10
_symmetry_cell_setting 'monoclinic'
loop_
_space_group_symop_operation_xyz
x,y,z
-x,y,-z
-x,-y,-z
x,-y,z
loop_
_atom_site_type_symbol
_atom_site_label
_atom_site_fract_x
_atom_site_fract_y
_atom_site_fract_z
Si Si1 0.112842 0.329839 0.220324
Si Si2 0.787031 0.675997 0.339963
Si Si3 0.402931 0.180182 0.422580
Si Si4 0.615631 0.176513 0.219034
Si Si5 0.046874 0.172158 0.296137
Si Si6 0.120269 0.679945 0.709386
Si Si7 0.814518 0.822467 0.000852
Si Si8 0.650142 0.323983 0.469373
O O1 0.122236 0.500000 0.272473
O O2 0.106341 0.210399 0.291268
O O3 0.221001 0.304184 0.325445
O O4 0.000000 0.322399 0.000000
O O5 0.767563 0.500000 0.317332
O O6 0.702370 0.760476 0.276816
O O7 0.902811 0.717567 0.554526
O O8 0.796887 0.719768 0.248336
O O9 0.500000 0.220569 0.500000
O O10 0.408402 0.248220 0.532396
O O11 0.400940 0.000000 0.428047
O O12 0.292462 0.230516 0.209035
O O13 0.623543 0.255537 0.329911
O O14 0.632640 0.000000 0.257063
O O15 0.500000 0.200444 0.000000
O O16 0.920641 0.199705 0.098177
O O17 0.063018 0.000000 0.347242
O O18 0.117116 0.500000 0.711199
O O19 0.159162 0.747360 0.862920
O O20 0.000000 0.729466 0.500000
O O21 0.803036 0.000000 0.998825
O O22 0.627433 0.500000 0.433919
#
# Coordination Sequence:
#
# PCOD9152077 Si02
#       8
#     4   4   4   4   4   4   4   4
#     4  10  21  36  56  86 122 160 199 243 303 370
#     4  11  22  38  60  87 121 160 202 249 303 362
#     4  10  23  44  66  88 121 165 210 258 309 360
#     4  11  25  44  66  92 124 164 206 251 305 363
#     4  11  21  33  55  86 120 157 197 248 307 363
#     4  10  21  37  58  86 122 164 204 248 308 371
#     4  10  22  38  59  90 123 160 209 259 307 363
#     4  11  23  40  65  94 124 161 203 253 306 360
#
# _framework density 19.631091000000001
#
# number of rings (size 3 to 8) (size 9 to 14) (size 15 to 20)
#    0.000    1.500    2.500    2.250    0.000    5.250 
#    0.000    3.750    0.000    0.000    0.000    0.000 
#    0.000    0.000    0.000    0.000    0.000    0.000 
#
# Total GULP energy -178702.337646 kJ/mol
# GULP energy per Si atom -5584.448051 kJ/mol
# Density = 1.958641 g / cm^3
# Si number density = 19.631091 Si / 1000 Ang^3
#
#
#
# Elastic Constant Matrix: (Units=GPa)
#
#
# Indices 1 2 3 4 5 6 
#
# 1 151.5293 53.3946 42.0190 0.0000 3.8723 0.0000
# 2 53.3946 40.5950 32.6592 0.0000 3.4351 0.0000
# 3 42.0190 32.6592 70.0770 0.0000 6.1355 0.0000
# 4 0.0000 0.0000 0.0000 26.9278 0.0000 -3.5427
# 5 3.8723 3.4351 6.1355 0.0000 25.5996 0.0000
# 6 0.0000 0.0000 0.0000 -3.5427 0.0000 33.3949
#
#
#
# Elastic Compliance Matrix: (Units=1/GPa)
#
#
# Indices 1 2 3 4 5 6 
#
# 1 0.012305 -0.016403 0.000242 0.000000 0.000282 0.000000
# 2 -0.016403 0.061297 -0.018619 0.000000 -0.001281 0.000000
# 3 0.000242 -0.018619 0.023071 0.000000 -0.003068 0.000000
# 4 0.000000 0.000000 0.000000 0.037662 0.000000 0.003995
# 5 0.000282 -0.001281 -0.003068 0.000000 0.039928 0.000000
# 6 0.000000 0.000000 0.000000 0.003995 0.000000 0.030369
#
#
# Mechanical properties :
#
#
# Convention : Reuss Voigt Hill
#
# Bulk Modulus (GPa) = 36.88511 57.59409 47.23960
# Shear Modulus (GPa) = 17.65344 26.12635 21.88990
#
# Velocity S-wave (km/s) = 3.00202 3.65206 3.34288
# Velocity P-wave (km/s) = 5.55392 6.86916 6.24625
#
# Compressibility (1/GPa) = 0.02711121
#
# Stress axis : x y z
#
# Youngs Moduli (GPa) = 81.26610 16.31402 43.34411
#
# Poissons Ratio (x) = 0.26761 -0.01048
# Poissons Ratio (y) = 1.33304 0.80704
# Poissons Ratio (z) = -0.01964 0.30376
#
# Static dielectric constant tensor:
#      x y z
#    x 1.685030 0.000000 0.012400 
#    y 0.000000 1.664160 0.000000 
#    z 0.012400 0.000000 1.703700 
# 
# From -- ./inp_files/71577.got.cif
#   From: 2010.05.17/outbox.cif.g08.bks.cpg/sg10_36_cif.got.tgz:71577.got - 2010.06.03 11:33:40.
