data_PCOD9152052
_publ_section_title
;
Structure prediction by ZEFSAII (Michael W. Deem and Ramdas Pophale) SiO2 
 PCOD9152052
Probable space group: P 2/M
;
_chemical_formula_sum "Si O2"
_cell_formula_units_Z 24
_cell_length_a 21.303817
_cell_length_b 10.070139
_cell_length_c 10.894443
_cell_angle_alpha 90.000000
_cell_angle_beta 146.621256
_cell_angle_gamma 90.000000
_cell_volume 1285.865669
_symmetry_space_group_name_H-M "P 2/M"
_symmetry_group_IT_number 10
_symmetry_cell_setting 'monoclinic'
loop_
_space_group_symop_operation_xyz
x,y,z
-x,y,-z
-x,-y,-z
x,-y,z
loop_
_atom_site_type_symbol
_atom_site_label
_atom_site_fract_x
_atom_site_fract_y
_atom_site_fract_z
Si Si1 0.316561 0.156428 0.907998
Si Si2 0.868481 0.653875 0.779284
Si Si3 0.448675 0.844127 0.597356
Si Si4 0.693736 0.848033 0.385525
Si Si5 0.729462 0.652383 0.805800
Si Si6 0.134913 0.343684 0.720305
O O1 0.356609 0.170292 0.832185
O O2 0.207232 0.247541 0.751399
O O3 0.291703 0.000000 0.887204
O O4 0.419933 0.194367 0.167374
O O5 0.863026 0.500000 0.731124
O O6 0.796194 0.746606 0.572832
O O7 0.810449 0.663524 0.818386
O O8 0.000000 0.693437 0.000000
O O9 0.391616 0.830976 0.639702
O O10 0.374381 0.753518 0.386020
O O11 0.442600 0.000000 0.553188
O O12 0.735528 0.000000 0.460267
O O13 0.687108 0.500000 0.742294
O O14 0.807385 0.676096 0.051876
O O15 0.147991 0.500000 0.709121
O O16 0.000000 0.314485 0.500000
#
# Coordination Sequence:
#
# PCOD9152052 Si02
#       6
#     4   4   4   4   4   4
#     4  10  21  36  56  82 110 142 180 221 265 315
#     4   9  18  31  52  78 104 138 177 220 266 313
#     4   9  18  35  58  82 109 141 175 216 271 325
#     4   9  18  33  53  80 111 140 172 215 267 320
#     4   9  19  36  54  77 107 138 178 225 268 313
#     4  10  23  40  57  76 105 146 185 221 265 318
#
# _framework density 18.664467999999999
#
# number of rings (size 3 to 8) (size 9 to 14) (size 15 to 20)
#    0.000    2.667    0.000    0.500    2.333    5.333 
#    0.000    3.333    0.000    5.000    0.000    0.000 
#    0.000    0.000    0.000    0.000    0.000    0.000 
#
# Total GULP energy -133882.592582 kJ/mol
# GULP energy per Si atom -5578.441358 kJ/mol
# Density = 1.862199 g / cm^3
# Si number density = 18.664468 Si / 1000 Ang^3
#
#
#
# Elastic Constant Matrix: (Units=GPa)
#
#
# Indices 1 2 3 4 5 6 
#
# 1 49.6424 33.4521 37.9463 0.0000 -1.9613 0.0000
# 2 33.4521 54.2562 63.9266 0.0000 5.9114 0.0000
# 3 37.9463 63.9266 111.3463 0.0000 8.1758 0.0000
# 4 0.0000 0.0000 0.0000 31.2813 0.0000 0.8256
# 5 -1.9613 5.9114 8.1758 0.0000 31.4907 0.0000
# 6 0.0000 0.0000 0.0000 0.8256 0.0000 22.2684
#
#
#
# Elastic Compliance Matrix: (Units=1/GPa)
#
#
# Indices 1 2 3 4 5 6 
#
# 1 0.035772 -0.024221 0.001241 0.000000 0.006452 0.000000
# 2 -0.024221 0.073522 -0.033470 0.000000 -0.006620 0.000000
# 3 0.001241 -0.033470 0.027838 0.000000 -0.000867 0.000000
# 4 0.000000 0.000000 0.000000 0.031999 0.000000 -0.001186
# 5 0.006452 -0.006620 -0.000867 0.000000 0.033625 0.000000
# 6 0.000000 0.000000 0.000000 -0.001186 0.000000 0.044951
#
#
# Mechanical properties :
#
#
# Convention : Reuss Voigt Hill
#
# Bulk Modulus (GPa) = 41.26844 53.98832 47.62838
# Shear Modulus (GPa) = 13.56180 22.33607 17.94893
#
# Velocity S-wave (km/s) = 2.69850 3.46311 3.10443
# Velocity P-wave (km/s) = 5.64516 6.70667 6.19868
#
# Compressibility (1/GPa) = 0.02423159
#
# Stress axis : x y z
#
# Youngs Moduli (GPa) = 27.95506 13.60146 35.92243
#
# Poissons Ratio (x) = 0.32943 -0.04458
# Poissons Ratio (y) = 0.67709 1.20233
# Poissons Ratio (z) = -0.03469 0.45524
#
# Static dielectric constant tensor:
#      x y z
#    x 1.667960 0.000000 -0.023210 
#    y 0.000000 1.625000 0.000000 
#    z -0.023210 0.000000 1.617190 
# 
# From -- ./inp_files/45304.got.cif
#   From: 2010.05.17/outbox.cif.g08.bks.cpg/sg10_23_cif.got.tgz:45304.got - 2010.06.03 11:33:40.
