data_PCOD9152100
_publ_section_title
;
Structure prediction by ZEFSAII (Michael W. Deem and Ramdas Pophale) SiO2 
 PCOD9152100
Probable space group: P 2/M
;
_chemical_formula_sum "Si O2"
_cell_formula_units_Z 32
_cell_length_a 23.483442
_cell_length_b 7.802831
_cell_length_c 15.313385
_cell_angle_alpha 90.000000
_cell_angle_beta 149.549659
_cell_angle_gamma 90.000000
_cell_volume 1422.048407
_symmetry_space_group_name_H-M "P 2/M"
_symmetry_group_IT_number 10
_symmetry_cell_setting 'monoclinic'
loop_
_space_group_symop_operation_xyz
x,y,z
-x,y,-z
-x,-y,-z
x,-y,z
loop_
_atom_site_type_symbol
_atom_site_label
_atom_site_fract_x
_atom_site_fract_y
_atom_site_fract_z
Si Si1 0.173539 0.291812 0.181035
Si Si2 0.168064 0.790595 0.672208
Si Si3 0.575401 0.291173 0.519371
Si Si4 0.073424 0.793077 0.724828
Si Si5 0.003777 0.300714 0.813616
Si Si6 0.403482 0.197287 0.932157
Si Si7 0.469387 0.303460 0.736305
Si Si8 0.227439 0.807243 0.447334
O O1 0.167750 0.500000 0.178247
O O2 0.293800 0.244687 0.298405
O O3 0.178205 0.224043 0.285292
O O4 0.071565 0.230538 0.986416
O O5 0.159561 0.739460 0.762998
O O6 0.279166 0.725875 0.771189
O O7 0.050600 0.741388 0.473261
O O8 0.171503 0.000000 0.676001
O O9 0.500000 0.230721 0.500000
O O10 0.571163 0.500000 0.512419
O O11 0.536709 0.236326 0.371225
O O12 0.082365 0.720471 0.833240
O O13 0.075992 0.000000 0.733678
O O14 0.982147 0.500000 0.801601
O O15 0.881185 0.220746 0.636328
O O16 0.609399 0.000000 0.114953
O O17 0.500000 0.279243 0.000000
O O18 0.548292 0.202009 0.906174
O O19 0.508120 0.500000 0.785678
O O20 0.340977 0.301043 0.602739
O O21 0.267175 0.000000 0.510331
#
# Coordination Sequence:
#
# PCOD9152100 Si02
#       8
#     4   4   4   4   4   4   4   4
#     4   9  19  35  52  75 111 147 179 222 276 326
#     4   8  17  36  57  78 109 147 188 235 280 327
#     4   8  15  31  55  78 103 142 185 220 264 330
#     4   9  18  35  58  79 105 148 194 230 275 332
#     4  11  22  34  52  81 113 143 180 229 281 331
#     4  10  21  36  57  84 114 149 193 237 282 335
#     4  10  21  37  56  82 114 146 184 231 286 338
#     4  11  22  36  56  78 107 145 186 227 273 334
#
# _framework density 22.502751
#
# number of rings (size 3 to 8) (size 9 to 14) (size 15 to 20)
#    0.000    2.500    0.000    3.750    1.750    3.750 
#    0.000    3.750    0.000    9.375    0.000    0.000 
#    0.000    0.000    0.000    0.000    0.000    0.000 
#
# Total GULP energy -178675.256341 kJ/mol
# GULP energy per Si atom -5583.601761 kJ/mol
# Density = 2.245153 g / cm^3
# Si number density = 22.502751 Si / 1000 Ang^3
#
#
#
# Elastic Constant Matrix: (Units=GPa)
#
#
# Indices 1 2 3 4 5 6 
#
# 1 96.9302 -2.2505 11.0555 0.0000 25.4031 0.0000
# 2 -2.2505 37.2416 -3.5248 0.0000 3.0674 0.0000
# 3 11.0555 -3.5248 52.3703 0.0000 5.9153 0.0000
# 4 0.0000 0.0000 0.0000 11.6832 0.0000 -6.0546
# 5 25.4031 3.0674 5.9153 0.0000 30.9433 0.0000
# 6 0.0000 0.0000 0.0000 -6.0546 0.0000 11.7152
#
#
#
# Elastic Compliance Matrix: (Units=1/GPa)
#
#
# Indices 1 2 3 4 5 6 
#
# 1 0.013364 0.001559 -0.001492 0.000000 -0.010841 0.000000
# 2 0.001559 0.027499 0.002018 0.000000 -0.004392 0.000000
# 3 -0.001492 0.002018 0.019859 0.000000 -0.002772 0.000000
# 4 0.000000 0.000000 0.000000 0.116903 0.000000 0.060417
# 5 -0.010841 -0.004392 -0.002772 0.000000 0.042182 0.000000
# 6 0.000000 0.000000 0.000000 0.060417 0.000000 0.116583
#
#
# Mechanical properties :
#
#
# Convention : Reuss Voigt Hill
#
# Bulk Modulus (GPa) = 15.41030 21.90029 18.65529
# Shear Modulus (GPa) = 14.13029 22.95247 18.54138
#
# Velocity S-wave (km/s) = 2.50858 3.19719 2.87359
# Velocity P-wave (km/s) = 3.90560 4.83557 4.39525
#
# Compressibility (1/GPa) = 0.06489167
#
# Stress axis : x y z
#
# Youngs Moduli (GPa) = 74.82694 36.36553 50.35609
#
# Poissons Ratio (x) = -0.05670 0.07512
# Poissons Ratio (y) = -0.11668 -0.10160
# Poissons Ratio (z) = 0.11163 -0.07337
#
# Static dielectric constant tensor:
#      x y z
#    x 1.868000 0.000000 0.010390 
#    y 0.000000 1.814880 0.000000 
#    z 0.010390 0.000000 1.814730 
# 
# From -- ./inp_files/71593.got.cif
#   From: 2010.05.17/outbox.cif.g08.bks.cpg/sg10_36_cif.got.tgz:71593.got - 2010.06.03 11:33:40.
