data_PCOD9152821
_publ_section_title
;
Structure prediction by ZEFSAII (Michael W. Deem and Ramdas Pophale) SiO2 
 PCOD9152821
Probable space group: P 2/M
;
_chemical_formula_sum "Si O2"
_cell_formula_units_Z 20
_cell_length_a 11.703596
_cell_length_b 10.852019
_cell_length_c 16.067048
_cell_angle_alpha 90.000000
_cell_angle_beta 157.719416
_cell_angle_gamma 90.000000
_cell_volume 773.692795
_symmetry_space_group_name_H-M "P 2/M"
_symmetry_group_IT_number 10
_symmetry_cell_setting 'monoclinic'
loop_
_space_group_symop_operation_xyz
x,y,z
-x,y,-z
-x,-y,-z
x,-y,z
loop_
_atom_site_type_symbol
_atom_site_label
_atom_site_fract_x
_atom_site_fract_y
_atom_site_fract_z
Si Si1 0.225972 0.362510 0.231079
Si Si2 0.666148 0.125021 0.023765
Si Si3 0.638593 0.855890 0.452366
Si Si4 0.785520 0.371440 0.090504
Si Si5 0.861106 0.360869 0.497544
O O1 0.375977 0.500000 0.327229
O O2 0.419646 0.236817 0.355773
O O3 0.044371 0.366548 0.195118
O O4 0.000000 0.357252 0.000000
O O5 0.583150 0.255979 0.933714
O O6 0.027684 0.130751 0.281629
O O7 0.590999 0.000000 0.925696
O O8 0.500000 0.118782 0.000000
O O9 0.688501 0.766233 0.406214
O O10 0.535828 0.000000 0.372356
O O11 0.622506 0.500000 0.973571
O O12 0.909140 0.364005 0.267795
O O13 0.717211 0.500000 0.406062
O O14 0.000000 0.352829 0.500000
#
# Coordination Sequence:
#
# PCOD9152821 Si02
#       5
#     4   4   4   4   4
#     4  10  22  42  64  87 123 165 209 263 316 365
#     4   9  19  37  59  87 125 164 198 244 309 376
#     4  10  21  38  63  93 124 161 207 258 311 374
#     4   9  19  37  62  91 118 155 207 258 307 369
#     4   9  18  35  59  88 122 159 198 248 310 373
#
# _framework density 25.850052999999999
#
# number of rings (size 3 to 8) (size 9 to 14) (size 15 to 20)
#    0.000    2.600    0.000    0.600    0.000    6.000 
#    7.200   14.000    0.000    0.000    0.000    0.000 
#    0.000    0.000    0.000    0.000    0.000    0.000 
#
# Total GULP energy -111498.030757 kJ/mol
# GULP energy per Si atom -5574.901538 kJ/mol
# Density = 2.579122 g / cm^3
# Si number density = 25.850053 Si / 1000 Ang^3
#
#
#
# Elastic Constant Matrix: (Units=GPa)
#
#
# Indices 1 2 3 4 5 6 
#
# 1 160.1546 68.7776 34.8018 0.0000 -19.0939 0.0000
# 2 68.7776 361.2234 20.3714 0.0000 9.8633 0.0000
# 3 34.8018 20.3714 125.8057 0.0000 -27.8735 0.0000
# 4 0.0000 0.0000 0.0000 -117.6177 0.0000 -102.6648
# 5 -19.0939 9.8633 -27.8735 0.0000 38.6173 0.0000
# 6 0.0000 0.0000 0.0000 -102.6648 0.0000 -37.8715
#
#
#
# Elastic Compliance Matrix: (Units=1/GPa)
#
#
# Indices 1 2 3 4 5 6 
#
# 1 0.007501 -0.001455 -0.001113 0.000000 0.003277 0.000000
# 2 -0.001455 0.003127 -0.000524 0.000000 -0.001896 0.000000
# 3 -0.001113 -0.000524 0.009820 0.000000 0.006671 0.000000
# 4 0.000000 0.000000 0.000000 0.006223 0.000000 -0.016870
# 5 0.003277 -0.001896 0.006671 0.000000 0.032815 0.000000
# 6 0.000000 0.000000 0.000000 -0.016870 0.000000 0.019327
#
#
# Mechanical properties :
#
#
# Convention : Reuss Voigt Hill
#
# Bulk Modulus (GPa) = 70.11132 99.45390 84.78261
# Shear Modulus (GPa) = 55.70929 11.50780 33.60855
#
# Velocity S-wave (km/s) = 4.64734 2.11221 3.60965
# Velocity P-wave (km/s) = 7.48186 6.67124 7.08815
#
# Compressibility (1/GPa) = 0.01426303
#
# Stress axis : x y z
#
# Youngs Moduli (GPa) = 133.30774 319.82381 101.83656
#
# Poissons Ratio (x) = 0.46533 0.11339
# Poissons Ratio (y) = 0.19396 0.05335
# Poissons Ratio (z) = 0.14844 0.16756
#
# Static dielectric constant tensor:
#      x y z
#    x 2.044510 0.000000 0.066780 
#    y 0.000000 2.168110 0.000000 
#    z 0.066780 0.000000 2.016530 
# 
# From -- ./inp_files/31863.got.cif
#   From: 2010.05.17/outbox.cif.g08.bks.cpg/sg10_16_cif.got.tgz:31863.got - 2010.06.03 11:33:40.
