data_PCOD9152974
_publ_section_title
;
Structure prediction by ZEFSAII (Michael W. Deem and Ramdas Pophale) SiO2 
 PCOD9152974
Probable space group: P 2/M
;
_chemical_formula_sum "Si O2"
_cell_formula_units_Z 28
_cell_length_a 17.496956
_cell_length_b 8.835463
_cell_length_c 14.642560
_cell_angle_alpha 90.000000
_cell_angle_beta 39.444425
_cell_angle_gamma 90.000000
_cell_volume 1438.162055
_symmetry_space_group_name_H-M "P 2/M"
_symmetry_group_IT_number 10
_symmetry_cell_setting 'monoclinic'
loop_
_space_group_symop_operation_xyz
x,y,z
-x,y,-z
-x,-y,-z
x,-y,z
loop_
_atom_site_type_symbol
_atom_site_label
_atom_site_fract_x
_atom_site_fract_y
_atom_site_fract_z
Si Si1 0.798950 0.681341 0.406778
Si Si2 0.196282 0.322112 0.276505
Si Si3 0.963564 0.179376 0.725289
Si Si4 0.862869 0.683432 0.145327
Si Si5 0.576622 0.674669 0.069599
Si Si6 0.232193 0.680365 0.960804
Si Si7 0.669746 0.822296 0.682575
O O1 0.792537 0.500000 0.414247
O O2 0.813024 0.734349 0.289004
O O3 0.689420 0.749831 0.564958
O O4 0.917540 0.737041 0.350329
O O5 0.170967 0.500000 0.309442
O O6 0.088663 0.241626 0.321857
O O7 0.233975 0.249616 0.336917
O O8 0.315143 0.306156 0.102326
O O9 0.981694 0.000000 0.704431
O O10 0.862743 0.223738 0.893374
O O11 0.868567 0.500000 0.145111
O O12 0.782129 0.720105 0.131898
O O13 0.000000 0.735860 0.000000
O O14 0.535318 0.500000 0.101177
O O15 0.639046 0.700254 0.110399
O O16 0.463204 0.780467 0.160173
O O17 0.201875 0.500000 0.999696
O O18 0.687400 0.000000 0.662577
#
# Coordination Sequence:
#
# PCOD9152974 Si02
#       7
#     4   4   4   4   4   4   4
#     4  11  22  38  59  81 113 153 192 232 279 333
#     4  10  21  39  63  86 109 144 193 236 275 328
#     4  11  21  34  54  86 121 148 181 227 284 339
#     4   9  16  31  60  90 111 139 189 239 276 320
#     4   9  19  36  60  85 111 145 190 233 274 329
#     4   9  17  34  59  87 114 145 188 237 278 323
#     4  12  25  39  55  80 116 151 187 232 285 339
#
# _framework density 19.469294000000001
#
# number of rings (size 3 to 8) (size 9 to 14) (size 15 to 20)
#    0.000    1.857    1.429    4.714    0.000    5.143 
#    0.000    5.714    0.000    4.286    0.000    0.000 
#    0.000    0.000    0.000    0.000    0.000    0.000 
#
# Total GULP energy -156427.656343 kJ/mol
# GULP energy per Si atom -5586.702012 kJ/mol
# Density = 1.942498 g / cm^3
# Si number density = 19.469294 Si / 1000 Ang^3
#
#
#
# Elastic Constant Matrix: (Units=GPa)
#
#
# Indices 1 2 3 4 5 6 
#
# 1 88.5444 22.1676 18.0798 0.0000 30.2216 0.0000
# 2 22.1676 58.9196 20.8811 0.0000 11.5938 0.0000
# 3 18.0798 20.8811 37.6047 0.0000 20.5016 0.0000
# 4 0.0000 0.0000 0.0000 -32.1928 0.0000 30.0003
# 5 30.2216 11.5938 20.5016 0.0000 29.2308 0.0000
# 6 0.0000 0.0000 0.0000 30.0003 0.0000 -14.3197
#
#
#
# Elastic Compliance Matrix: (Units=1/GPa)
#
#
# Indices 1 2 3 4 5 6 
#
# 1 0.018556 -0.004663 0.005050 0.000000 -0.020877 0.000000
# 2 -0.004663 0.022303 -0.012869 0.000000 0.005001 0.000000
# 3 0.005050 -0.012869 0.050798 0.000000 -0.035745 0.000000
# 4 0.000000 0.000000 0.000000 0.032617 0.000000 0.068334
# 5 -0.020877 0.005001 -0.035745 0.000000 0.078882 0.000000
# 6 0.000000 0.000000 0.000000 0.068334 0.000000 0.073327
#
#
# Mechanical properties :
#
#
# Convention : Reuss Voigt Hill
#
# Bulk Modulus (GPa) = 14.99415 34.14729 24.57072
# Shear Modulus (GPa) = 15.44741 4.80634 10.12687
#
# Velocity S-wave (km/s) = 2.81983 1.57291 2.28315
# Velocity P-wave (km/s) = 4.28020 4.56901 4.42696
#
# Compressibility (1/GPa) = 0.06669269
#
# Stress axis : x y z
#
# Youngs Moduli (GPa) = 53.89179 44.83621 19.68580
#
# Poissons Ratio (x) = 0.20907 -0.09941
# Poissons Ratio (y) = 0.25129 0.25334
# Poissons Ratio (z) = -0.27214 0.57700
#
# Static dielectric constant tensor:
#      x y z
#    x 1.682510 0.000000 0.009170 
#    y 0.000000 1.648730 0.000000 
#    z 0.009170 0.000000 1.718040 
# 
# From -- ./inp_files/68619.got.cif
#   From: 2010.05.17/outbox.cif.g08.bks.cpg/sg10_35_cif.got.tgz:68619.got - 2010.06.03 11:33:40.
