data_PCOD9152437
_publ_section_title
;
Structure prediction by ZEFSAII (Michael W. Deem and Ramdas Pophale) SiO2 
 PCOD9152437
Probable space group: P 2/M
;
_chemical_formula_sum "Si O2"
_cell_formula_units_Z 20
_cell_length_a 8.004277
_cell_length_b 21.654048
_cell_length_c 6.866364
_cell_angle_alpha 90.000000
_cell_angle_beta 40.595546
_cell_angle_gamma 90.000000
_cell_volume 774.424303
_symmetry_space_group_name_H-M "P 2/M"
_symmetry_group_IT_number 10
_symmetry_cell_setting 'monoclinic'
loop_
_space_group_symop_operation_xyz
x,y,z
-x,y,-z
-x,-y,-z
x,-y,z
loop_
_atom_site_type_symbol
_atom_site_label
_atom_site_fract_x
_atom_site_fract_y
_atom_site_fract_z
Si Si1 0.404334 0.314178 0.863751
Si Si2 0.774235 0.500000 0.358704
Si Si3 0.590143 0.867860 0.638392
Si Si4 0.095666 0.814178 0.136249
Si Si5 0.909857 0.632140 0.361609
Si Si6 0.274235 0.000000 0.358704
O O1 0.674538 0.322441 0.512473
O O2 0.500000 0.325022 0.000000
O O3 0.250000 0.250000 0.000001
O O4 0.179544 0.362495 0.008446
O O5 0.500000 0.500000 0.500000
O O6 0.804846 0.562922 0.452216
O O7 0.000000 0.500000 0.000000
O O8 0.500000 0.851430 0.500000
O O9 0.695154 0.937078 0.547785
O O10 0.825462 0.822441 0.487527
O O11 0.320455 0.862494 0.991554
O O12 0.000000 0.825020 0.000000
O O13 0.000000 0.648570 0.500000
O O14 0.000000 0.000000 0.500000
O O15 0.500000 0.000000 0.000000
#
# Coordination Sequence:
#
# PCOD9152437 Si02
#       6
#     4   2   4   4   4   2
#     4  10  21  37  60  88 117 154 197 240 291 349
#     4  12  25  40  61  92 120 152 200 254 299 340
#     4  10  22  41  61  84 119 161 197 235 294 361
#     4  10  21  37  60  88 117 154 197 240 291 349
#     4  10  22  41  61  84 119 161 197 235 294 361
#     4  12  25  40  61  92 120 152 200 254 299 340
#
# _framework density 25.825634000000001
#
# number of rings (size 3 to 8) (size 9 to 14) (size 15 to 20)
#    0.000    1.600    0.000    4.200    0.000    4.800 
#    0.000    8.000    0.000    0.000    0.000    0.000 
#    0.000    0.000    0.000    0.000    0.000    0.000 
#
# Total GULP energy -111897.536030 kJ/mol
# GULP energy per Si atom -5594.876802 kJ/mol
# Density = 2.576685 g / cm^3
# Si number density = 25.825634 Si / 1000 Ang^3
#
#
#
# Elastic Constant Matrix: (Units=GPa)
#
#
# Indices 1 2 3 4 5 6 
#
# 1 121.9360 22.9895 63.7841 0.0000 -56.0279 0.0000
# 2 22.9895 142.0206 32.5283 0.0000 -54.9391 0.0000
# 3 63.7841 32.5283 201.4636 0.0000 -58.0030 0.0000
# 4 0.0000 0.0000 0.0000 41.7827 0.0000 -14.4000
# 5 -56.0279 -54.9391 -58.0030 0.0000 68.8723 0.0000
# 6 0.0000 0.0000 0.0000 -14.4000 0.0000 45.9260
#
#
#
# Elastic Compliance Matrix: (Units=1/GPa)
#
#
# Indices 1 2 3 4 5 6 
#
# 1 0.014217 0.002963 -0.001279 0.000000 0.012852 0.000000
# 2 0.002963 0.010931 0.000662 0.000000 0.011688 0.000000
# 3 -0.001279 0.000662 0.006751 0.000000 0.005173 0.000000
# 4 0.000000 0.000000 0.000000 0.026833 0.000000 0.008413
# 5 0.012852 0.011688 0.005173 0.000000 0.038654 0.000000
# 6 0.000000 0.000000 0.000000 0.008413 0.000000 0.024412
#
#
# Mechanical properties :
#
#
# Convention : Reuss Voigt Hill
#
# Bulk Modulus (GPa) = 27.32943 78.22489 52.77716
# Shear Modulus (GPa) = 38.66852 54.39077 46.52965
#
# Velocity S-wave (km/s) = 3.87368 4.59418 4.24923
# Velocity P-wave (km/s) = 5.53286 7.64836 6.67495
#
# Compressibility (1/GPa) = 0.03659060
#
# Stress axis : x y z
#
# Youngs Moduli (GPa) = 70.33958 91.48058 148.12190
#
# Poissons Ratio (x) = -0.27108 0.18951
# Poissons Ratio (y) = -0.20843 -0.09804
# Poissons Ratio (z) = 0.08999 -0.06055
#
# Static dielectric constant tensor:
#      x y z
#    x 1.985280 0.000000 0.080290 
#    y 0.000000 2.022990 0.000000 
#    z 0.080290 0.000000 2.161620 
# 
# From -- ./inp_files/20623.got.cif
#   From: 2010.05.17/outbox.cif.g08.bks.cpg/sg10_11_cif.got.tgz:20623.got - 2010.06.03 11:33:40.
