data_PCOD9152336
_publ_section_title
;
Structure prediction by ZEFSAII (Michael W. Deem and Ramdas Pophale) SiO2 
 PCOD9152336
Probable space group: P 2/M
;
_chemical_formula_sum "Si O2"
_cell_formula_units_Z 24
_cell_length_a 9.845452
_cell_length_b 7.653386
_cell_length_c 18.982155
_cell_angle_alpha 90.000000
_cell_angle_beta 128.225039
_cell_angle_gamma 90.000000
_cell_volume 1123.644266
_symmetry_space_group_name_H-M "P 2/M"
_symmetry_group_IT_number 10
_symmetry_cell_setting 'monoclinic'
loop_
_space_group_symop_operation_xyz
x,y,z
-x,y,-z
-x,-y,-z
x,-y,z
loop_
_atom_site_type_symbol
_atom_site_label
_atom_site_fract_x
_atom_site_fract_y
_atom_site_fract_z
Si Si1 0.293178 0.794185 0.765590
Si Si2 0.584246 0.211524 0.454852
Si Si3 0.591513 0.293331 0.751765
Si Si4 0.027180 0.213119 0.429188
Si Si5 0.689090 0.299112 0.069919
Si Si6 0.021919 0.713319 0.089278
O O1 0.463812 0.774924 0.772057
O O2 0.289297 0.702863 0.839435
O O3 0.129843 0.727031 0.668852
O O4 0.270869 0.000000 0.772277
O O5 0.500000 0.272452 0.500000
O O6 0.491895 0.261480 0.352018
O O7 0.781013 0.271151 0.525603
O O8 0.584036 0.000000 0.454024
O O9 0.598778 0.500000 0.764991
O O10 0.789257 0.226796 0.822490
O O11 0.000000 0.267279 0.500000
O O12 0.023125 0.000000 0.425561
O O13 0.674568 0.500000 0.039175
O O14 0.856553 0.226185 0.082494
O O15 0.500000 0.213887 0.000000
O O16 0.022983 0.500000 0.093397
O O17 0.000000 0.760854 0.000000
#
# Coordination Sequence:
#
# PCOD9152336 Si02
#       6
#     4   4   4   4   4   4
#     4  11  22  37  60  86 116 151 192 238 282 335
#     4  10  21  37  58  81 112 154 195 233 282 341
#     4  11  22  37  58  85 117 152 191 236 286 337
#     4   9  17  34  56  79 109 149 191 230 275 329
#     4  10  21  39  63  88 114 147 188 234 287 344
#     4   9  19  37  60  84 113 150 187 227 281 344
#
# _framework density 21.359072000000001
#
# number of rings (size 3 to 8) (size 9 to 14) (size 15 to 20)
#    0.000    2.000    1.667    2.000    2.333    3.333 
#    0.000    3.333    0.000    3.500    0.000    0.000 
#    0.000    0.000    0.000    0.000    0.000    0.000 
#
# Total GULP energy -133950.866347 kJ/mol
# GULP energy per Si atom -5581.286098 kJ/mol
# Density = 2.131046 g / cm^3
# Si number density = 21.359072 Si / 1000 Ang^3
#
#
#
# Elastic Constant Matrix: (Units=GPa)
#
#
# Indices 1 2 3 4 5 6 
#
# 1 217.2985 -3.6360 96.4393 0.0000 22.0827 0.0000
# 2 -3.6360 46.5690 -5.7571 0.0000 5.2605 0.0000
# 3 96.4393 -5.7571 159.3651 0.0000 21.9610 0.0000
# 4 0.0000 0.0000 0.0000 30.0229 0.0000 -3.2195
# 5 22.0827 5.2605 21.9610 0.0000 42.8567 0.0000
# 6 0.0000 0.0000 0.0000 -3.2195 0.0000 23.0465
#
#
#
# Elastic Compliance Matrix: (Units=1/GPa)
#
#
# Indices 1 2 3 4 5 6 
#
# 1 0.006372 0.000209 -0.003650 0.000000 -0.001438 0.000000
# 2 0.000209 0.022013 0.001136 0.000000 -0.003392 0.000000
# 3 -0.003650 0.001136 0.008914 0.000000 -0.002827 0.000000
# 4 0.000000 0.000000 0.000000 0.033814 0.000000 0.004724
# 5 -0.001438 -0.003392 -0.002827 0.000000 0.025939 0.000000
# 6 0.000000 0.000000 0.000000 0.004724 0.000000 0.044050
#
#
# Mechanical properties :
#
#
# Convention : Reuss Voigt Hill
#
# Bulk Modulus (GPa) = 30.59098 66.36947 48.48022
# Shear Modulus (GPa) = 31.92648 41.59765 36.76206
#
# Velocity S-wave (km/s) = 3.87039 4.41788 4.15317
# Velocity P-wave (km/s) = 5.85889 7.56070 6.76354
#
# Compressibility (1/GPa) = 0.03268938
#
# Stress axis : x y z
#
# Youngs Moduli (GPa) = 156.94854 45.42683 112.18010
#
# Poissons Ratio (x) = -0.00948 0.40945
# Poissons Ratio (y) = -0.03276 -0.12748
# Poissons Ratio (z) = 0.57286 -0.05162
#
# Static dielectric constant tensor:
#      x y z
#    x 1.464080 0.000000 0.185760 
#    y 0.000000 1.805240 0.000000 
#    z 0.185760 0.000000 1.624150 
# 
# From -- ./inp_files/82041.got.cif
#   From: 2010.05.17/outbox.cif.g08.bks.cpg/sg10_42_cif.got.tgz:82041.got - 2010.06.03 11:33:40.
