data_PCOD9152914
_publ_section_title
;
Structure prediction by ZEFSAII (Michael W. Deem and Ramdas Pophale) SiO2 
 PCOD9152914
Probable space group: P 2/M
;
_chemical_formula_sum "Si O2"
_cell_formula_units_Z 32
_cell_length_a 11.857456
_cell_length_b 8.400988
_cell_length_c 15.468957
_cell_angle_alpha 90.000000
_cell_angle_beta 84.209635
_cell_angle_gamma 90.000000
_cell_volume 1533.067723
_symmetry_space_group_name_H-M "P 2/M"
_symmetry_group_IT_number 10
_symmetry_cell_setting 'monoclinic'
loop_
_space_group_symop_operation_xyz
x,y,z
-x,y,-z
-x,-y,-z
x,-y,z
loop_
_atom_site_type_symbol
_atom_site_label
_atom_site_fract_x
_atom_site_fract_y
_atom_site_fract_z
Si Si1 0.575413 0.686977 0.372867
Si Si2 0.660888 0.186104 0.539629
Si Si3 0.051488 0.813302 0.241261
Si Si4 0.512751 0.189954 0.199833
Si Si5 0.095359 0.688553 0.424963
Si Si6 0.284073 0.684166 0.159245
Si Si7 0.921393 0.193089 0.085273
Si Si8 0.324417 0.808842 0.967363
O O1 0.598238 0.500000 0.373763
O O2 0.444501 0.719277 0.410619
O O3 0.652118 0.774200 0.438315
O O4 0.585817 0.754507 0.275797
O O5 0.782843 0.231584 0.567681
O O6 0.638827 0.000000 0.555659
O O7 0.052644 0.724511 0.331945
O O8 0.176058 0.790622 0.190385
O O9 0.965362 0.750961 0.174759
O O10 0.030263 0.000000 0.258426
O O11 0.390421 0.271628 0.210569
O O12 0.574224 0.231106 0.105181
O O13 0.498711 0.000000 0.203981
O O14 0.110887 0.500000 0.435277
O O15 0.000000 0.744580 0.500000
O O16 0.253458 0.500000 0.172308
O O17 0.321529 0.720901 0.058516
O O18 0.792396 0.228746 0.072906
O O19 0.932565 0.000000 0.086175
O O20 0.000000 0.250709 0.000000
O O21 0.328322 0.000000 0.983702
#
# Coordination Sequence:
#
# PCOD9152914 Si02
#       8
#     4   4   4   4   4   4   4   4
#     4  11  22  39  63  91 124 159 198 247 311 371
#     4  11  22  40  66  92 120 156 206 254 299 361
#     4  11  22  39  66  93 119 157 206 253 301 362
#     4  11  23  38  58  86 121 158 202 249 300 362
#     4  11  25  44  63  89 128 166 201 251 315 372
#     4  12  24  38  58  85 121 160 202 249 303 363
#     4   9  17  35  63  89 116 149 194 248 299 351
#     4  10  21  39  61  86 116 156 200 249 303 357
#
# _framework density 20.873182
#
# number of rings (size 3 to 8) (size 9 to 14) (size 15 to 20)
#    0.000    1.250    1.250    6.375    0.000    4.500 
#    0.000    3.125    0.000    0.000    0.000    0.000 
#    0.000    0.000    0.000    0.000    0.000    0.000 
#
# Total GULP energy -179009.019059 kJ/mol
# GULP energy per Si atom -5594.031846 kJ/mol
# Density = 2.082567 g / cm^3
# Si number density = 20.873182 Si / 1000 Ang^3
#
#
#
# Elastic Constant Matrix: (Units=GPa)
#
#
# Indices 1 2 3 4 5 6 
#
# 1 56.0267 -1.9777 7.3288 0.0000 18.1579 0.0000
# 2 -1.9777 28.8275 -2.8732 0.0000 -1.0218 0.0000
# 3 7.3288 -2.8732 104.9498 0.0000 18.1259 0.0000
# 4 0.0000 0.0000 0.0000 37.8219 0.0000 12.5698
# 5 18.1579 -1.0218 18.1259 0.0000 32.4204 0.0000
# 6 0.0000 0.0000 0.0000 12.5698 0.0000 23.7309
#
#
#
# Elastic Compliance Matrix: (Units=1/GPa)
#
#
# Indices 1 2 3 4 5 6 
#
# 1 0.021883 0.001122 0.000679 0.000000 -0.012600 0.000000
# 2 0.001122 0.034853 0.000880 0.000000 -0.000022 0.000000
# 3 0.000679 0.000880 0.010588 0.000000 -0.006272 0.000000
# 4 0.000000 0.000000 0.000000 0.032088 0.000000 -0.016997
# 5 -0.012600 -0.000022 -0.006272 0.000000 0.041408 0.000000
# 6 0.000000 0.000000 0.000000 -0.016997 0.000000 0.051142
#
#
# Mechanical properties :
#
#
# Convention : Reuss Voigt Hill
#
# Bulk Modulus (GPa) = 13.75781 21.63997 17.69889
# Shear Modulus (GPa) = 23.71578 31.28304 27.49941
#
# Velocity S-wave (km/s) = 3.37439 3.87553 3.63361
# Velocity P-wave (km/s) = 4.66770 5.51509 5.10899
#
# Compressibility (1/GPa) = 0.07268600
#
# Stress axis : x y z
#
# Youngs Moduli (GPa) = 45.69725 28.69191 94.44358
#
# Poissons Ratio (x) = -0.03220 -0.06411
# Poissons Ratio (y) = -0.05129 -0.08307
# Poissons Ratio (z) = -0.03102 -0.02524
#
# Static dielectric constant tensor:
#      x y z
#    x 1.727360 0.000000 0.004440 
#    y 0.000000 1.712200 0.000000 
#    z 0.004440 0.000000 1.759540 
# 
# From -- ./inp_files/63819.got.cif
#   From: 2010.05.17/outbox.cif.g08.bks.cpg/sg10_32_cif.got.tgz:63819.got - 2010.06.03 11:33:40.
