data_PCOD9152743
_publ_section_title
;
Structure prediction by ZEFSAII (Michael W. Deem and Ramdas Pophale) SiO2 
 PCOD9152743
Probable space group: P 2/M
;
_chemical_formula_sum "Si O2"
_cell_formula_units_Z 28
_cell_length_a 12.445920
_cell_length_b 23.380141
_cell_length_c 5.060376
_cell_angle_alpha 90.000000
_cell_angle_beta 77.371051
_cell_angle_gamma 90.000000
_cell_volume 1436.880295
_symmetry_space_group_name_H-M "P 2/M"
_symmetry_group_IT_number 10
_symmetry_cell_setting 'monoclinic'
loop_
_space_group_symop_operation_xyz
x,y,z
-x,y,-z
-x,-y,-z
x,-y,z
loop_
_atom_site_type_symbol
_atom_site_label
_atom_site_fract_x
_atom_site_fract_y
_atom_site_fract_z
Si Si1 0.125744 0.710498 0.464110
Si Si2 0.251493 0.597400 0.243293
Si Si3 0.128015 0.212201 0.964120
Si Si4 0.615154 0.433332 0.317463
Si Si5 0.761958 0.902879 0.056262
Si Si6 0.117651 0.933753 0.508826
Si Si7 0.420514 0.000000 0.792365
Si Si8 0.920780 0.500000 0.792397
O O1 0.204646 0.658991 0.344433
O O2 0.141454 0.736816 0.745599
O O3 0.000000 0.689484 0.500000
O O4 0.137901 0.761985 0.249961
O O5 0.299122 0.570931 0.487613
O O6 0.157334 0.555521 0.180123
O O7 0.342690 0.599153 0.963771
O O8 0.220040 0.163389 0.876111
O O9 0.000000 0.191267 0.000000
O O10 0.500000 0.412558 0.500000
O O11 0.601825 0.500000 0.247190
O O12 0.854113 0.930317 0.199530
O O13 0.656253 0.942945 0.162905
O O14 0.791875 0.906369 0.731122
O O15 0.000000 0.907677 0.500000
O O16 0.116582 0.000000 0.429987
O O17 0.500000 0.000000 0.500000
O O18 0.500000 0.000000 0.000000
O O19 0.000000 0.500000 0.500000
O O20 0.000000 0.500000 0.000000
#
# Coordination Sequence:
#
# PCOD9152743 Si02
#       8
#     4   4   4   4   4   4   2   2
#     4  10  22  39  60  88 125 168 204 240 298 372
#     4  12  22  40  61  88 126 167 204 259 318 375
#     4  10  21  38  61  90 121 160 204 245 299 374
#     4  11  22  39  62  90 121 156 206 263 323 373
#     4  12  22  40  62  88 123 160 202 250 301 360
#     4  11  20  32  54  91 129 153 175 226 302 374
#     4  12  26  44  63  88 121 162 212 256 306 364
#     4  12  24  36  55  90 127 162 208 250 304 386
#
# _framework density 19.486661999999999
#
# number of rings (size 3 to 8) (size 9 to 14) (size 15 to 20)
#    0.000    0.857    2.857    5.571    0.000    5.143 
#    0.000    0.000    0.000    8.571    0.000    0.000 
#    0.000    0.000    0.000    0.000    0.000    0.000 
#
# Total GULP energy -156386.677925 kJ/mol
# GULP energy per Si atom -5585.238497 kJ/mol
# Density = 1.944231 g / cm^3
# Si number density = 19.486662 Si / 1000 Ang^3
#
#
#
# Elastic Constant Matrix: (Units=GPa)
#
#
# Indices 1 2 3 4 5 6 
#
# 1 63.4433 24.7309 11.1400 0.0000 -4.8215 0.0000
# 2 24.7309 70.0053 12.1414 0.0000 -21.4100 0.0000
# 3 11.1400 12.1414 94.8877 0.0000 -12.1301 0.0000
# 4 0.0000 0.0000 0.0000 18.5085 0.0000 -5.6776
# 5 -4.8215 -21.4100 -12.1301 0.0000 40.8614 0.0000
# 6 0.0000 0.0000 0.0000 -5.6776 0.0000 9.6538
#
#
#
# Elastic Compliance Matrix: (Units=1/GPa)
#
#
# Indices 1 2 3 4 5 6 
#
# 1 0.018565 -0.006861 -0.001540 0.000000 -0.001861 0.000000
# 2 -0.006861 0.019653 -0.000516 0.000000 0.009335 0.000000
# 3 -0.001540 -0.000516 0.011151 0.000000 0.002858 0.000000
# 4 0.000000 0.000000 0.000000 0.065922 0.000000 0.038771
# 5 -0.001861 0.009335 0.002858 0.000000 0.029993 0.000000
# 6 0.000000 0.000000 0.000000 0.038771 0.000000 0.126388
#
#
# Mechanical properties :
#
#
# Convention : Reuss Voigt Hill
#
# Bulk Modulus (GPa) = 31.70956 36.04012 33.87484
# Shear Modulus (GPa) = 16.66571 25.82635 21.24603
#
# Velocity S-wave (km/s) = 2.92762 3.64446 3.30553
# Velocity P-wave (km/s) = 5.26647 6.02033 5.65597
#
# Compressibility (1/GPa) = 0.03153623
#
# Stress axis : x y z
#
# Youngs Moduli (GPa) = 53.86346 50.88353 89.67862
#
# Poissons Ratio (x) = 0.34911 0.13808
# Poissons Ratio (y) = 0.36955 0.04626
# Poissons Ratio (z) = 0.08293 0.02625
#
# Static dielectric constant tensor:
#      x y z
#    x 1.684670 0.000000 -0.018770 
#    y 0.000000 1.693270 0.000000 
#    z -0.018770 0.000000 1.669170 
# 
# From -- ./inp_files/7720.got.cif
#   From: 2010.05.17/outbox.cif.g08.bks.cpg/sg10_4_cif.got.tgz:7720.got - 2010.06.03 11:33:40.
