data_PCOD9152992
_publ_section_title
;
Structure prediction by ZEFSAII (Michael W. Deem and Ramdas Pophale) SiO2 
 PCOD9152992
Probable space group: P 2/M
;
_chemical_formula_sum "Si O2"
_cell_formula_units_Z 32
_cell_length_a 11.895466
_cell_length_b 8.638734
_cell_length_c 28.835472
_cell_angle_alpha 90.000000
_cell_angle_beta 31.485525
_cell_angle_gamma 90.000000
_cell_volume 1547.621067
_symmetry_space_group_name_H-M "P 2/M"
_symmetry_group_IT_number 10
_symmetry_cell_setting 'monoclinic'
loop_
_space_group_symop_operation_xyz
x,y,z
-x,y,-z
-x,-y,-z
x,-y,z
loop_
_atom_site_type_symbol
_atom_site_label
_atom_site_fract_x
_atom_site_fract_y
_atom_site_fract_z
Si Si1 0.445389 0.816685 0.784810
Si Si2 0.863239 0.683919 0.355070
Si Si3 0.146029 0.317782 0.405652
Si Si4 0.633088 0.315880 0.338835
Si Si5 0.632815 0.314970 0.814497
Si Si6 0.086731 0.685019 0.849947
Si Si7 0.788497 0.179397 0.474149
Si Si8 0.607673 0.814570 0.011090
O O1 0.631691 0.766437 0.682930
O O2 0.525499 0.759489 0.806806
O O3 0.223715 0.739809 0.846024
O O4 0.422951 0.000000 0.792826
O O5 0.837719 0.500000 0.373213
O O6 0.773813 0.712576 0.335310
O O7 0.740615 0.778108 0.437895
O O8 0.115016 0.725648 0.269586
O O9 0.189002 0.500000 0.396522
O O10 0.000000 0.262505 0.500000
O O11 0.990104 0.285888 0.417223
O O12 0.582480 0.500000 0.354470
O O13 0.769362 0.274906 0.245729
O O14 0.412261 0.224486 0.423279
O O15 0.618200 0.500000 0.815029
O O16 0.515153 0.260455 0.902415
O O17 0.060087 0.500000 0.860398
O O18 0.855502 0.763313 0.926545
O O19 0.845157 0.000000 0.459321
O O20 0.592456 0.000000 0.019842
O O21 0.500000 0.766723 0.000000
#
# Coordination Sequence:
#
# PCOD9152992 Si02
#       8
#     4   4   4   4   4   4   4   4
#     4  12  25  42  65  96 133 169 211 267 332 390
#     4  10  21  39  63  89 123 166 214 266 318 378
#     4  11  23  40  62  87 121 170 223 270 316 379
#     4  10  22  40  62  89 123 167 215 267 320 378
#     4  11  23  42  70  98 128 172 222 269 319 387
#     4  11  24  44  69  96 127 168 219 266 316 385
#     4  12  24  36  56  89 126 166 211 263 323 385
#     4  11  25  45  70 102 138 171 207 264 331 387
#
# _framework density 20.676895999999999
#
# number of rings (size 3 to 8) (size 9 to 14) (size 15 to 20)
#    0.000    1.000    1.250    5.625    0.000   10.000 
#    0.000    2.500    0.000    0.000    0.000    0.000 
#    0.000    0.000    0.000    0.000    0.000    0.000 
#
# Total GULP energy -179105.950646 kJ/mol
# GULP energy per Si atom -5597.060958 kJ/mol
# Density = 2.062983 g / cm^3
# Si number density = 20.676896 Si / 1000 Ang^3
#
#
#
# Elastic Constant Matrix: (Units=GPa)
#
#
# Indices 1 2 3 4 5 6 
#
# 1 83.4913 -0.0613 15.9879 0.0000 -7.3743 0.0000
# 2 -0.0613 15.3298 4.3748 0.0000 2.3259 0.0000
# 3 15.9879 4.3748 78.7572 0.0000 1.1376 0.0000
# 4 0.0000 0.0000 0.0000 -3.2369 0.0000 -32.5665
# 5 -7.3743 2.3259 1.1376 0.0000 38.6555 0.0000
# 6 0.0000 0.0000 0.0000 -32.5665 0.0000 -12.1792
#
#
#
# Elastic Compliance Matrix: (Units=1/GPa)
#
#
# Indices 1 2 3 4 5 6 
#
# 1 0.012701 0.000428 -0.002638 0.000000 0.002475 0.000000
# 2 0.000428 0.066885 -0.003747 0.000000 -0.003833 0.000000
# 3 -0.002638 -0.003747 0.013451 0.000000 -0.000674 0.000000
# 4 0.000000 0.000000 0.000000 0.011927 0.000000 -0.031892
# 5 0.002475 -0.003833 -0.000674 0.000000 0.026592 0.000000
# 6 0.000000 0.000000 0.000000 -0.031892 0.000000 0.003170
#
#
# Mechanical properties :
#
#
# Convention : Reuss Voigt Hill
#
# Bulk Modulus (GPa) = 12.32690 24.24236 18.28463
# Shear Modulus (GPa) = 28.78853 15.13302 21.96077
#
# Velocity S-wave (km/s) = 3.73541 2.70826 3.26251
# Velocity P-wave (km/s) = 4.95772 4.63998 4.80148
#
# Compressibility (1/GPa) = 0.08112339
#
# Stress axis : x y z
#
# Youngs Moduli (GPa) = 78.73183 14.95106 74.34598
#
# Poissons Ratio (x) = -0.00640 0.19612
# Poissons Ratio (y) = -0.03370 0.27856
# Poissons Ratio (z) = 0.20769 0.05602
#
# Static dielectric constant tensor:
#      x y z
#    x 1.759940 0.000000 0.005400 
#    y 0.000000 1.695400 0.000000 
#    z 0.005400 0.000000 1.717880 
# 
# From -- ./inp_files/94943.got.cif
#   From: 2010.05.17/outbox.cif.g08.bks.cpg/sg10_48_cif.got.tgz:94943.got - 2010.06.03 11:33:40.
