data_PCOD9152257
_publ_section_title
;
Structure prediction by ZEFSAII (Michael W. Deem and Ramdas Pophale) SiO2 
 PCOD9152257
Probable space group: P 2/M
;
_chemical_formula_sum "Si O2"
_cell_formula_units_Z 32
_cell_length_a 22.491389
_cell_length_b 8.126330
_cell_length_c 12.505628
_cell_angle_alpha 90.000000
_cell_angle_beta 45.500216
_cell_angle_gamma 90.000000
_cell_volume 1630.271363
_symmetry_space_group_name_H-M "P 2/M"
_symmetry_group_IT_number 10
_symmetry_cell_setting 'monoclinic'
loop_
_space_group_symop_operation_xyz
x,y,z
-x,y,-z
-x,-y,-z
x,-y,z
loop_
_atom_site_type_symbol
_atom_site_label
_atom_site_fract_x
_atom_site_fract_y
_atom_site_fract_z
Si Si1 0.704181 0.305437 0.383813
Si Si2 0.228312 0.193836 0.925844
Si Si3 0.915861 0.201245 0.740524
Si Si4 0.895414 0.802214 0.525942
Si Si5 0.404597 0.298761 0.105382
Si Si6 0.253176 0.697769 0.440038
Si Si7 0.517979 0.192700 0.598379
Si Si8 0.634127 0.691881 0.082171
O O1 0.687643 0.500000 0.413693
O O2 0.749728 0.274144 0.214644
O O3 0.752960 0.250552 0.428707
O O4 0.615096 0.217054 0.495885
O O5 0.303392 0.219479 0.915555
O O6 0.219294 0.000000 0.917653
O O7 0.145265 0.258069 0.089077
O O8 0.883507 0.253826 0.663870
O O9 0.012232 0.252879 0.627008
O O10 0.914136 0.000000 0.744006
O O11 0.822560 0.751477 0.538951
O O12 0.897828 0.000000 0.526223
O O13 0.406545 0.500000 0.101648
O O14 0.341011 0.245822 0.277968
O O15 0.500000 0.243380 0.000000
O O16 0.367909 0.245762 0.036839
O O17 0.254311 0.500000 0.436279
O O18 0.500000 0.249738 0.500000
O O19 0.458970 0.288419 0.754094
O O20 0.495799 0.000000 0.633019
O O21 0.657288 0.500000 0.052201
#
# Coordination Sequence:
#
# PCOD9152257 Si02
#       8
#     4   4   4   4   4   4   4   4
#     4  11  23  38  56  77 106 147 188 224 266 322
#     4  11  21  35  54  79 110 140 175 225 274 315
#     4   8  17  34  58  85 112 140 175 221 271 323
#     4   9  17  35  61  85 108 141 181 218 265 328
#     4   9  18  34  54  77 106 141 178 216 262 317
#     4  10  21  37  56  80 111 144 181 224 271 321
#     4  11  22  36  54  77 106 142 182 227 268 309
#     4  11  21  33  55  82 108 140 178 220 270 328
#
# _framework density 19.628634000000002
#
# number of rings (size 3 to 8) (size 9 to 14) (size 15 to 20)
#    0.000    2.000    1.250    3.750    0.000    3.500 
#    0.000    4.375    0.000    6.375    0.000    0.000 
#    0.000    0.000    0.000    0.000    0.000    0.000 
#
# Total GULP energy -178711.565655 kJ/mol
# GULP energy per Si atom -5584.736427 kJ/mol
# Density = 1.958396 g / cm^3
# Si number density = 19.628634 Si / 1000 Ang^3
#
#
#
# Elastic Constant Matrix: (Units=GPa)
#
#
# Indices 1 2 3 4 5 6 
#
# 1 123.3341 -0.1717 51.6150 0.0000 6.3203 0.0000
# 2 -0.1717 13.2089 -1.6417 0.0000 4.4902 0.0000
# 3 51.6150 -1.6417 114.7560 0.0000 5.8830 0.0000
# 4 0.0000 0.0000 0.0000 8.5259 0.0000 0.6482
# 5 6.3203 4.4902 5.8830 0.0000 28.6371 0.0000
# 6 0.0000 0.0000 0.0000 0.6482 0.0000 22.0888
#
#
#
# Elastic Compliance Matrix: (Units=1/GPa)
#
#
# Indices 1 2 3 4 5 6 
#
# 1 0.010036 0.000021 -0.004447 0.000000 -0.001305 0.000000
# 2 0.000021 0.080341 0.001805 0.000000 -0.012973 0.000000
# 3 -0.004447 0.001805 0.010818 0.000000 -0.001524 0.000000
# 4 0.000000 0.000000 0.000000 0.117553 0.000000 -0.003449
# 5 -0.001305 -0.012973 -0.001524 0.000000 0.037555 0.000000
# 6 0.000000 0.000000 0.000000 -0.003449 0.000000 0.045373
#
#
# Mechanical properties :
#
#
# Convention : Reuss Voigt Hill
#
# Bulk Modulus (GPa) = 10.42170 38.98916 24.70543
# Shear Modulus (GPa) = 14.75356 25.28349 20.01853
#
# Velocity S-wave (km/s) = 2.74457 3.59289 3.19699
# Velocity P-wave (km/s) = 3.91976 6.09249 5.12264
#
# Compressibility (1/GPa) = 0.09595360
#
# Stress axis : x y z
#
# Youngs Moduli (GPa) = 99.64219 12.44698 92.43719
#
# Poissons Ratio (x) = -0.00027 0.41105
# Poissons Ratio (y) = -0.00212 -0.16683
# Poissons Ratio (z) = 0.44309 -0.02246
#
# Static dielectric constant tensor:
#      x y z
#    x 1.671850 0.000000 0.009510 
#    y 0.000000 1.688500 0.000000 
#    z 0.009510 0.000000 1.694940 
# 
# From -- ./inp_files/55284.got.cif
#   From: 2010.05.17/outbox.cif.g08.bks.cpg/sg10_28_cif.got.tgz:55284.got - 2010.06.03 11:33:40.
