data_PCOD9152411
_publ_section_title
;
Structure prediction by ZEFSAII (Michael W. Deem and Ramdas Pophale) SiO2 
 PCOD9152411
Probable space group: P 2/M
;
_chemical_formula_sum "Si O2"
_cell_formula_units_Z 20
_cell_length_a 5.330113
_cell_length_b 10.493296
_cell_length_c 15.874816
_cell_angle_alpha 90.000000
_cell_angle_beta 83.580745
_cell_angle_gamma 90.000000
_cell_volume 882.318971
_symmetry_space_group_name_H-M "P 2/M"
_symmetry_group_IT_number 10
_symmetry_cell_setting 'monoclinic'
loop_
_space_group_symop_operation_xyz
x,y,z
-x,y,-z
-x,-y,-z
x,-y,z
loop_
_atom_site_type_symbol
_atom_site_label
_atom_site_fract_x
_atom_site_fract_y
_atom_site_fract_z
Si Si1 0.892764 0.634339 0.273157
Si Si2 0.505298 0.851107 0.326589
Si Si3 0.408447 0.856481 0.137993
Si Si4 0.063554 0.719311 0.908057
Si Si5 0.778444 0.641450 0.575931
O O1 0.743201 0.500000 0.289636
O O2 0.746943 0.765205 0.295314
O O3 0.979304 0.637441 0.173971
O O4 0.104725 0.630736 0.335481
O O5 0.360881 0.848744 0.241197
O O6 0.386624 0.768449 0.407070
O O7 0.548800 0.000000 0.344894
O O8 0.646139 0.766894 0.106112
O O9 0.151608 0.827232 0.097839
O O10 0.492315 0.000000 0.117485
O O11 0.000000 0.658988 0.000000
O O12 0.669274 0.500000 0.561729
O O13 0.000000 0.660677 0.500000
#
# Coordination Sequence:
#
# PCOD9152411 Si02
#       5
#     4   4   4   4   4
#     4  10  22  41  62  86 123 165 206 258 316 378
#     4  10  21  38  62  90 124 163 205 258 318 381
#     4  10  21  37  59  88 127 171 212 259 317 381
#     4  11  22  37  59  91 124 165 216 262 316 377
#     4  10  21  39  64  90 118 159 209 258 314 381
#
# _framework density 22.667539999999999
#
# number of rings (size 3 to 8) (size 9 to 14) (size 15 to 20)
#    0.000    1.800    2.000    1.800    0.000    5.600 
#    0.000    4.000    0.000    3.600    0.000    0.000 
#    0.000    0.000    0.000    0.000    0.000    0.000 
#
# Total GULP energy -111466.492080 kJ/mol
# GULP energy per Si atom -5573.324604 kJ/mol
# Density = 2.261595 g / cm^3
# Si number density = 22.667540 Si / 1000 Ang^3
#
#
#
# Elastic Constant Matrix: (Units=GPa)
#
#
# Indices 1 2 3 4 5 6 
#
# 1 55.5709 21.9859 38.5610 0.0000 2.9350 0.0000
# 2 21.9859 173.3994 56.2065 0.0000 -14.7936 0.0000
# 3 38.5610 56.2065 133.0825 0.0000 -15.9184 0.0000
# 4 0.0000 0.0000 0.0000 31.1411 0.0000 18.7501
# 5 2.9350 -14.7936 -15.9184 0.0000 37.3403 0.0000
# 6 0.0000 0.0000 0.0000 18.7501 0.0000 36.6024
#
#
#
# Elastic Compliance Matrix: (Units=1/GPa)
#
#
# Indices 1 2 3 4 5 6 
#
# 1 0.023575 -0.001183 -0.006964 0.000000 -0.005291 0.000000
# 2 -0.001183 0.006824 -0.002323 0.000000 0.001806 0.000000
# 3 -0.006964 -0.002323 0.011031 0.000000 0.004330 0.000000
# 4 0.000000 0.000000 0.000000 0.046434 0.000000 -0.023786
# 5 -0.005291 0.001806 0.004330 0.000000 0.029758 0.000000
# 6 0.000000 0.000000 0.000000 -0.023786 0.000000 0.039505
#
#
# Mechanical properties :
#
#
# Convention : Reuss Voigt Hill
#
# Bulk Modulus (GPa) = 48.80601 66.17329 57.48965
# Shear Modulus (GPa) = 27.04199 37.37007 32.20603
#
# Velocity S-wave (km/s) = 3.45771 4.06472 3.77344
# Velocity P-wave (km/s) = 6.12527 7.16140 6.66350
#
# Compressibility (1/GPa) = 0.02048928
#
# Stress axis : x y z
#
# Youngs Moduli (GPa) = 42.41798 146.53668 90.65306
#
# Poissons Ratio (x) = 0.17338 0.63131
# Poissons Ratio (y) = 0.05019 0.21061
# Poissons Ratio (z) = 0.29540 0.34045
#
# Static dielectric constant tensor:
#      x y z
#    x 1.872200 0.000000 -0.006000 
#    y 0.000000 1.881980 0.000000 
#    z -0.006000 0.000000 1.862740 
# 
# From -- ./inp_files/72883.got.cif
#   From: 2010.05.17/outbox.cif.g08.bks.cpg/sg10_37_cif.got.tgz:72883.got - 2010.06.03 11:33:40.
