data_PCOD9152901
_publ_section_title
;
Structure prediction by ZEFSAII (Michael W. Deem and Ramdas Pophale) SiO2 
 PCOD9152901
Probable space group: P 2/M
;
_chemical_formula_sum "Si O2"
_cell_formula_units_Z 28
_cell_length_a 14.187288
_cell_length_b 15.985173
_cell_length_c 8.151601
_cell_angle_alpha 90.000000
_cell_angle_beta 46.920305
_cell_angle_gamma 90.000000
_cell_volume 1350.277422
_symmetry_space_group_name_H-M "P 2/M"
_symmetry_group_IT_number 10
_symmetry_cell_setting 'monoclinic'
loop_
_space_group_symop_operation_xyz
x,y,z
-x,y,-z
-x,-y,-z
x,-y,z
loop_
_atom_site_type_symbol
_atom_site_label
_atom_site_fract_x
_atom_site_fract_y
_atom_site_fract_z
Si Si1 0.982276 0.763562 0.711516
Si Si2 0.619607 0.408958 0.233135
Si Si3 0.475517 0.237684 0.723762
Si Si4 0.092096 0.594592 0.047386
Si Si5 0.746856 0.179674 0.502821
Si Si6 0.863731 0.094275 0.065176
Si Si7 0.364454 0.093448 0.063054
O O1 0.932397 0.670092 0.799820
O O2 0.000000 0.780637 0.500000
O O3 0.120906 0.769677 0.637514
O O4 0.889071 0.833406 0.902221
O O5 0.500000 0.410991 0.500000
O O6 0.623844 0.500000 0.142511
O O7 0.595332 0.325576 0.157708
O O8 0.754540 0.400666 0.170089
O O9 0.500000 0.230719 0.500000
O O10 0.616140 0.232675 0.641291
O O11 0.390768 0.161036 0.891305
O O12 0.066964 0.500000 0.139178
O O13 0.000000 0.606748 0.000000
O O14 0.760194 0.123136 0.324085
O O15 0.735343 0.124421 0.680850
O O16 0.839226 0.000000 0.035083
O O17 0.000000 0.090788 0.000000
O O18 0.336090 0.000000 0.039861
O O19 0.500000 0.090155 0.000000
#
# Coordination Sequence:
#
# PCOD9152901 Si02
#       7
#     4   4   4   4   4   4   4
#     4  11  25  38  61  89 127 164 206 255 317 374
#     4   9  20  37  63  94 125 157 200 253 310 368
#     4  10  22  35  62  91 124 161 207 256 315 375
#     4  10  22  41  68  95 123 162 210 259 311 371
#     4  10  21  39  60  88 121 167 207 261 310 370
#     4   9  19  37  61  88 119 159 209 259 311 372
#     4   9  19  37  59  85 122 165 210 257 310 368
#
# _framework density 20.736478999999999
#
# number of rings (size 3 to 8) (size 9 to 14) (size 15 to 20)
#    0.000    2.286    0.000    1.714   10.000    2.000 
#    0.000    1.429    0.000    3.857    0.000    0.000 
#    0.000    0.000    0.000    0.000    0.000    0.000 
#
# Total GULP energy -156254.547549 kJ/mol
# GULP energy per Si atom -5580.519555 kJ/mol
# Density = 2.068928 g / cm^3
# Si number density = 20.736479 Si / 1000 Ang^3
#
#
#
# Elastic Constant Matrix: (Units=GPa)
#
#
# Indices 1 2 3 4 5 6 
#
# 1 92.0642 42.0768 20.2607 0.0000 -18.9186 0.0000
# 2 42.0768 187.8972 68.2178 0.0000 11.4034 0.0000
# 3 20.2607 68.2178 97.1687 0.0000 4.6330 0.0000
# 4 0.0000 0.0000 0.0000 16.1775 0.0000 1.7551
# 5 -18.9186 11.4034 4.6330 0.0000 40.2284 0.0000
# 6 0.0000 0.0000 0.0000 1.7551 0.0000 -63.6387
#
#
#
# Elastic Compliance Matrix: (Units=1/GPa)
#
#
# Indices 1 2 3 4 5 6 
#
# 1 0.014164 -0.003266 -0.001028 0.000000 0.007706 0.000000
# 2 -0.003266 0.007982 -0.004768 0.000000 -0.003250 0.000000
# 3 -0.001028 -0.004768 0.013888 0.000000 -0.000731 0.000000
# 4 0.000000 0.000000 0.000000 0.061630 0.000000 0.001700
# 5 0.007706 -0.003250 -0.000731 0.000000 0.029487 0.000000
# 6 0.000000 0.000000 0.000000 0.001700 0.000000 -0.015667
#
#
# Mechanical properties :
#
#
# Convention : Reuss Voigt Hill
#
# Bulk Modulus (GPa) = 55.83317 70.91563 63.37440
# Shear Modulus (GPa) = 36.87935 14.99175 25.93555
#
# Velocity S-wave (km/s) = 4.22177 2.69172 3.54039
# Velocity P-wave (km/s) = 7.12377 6.62821 6.88045
#
# Compressibility (1/GPa) = 0.01791050
#
# Stress axis : x y z
#
# Youngs Moduli (GPa) = 70.59906 125.28736 72.00686
#
# Poissons Ratio (x) = 0.40925 0.07399
# Poissons Ratio (y) = 0.23061 0.34329
# Poissons Ratio (z) = 0.07255 0.59731
#
# Static dielectric constant tensor:
#      x y z
#    x 1.772090 0.000000 -0.015860 
#    y 0.000000 1.774680 0.000000 
#    z -0.015860 0.000000 1.732240 
# 
# From -- ./inp_files/29405.got.cif
#   From: 2010.05.17/outbox.cif.g08.bks.cpg/sg10_15_cif.got.tgz:29405.got - 2010.06.03 11:33:40.
