data_PCOD9152038
_publ_section_title
;
Structure prediction by ZEFSAII (Michael W. Deem and Ramdas Pophale) SiO2 
 PCOD9152038
Probable space group: P 2/M
;
_chemical_formula_sum "Si O2"
_cell_formula_units_Z 28
_cell_length_a 14.925500
_cell_length_b 8.428196
_cell_length_c 11.538268
_cell_angle_alpha 90.000000
_cell_angle_beta 111.865232
_cell_angle_gamma 90.000000
_cell_volume 1347.042580
_symmetry_space_group_name_H-M "P 2/M"
_symmetry_group_IT_number 10
_symmetry_cell_setting 'monoclinic'
loop_
_space_group_symop_operation_xyz
x,y,z
-x,y,-z
-x,-y,-z
x,-y,z
loop_
_atom_site_type_symbol
_atom_site_label
_atom_site_fract_x
_atom_site_fract_y
_atom_site_fract_z
Si Si1 0.045782 0.313572 0.400469
Si Si2 0.756426 0.817283 0.425274
Si Si3 0.596480 0.809046 0.900063
Si Si4 0.384754 0.807642 0.819976
Si Si5 0.393635 0.318034 0.487511
Si Si6 0.955580 0.814743 0.856847
Si Si7 0.250295 0.320674 0.201609
O O1 0.026042 0.500000 0.388559
O O2 0.159600 0.281318 0.474231
O O3 0.017159 0.250153 0.258691
O O4 0.000000 0.248471 0.500000
O O5 0.716038 0.752802 0.283890
O O6 0.658368 0.801165 0.451244
O O7 0.788213 0.000000 0.433326
O O8 0.487566 0.752526 0.816035
O O9 0.683733 0.734083 0.872470
O O10 0.598844 0.000000 0.886025
O O11 0.609999 0.773460 0.041947
O O12 0.383887 0.000000 0.807745
O O13 0.500000 0.270925 0.500000
O O14 0.397661 0.500000 0.535935
O O15 0.323979 0.320525 0.343662
O O16 0.840933 0.788569 0.815786
O O17 0.980081 0.000000 0.865406
O O18 0.000000 0.748872 0.000000
O O19 0.213607 0.500000 0.167692
#
# Coordination Sequence:
#
# PCOD9152038 Si02
#       7
#     4   4   4   4   4   4   4
#     4  11  25  45  67  92 125 165 208 260 325 391
#     4  11  21  35  59  88 118 153 202 254 304 363
#     4   9  17  34  57  80 117 162 206 249 296 358
#     4   8  17  33  54  83 117 159 203 251 303 354
#     4  10  21  36  55  83 122 163 198 239 298 363
#     4  11  25  45  69  95 122 158 208 266 324 382
#     4  11  22  36  57  86 122 158 196 244 302 363
#
# _framework density 20.786276000000001
#
# number of rings (size 3 to 8) (size 9 to 14) (size 15 to 20)
#    0.000    1.857    1.429    3.429    0.000    4.286 
#    0.000    7.857    0.000    0.000    0.000    0.000 
#    0.000    0.000    0.000    0.000    0.000    0.000 
#
# Total GULP energy -156123.350805 kJ/mol
# GULP energy per Si atom -5575.833957 kJ/mol
# Density = 2.073897 g / cm^3
# Si number density = 20.786276 Si / 1000 Ang^3
#
#
#
# Elastic Constant Matrix: (Units=GPa)
#
#
# Indices 1 2 3 4 5 6 
#
# 1 63.7173 -1.2661 32.6160 0.0000 -12.3017 0.0000
# 2 -1.2661 19.3963 22.2710 0.0000 -7.3016 0.0000
# 3 32.6160 22.2710 123.1034 0.0000 -2.7149 0.0000
# 4 0.0000 0.0000 0.0000 18.0579 0.0000 3.9507
# 5 -12.3017 -7.3016 -2.7149 0.0000 31.6065 0.0000
# 6 0.0000 0.0000 0.0000 3.9507 0.0000 12.1555
#
#
#
# Elastic Compliance Matrix: (Units=1/GPa)
#
#
# Indices 1 2 3 4 5 6 
#
# 1 0.022677 0.015775 -0.008603 0.000000 0.011731 0.000000
# 2 0.015775 0.082932 -0.018660 0.000000 0.023695 0.000000
# 3 -0.008603 -0.018660 0.013635 0.000000 -0.006488 0.000000
# 4 0.000000 0.000000 0.000000 0.059617 0.000000 -0.019376
# 5 0.011731 0.023695 -0.006488 0.000000 0.041122 0.000000
# 6 0.000000 0.000000 0.000000 -0.019376 0.000000 0.088565
#
#
# Mechanical properties :
#
#
# Convention : Reuss Voigt Hill
#
# Bulk Modulus (GPa) = 10.38790 34.82877 22.60833
# Shear Modulus (GPa) = 13.75087 22.53705 18.14396
#
# Velocity S-wave (km/s) = 2.57482 3.29633 2.95766
# Velocity P-wave (km/s) = 3.72128 5.59283 4.75014
#
# Compressibility (1/GPa) = 0.09626588
#
# Stress axis : x y z
#
# Youngs Moduli (GPa) = 44.09832 12.05813 73.33810
#
# Poissons Ratio (x) = -0.19021 0.63095
# Poissons Ratio (y) = -0.69564 1.36851
# Poissons Ratio (z) = 0.37939 0.22501
#
# Static dielectric constant tensor:
#      x y z
#    x 1.738470 0.000000 -0.017930 
#    y 0.000000 1.751730 0.000000 
#    z -0.017930 0.000000 1.832630 
# 
# From -- ./inp_files/49333.got.cif
#   From: 2010.05.17/outbox.cif.g08.bks.cpg/sg10_25_cif.got.tgz:49333.got - 2010.06.03 11:33:40.
