data_PCOD9152630
_publ_section_title
;
Structure prediction by ZEFSAII (Michael W. Deem and Ramdas Pophale) SiO2 
 PCOD9152630
Probable space group: P 2/M
;
_chemical_formula_sum "Si O2"
_cell_formula_units_Z 32
_cell_length_a 13.468550
_cell_length_b 7.813743
_cell_length_c 15.335728
_cell_angle_alpha 90.000000
_cell_angle_beta 118.750980
_cell_angle_gamma 90.000000
_cell_volume 1414.961255
_symmetry_space_group_name_H-M "P 2/M"
_symmetry_group_IT_number 10
_symmetry_cell_setting 'monoclinic'
loop_
_space_group_symop_operation_xyz
x,y,z
-x,y,-z
-x,-y,-z
x,-y,z
loop_
_atom_site_type_symbol
_atom_site_label
_atom_site_fract_x
_atom_site_fract_y
_atom_site_fract_z
Si Si1 0.375711 0.293361 0.974809
Si Si2 0.407269 0.204604 0.182774
Si Si3 0.653069 0.801221 0.328641
Si Si4 0.854530 0.301262 0.197200
Si Si5 0.997738 0.195983 0.095959
Si Si6 0.099491 0.199897 0.602046
Si Si7 0.377253 0.707170 0.486366
Si Si8 0.763883 0.700341 0.738319
O O1 0.375655 0.500000 0.969033
O O2 0.272519 0.230664 0.871144
O O3 0.500000 0.229825 0.000000
O O4 0.355895 0.244871 0.066881
O O5 0.536762 0.272993 0.240365
O O6 0.333697 0.280153 0.230160
O O7 0.409710 0.000000 0.196405
O O8 0.774859 0.722882 0.357220
O O9 0.640676 0.788468 0.427482
O O10 0.655466 0.000000 0.302058
O O11 0.847570 0.500000 0.217500
O O12 0.921760 0.212274 0.303840
O O13 0.918296 0.285076 0.132555
O O14 0.125221 0.201424 0.185101
O O15 0.957332 0.000000 0.071289
O O16 0.000000 0.272781 0.000000
O O17 0.000000 0.274742 0.500000
O O18 0.108845 0.000000 0.580596
O O19 0.500000 0.752623 0.500000
O O20 0.374110 0.500000 0.494530
O O21 0.285282 0.757392 0.375315
O O22 0.793731 0.500000 0.744124
#
# Coordination Sequence:
#
# PCOD9152630 Si02
#       8
#     4   4   4   4   4   4   4   4
#     4  10  22  40  63  90 121 158 201 249 307 365
#     4  11  22  36  58  90 123 158 200 249 305 367
#     4  10  22  38  59  88 123 162 206 255 308 363
#     4  11  24  42  65  94 126 163 208 259 311 367
#     4  11  25  44  66  92 125 166 208 254 311 372
#     4  10  23  43  64  89 122 165 213 259 310 366
#     4  10  21  38  59  88 123 161 201 247 307 369
#     4  11  23  39  61  89 121 158 202 250 305 367
#
# _framework density 22.615459999999999
#
# number of rings (size 3 to 8) (size 9 to 14) (size 15 to 20)
#    0.000    1.500    1.250    3.000    1.750    6.750 
#    0.000    0.000    0.000    0.000    0.000    0.000 
#    0.000    0.000    0.000    0.000    0.000    0.000 
#
# Total GULP energy -178972.198054 kJ/mol
# GULP energy per Si atom -5592.881189 kJ/mol
# Density = 2.256399 g / cm^3
# Si number density = 22.615460 Si / 1000 Ang^3
#
#
#
# Elastic Constant Matrix: (Units=GPa)
#
#
# Indices 1 2 3 4 5 6 
#
# 1 80.7603 1.4561 20.7472 0.0000 11.3386 0.0000
# 2 1.4561 37.1384 -2.9341 0.0000 4.3242 0.0000
# 3 20.7472 -2.9341 128.9583 0.0000 14.8246 0.0000
# 4 0.0000 0.0000 0.0000 14.8005 0.0000 -5.8028
# 5 11.3386 4.3242 14.8246 0.0000 38.4292 0.0000
# 6 0.0000 0.0000 0.0000 -5.8028 0.0000 18.2280
#
#
#
# Elastic Compliance Matrix: (Units=1/GPa)
#
#
# Indices 1 2 3 4 5 6 
#
# 1 0.013294 -0.000289 -0.001777 0.000000 -0.003204 0.000000
# 2 -0.000289 0.027419 0.001062 0.000000 -0.003410 0.000000
# 3 -0.001777 0.001062 0.008390 0.000000 -0.002832 0.000000
# 4 0.000000 0.000000 0.000000 0.077201 0.000000 0.024577
# 5 -0.003204 -0.003410 -0.002832 0.000000 0.028443 0.000000
# 6 0.000000 0.000000 0.000000 0.024577 0.000000 0.062685
#
#
# Mechanical properties :
#
#
# Convention : Reuss Voigt Hill
#
# Bulk Modulus (GPa) = 21.23317 31.71058 26.47188
# Shear Modulus (GPa) = 21.26420 29.46406 25.36413
#
# Velocity S-wave (km/s) = 3.06968 3.61339 3.35257
# Velocity P-wave (km/s) = 4.68754 5.60900 5.16884
#
# Compressibility (1/GPa) = 0.04709612
#
# Stress axis : x y z
#
# Youngs Moduli (GPa) = 75.22234 36.47160 119.18909
#
# Poissons Ratio (x) = 0.01052 0.21179
# Poissons Ratio (y) = 0.02170 -0.12661
# Poissons Ratio (z) = 0.13367 -0.03874
#
# Static dielectric constant tensor:
#      x y z
#    x 1.840830 0.000000 0.022000 
#    y 0.000000 1.835230 0.000000 
#    z 0.022000 0.000000 1.823300 
# 
# From -- ./inp_files/63865.got.cif
#   From: 2010.05.17/outbox.cif.g08.bks.cpg/sg10_32_cif.got.tgz:63865.got - 2010.06.03 11:33:40.
