data_PCOD9152745
_publ_section_title
;
Structure prediction by ZEFSAII (Michael W. Deem and Ramdas Pophale) SiO2 
 PCOD9152745
Probable space group: P 2/M
;
_chemical_formula_sum "Si O2"
_cell_formula_units_Z 28
_cell_length_a 28.487605
_cell_length_b 7.824225
_cell_length_c 9.442418
_cell_angle_alpha 90.000000
_cell_angle_beta 137.766109
_cell_angle_gamma 90.000000
_cell_volume 1414.660715
_symmetry_space_group_name_H-M "P 2/M"
_symmetry_group_IT_number 10
_symmetry_cell_setting 'monoclinic'
loop_
_space_group_symop_operation_xyz
x,y,z
-x,y,-z
-x,-y,-z
x,-y,z
loop_
_atom_site_type_symbol
_atom_site_label
_atom_site_fract_x
_atom_site_fract_y
_atom_site_fract_z
Si Si1 0.439027 0.500000 0.476616
Si Si2 0.068752 0.207267 0.567758
Si Si3 0.207953 0.704200 0.379500
Si Si4 0.346141 0.804285 0.855173
Si Si5 0.453514 0.500000 0.033504
Si Si6 0.660023 0.808129 0.824455
Si Si7 0.068102 0.793587 0.238826
Si Si8 0.793483 0.702298 0.951470
O O1 0.500000 0.500000 0.500000
O O2 0.484459 0.500000 0.716330
O O3 0.391562 0.665983 0.350616
O O4 0.068620 0.265863 0.403621
O O5 0.000000 0.261619 0.500000
O O6 0.069980 0.000000 0.568636
O O7 0.135604 0.268163 0.804278
O O8 0.217023 0.500000 0.400020
O O9 0.275917 0.781811 0.606787
O O10 0.138401 0.745858 0.312668
O O11 0.201056 0.760321 0.199979
O O12 0.371156 0.000000 0.896100
O O13 0.403406 0.664825 0.938349
O O14 0.328878 0.775657 0.983117
O O15 0.500000 0.500000 0.000000
O O16 0.731753 0.793244 0.898721
O O17 0.631579 0.000000 0.746273
O O18 0.064689 0.000000 0.235333
O O19 0.000000 0.732449 0.000000
O O20 0.777814 0.500000 0.915121
#
# Coordination Sequence:
#
# PCOD9152745 Si02
#       8
#     2   4   4   4   2   4   4   4
#     4  12  24  46  72  98 133 172 207 264 324 380
#     4  10  21  38  61  90 125 165 215 271 324 381
#     4  11  24  40  62  90 128 171 216 266 321 384
#     4  11  24  44  68  97 130 172 217 262 322 385
#     4  12  28  46  70  98 139 168 209 266 320 386
#     4  11  24  42  69  99 129 169 219 264 319 386
#     4  10  21  38  61  90 125 167 214 267 326 385
#     4  11  24  40  62  92 127 169 217 268 321 379
#
# _framework density 19.792729999999999
#
# number of rings (size 3 to 8) (size 9 to 14) (size 15 to 20)
#    0.000    1.143    2.857    2.571    2.000    9.143 
#    0.000    0.000    0.000    0.000    0.000    0.000 
#    0.000    0.000    0.000    0.000    0.000    0.000 
#
# Total GULP energy -156515.770186 kJ/mol
# GULP energy per Si atom -5589.848935 kJ/mol
# Density = 1.974768 g / cm^3
# Si number density = 19.792730 Si / 1000 Ang^3
#
#
#
# Elastic Constant Matrix: (Units=GPa)
#
#
# Indices 1 2 3 4 5 6 
#
# 1 183.7243 58.5299 91.4031 0.0000 -16.6444 0.0000
# 2 58.5299 93.2842 59.8633 0.0000 2.5443 0.0000
# 3 91.4031 59.8633 186.7380 0.0000 -10.7172 0.0000
# 4 0.0000 0.0000 0.0000 69.6654 0.0000 25.4357
# 5 -16.6444 2.5443 -10.7172 0.0000 35.9022 0.0000
# 6 0.0000 0.0000 0.0000 25.4357 0.0000 28.7671
#
#
#
# Elastic Compliance Matrix: (Units=1/GPa)
#
#
# Indices 1 2 3 4 5 6 
#
# 1 0.008196 -0.003494 -0.002705 0.000000 0.003240 0.000000
# 2 -0.003494 0.015174 -0.003366 0.000000 -0.003700 0.000000
# 3 -0.002705 -0.003366 0.007834 0.000000 0.001323 0.000000
# 4 0.000000 0.000000 0.000000 0.021197 0.000000 -0.018743
# 5 0.003240 -0.003700 0.001323 0.000000 0.030013 0.000000
# 6 0.000000 0.000000 0.000000 -0.018743 0.000000 0.051334
#
#
# Mechanical properties :
#
#
# Convention : Reuss Voigt Hill
#
# Bulk Modulus (GPa) = 82.83963 98.14880 90.49421
# Shear Modulus (GPa) = 31.86675 43.79694 37.83185
#
# Velocity S-wave (km/s) = 4.01686 4.70912 4.37670
# Velocity P-wave (km/s) = 7.96605 8.90302 8.44754
#
# Compressibility (1/GPa) = 0.01207152
#
# Stress axis : x y z
#
# Youngs Moduli (GPa) = 122.01676 65.90402 127.64324
#
# Poissons Ratio (x) = 0.23030 0.34532
# Poissons Ratio (y) = 0.42638 0.42967
# Poissons Ratio (z) = 0.33010 0.22184
#
# Static dielectric constant tensor:
#      x y z
#    x 1.629920 0.000000 -0.026180 
#    y 0.000000 1.712720 0.000000 
#    z -0.026180 0.000000 1.644510 
# 
# From -- ./inp_files/37368.got.cif
#   From: 2010.05.17/outbox.cif.g08.bks.cpg/sg10_19_cif.got.tgz:37368.got - 2010.06.03 11:33:40.
