data_PCOD9152231
_publ_section_title
;
Structure prediction by ZEFSAII (Michael W. Deem and Ramdas Pophale) SiO2 
 PCOD9152231
Probable space group: P 2/M
;
_chemical_formula_sum "Si O2"
_cell_formula_units_Z 20
_cell_length_a 9.055893
_cell_length_b 13.956985
_cell_length_c 15.789753
_cell_angle_alpha 90.000000
_cell_angle_beta 151.613945
_cell_angle_gamma 90.000000
_cell_volume 948.782433
_symmetry_space_group_name_H-M "P 2/M"
_symmetry_group_IT_number 10
_symmetry_cell_setting 'monoclinic'
loop_
_space_group_symop_operation_xyz
x,y,z
-x,y,-z
-x,-y,-z
x,-y,z
loop_
_atom_site_type_symbol
_atom_site_label
_atom_site_fract_x
_atom_site_fract_y
_atom_site_fract_z
Si Si1 0.914368 0.654611 0.045020
Si Si2 0.278619 0.000000 0.970848
Si Si3 0.166980 0.608362 0.347913
Si Si4 0.172577 0.137392 0.174434
Si Si5 0.775947 0.384320 0.306880
Si Si6 0.364812 0.000000 0.667709
O O1 0.984643 0.603476 0.168172
O O2 0.127478 0.749472 0.157292
O O3 0.547559 0.671355 0.852270
O O4 0.000000 0.604917 0.000000
O O5 0.035905 0.088927 0.857451
O O6 0.500000 0.000000 0.000000
O O7 0.486646 0.000000 0.162052
O O8 0.500000 0.655456 0.500000
O O9 0.234951 0.500000 0.413754
O O10 0.957300 0.650588 0.315372
O O11 0.506183 0.090126 0.323609
O O12 0.000000 0.110694 0.000000
O O13 0.705455 0.500000 0.264996
O O14 0.000000 0.371712 0.500000
O O15 0.000000 0.000000 0.500000
#
# Coordination Sequence:
#
# PCOD9152231 Si02
#       6
#     4   2   4   4   4   2
#     4  11  21  35  55  81 113 150 185 232 288 335
#     4   9  17  33  56  80 106 141 177 215 266 330
#     4  10  21  37  55  78 111 151 194 237 280 331
#     4   8  18  36  54  78 113 145 178 218 271 338
#     4  10  21  37  57  81 109 147 197 243 284 335
#     4   9  17  37  64  82 106 145 183 221 270 330
#
# _framework density 21.079647999999999
#
# number of rings (size 3 to 8) (size 9 to 14) (size 15 to 20)
#    0.000    2.400    0.000    3.600    0.000    6.400 
#    0.000   19.000    0.000    0.000    0.000    0.000 
#    0.000    0.000    0.000    0.000    0.000    0.000 
#
# Total GULP energy -111381.839897 kJ/mol
# GULP energy per Si atom -5569.091995 kJ/mol
# Density = 2.103167 g / cm^3
# Si number density = 21.079648 Si / 1000 Ang^3
#
#
#
# Elastic Constant Matrix: (Units=GPa)
#
#
# Indices 1 2 3 4 5 6 
#
# 1 205.9059 23.1225 57.5879 0.0000 19.4285 0.0000
# 2 23.1225 75.9439 7.5693 0.0000 9.8240 0.0000
# 3 57.5879 7.5693 103.3211 0.0000 18.3792 0.0000
# 4 0.0000 0.0000 0.0000 9.7921 0.0000 1.5701
# 5 19.4285 9.8240 18.3792 0.0000 48.1023 0.0000
# 6 0.0000 0.0000 0.0000 1.5701 0.0000 14.7529
#
#
#
# Elastic Compliance Matrix: (Units=1/GPa)
#
#
# Indices 1 2 3 4 5 6 
#
# 1 0.005955 -0.001385 -0.003047 0.000000 -0.000958 0.000000
# 2 -0.001385 0.013875 0.000172 0.000000 -0.002340 0.000000
# 3 -0.003047 0.000172 0.011965 0.000000 -0.003376 0.000000
# 4 0.000000 0.000000 0.000000 0.103896 0.000000 -0.011058
# 5 -0.000958 -0.002340 -0.003376 0.000000 0.022944 0.000000
# 6 0.000000 0.000000 0.000000 -0.011058 0.000000 0.068960
#
#
# Mechanical properties :
#
#
# Convention : Reuss Voigt Hill
#
# Bulk Modulus (GPa) = 42.96751 62.41449 52.69100
# Shear Modulus (GPa) = 20.50242 34.32219 27.41231
#
# Velocity S-wave (km/s) = 3.12206 4.03949 3.61004
# Velocity P-wave (km/s) = 5.78135 7.17146 6.51360
#
# Compressibility (1/GPa) = 0.02327340
#
# Stress axis : x y z
#
# Youngs Moduli (GPa) = 167.93269 72.07227 83.57803
#
# Poissons Ratio (x) = 0.09985 0.25467
# Poissons Ratio (y) = 0.23266 -0.01437
# Poissons Ratio (z) = 0.51171 -0.01239
#
# Static dielectric constant tensor:
#      x y z
#    x 1.799710 0.000000 0.029770 
#    y 0.000000 1.837560 0.000000 
#    z 0.029770 0.000000 1.765710 
# 
# From -- ./inp_files/62239.got.cif
#   From: 2010.05.17/outbox.cif.g08.bks.cpg/sg10_32_cif.got.tgz:62239.got - 2010.06.03 11:33:40.
