data_PCOD9152213
_publ_section_title
;
Structure prediction by ZEFSAII (Michael W. Deem and Ramdas Pophale) SiO2 
 PCOD9152213
Probable space group: P 2/M
;
_chemical_formula_sum "Si O2"
_cell_formula_units_Z 32
_cell_length_a 13.056663
_cell_length_b 18.426183
_cell_length_c 16.765032
_cell_angle_alpha 90.000000
_cell_angle_beta 154.066405
_cell_angle_gamma 90.000000
_cell_volume 1763.926158
_symmetry_space_group_name_H-M "P 2/M"
_symmetry_group_IT_number 10
_symmetry_cell_setting 'monoclinic'
loop_
_space_group_symop_operation_xyz
x,y,z
-x,y,-z
-x,-y,-z
x,-y,z
loop_
_atom_site_type_symbol
_atom_site_label
_atom_site_fract_x
_atom_site_fract_y
_atom_site_fract_z
Si Si1 0.140008 0.200781 0.523377
Si Si2 0.308724 0.584811 0.437801
Si Si3 0.486006 0.314747 0.286065
Si Si4 0.721238 0.078913 0.796437
Si Si5 0.520137 0.914802 0.833546
Si Si6 0.738659 0.814397 0.116938
Si Si7 0.896137 0.304944 0.107094
Si Si8 0.705741 0.226836 0.703897
O O1 0.315120 0.259161 0.606151
O O2 0.288306 0.134552 0.664867
O O3 0.000000 0.234463 0.500000
O O4 0.957719 0.173042 0.329061
O O5 0.500000 0.590688 0.500000
O O6 0.254304 0.500000 0.408647
O O7 0.410111 0.619117 0.590333
O O8 0.080947 0.632508 0.257255
O O9 0.327743 0.271449 0.238942
O O10 0.316455 0.334137 0.094794
O O11 0.624179 0.090514 0.817293
O O12 0.664606 0.143888 0.698185
O O13 0.639200 0.000000 0.710614
O O14 0.000000 0.078178 0.000000
O O15 0.481502 0.000000 0.824695
O O16 0.689722 0.876905 0.017012
O O17 0.793663 0.739527 0.109571
O O18 0.500000 0.808581 0.000000
O O19 0.048638 0.245578 0.164380
O O20 0.500000 0.249182 0.500000
#
# Coordination Sequence:
#
# PCOD9152213 Si02
#       8
#     4   4   4   4   4   4   4   4
#     4  12  23  41  63  91 120 159 213 261 304 361
#     4  11  24  41  62  99 135 158 195 245 302 367
#     4  12  21  39  64  92 121 162 202 246 299 361
#     4  10  21  37  54  78 118 157 197 255 309 355
#     4  11  24  41  59  88 123 160 208 263 314 361
#     4  12  23  41  64  90 118 161 213 258 307 362
#     4  12  22  38  66  93 120 162 204 248 298 364
#     4  12  20  34  59  87 117 154 206 249 292 362
#
# _framework density 18.141348000000001
#
# number of rings (size 3 to 8) (size 9 to 14) (size 15 to 20)
#    0.000    0.500    7.500    1.875    0.000    1.750 
#    0.000    1.250    0.000    0.750    0.000    0.000 
#    0.000    0.000    0.000    0.000    0.000    0.000 
#
# Total GULP energy -178725.524921 kJ/mol
# GULP energy per Si atom -5585.172654 kJ/mol
# Density = 1.810006 g / cm^3
# Si number density = 18.141348 Si / 1000 Ang^3
#
#
#
# Elastic Constant Matrix: (Units=GPa)
#
#
# Indices 1 2 3 4 5 6 
#
# 1 58.6533 32.3480 9.2532 0.0000 7.7150 0.0000
# 2 32.3480 130.5978 37.5355 0.0000 -11.3781 0.0000
# 3 9.2532 37.5355 122.4295 0.0000 -20.8848 0.0000
# 4 0.0000 0.0000 0.0000 14.0603 0.0000 -6.8438
# 5 7.7150 -11.3781 -20.8848 0.0000 30.2023 0.0000
# 6 0.0000 0.0000 0.0000 -6.8438 0.0000 17.8175
#
#
#
# Elastic Compliance Matrix: (Units=1/GPa)
#
#
# Indices 1 2 3 4 5 6 
#
# 1 0.021529 -0.005693 -0.001344 0.000000 -0.008574 0.000000
# 2 -0.005693 0.009969 -0.001970 0.000000 0.003848 0.000000
# 3 -0.001344 -0.001970 0.009983 0.000000 0.006505 0.000000
# 4 0.000000 0.000000 0.000000 0.087477 0.000000 0.033601
# 5 -0.008574 0.003848 0.006505 0.000000 0.041248 0.000000
# 6 0.000000 0.000000 0.000000 0.033601 0.000000 0.069031
#
#
# Mechanical properties :
#
#
# Convention : Reuss Voigt Hill
#
# Bulk Modulus (GPa) = 42.61385 52.21710 47.41547
# Shear Modulus (GPa) = 18.86276 27.91895 23.39085
#
# Velocity S-wave (km/s) = 3.22804 3.92722 3.59467
# Velocity P-wave (km/s) = 6.11838 7.02923 6.58956
#
# Compressibility (1/GPa) = 0.02346655
#
# Stress axis : x y z
#
# Youngs Moduli (GPa) = 46.44888 100.31534 100.17023
#
# Poissons Ratio (x) = 0.57111 0.13466
# Poissons Ratio (y) = 0.26444 0.19729
# Poissons Ratio (z) = 0.06244 0.19758
#
# Static dielectric constant tensor:
#      x y z
#    x 1.648790 0.000000 -0.000500 
#    y 0.000000 1.624050 0.000000 
#    z -0.000500 0.000000 1.628310 
# 
# From -- ./inp_files/52015.got.cif
#   From: 2010.05.17/outbox.cif.g08.bks.cpg/sg10_27_cif.got.tgz:52015.got - 2010.06.03 11:33:40.
